MODEL 1
REMARK VINA RESULT:     -11.7      0.000      0.000
REMARK SMILES CC(C)[NH2+][C@]1(C(=O)NCCCNC(=O)c2ccc(-c3c4nc(c(-c5c(F)cc(S(=O)(=O)[O-])cc5F)c5ccc([nH]5)c(-c5c(F)cc(S(=O)(=O)[O-])cc5F)c5nc(c(-c6c(F)cc(S(=O)(=O)[O-])cc6F)c6ccc3[nH]6)C=C5)C=C4)cc2)CCC[C@H]([N@H+](C)C2CCCCC2)C1
REMARK SMILES IDX 10 1 9 2 8 3 6 4 7 5 5 7 81 8 93 9 82 10 84 11 83 12 4 13
REMARK SMILES IDX 2 16 1 17 3 18 85 19 86 20 87 22 88 23 92 24 89 25 91 26
REMARK SMILES IDX 90 27 11 28 12 29 13 30 14 32 15 33 16 34 80 35 17 36 79 37
REMARK SMILES IDX 18 38 19 39 20 40 73 41 21 42 78 43 72 44 74 45 22 46 77 47
REMARK SMILES IDX 71 48 70 49 23 51 57 52 36 53 56 54 37 55 40 56 55 57 75 58
REMARK SMILES IDX 38 59 39 60 54 62 76 63 41 64 24 65 25 66 34 67 26 68 27 69
REMARK SMILES IDX 33 70 35 71 28 72 29 73 30 74 31 75 32 76 58 77 59 78 68 79
REMARK SMILES IDX 60 80 61 81 67 82 69 83 62 84 63 85 64 86 65 87 66 88 42 89
REMARK SMILES IDX 43 90 52 91 44 92 45 93 51 94 53 95 46 96 47 97 48 98 49 99
REMARK SMILES IDX 50 100
REMARK H PARENT 8 6 4 14 4 15 85 21 12 31 74 50 40 61
REMARK Flexibility Score: inf
ROOT
ATOM      1  C   UNL A   1      33.948  28.484  25.864  1.00  0.00     0.042 C 
ENDROOT
BRANCH   1   2
ATOM      2  C   UNL A   1      33.075  29.236  24.870  1.00  0.00     0.118 C 
BRANCH   2   3
ATOM      3  N   UNL A   1      33.592  29.106  23.517  1.00  0.00    -0.351 N 
ATOM      4  C   UNL A   1      33.664  28.049  22.665  1.00  0.00     0.281 C 
ATOM      5  O   UNL A   1      34.241  28.265  21.590  1.00  0.00    -0.268 OA
ATOM      6  H   UNL A   1      33.959  29.941  23.148  1.00  0.00     0.163 HD
BRANCH   4   7
ATOM      7  C   UNL A   1      33.072  26.621  23.002  1.00  0.00     0.181 C 
ATOM      8  C   UNL A   1      32.834  25.885  21.672  1.00  0.00     0.079 C 
ATOM      9  C   UNL A   1      34.048  25.926  23.978  1.00  0.00     0.144 C 
ATOM     10  C   UNL A   1      32.754  24.369  21.775  1.00  0.00     0.013 C 
ATOM     11  C   UNL A   1      34.368  24.420  23.832  1.00  0.00     0.190 C 
ATOM     12  C   UNL A   1      33.953  23.767  22.494  1.00  0.00     0.065 C 
BRANCH   7  13
ATOM     13  N   UNL A   1      31.829  26.924  23.775  1.00  0.00    -0.331 N 
ATOM     14  H   UNL A   1      31.788  26.243  24.533  1.00  0.00     0.347 HD
ATOM     15  H   UNL A   1      31.951  27.910  24.008  1.00  0.00     0.347 HD
BRANCH  13  16
ATOM     16  C   UNL A   1      30.525  26.913  23.147  1.00  0.00     0.176 C 
ATOM     17  C   UNL A   1      29.598  26.041  23.999  1.00  0.00     0.075 C 
ATOM     18  C   UNL A   1      29.922  28.309  23.016  1.00  0.00     0.075 C 
ENDBRANCH  13  16
ENDBRANCH   7  13
BRANCH  11  19
ATOM     19  N   UNL A   1      34.107  23.594  25.046  1.00  0.00    -0.332 N 
ATOM     20  C   UNL A   1      33.403  24.281  26.116  1.00  0.00     0.333 C 
ATOM     21  H   UNL A   1      33.423  22.900  24.747  1.00  0.00     0.348 HD
BRANCH  19  22
ATOM     22  C   UNL A   1      35.288  22.793  25.477  1.00  0.00     0.184 C 
ATOM     23  C   UNL A   1      35.580  21.498  24.681  1.00  0.00     0.065 C 
ATOM     24  C   UNL A   1      36.531  23.702  25.478  1.00  0.00     0.065 C 
ATOM     25  C   UNL A   1      36.815  20.771  25.207  1.00  0.00     0.006 C 
ATOM     26  C   UNL A   1      37.767  22.961  25.995  1.00  0.00     0.006 C 
ATOM     27  C   UNL A   1      38.034  21.685  25.206  1.00  0.00     0.000 C 
ENDBRANCH  19  22
ENDBRANCH  11  19
ENDBRANCH   4   7
ENDBRANCH   2   3
ENDBRANCH   1   2
BRANCH   1  28
ATOM     28  C   UNL A   1      33.498  28.657  27.309  1.00  0.00     0.118 C 
BRANCH  28  29
ATOM     29  N   UNL A   1      33.491  30.053  27.733  1.00  0.00    -0.352 N 
ATOM     30  C   UNL A   1      34.470  30.788  28.358  1.00  0.00     0.251 C 
ATOM     31  H   UNL A   1      32.659  30.543  27.543  1.00  0.00     0.163 HD
ATOM     32  O   UNL A   1      34.204  31.901  28.807  1.00  0.00    -0.269 OA
BRANCH  30  33
ATOM     33  C   UNL A   1      35.827  30.225  28.513  1.00  0.00     0.039 A 
ATOM     34  C   UNL A   1      36.724  30.294  27.444  1.00  0.00     0.014 A 
ATOM     35  C   UNL A   1      36.223  29.651  29.722  1.00  0.00     0.014 A 
ATOM     36  C   UNL A   1      38.042  29.867  27.621  1.00  0.00     0.010 A 
ATOM     37  C   UNL A   1      37.559  29.333  29.929  1.00  0.00     0.010 A 
ATOM     38  C   UNL A   1      38.485  29.430  28.880  1.00  0.00    -0.014 A 
BRANCH  38  39
ATOM     39  C   UNL A   1      39.900  29.048  29.125  1.00  0.00     0.031 A 
ATOM     40  C   UNL A   1      40.864  30.069  29.673  1.00  0.00     0.074 A 
ATOM     41  C   UNL A   1      40.336  27.817  28.785  1.00  0.00     0.049 A 
ATOM     42  N   UNL A   1      42.159  29.979  29.838  1.00  0.00    -0.248 NA
ATOM     43  C   UNL A   1      40.304  31.379  30.051  1.00  0.00     0.031 C 
ATOM     44  C   UNL A   1      39.515  26.757  28.193  1.00  0.00     0.029 A 
ATOM     45  N   UNL A   1      41.585  27.252  28.874  1.00  0.00    -0.354 N 
ATOM     46  C   UNL A   1      42.565  31.218  30.320  1.00  0.00     0.074 A 
ATOM     47  C   UNL A   1      41.394  32.065  30.357  1.00  0.00     0.031 C 
ATOM     48  C   UNL A   1      40.275  25.668  27.993  1.00  0.00     0.029 A 
ATOM     49  C   UNL A   1      41.645  25.962  28.399  1.00  0.00     0.049 A 
ATOM     50  H   UNL A   1      42.364  27.726  29.243  1.00  0.00     0.167 HD
ATOM     51  C   UNL A   1      43.795  31.607  30.729  1.00  0.00     0.037 A 
ATOM     52  C   UNL A   1      42.689  25.116  28.291  1.00  0.00     0.037 A 
ATOM     53  C   UNL A   1      44.949  30.745  30.731  1.00  0.00     0.049 A 
ATOM     54  C   UNL A   1      44.046  25.571  28.760  1.00  0.00     0.074 A 
ATOM     55  C   UNL A   1      46.231  31.028  31.169  1.00  0.00     0.029 A 
ATOM     56  N   UNL A   1      44.956  29.433  30.287  1.00  0.00    -0.354 N 
ATOM     57  N   UNL A   1      44.400  26.732  29.260  1.00  0.00    -0.248 NA
ATOM     58  C   UNL A   1      45.146  24.602  28.658  1.00  0.00     0.031 C 
ATOM     59  C   UNL A   1      47.022  29.896  30.957  1.00  0.00     0.029 A 
ATOM     60  C   UNL A   1      46.223  28.893  30.432  1.00  0.00     0.049 A 
ATOM     61  H   UNL A   1      44.178  28.955  29.921  1.00  0.00     0.167 HD
ATOM     62  C   UNL A   1      45.753  26.618  29.563  1.00  0.00     0.074 A 
ATOM     63  C   UNL A   1      46.150  25.273  29.203  1.00  0.00     0.031 C 
ATOM     64  C   UNL A   1      46.592  27.543  30.092  1.00  0.00     0.037 A 
BRANCH  51  65
ATOM     65  C   UNL A   1      43.955  33.012  31.239  1.00  0.00     0.058 A 
ATOM     66  C   UNL A   1      44.252  34.076  30.371  1.00  0.00     0.135 A 
ATOM     67  C   UNL A   1      43.751  33.311  32.595  1.00  0.00     0.135 A 
ATOM     68  F   UNL A   1      44.477  33.843  29.068  1.00  0.00    -0.206 F 
ATOM     69  C   UNL A   1      44.358  35.383  30.833  1.00  0.00     0.059 A 
ATOM     70  C   UNL A   1      43.824  34.617  33.074  1.00  0.00     0.059 A 
ATOM     71  F   UNL A   1      43.468  32.332  33.469  1.00  0.00    -0.206 F 
ATOM     72  C   UNL A   1      44.136  35.644  32.185  1.00  0.00     0.060 A 
BRANCH  72  73
ATOM     73  S   UNL A   1      44.241  37.354  32.757  1.00  0.00     0.124 S 
ATOM     74  O   UNL A   1      45.569  37.375  33.366  1.00  0.00    -0.237 OA
ATOM     75  O   UNL A   1      44.101  38.106  31.515  1.00  0.00    -0.237 OA
ATOM     76  O   UNL A   1      43.123  37.471  33.688  1.00  0.00    -0.744 OA
ENDBRANCH  72  73
ENDBRANCH  51  65
BRANCH  52  77
ATOM     77  C   UNL A   1      42.501  23.753  27.724  1.00  0.00     0.058 A 
ATOM     78  C   UNL A   1      42.339  22.638  28.561  1.00  0.00     0.135 A 
ATOM     79  C   UNL A   1      42.506  23.531  26.338  1.00  0.00     0.135 A 
ATOM     80  F   UNL A   1      42.330  22.794  29.894  1.00  0.00    -0.206 F 
ATOM     81  C   UNL A   1      42.228  21.349  28.047  1.00  0.00     0.059 A 
ATOM     82  C   UNL A   1      42.367  22.256  25.800  1.00  0.00     0.059 A 
ATOM     83  F   UNL A   1      42.635  24.565  25.493  1.00  0.00    -0.206 F 
ATOM     84  C   UNL A   1      42.250  21.167  26.664  1.00  0.00     0.060 A 
BRANCH  84  85
ATOM     85  S   UNL A   1      42.100  19.493  26.005  1.00  0.00     0.124 S 
ATOM     86  O   UNL A   1      40.662  19.394  25.785  1.00  0.00    -0.237 OA
ATOM     87  O   UNL A   1      42.927  19.561  24.804  1.00  0.00    -0.237 OA
ATOM     88  O   UNL A   1      42.635  18.661  27.078  1.00  0.00    -0.744 OA
ENDBRANCH  84  85
ENDBRANCH  52  77
BRANCH  64  89
ATOM     89  C   UNL A   1      48.009  27.121  30.364  1.00  0.00     0.058 A 
ATOM     90  C   UNL A   1      49.015  27.239  29.394  1.00  0.00     0.135 A 
ATOM     91  C   UNL A   1      48.373  26.650  31.635  1.00  0.00     0.135 A 
ATOM     92  F   UNL A   1      48.717  27.679  28.161  1.00  0.00    -0.206 F 
ATOM     93  C   UNL A   1      50.331  26.883  29.668  1.00  0.00     0.059 A 
ATOM     94  C   UNL A   1      49.689  26.317  31.942  1.00  0.00     0.059 A 
ATOM     95  F   UNL A   1      47.450  26.530  32.604  1.00  0.00    -0.206 F 
ATOM     96  C   UNL A   1      50.659  26.426  30.946  1.00  0.00     0.060 A 
BRANCH  96  97
ATOM     97  S   UNL A   1      52.377  26.006  31.300  1.00  0.00     0.124 S 
ATOM     98  O   UNL A   1      52.737  27.030  32.275  1.00  0.00    -0.237 OA
ATOM     99  O   UNL A   1      52.266  24.647  31.821  1.00  0.00    -0.237 OA
ATOM    100  O   UNL A   1      53.030  26.120  29.999  1.00  0.00    -0.744 OA
ENDBRANCH  96  97
ENDBRANCH  64  89
ENDBRANCH  38  39
ENDBRANCH  30  33
ENDBRANCH  28  29
ENDBRANCH   1  28
TORSDOF 17
ENDMDL
MODEL 2
REMARK VINA RESULT:     -11.4      2.527      3.307
REMARK SMILES CC(C)[NH2+][C@]1(C(=O)NCCCNC(=O)c2ccc(-c3c4nc(c(-c5c(F)cc(S(=O)(=O)[O-])cc5F)c5ccc([nH]5)c(-c5c(F)cc(S(=O)(=O)[O-])cc5F)c5nc(c(-c6c(F)cc(S(=O)(=O)[O-])cc6F)c6ccc3[nH]6)C=C5)C=C4)cc2)CCC[C@H]([N@H+](C)C2CCCCC2)C1
REMARK SMILES IDX 10 1 9 2 8 3 6 4 7 5 5 7 81 8 93 9 82 10 84 11 83 12 4 13
REMARK SMILES IDX 2 16 1 17 3 18 85 19 86 20 87 22 88 23 92 24 89 25 91 26
REMARK SMILES IDX 90 27 11 28 12 29 13 30 14 32 15 33 16 34 80 35 17 36 79 37
REMARK SMILES IDX 18 38 19 39 20 40 73 41 21 42 78 43 72 44 74 45 22 46 77 47
REMARK SMILES IDX 71 48 70 49 23 51 57 52 36 53 56 54 37 55 40 56 55 57 75 58
REMARK SMILES IDX 38 59 39 60 54 62 76 63 41 64 24 65 25 66 34 67 26 68 27 69
REMARK SMILES IDX 33 70 35 71 28 72 29 73 30 74 31 75 32 76 58 77 59 78 68 79
REMARK SMILES IDX 60 80 61 81 67 82 69 83 62 84 63 85 64 86 65 87 66 88 42 89
REMARK SMILES IDX 43 90 52 91 44 92 45 93 51 94 53 95 46 96 47 97 48 98 49 99
REMARK SMILES IDX 50 100
REMARK H PARENT 8 6 4 14 4 15 85 21 12 31 74 50 40 61
REMARK Flexibility Score: inf
ROOT
ATOM      1  C   UNL A   1      33.835  30.059  27.210  1.00  0.00     0.042 C 
ENDROOT
BRANCH   1   2
ATOM      2  C   UNL A   1      33.592  28.855  26.311  1.00  0.00     0.118 C 
BRANCH   2   3
ATOM      3  N   UNL A   1      33.824  29.191  24.915  1.00  0.00    -0.351 N 
ATOM      4  C   UNL A   1      33.676  28.477  23.768  1.00  0.00     0.281 C 
ATOM      5  O   UNL A   1      34.039  29.048  22.729  1.00  0.00    -0.268 OA
ATOM      6  H   UNL A   1      34.150  30.109  24.774  1.00  0.00     0.163 HD
BRANCH   4   7
ATOM      7  C   UNL A   1      33.096  27.005  23.731  1.00  0.00     0.181 C 
ATOM      8  C   UNL A   1      33.032  26.562  22.259  1.00  0.00     0.079 C 
ATOM      9  C   UNL A   1      33.979  26.128  24.647  1.00  0.00     0.144 C 
ATOM     10  C   UNL A   1      32.988  25.058  22.035  1.00  0.00     0.013 C 
ATOM     11  C   UNL A   1      34.360  24.689  24.231  1.00  0.00     0.190 C 
ATOM     12  C   UNL A   1      34.118  24.328  22.748  1.00  0.00     0.065 C 
BRANCH   7  13
ATOM     13  N   UNL A   1      31.765  27.130  24.400  1.00  0.00    -0.331 N 
ATOM     14  H   UNL A   1      31.610  26.253  24.898  1.00  0.00     0.347 HD
ATOM     15  H   UNL A   1      31.873  27.988  24.941  1.00  0.00     0.347 HD
BRANCH  13  16
ATOM     16  C   UNL A   1      30.559  27.389  23.644  1.00  0.00     0.176 C 
ATOM     17  C   UNL A   1      29.444  26.507  24.217  1.00  0.00     0.075 C 
ATOM     18  C   UNL A   1      30.126  28.851  23.708  1.00  0.00     0.075 C 
ENDBRANCH  13  16
ENDBRANCH   7  13
BRANCH  11  19
ATOM     19  N   UNL A   1      33.992  23.625  25.209  1.00  0.00    -0.332 N 
ATOM     20  C   UNL A   1      33.244  24.088  26.366  1.00  0.00     0.333 C 
ATOM     21  H   UNL A   1      33.304  23.050  24.722  1.00  0.00     0.348 HD
BRANCH  19  22
ATOM     22  C   UNL A   1      35.112  22.690  25.512  1.00  0.00     0.184 C 
ATOM     23  C   UNL A   1      35.173  21.384  24.683  1.00  0.00     0.065 C 
ATOM     24  C   UNL A   1      36.444  23.455  25.388  1.00  0.00     0.065 C 
ATOM     25  C   UNL A   1      36.367  20.516  25.074  1.00  0.00     0.006 C 
ATOM     26  C   UNL A   1      37.635  22.573  25.770  1.00  0.00     0.006 C 
ATOM     27  C   UNL A   1      37.674  21.287  24.951  1.00  0.00     0.000 C 
ENDBRANCH  19  22
ENDBRANCH  11  19
ENDBRANCH   4   7
ENDBRANCH   2   3
ENDBRANCH   1   2
BRANCH   1  28
ATOM     28  C   UNL A   1      35.267  30.145  27.722  1.00  0.00     0.118 C 
BRANCH  28  29
ATOM     29  N   UNL A   1      35.349  30.656  29.086  1.00  0.00    -0.352 N 
ATOM     30  C   UNL A   1      36.348  30.517  30.020  1.00  0.00     0.251 C 
ATOM     31  H   UNL A   1      34.570  31.179  29.383  1.00  0.00     0.163 HD
ATOM     32  O   UNL A   1      36.149  30.860  31.182  1.00  0.00    -0.269 OA
BRANCH  30  33
ATOM     33  C   UNL A   1      37.646  29.928  29.626  1.00  0.00     0.039 A 
ATOM     34  C   UNL A   1      38.027  29.946  28.283  1.00  0.00     0.014 A 
ATOM     35  C   UNL A   1      38.497  29.381  30.589  1.00  0.00     0.014 A 
ATOM     36  C   UNL A   1      39.299  29.495  27.921  1.00  0.00     0.010 A 
ATOM     37  C   UNL A   1      39.798  29.040  30.243  1.00  0.00     0.010 A 
ATOM     38  C   UNL A   1      40.214  29.085  28.905  1.00  0.00    -0.014 A 
BRANCH  38  39
ATOM     39  C   UNL A   1      41.603  28.679  28.565  1.00  0.00     0.031 A 
ATOM     40  C   UNL A   1      42.693  29.719  28.516  1.00  0.00     0.074 A 
ATOM     41  C   UNL A   1      41.868  27.400  28.224  1.00  0.00     0.049 A 
ATOM     42  N   UNL A   1      43.934  29.597  28.120  1.00  0.00    -0.248 NA
ATOM     43  C   UNL A   1      42.331  31.084  28.934  1.00  0.00     0.031 C 
ATOM     44  C   UNL A   1      40.888  26.312  28.176  1.00  0.00     0.029 A 
ATOM     45  N   UNL A   1      43.042  26.801  27.837  1.00  0.00    -0.354 N 
ATOM     46  C   UNL A   1      44.490  30.868  28.225  1.00  0.00     0.074 A 
ATOM     47  C   UNL A   1      43.436  31.758  28.656  1.00  0.00     0.031 C 
ATOM     48  C   UNL A   1      41.504  25.178  27.805  1.00  0.00     0.029 A 
ATOM     49  C   UNL A   1      42.911  25.463  27.545  1.00  0.00     0.049 A 
ATOM     50  H   UNL A   1      43.896  27.284  27.775  1.00  0.00     0.167 HD
ATOM     51  C   UNL A   1      45.771  31.252  28.016  1.00  0.00     0.037 A 
ATOM     52  C   UNL A   1      43.819  24.570  27.104  1.00  0.00     0.037 A 
ATOM     53  C   UNL A   1      46.825  30.352  27.629  1.00  0.00     0.049 A 
ATOM     54  C   UNL A   1      45.239  25.023  26.886  1.00  0.00     0.074 A 
ATOM     55  C   UNL A   1      48.167  30.633  27.437  1.00  0.00     0.029 A 
ATOM     56  N   UNL A   1      46.660  28.997  27.389  1.00  0.00    -0.354 N 
ATOM     57  N   UNL A   1      45.757  26.219  27.039  1.00  0.00    -0.248 NA
ATOM     58  C   UNL A   1      46.203  24.005  26.441  1.00  0.00     0.031 C 
ATOM     59  C   UNL A   1      48.806  29.454  27.046  1.00  0.00     0.029 A 
ATOM     60  C   UNL A   1      47.874  28.429  27.042  1.00  0.00     0.049 A 
ATOM     61  H   UNL A   1      45.807  28.511  27.454  1.00  0.00     0.167 HD
ATOM     62  C   UNL A   1      47.110  26.088  26.745  1.00  0.00     0.074 A 
ATOM     63  C   UNL A   1      47.333  24.696  26.416  1.00  0.00     0.031 C 
ATOM     64  C   UNL A   1      48.081  27.035  26.745  1.00  0.00     0.037 A 
BRANCH  51  65
ATOM     65  C   UNL A   1      46.113  32.700  28.232  1.00  0.00     0.058 A 
ATOM     66  C   UNL A   1      46.561  33.167  29.479  1.00  0.00     0.135 A 
ATOM     67  C   UNL A   1      46.052  33.619  27.173  1.00  0.00     0.135 A 
ATOM     68  F   UNL A   1      46.620  32.336  30.531  1.00  0.00    -0.206 F 
ATOM     69  C   UNL A   1      46.920  34.496  29.672  1.00  0.00     0.059 A 
ATOM     70  C   UNL A   1      46.433  34.948  27.335  1.00  0.00     0.059 A 
ATOM     71  F   UNL A   1      45.627  33.227  25.961  1.00  0.00    -0.206 F 
ATOM     72  C   UNL A   1      46.858  35.378  28.591  1.00  0.00     0.060 A 
BRANCH  72  73
ATOM     73  S   UNL A   1      47.364  37.092  28.853  1.00  0.00     0.124 S 
ATOM     74  O   UNL A   1      48.017  37.006  30.157  1.00  0.00    -0.237 OA
ATOM     75  O   UNL A   1      48.248  37.332  27.717  1.00  0.00    -0.237 OA
ATOM     76  O   UNL A   1      46.103  37.826  28.830  1.00  0.00    -0.744 OA
ENDBRANCH  72  73
ENDBRANCH  51  65
BRANCH  52  77
ATOM     77  C   UNL A   1      43.426  23.158  26.844  1.00  0.00     0.058 A 
ATOM     78  C   UNL A   1      43.159  22.275  27.902  1.00  0.00     0.135 A 
ATOM     79  C   UNL A   1      43.335  22.654  25.537  1.00  0.00     0.135 A 
ATOM     80  F   UNL A   1      43.236  22.706  29.171  1.00  0.00    -0.206 F 
ATOM     81  C   UNL A   1      42.855  20.936  27.677  1.00  0.00     0.059 A 
ATOM     82  C   UNL A   1      43.003  21.326  25.285  1.00  0.00     0.059 A 
ATOM     83  F   UNL A   1      43.557  23.461  24.489  1.00  0.00    -0.206 F 
ATOM     84  C   UNL A   1      42.785  20.469  26.364  1.00  0.00     0.060 A 
BRANCH  84  85
ATOM     85  S   UNL A   1      42.384  18.732  26.079  1.00  0.00     0.124 S 
ATOM     86  O   UNL A   1      43.329  18.383  25.025  1.00  0.00    -0.237 OA
ATOM     87  O   UNL A   1      42.639  18.139  27.389  1.00  0.00    -0.237 OA
ATOM     88  O   UNL A   1      40.980  18.773  25.682  1.00  0.00    -0.744 OA
ENDBRANCH  84  85
ENDBRANCH  52  77
BRANCH  64  89
ATOM     89  C   UNL A   1      49.483  26.592  26.432  1.00  0.00     0.058 A 
ATOM     90  C   UNL A   1      50.286  25.949  27.385  1.00  0.00     0.135 A 
ATOM     91  C   UNL A   1      50.004  26.760  25.139  1.00  0.00     0.135 A 
ATOM     92  F   UNL A   1      49.836  25.769  28.637  1.00  0.00    -0.206 F 
ATOM     93  C   UNL A   1      51.568  25.508  27.074  1.00  0.00     0.059 A 
ATOM     94  C   UNL A   1      51.271  26.300  24.797  1.00  0.00     0.059 A 
ATOM     95  F   UNL A   1      49.271  27.359  24.185  1.00  0.00    -0.206 F 
ATOM     96  C   UNL A   1      52.050  25.685  25.776  1.00  0.00     0.060 A 
BRANCH  96  97
ATOM     97  S   UNL A   1      53.699  25.072  25.376  1.00  0.00     0.124 S 
ATOM     98  O   UNL A   1      53.483  23.630  25.365  1.00  0.00    -0.237 OA
ATOM     99  O   UNL A   1      53.953  25.684  24.075  1.00  0.00    -0.237 OA
ATOM    100  O   UNL A   1      54.524  25.576  26.470  1.00  0.00    -0.744 OA
ENDBRANCH  96  97
ENDBRANCH  64  89
ENDBRANCH  38  39
ENDBRANCH  30  33
ENDBRANCH  28  29
ENDBRANCH   1  28
TORSDOF 17
ENDMDL
MODEL 3
REMARK VINA RESULT:     -11.2      2.777      3.646
REMARK SMILES CC(C)[NH2+][C@]1(C(=O)NCCCNC(=O)c2ccc(-c3c4nc(c(-c5c(F)cc(S(=O)(=O)[O-])cc5F)c5ccc([nH]5)c(-c5c(F)cc(S(=O)(=O)[O-])cc5F)c5nc(c(-c6c(F)cc(S(=O)(=O)[O-])cc6F)c6ccc3[nH]6)C=C5)C=C4)cc2)CCC[C@H]([N@H+](C)C2CCCCC2)C1
REMARK SMILES IDX 10 1 9 2 8 3 6 4 7 5 5 7 81 8 93 9 82 10 84 11 83 12 4 13
REMARK SMILES IDX 2 16 1 17 3 18 85 19 86 20 87 22 88 23 92 24 89 25 91 26
REMARK SMILES IDX 90 27 11 28 12 29 13 30 14 32 15 33 16 34 80 35 17 36 79 37
REMARK SMILES IDX 18 38 19 39 20 40 73 41 21 42 78 43 72 44 74 45 22 46 77 47
REMARK SMILES IDX 71 48 70 49 23 51 57 52 36 53 56 54 37 55 40 56 55 57 75 58
REMARK SMILES IDX 38 59 39 60 54 62 76 63 41 64 24 65 25 66 34 67 26 68 27 69
REMARK SMILES IDX 33 70 35 71 28 72 29 73 30 74 31 75 32 76 58 77 59 78 68 79
REMARK SMILES IDX 60 80 61 81 67 82 69 83 62 84 63 85 64 86 65 87 66 88 42 89
REMARK SMILES IDX 43 90 52 91 44 92 45 93 51 94 53 95 46 96 47 97 48 98 49 99
REMARK SMILES IDX 50 100
REMARK H PARENT 8 6 4 14 4 15 85 21 12 31 74 50 40 61
REMARK Flexibility Score: inf
ROOT
ATOM      1  C   UNL A   1      35.348  29.625  27.404  1.00  0.00     0.042 C 
ENDROOT
BRANCH   1   2
ATOM      2  C   UNL A   1      33.946  29.087  27.653  1.00  0.00     0.118 C 
BRANCH   2   3
ATOM      3  N   UNL A   1      32.938  29.985  27.110  1.00  0.00    -0.351 N 
ATOM      4  C   UNL A   1      32.165  29.920  25.995  1.00  0.00     0.281 C 
ATOM      5  O   UNL A   1      31.445  30.906  25.783  1.00  0.00    -0.268 OA
ATOM      6  H   UNL A   1      32.788  30.791  27.654  1.00  0.00     0.163 HD
BRANCH   4   7
ATOM      7  C   UNL A   1      32.171  28.686  25.004  1.00  0.00     0.181 C 
ATOM      8  C   UNL A   1      33.579  28.580  24.394  1.00  0.00     0.079 C 
ATOM      9  C   UNL A   1      31.698  27.445  25.795  1.00  0.00     0.144 C 
ATOM     10  C   UNL A   1      33.941  27.214  23.829  1.00  0.00     0.013 C 
ATOM     11  C   UNL A   1      32.373  26.071  25.582  1.00  0.00     0.190 C 
ATOM     12  C   UNL A   1      33.724  26.091  24.832  1.00  0.00     0.065 C 
BRANCH   7  13
ATOM     13  N   UNL A   1      31.092  29.012  24.022  1.00  0.00    -0.331 N 
ATOM     14  H   UNL A   1      30.486  29.694  24.478  1.00  0.00     0.347 HD
ATOM     15  H   UNL A   1      31.623  29.300  23.201  1.00  0.00     0.347 HD
BRANCH  13  16
ATOM     16  C   UNL A   1      30.221  27.987  23.487  1.00  0.00     0.176 C 
ATOM     17  C   UNL A   1      28.879  28.641  23.141  1.00  0.00     0.075 C 
ATOM     18  C   UNL A   1      30.793  27.323  22.237  1.00  0.00     0.075 C 
ENDBRANCH  13  16
ENDBRANCH   7  13
BRANCH  11  19
ATOM     19  N   UNL A   1      31.451  24.963  25.196  1.00  0.00    -0.332 N 
ATOM     20  C   UNL A   1      30.354  24.728  26.119  1.00  0.00     0.333 C 
ATOM     21  H   UNL A   1      30.967  25.305  24.366  1.00  0.00     0.348 HD
BRANCH  19  22
ATOM     22  C   UNL A   1      32.164  23.739  24.734  1.00  0.00     0.184 C 
ATOM     23  C   UNL A   1      32.038  22.480  25.626  1.00  0.00     0.065 C 
ATOM     24  C   UNL A   1      31.712  23.414  23.298  1.00  0.00     0.065 C 
ATOM     25  C   UNL A   1      32.799  21.291  25.046  1.00  0.00     0.006 C 
ATOM     26  C   UNL A   1      32.473  22.213  22.729  1.00  0.00     0.006 C 
ATOM     27  C   UNL A   1      32.345  20.986  23.625  1.00  0.00     0.000 C 
ENDBRANCH  19  22
ENDBRANCH  11  19
ENDBRANCH   4   7
ENDBRANCH   2   3
ENDBRANCH   1   2
BRANCH   1  28
ATOM     28  C   UNL A   1      35.598  30.975  28.065  1.00  0.00     0.118 C 
BRANCH  28  29
ATOM     29  N   UNL A   1      35.435  30.932  29.514  1.00  0.00    -0.352 N 
ATOM     30  C   UNL A   1      36.328  30.558  30.489  1.00  0.00     0.251 C 
ATOM     31  H   UNL A   1      34.551  31.215  29.843  1.00  0.00     0.163 HD
ATOM     32  O   UNL A   1      35.941  30.407  31.646  1.00  0.00    -0.269 OA
BRANCH  30  33
ATOM     33  C   UNL A   1      37.741  30.309  30.136  1.00  0.00     0.039 A 
ATOM     34  C   UNL A   1      38.627  29.871  31.124  1.00  0.00     0.014 A 
ATOM     35  C   UNL A   1      38.186  30.484  28.825  1.00  0.00     0.014 A 
ATOM     36  C   UNL A   1      39.934  29.525  30.773  1.00  0.00     0.010 A 
ATOM     37  C   UNL A   1      39.448  30.034  28.460  1.00  0.00     0.010 A 
ATOM     38  C   UNL A   1      40.341  29.555  29.429  1.00  0.00    -0.014 A 
BRANCH  38  39
ATOM     39  C   UNL A   1      41.698  29.115  29.009  1.00  0.00     0.031 A 
ATOM     40  C   UNL A   1      42.820  30.120  28.941  1.00  0.00     0.074 A 
ATOM     41  C   UNL A   1      41.902  27.841  28.616  1.00  0.00     0.049 A 
ATOM     42  N   UNL A   1      44.036  29.971  28.481  1.00  0.00    -0.248 NA
ATOM     43  C   UNL A   1      42.526  31.482  29.419  1.00  0.00     0.031 C 
ATOM     44  C   UNL A   1      40.884  26.787  28.581  1.00  0.00     0.029 A 
ATOM     45  N   UNL A   1      43.035  27.216  28.154  1.00  0.00    -0.354 N 
ATOM     46  C   UNL A   1      44.639  31.218  28.600  1.00  0.00     0.074 A 
ATOM     47  C   UNL A   1      43.639  32.128  29.109  1.00  0.00     0.031 C 
ATOM     48  C   UNL A   1      41.442  25.646  28.145  1.00  0.00     0.029 A 
ATOM     49  C   UNL A   1      42.844  25.894  27.826  1.00  0.00     0.049 A 
ATOM     50  H   UNL A   1      43.902  27.672  28.066  1.00  0.00     0.167 HD
ATOM     51  C   UNL A   1      45.921  31.567  28.341  1.00  0.00     0.037 A 
ATOM     52  C   UNL A   1      43.699  24.986  27.314  1.00  0.00     0.037 A 
ATOM     53  C   UNL A   1      46.924  30.646  27.874  1.00  0.00     0.049 A 
ATOM     54  C   UNL A   1      45.122  25.399  27.041  1.00  0.00     0.074 A 
ATOM     55  C   UNL A   1      48.264  30.889  27.627  1.00  0.00     0.029 A 
ATOM     56  N   UNL A   1      46.702  29.306  27.600  1.00  0.00    -0.354 N 
ATOM     57  N   UNL A   1      45.687  26.572  27.207  1.00  0.00    -0.248 NA
ATOM     58  C   UNL A   1      46.028  24.366  26.519  1.00  0.00     0.031 C 
ATOM     59  C   UNL A   1      48.843  29.703  27.168  1.00  0.00     0.029 A 
ATOM     60  C   UNL A   1      47.877  28.709  27.177  1.00  0.00     0.049 A 
ATOM     61  H   UNL A   1      45.836  28.846  27.691  1.00  0.00     0.167 HD
ATOM     62  C   UNL A   1      47.019  26.406  26.843  1.00  0.00     0.074 A 
ATOM     63  C   UNL A   1      47.179  25.019  26.461  1.00  0.00     0.031 C 
ATOM     64  C   UNL A   1      48.021  27.320  26.826  1.00  0.00     0.037 A 
BRANCH  51  65
ATOM     65  C   UNL A   1      46.323  32.995  28.586  1.00  0.00     0.058 A 
ATOM     66  C   UNL A   1      46.224  33.966  27.575  1.00  0.00     0.135 A 
ATOM     67  C   UNL A   1      46.754  33.412  29.854  1.00  0.00     0.135 A 
ATOM     68  F   UNL A   1      45.837  33.617  26.338  1.00  0.00    -0.206 F 
ATOM     69  C   UNL A   1      46.555  35.295  27.810  1.00  0.00     0.059 A 
ATOM     70  C   UNL A   1      47.063  34.743  30.120  1.00  0.00     0.059 A 
ATOM     71  F   UNL A   1      46.871  32.524  30.855  1.00  0.00    -0.206 F 
ATOM     72  C   UNL A   1      46.967  35.675  29.088  1.00  0.00     0.060 A 
BRANCH  72  73
ATOM     73  S   UNL A   1      47.355  37.415  29.381  1.00  0.00     0.124 S 
ATOM     74  O   UNL A   1      48.343  37.672  28.337  1.00  0.00    -0.237 OA
ATOM     75  O   UNL A   1      46.058  38.058  29.199  1.00  0.00    -0.237 OA
ATOM     76  O   UNL A   1      47.870  37.423  30.747  1.00  0.00    -0.744 OA
ENDBRANCH  72  73
ENDBRANCH  51  65
BRANCH  52  77
ATOM     77  C   UNL A   1      43.245  23.597  27.029  1.00  0.00     0.058 A 
ATOM     78  C   UNL A   1      43.110  22.655  28.060  1.00  0.00     0.135 A 
ATOM     79  C   UNL A   1      42.965  23.175  25.720  1.00  0.00     0.135 A 
ATOM     80  F   UNL A   1      43.369  23.007  29.329  1.00  0.00    -0.206 F 
ATOM     81  C   UNL A   1      42.751  21.336  27.802  1.00  0.00     0.059 A 
ATOM     82  C   UNL A   1      42.574  21.869  25.440  1.00  0.00     0.059 A 
ATOM     83  F   UNL A   1      43.056  24.041  24.700  1.00  0.00    -0.206 F 
ATOM     84  C   UNL A   1      42.490  20.950  26.486  1.00  0.00     0.060 A 
BRANCH  84  85
ATOM     85  S   UNL A   1      42.019  19.239  26.159  1.00  0.00     0.124 S 
ATOM     86  O   UNL A   1      42.844  18.925  24.998  1.00  0.00    -0.237 OA
ATOM     87  O   UNL A   1      42.390  18.574  27.404  1.00  0.00    -0.237 OA
ATOM     88  O   UNL A   1      40.584  19.329  25.910  1.00  0.00    -0.744 OA
ENDBRANCH  84  85
ENDBRANCH  52  77
BRANCH  64  89
ATOM     89  C   UNL A   1      49.391  26.842  26.432  1.00  0.00     0.058 A 
ATOM     90  C   UNL A   1      50.288  26.311  27.370  1.00  0.00     0.135 A 
ATOM     91  C   UNL A   1      49.784  26.860  25.084  1.00  0.00     0.135 A 
ATOM     92  F   UNL A   1      49.962  26.276  28.673  1.00  0.00    -0.206 F 
ATOM     93  C   UNL A   1      51.538  25.835  26.989  1.00  0.00     0.059 A 
ATOM     94  C   UNL A   1      51.017  26.362  24.676  1.00  0.00     0.059 A 
ATOM     95  F   UNL A   1      48.957  27.347  24.144  1.00  0.00    -0.206 F 
ATOM     96  C   UNL A   1      51.892  25.861  25.639  1.00  0.00     0.060 A 
BRANCH  96  97
ATOM     97  S   UNL A   1      53.500  25.204  25.154  1.00  0.00     0.124 S 
ATOM     98  O   UNL A   1      54.372  25.775  26.175  1.00  0.00    -0.237 OA
ATOM     99  O   UNL A   1      53.287  23.762  25.237  1.00  0.00    -0.237 OA
ATOM    100  O   UNL A   1      53.688  25.726  23.803  1.00  0.00    -0.744 OA
ENDBRANCH  96  97
ENDBRANCH  64  89
ENDBRANCH  38  39
ENDBRANCH  30  33
ENDBRANCH  28  29
ENDBRANCH   1  28
TORSDOF 17
ENDMDL
