MODEL 1
REMARK VINA RESULT:     -11.8      0.000      0.000
REMARK SMILES Cc1cc(OCC(=O)Nc2sccc2C(=O)NCCCNC(=O)c2ccc(-c3c4nc(c(-c5c(F)cc(S(=O)(=O)[O-])cc5F)c5ccc([nH]5)c(-c5c(F)cc(S(=O)(=O)[O-])cc5F)c5nc(c(-c6c(F)cc(S(=O)(=O)[O-])cc6F)c6ccc3[nH]6)C=C5)C=C4)cc2)ccc1Cl
REMARK SMILES IDX 18 1 17 2 15 3 16 4 14 6 10 7 11 8 12 9 13 10 9 11 7 12 8 13
REMARK SMILES IDX 6 15 5 16 4 17 1 18 2 19 3 20 92 21 91 22 93 23 90 24 19 25
REMARK SMILES IDX 20 26 21 27 22 28 23 30 24 31 25 32 89 33 26 34 88 35 27 36
REMARK SMILES IDX 28 37 29 38 82 39 30 40 87 41 81 42 83 43 31 44 86 45 80 46
REMARK SMILES IDX 79 47 32 49 66 50 45 51 65 52 46 53 49 54 64 55 84 56 47 57
REMARK SMILES IDX 48 58 63 60 85 61 50 62 33 63 34 64 43 65 35 66 36 67 42 68
REMARK SMILES IDX 44 69 37 70 38 71 39 72 40 73 41 74 67 75 68 76 77 77 69 78
REMARK SMILES IDX 70 79 76 80 78 81 71 82 72 83 73 84 74 85 75 86 51 87 52 88
REMARK SMILES IDX 61 89 53 90 54 91 60 92 62 93 55 94 56 95 57 96 58 97 59 98
REMARK H PARENT 17 5 9 14 21 29 83 48 49 59
REMARK Flexibility Score: inf
ROOT
ATOM      1  C   UNL A   1      31.413  28.458  26.090  1.00  0.00     0.118 C 
ENDROOT
BRANCH   1   2
ATOM      2  N   UNL A   1      31.058  27.167  25.547  1.00  0.00    -0.352 N 
ATOM      3  C   UNL A   1      30.401  26.863  24.381  1.00  0.00     0.254 C 
ATOM      4  O   UNL A   1      30.059  25.689  24.216  1.00  0.00    -0.269 OA
ATOM      5  H   UNL A   1      31.326  26.393  26.094  1.00  0.00     0.163 HD
BRANCH   3   6
ATOM      6  C   UNL A   1      29.991  27.891  23.419  1.00  0.00     0.074 A 
ATOM      7  C   UNL A   1      30.722  28.799  22.670  1.00  0.00     0.108 A 
ATOM      8  S   UNL A   1      29.744  30.047  22.020  1.00  0.00    -0.126 S 
ATOM      9  C   UNL A   1      28.310  29.230  22.432  1.00  0.00     0.068 A 
ATOM     10  C   UNL A   1      28.577  28.100  23.166  1.00  0.00     0.028 A 
BRANCH   7  11
ATOM     11  N   UNL A   1      32.045  29.045  22.394  1.00  0.00    -0.314 N 
ATOM     12  C   UNL A   1      33.104  28.188  22.306  1.00  0.00     0.262 C 
ATOM     13  O   UNL A   1      34.241  28.664  22.399  1.00  0.00    -0.271 OA
ATOM     14  H   UNL A   1      32.264  29.992  22.234  1.00  0.00     0.170 HD
BRANCH  12  15
ATOM     15  C   UNL A   1      32.914  26.729  21.886  1.00  0.00     0.329 C 
BRANCH  15  16
ATOM     16  O   UNL A   1      33.953  25.802  22.064  1.00  0.00    -0.484 OA
BRANCH  16  17
ATOM     17  C   UNL A   1      33.952  24.980  23.153  1.00  0.00     0.120 A 
ATOM     18  C   UNL A   1      33.948  21.380  24.394  1.00  0.00     0.046 C 
ATOM     19  C   UNL A   1      34.027  22.882  24.385  1.00  0.00    -0.029 A 
ATOM     20  C   UNL A   1      33.927  23.585  23.165  1.00  0.00     0.051 A 
ATOM     21  C   UNL A   1      34.185  23.602  25.581  1.00  0.00     0.044 A 
ATOM     22  C   UNL A   1      34.193  24.994  25.568  1.00  0.00     0.024 A 
ATOM     23  Cl  UNL A   1      34.394  22.813  27.102  1.00  0.00    -0.084 Cl
ATOM     24  C   UNL A   1      34.055  25.671  24.361  1.00  0.00     0.048 A 
ENDBRANCH  16  17
ENDBRANCH  15  16
ENDBRANCH  12  15
ENDBRANCH   7  11
ENDBRANCH   3   6
ENDBRANCH   1   2
BRANCH   1  25
ATOM     25  C   UNL A   1      32.894  28.784  26.029  1.00  0.00     0.042 C 
BRANCH  25  26
ATOM     26  C   UNL A   1      33.573  28.874  27.392  1.00  0.00     0.118 C 
BRANCH  26  27
ATOM     27  N   UNL A   1      33.749  30.231  27.908  1.00  0.00    -0.352 N 
ATOM     28  C   UNL A   1      34.892  30.841  28.379  1.00  0.00     0.251 C 
ATOM     29  H   UNL A   1      32.937  30.787  27.918  1.00  0.00     0.163 HD
ATOM     30  O   UNL A   1      34.862  32.008  28.759  1.00  0.00    -0.269 OA
BRANCH  28  31
ATOM     31  C   UNL A   1      36.146  30.063  28.484  1.00  0.00     0.039 A 
ATOM     32  C   UNL A   1      37.031  30.070  27.403  1.00  0.00     0.014 A 
ATOM     33  C   UNL A   1      36.492  29.423  29.674  1.00  0.00     0.014 A 
ATOM     34  C   UNL A   1      38.317  29.553  27.565  1.00  0.00     0.010 A 
ATOM     35  C   UNL A   1      37.795  28.983  29.861  1.00  0.00     0.010 A 
ATOM     36  C   UNL A   1      38.728  29.076  28.820  1.00  0.00    -0.014 A 
BRANCH  36  37
ATOM     37  C   UNL A   1      40.146  28.759  29.112  1.00  0.00     0.031 A 
ATOM     38  C   UNL A   1      41.060  29.817  29.661  1.00  0.00     0.074 A 
ATOM     39  C   UNL A   1      40.632  27.558  28.737  1.00  0.00     0.049 A 
ATOM     40  N   UNL A   1      42.349  29.766  29.866  1.00  0.00    -0.248 NA
ATOM     41  C   UNL A   1      40.451  31.119  29.980  1.00  0.00     0.031 C 
ATOM     42  C   UNL A   1      39.855  26.493  28.093  1.00  0.00     0.029 A 
ATOM     43  N   UNL A   1      41.897  27.037  28.814  1.00  0.00    -0.354 N 
ATOM     44  C   UNL A   1      42.710  31.029  30.318  1.00  0.00     0.074 A 
ATOM     45  C   UNL A   1      41.513  31.841  30.305  1.00  0.00     0.031 C 
ATOM     46  C   UNL A   1      40.654  25.441  27.856  1.00  0.00     0.029 A 
ATOM     47  C   UNL A   1      42.004  25.765  28.301  1.00  0.00     0.049 A 
ATOM     48  H   UNL A   1      42.658  27.527  29.202  1.00  0.00     0.167 HD
ATOM     49  C   UNL A   1      43.925  31.462  30.731  1.00  0.00     0.037 A 
ATOM     50  C   UNL A   1      43.072  24.950  28.204  1.00  0.00     0.037 A 
ATOM     51  C   UNL A   1      45.099  30.628  30.770  1.00  0.00     0.049 A 
ATOM     52  C   UNL A   1      44.395  25.429  28.732  1.00  0.00     0.074 A 
ATOM     53  C   UNL A   1      46.361  30.937  31.244  1.00  0.00     0.029 A 
ATOM     54  N   UNL A   1      45.150  29.317  30.320  1.00  0.00    -0.354 N 
ATOM     55  N   UNL A   1      44.701  26.600  29.240  1.00  0.00    -0.248 NA
ATOM     56  C   UNL A   1      45.513  24.479  28.687  1.00  0.00     0.031 C 
ATOM     57  C   UNL A   1      47.183  29.820  31.057  1.00  0.00     0.029 A 
ATOM     58  C   UNL A   1      46.423  28.803  30.501  1.00  0.00     0.049 A 
ATOM     59  H   UNL A   1      44.393  28.824  29.929  1.00  0.00     0.167 HD
ATOM     60  C   UNL A   1      46.039  26.518  29.603  1.00  0.00     0.074 A 
ATOM     61  C   UNL A   1      46.480  25.180  29.263  1.00  0.00     0.031 C 
ATOM     62  C   UNL A   1      46.832  27.463  30.165  1.00  0.00     0.037 A 
BRANCH  49  63
ATOM     63  C   UNL A   1      44.036  32.886  31.201  1.00  0.00     0.058 A 
ATOM     64  C   UNL A   1      44.354  33.927  30.313  1.00  0.00     0.135 A 
ATOM     65  C   UNL A   1      43.794  33.224  32.542  1.00  0.00     0.135 A 
ATOM     66  F   UNL A   1      44.611  33.659  29.021  1.00  0.00    -0.206 F 
ATOM     67  C   UNL A   1      44.454  35.246  30.740  1.00  0.00     0.059 A 
ATOM     68  C   UNL A   1      43.862  34.541  32.987  1.00  0.00     0.059 A 
ATOM     69  F   UNL A   1      43.487  32.269  33.435  1.00  0.00    -0.206 F 
ATOM     70  C   UNL A   1      44.208  35.543  32.081  1.00  0.00     0.060 A 
BRANCH  70  71
ATOM     71  S   UNL A   1      44.330  37.263  32.618  1.00  0.00     0.124 S 
ATOM     72  O   UNL A   1      45.647  37.278  33.249  1.00  0.00    -0.237 OA
ATOM     73  O   UNL A   1      44.224  37.993  31.359  1.00  0.00    -0.237 OA
ATOM     74  O   UNL A   1      43.198  37.417  33.526  1.00  0.00    -0.744 OA
ENDBRANCH  70  71
ENDBRANCH  49  63
BRANCH  50  75
ATOM     75  C   UNL A   1      42.919  23.585  27.636  1.00  0.00     0.058 A 
ATOM     76  C   UNL A   1      42.494  22.519  28.443  1.00  0.00     0.135 A 
ATOM     77  C   UNL A   1      43.166  23.321  26.280  1.00  0.00     0.135 A 
ATOM     78  F   UNL A   1      42.244  22.723  29.745  1.00  0.00    -0.206 F 
ATOM     79  C   UNL A   1      42.338  21.235  27.932  1.00  0.00     0.059 A 
ATOM     80  C   UNL A   1      42.996  22.049  25.741  1.00  0.00     0.059 A 
ATOM     81  F   UNL A   1      43.550  24.313  25.461  1.00  0.00    -0.206 F 
ATOM     82  C   UNL A   1      42.592  21.010  26.578  1.00  0.00     0.060 A 
BRANCH  82  83
ATOM     83  S   UNL A   1      42.342  19.348  25.914  1.00  0.00     0.124 S 
ATOM     84  O   UNL A   1      40.894  19.314  25.746  1.00  0.00    -0.237 OA
ATOM     85  O   UNL A   1      43.127  19.386  24.684  1.00  0.00    -0.237 OA
ATOM     86  O   UNL A   1      42.877  18.486  26.964  1.00  0.00    -0.744 OA
ENDBRANCH  82  83
ENDBRANCH  50  75
BRANCH  62  87
ATOM     87  C   UNL A   1      48.246  27.070  30.479  1.00  0.00     0.058 A 
ATOM     88  C   UNL A   1      49.274  27.203  29.533  1.00  0.00     0.135 A 
ATOM     89  C   UNL A   1      48.583  26.598  31.757  1.00  0.00     0.135 A 
ATOM     90  F   UNL A   1      48.999  27.642  28.294  1.00  0.00    -0.206 F 
ATOM     91  C   UNL A   1      50.586  26.862  29.838  1.00  0.00     0.059 A 
ATOM     92  C   UNL A   1      49.893  26.275  32.092  1.00  0.00     0.059 A 
ATOM     93  F   UNL A   1      47.636  26.462  32.700  1.00  0.00    -0.206 F 
ATOM     94  C   UNL A   1      50.887  26.399  31.121  1.00  0.00     0.060 A 
BRANCH  94  95
ATOM     95  S   UNL A   1      52.599  25.992  31.517  1.00  0.00     0.124 S 
ATOM     96  O   UNL A   1      53.264  26.252  30.244  1.00  0.00    -0.237 OA
ATOM     97  O   UNL A   1      52.905  26.928  32.594  1.00  0.00    -0.237 OA
ATOM     98  O   UNL A   1      52.531  24.589  31.914  1.00  0.00    -0.744 OA
ENDBRANCH  94  95
ENDBRANCH  62  87
ENDBRANCH  36  37
ENDBRANCH  28  31
ENDBRANCH  26  27
ENDBRANCH  25  26
ENDBRANCH   1  25
TORSDOF 17
ENDMDL
MODEL 2
REMARK VINA RESULT:     -11.5      1.264      2.083
REMARK SMILES Cc1cc(OCC(=O)Nc2sccc2C(=O)NCCCNC(=O)c2ccc(-c3c4nc(c(-c5c(F)cc(S(=O)(=O)[O-])cc5F)c5ccc([nH]5)c(-c5c(F)cc(S(=O)(=O)[O-])cc5F)c5nc(c(-c6c(F)cc(S(=O)(=O)[O-])cc6F)c6ccc3[nH]6)C=C5)C=C4)cc2)ccc1Cl
REMARK SMILES IDX 18 1 17 2 15 3 16 4 14 6 10 7 11 8 12 9 13 10 9 11 7 12 8 13
REMARK SMILES IDX 6 15 5 16 4 17 1 18 2 19 3 20 92 21 91 22 93 23 90 24 19 25
REMARK SMILES IDX 20 26 21 27 22 28 23 30 24 31 25 32 89 33 26 34 88 35 27 36
REMARK SMILES IDX 28 37 29 38 82 39 30 40 87 41 81 42 83 43 31 44 86 45 80 46
REMARK SMILES IDX 79 47 32 49 66 50 45 51 65 52 46 53 49 54 64 55 84 56 47 57
REMARK SMILES IDX 48 58 63 60 85 61 50 62 33 63 34 64 43 65 35 66 36 67 42 68
REMARK SMILES IDX 44 69 37 70 38 71 39 72 40 73 41 74 67 75 68 76 77 77 69 78
REMARK SMILES IDX 70 79 76 80 78 81 71 82 72 83 73 84 74 85 75 86 51 87 52 88
REMARK SMILES IDX 61 89 53 90 54 91 60 92 62 93 55 94 56 95 57 96 58 97 59 98
REMARK H PARENT 17 5 9 14 21 29 83 48 49 59
REMARK Flexibility Score: inf
ROOT
ATOM      1  C   UNL A   1      31.578  29.702  25.385  1.00  0.00     0.118 C 
ENDROOT
BRANCH   1   2
ATOM      2  N   UNL A   1      31.042  29.877  24.054  1.00  0.00    -0.352 N 
ATOM      3  C   UNL A   1      30.664  28.930  23.135  1.00  0.00     0.254 C 
ATOM      4  O   UNL A   1      30.397  29.324  21.997  1.00  0.00    -0.269 OA
ATOM      5  H   UNL A   1      30.933  30.812  23.765  1.00  0.00     0.163 HD
BRANCH   3   6
ATOM      6  C   UNL A   1      30.699  27.493  23.427  1.00  0.00     0.074 A 
ATOM      7  C   UNL A   1      31.032  26.399  22.645  1.00  0.00     0.108 A 
ATOM      8  S   UNL A   1      30.513  24.920  23.335  1.00  0.00    -0.126 S 
ATOM      9  C   UNL A   1      30.145  25.665  24.820  1.00  0.00     0.068 A 
ATOM     10  C   UNL A   1      30.290  27.028  24.740  1.00  0.00     0.028 A 
BRANCH   7  11
ATOM     11  N   UNL A   1      31.567  26.176  21.400  1.00  0.00    -0.314 N 
ATOM     12  C   UNL A   1      32.682  25.479  21.029  1.00  0.00     0.262 C 
ATOM     13  O   UNL A   1      33.160  25.707  19.912  1.00  0.00    -0.271 OA
ATOM     14  H   UNL A   1      31.068  26.583  20.656  1.00  0.00     0.170 HD
BRANCH  12  15
ATOM     15  C   UNL A   1      33.198  24.302  21.859  1.00  0.00     0.329 C 
BRANCH  15  16
ATOM     16  O   UNL A   1      34.328  24.457  22.677  1.00  0.00    -0.484 OA
BRANCH  16  17
ATOM     17  C   UNL A   1      34.813  23.390  23.376  1.00  0.00     0.120 A 
ATOM     18  C   UNL A   1      33.961  20.159  25.202  1.00  0.00     0.046 C 
ATOM     19  C   UNL A   1      34.754  21.260  24.553  1.00  0.00    -0.029 A 
ATOM     20  C   UNL A   1      34.085  22.341  23.939  1.00  0.00     0.051 A 
ATOM     21  C   UNL A   1      36.158  21.237  24.560  1.00  0.00     0.044 A 
ATOM     22  C   UNL A   1      36.882  22.292  24.013  1.00  0.00     0.024 A 
ATOM     23  Cl  UNL A   1      37.047  19.912  25.220  1.00  0.00    -0.084 Cl
ATOM     24  C   UNL A   1      36.207  23.368  23.447  1.00  0.00     0.048 A 
ENDBRANCH  16  17
ENDBRANCH  15  16
ENDBRANCH  12  15
ENDBRANCH   7  11
ENDBRANCH   3   6
ENDBRANCH   1   2
BRANCH   1  25
ATOM     25  C   UNL A   1      33.060  29.382  25.434  1.00  0.00     0.042 C 
BRANCH  25  26
ATOM     26  C   UNL A   1      33.613  29.183  26.842  1.00  0.00     0.118 C 
BRANCH  26  27
ATOM     27  N   UNL A   1      33.675  30.393  27.659  1.00  0.00    -0.352 N 
ATOM     28  C   UNL A   1      34.728  30.892  28.397  1.00  0.00     0.251 C 
ATOM     29  H   UNL A   1      32.850  30.928  27.685  1.00  0.00     0.163 HD
ATOM     30  O   UNL A   1      34.611  31.945  29.015  1.00  0.00    -0.269 OA
BRANCH  28  31
ATOM     31  C   UNL A   1      35.986  30.118  28.491  1.00  0.00     0.039 A 
ATOM     32  C   UNL A   1      36.861  30.125  27.401  1.00  0.00     0.014 A 
ATOM     33  C   UNL A   1      36.346  29.481  29.678  1.00  0.00     0.014 A 
ATOM     34  C   UNL A   1      38.150  29.613  27.552  1.00  0.00     0.010 A 
ATOM     35  C   UNL A   1      37.651  29.045  29.854  1.00  0.00     0.010 A 
ATOM     36  C   UNL A   1      38.574  29.139  28.804  1.00  0.00    -0.014 A 
BRANCH  36  37
ATOM     37  C   UNL A   1      39.996  28.828  29.082  1.00  0.00     0.031 A 
ATOM     38  C   UNL A   1      40.914  29.892  29.612  1.00  0.00     0.074 A 
ATOM     39  C   UNL A   1      40.479  27.624  28.713  1.00  0.00     0.049 A 
ATOM     40  N   UNL A   1      42.206  29.845  29.803  1.00  0.00    -0.248 NA
ATOM     41  C   UNL A   1      40.306  31.195  29.926  1.00  0.00     0.031 C 
ATOM     42  C   UNL A   1      39.697  26.552  28.088  1.00  0.00     0.029 A 
ATOM     43  N   UNL A   1      41.746  27.105  28.781  1.00  0.00    -0.354 N 
ATOM     44  C   UNL A   1      42.570  31.113  30.239  1.00  0.00     0.074 A 
ATOM     45  C   UNL A   1      41.371  31.923  30.232  1.00  0.00     0.031 C 
ATOM     46  C   UNL A   1      40.495  25.499  27.851  1.00  0.00     0.029 A 
ATOM     47  C   UNL A   1      41.850  25.829  28.278  1.00  0.00     0.049 A 
ATOM     48  H   UNL A   1      42.511  27.600  29.155  1.00  0.00     0.167 HD
ATOM     49  C   UNL A   1      43.788  31.551  30.635  1.00  0.00     0.037 A 
ATOM     50  C   UNL A   1      42.918  25.015  28.177  1.00  0.00     0.037 A 
ATOM     51  C   UNL A   1      44.964  30.720  30.668  1.00  0.00     0.049 A 
ATOM     52  C   UNL A   1      44.246  25.502  28.685  1.00  0.00     0.074 A 
ATOM     53  C   UNL A   1      46.231  31.035  31.125  1.00  0.00     0.029 A 
ATOM     54  N   UNL A   1      45.012  29.404  30.230  1.00  0.00    -0.354 N 
ATOM     55  N   UNL A   1      44.555  26.677  29.179  1.00  0.00    -0.248 NA
ATOM     56  C   UNL A   1      45.365  24.552  28.637  1.00  0.00     0.031 C 
ATOM     57  C   UNL A   1      47.052  29.918  30.940  1.00  0.00     0.029 A 
ATOM     58  C   UNL A   1      46.288  28.895  30.401  1.00  0.00     0.049 A 
ATOM     59  H   UNL A   1      44.251  28.907  29.851  1.00  0.00     0.167 HD
ATOM     60  C   UNL A   1      45.898  26.600  29.528  1.00  0.00     0.074 A 
ATOM     61  C   UNL A   1      46.338  25.260  29.196  1.00  0.00     0.031 C 
ATOM     62  C   UNL A   1      46.696  27.552  30.072  1.00  0.00     0.037 A 
BRANCH  49  63
ATOM     63  C   UNL A   1      43.902  32.980  31.091  1.00  0.00     0.058 A 
ATOM     64  C   UNL A   1      43.765  33.330  32.444  1.00  0.00     0.135 A 
ATOM     65  C   UNL A   1      44.183  34.008  30.176  1.00  0.00     0.135 A 
ATOM     66  F   UNL A   1      43.481  32.388  33.360  1.00  0.00    -0.206 F 
ATOM     67  C   UNL A   1      43.873  34.648  32.872  1.00  0.00     0.059 A 
ATOM     68  C   UNL A   1      44.323  35.331  30.586  1.00  0.00     0.059 A 
ATOM     69  F   UNL A   1      44.324  33.731  28.870  1.00  0.00    -0.206 F 
ATOM     70  C   UNL A   1      44.151  35.643  31.934  1.00  0.00     0.060 A 
BRANCH  70  71
ATOM     71  S   UNL A   1      44.302  37.348  32.508  1.00  0.00     0.124 S 
ATOM     72  O   UNL A   1      43.184  37.440  33.443  1.00  0.00    -0.237 OA
ATOM     73  O   UNL A   1      45.631  37.362  33.108  1.00  0.00    -0.237 OA
ATOM     74  O   UNL A   1      44.162  38.132  31.284  1.00  0.00    -0.744 OA
ENDBRANCH  70  71
ENDBRANCH  49  63
BRANCH  50  75
ATOM     75  C   UNL A   1      42.761  23.645  27.622  1.00  0.00     0.058 A 
ATOM     76  C   UNL A   1      43.001  23.392  26.263  1.00  0.00     0.135 A 
ATOM     77  C   UNL A   1      42.394  22.561  28.434  1.00  0.00     0.135 A 
ATOM     78  F   UNL A   1      43.356  24.397  25.448  1.00  0.00    -0.206 F 
ATOM     79  C   UNL A   1      42.866  22.118  25.724  1.00  0.00     0.059 A 
ATOM     80  C   UNL A   1      42.273  21.273  27.921  1.00  0.00     0.059 A 
ATOM     81  F   UNL A   1      42.176  22.747  29.746  1.00  0.00    -0.206 F 
ATOM     82  C   UNL A   1      42.501  21.063  26.562  1.00  0.00     0.060 A 
BRANCH  82  83
ATOM     83  S   UNL A   1      42.372  19.403  25.860  1.00  0.00     0.124 S 
ATOM     84  O   UNL A   1      43.149  19.542  24.635  1.00  0.00    -0.237 OA
ATOM     85  O   UNL A   1      42.971  18.579  26.906  1.00  0.00    -0.237 OA
ATOM     86  O   UNL A   1      40.934  19.227  25.682  1.00  0.00    -0.744 OA
ENDBRANCH  82  83
ENDBRANCH  50  75
BRANCH  62  87
ATOM     87  C   UNL A   1      48.114  27.164  30.374  1.00  0.00     0.058 A 
ATOM     88  C   UNL A   1      49.150  27.392  29.456  1.00  0.00     0.135 A 
ATOM     89  C   UNL A   1      48.445  26.600  31.616  1.00  0.00     0.135 A 
ATOM     90  F   UNL A   1      48.881  27.921  28.251  1.00  0.00    -0.206 F 
ATOM     91  C   UNL A   1      50.465  27.055  29.752  1.00  0.00     0.059 A 
ATOM     92  C   UNL A   1      49.757  26.278  31.942  1.00  0.00     0.059 A 
ATOM     93  F   UNL A   1      47.489  26.371  32.532  1.00  0.00    -0.206 F 
ATOM     94  C   UNL A   1      50.760  26.498  30.998  1.00  0.00     0.060 A 
BRANCH  94  95
ATOM     95  S   UNL A   1      52.475  26.096  31.384  1.00  0.00     0.124 S 
ATOM     96  O   UNL A   1      52.826  27.166  32.313  1.00  0.00    -0.237 OA
ATOM     97  O   UNL A   1      52.363  24.762  31.968  1.00  0.00    -0.237 OA
ATOM     98  O   UNL A   1      53.137  26.150  30.084  1.00  0.00    -0.744 OA
ENDBRANCH  94  95
ENDBRANCH  62  87
ENDBRANCH  36  37
ENDBRANCH  28  31
ENDBRANCH  26  27
ENDBRANCH  25  26
ENDBRANCH   1  25
TORSDOF 17
ENDMDL
MODEL 3
REMARK VINA RESULT:     -11.4      3.346      9.458
REMARK SMILES Cc1cc(OCC(=O)Nc2sccc2C(=O)NCCCNC(=O)c2ccc(-c3c4nc(c(-c5c(F)cc(S(=O)(=O)[O-])cc5F)c5ccc([nH]5)c(-c5c(F)cc(S(=O)(=O)[O-])cc5F)c5nc(c(-c6c(F)cc(S(=O)(=O)[O-])cc6F)c6ccc3[nH]6)C=C5)C=C4)cc2)ccc1Cl
REMARK SMILES IDX 18 1 17 2 15 3 16 4 14 6 10 7 11 8 12 9 13 10 9 11 7 12 8 13
REMARK SMILES IDX 6 15 5 16 4 17 1 18 2 19 3 20 92 21 91 22 93 23 90 24 19 25
REMARK SMILES IDX 20 26 21 27 22 28 23 30 24 31 25 32 89 33 26 34 88 35 27 36
REMARK SMILES IDX 28 37 29 38 82 39 30 40 87 41 81 42 83 43 31 44 86 45 80 46
REMARK SMILES IDX 79 47 32 49 66 50 45 51 65 52 46 53 49 54 64 55 84 56 47 57
REMARK SMILES IDX 48 58 63 60 85 61 50 62 33 63 34 64 43 65 35 66 36 67 42 68
REMARK SMILES IDX 44 69 37 70 38 71 39 72 40 73 41 74 67 75 68 76 77 77 69 78
REMARK SMILES IDX 70 79 76 80 78 81 71 82 72 83 73 84 74 85 75 86 51 87 52 88
REMARK SMILES IDX 61 89 53 90 54 91 60 92 62 93 55 94 56 95 57 96 58 97 59 98
REMARK H PARENT 17 5 9 14 21 29 83 48 49 59
REMARK Flexibility Score: inf
ROOT
ATOM      1  C   UNL A   1      35.151  23.771  23.923  1.00  0.00     0.118 C 
ENDROOT
BRANCH   1   2
ATOM      2  N   UNL A   1      34.274  23.233  22.909  1.00  0.00    -0.352 N 
ATOM      3  C   UNL A   1      33.004  22.727  23.035  1.00  0.00     0.254 C 
ATOM      4  O   UNL A   1      32.520  22.165  22.049  1.00  0.00    -0.269 OA
ATOM      5  H   UNL A   1      34.640  23.229  21.995  1.00  0.00     0.163 HD
BRANCH   3   6
ATOM      6  C   UNL A   1      32.284  22.720  24.312  1.00  0.00     0.074 A 
ATOM      7  C   UNL A   1      31.190  23.443  24.761  1.00  0.00     0.108 A 
ATOM      8  S   UNL A   1      31.002  23.356  26.461  1.00  0.00    -0.126 S 
ATOM      9  C   UNL A   1      32.148  22.106  26.592  1.00  0.00     0.068 A 
ATOM     10  C   UNL A   1      32.752  21.859  25.383  1.00  0.00     0.028 A 
BRANCH   7  11
ATOM     11  N   UNL A   1      30.270  24.312  24.229  1.00  0.00    -0.314 N 
ATOM     12  C   UNL A   1      30.353  25.656  24.001  1.00  0.00     0.262 C 
ATOM     13  O   UNL A   1      29.297  26.282  23.850  1.00  0.00    -0.271 OA
ATOM     14  H   UNL A   1      29.413  23.901  23.972  1.00  0.00     0.170 HD
BRANCH  12  15
ATOM     15  C   UNL A   1      31.694  26.334  23.716  1.00  0.00     0.329 C 
BRANCH  15  16
ATOM     16  O   UNL A   1      32.663  26.436  24.727  1.00  0.00    -0.484 OA
BRANCH  16  17
ATOM     17  C   UNL A   1      32.878  27.633  25.345  1.00  0.00     0.120 A 
ATOM     18  C   UNL A   1      31.475  31.088  26.115  1.00  0.00     0.046 C 
ATOM     19  C   UNL A   1      32.366  29.877  26.137  1.00  0.00    -0.029 A 
ATOM     20  C   UNL A   1      32.032  28.743  25.366  1.00  0.00     0.051 A 
ATOM     21  C   UNL A   1      33.541  29.861  26.907  1.00  0.00     0.044 A 
ATOM     22  C   UNL A   1      34.391  28.760  26.871  1.00  0.00     0.024 A 
ATOM     23  Cl  UNL A   1      33.976  31.178  27.936  1.00  0.00    -0.084 Cl
ATOM     24  C   UNL A   1      34.067  27.666  26.076  1.00  0.00     0.048 A 
ENDBRANCH  16  17
ENDBRANCH  15  16
ENDBRANCH  12  15
ENDBRANCH   7  11
ENDBRANCH   3   6
ENDBRANCH   1   2
BRANCH   1  25
ATOM     25  C   UNL A   1      36.472  23.038  24.072  1.00  0.00     0.042 C 
BRANCH  25  26
ATOM     26  C   UNL A   1      37.180  23.285  25.400  1.00  0.00     0.118 C 
BRANCH  26  27
ATOM     27  N   UNL A   1      38.488  22.645  25.531  1.00  0.00    -0.352 N 
ATOM     28  C   UNL A   1      39.616  23.096  26.185  1.00  0.00     0.251 C 
ATOM     29  H   UNL A   1      38.576  21.769  25.093  1.00  0.00     0.163 HD
ATOM     30  O   UNL A   1      40.634  22.412  26.212  1.00  0.00    -0.269 OA
BRANCH  28  31
ATOM     31  C   UNL A   1      39.613  24.440  26.805  1.00  0.00     0.039 A 
ATOM     32  C   UNL A   1      39.014  24.600  28.057  1.00  0.00     0.014 A 
ATOM     33  C   UNL A   1      40.286  25.504  26.205  1.00  0.00     0.014 A 
ATOM     34  C   UNL A   1      39.211  25.786  28.766  1.00  0.00     0.010 A 
ATOM     35  C   UNL A   1      40.550  26.650  26.941  1.00  0.00     0.010 A 
ATOM     36  C   UNL A   1      40.044  26.787  28.241  1.00  0.00    -0.014 A 
BRANCH  36  37
ATOM     37  C   UNL A   1      40.490  27.941  29.055  1.00  0.00     0.031 A 
ATOM     38  C   UNL A   1      41.786  27.878  29.812  1.00  0.00     0.074 A 
ATOM     39  C   UNL A   1      39.646  28.980  29.222  1.00  0.00     0.049 A 
ATOM     40  N   UNL A   1      42.282  28.732  30.667  1.00  0.00    -0.248 NA
ATOM     41  C   UNL A   1      42.609  26.674  29.616  1.00  0.00     0.031 C 
ATOM     42  C   UNL A   1      38.314  29.096  28.618  1.00  0.00     0.029 A 
ATOM     43  N   UNL A   1      39.766  30.124  29.967  1.00  0.00    -0.354 N 
ATOM     44  C   UNL A   1      43.464  28.164  31.126  1.00  0.00     0.074 A 
ATOM     45  C   UNL A   1      43.582  26.867  30.496  1.00  0.00     0.031 C 
ATOM     46  C   UNL A   1      37.752  30.253  28.999  1.00  0.00     0.029 A 
ATOM     47  C   UNL A   1      38.667  30.949  29.896  1.00  0.00     0.049 A 
ATOM     48  H   UNL A   1      40.565  30.336  30.503  1.00  0.00     0.167 HD
ATOM     49  C   UNL A   1      44.379  28.690  31.974  1.00  0.00     0.037 A 
ATOM     50  C   UNL A   1      38.427  32.135  30.487  1.00  0.00     0.037 A 
ATOM     51  C   UNL A   1      44.262  29.998  32.564  1.00  0.00     0.049 A 
ATOM     52  C   UNL A   1      39.488  32.729  31.371  1.00  0.00     0.074 A 
ATOM     53  C   UNL A   1      45.166  30.664  33.373  1.00  0.00     0.029 A 
ATOM     54  N   UNL A   1      43.172  30.841  32.402  1.00  0.00    -0.354 N 
ATOM     55  N   UNL A   1      40.642  32.216  31.725  1.00  0.00    -0.248 NA
ATOM     56  C   UNL A   1      39.223  34.063  31.924  1.00  0.00     0.031 C 
ATOM     57  C   UNL A   1      44.611  31.900  33.721  1.00  0.00     0.029 A 
ATOM     58  C   UNL A   1      43.378  32.019  33.100  1.00  0.00     0.049 A 
ATOM     59  H   UNL A   1      42.370  30.632  31.871  1.00  0.00     0.167 HD
ATOM     60  C   UNL A   1      41.256  33.176  32.520  1.00  0.00     0.074 A 
ATOM     61  C   UNL A   1      40.347  34.303  32.586  1.00  0.00     0.031 C 
ATOM     62  C   UNL A   1      42.461  33.131  33.139  1.00  0.00     0.037 A 
BRANCH  49  63
ATOM     63  C   UNL A   1      45.597  27.864  32.287  1.00  0.00     0.058 A 
ATOM     64  C   UNL A   1      46.769  27.969  31.521  1.00  0.00     0.135 A 
ATOM     65  C   UNL A   1      45.608  26.982  33.380  1.00  0.00     0.135 A 
ATOM     66  F   UNL A   1      46.809  28.785  30.455  1.00  0.00    -0.206 F 
ATOM     67  C   UNL A   1      47.899  27.211  31.808  1.00  0.00     0.059 A 
ATOM     68  C   UNL A   1      46.737  26.234  33.703  1.00  0.00     0.059 A 
ATOM     69  F   UNL A   1      44.515  26.841  34.146  1.00  0.00    -0.206 F 
ATOM     70  C   UNL A   1      47.872  26.344  32.901  1.00  0.00     0.060 A 
BRANCH  70  71
ATOM     71  S   UNL A   1      49.352  25.377  33.268  1.00  0.00     0.124 S 
ATOM     72  O   UNL A   1      48.808  24.329  34.127  1.00  0.00    -0.237 OA
ATOM     73  O   UNL A   1      49.783  24.947  31.942  1.00  0.00    -0.237 OA
ATOM     74  O   UNL A   1      50.231  26.337  33.929  1.00  0.00    -0.744 OA
ENDBRANCH  70  71
ENDBRANCH  49  63
BRANCH  50  75
ATOM     75  C   UNL A   1      37.157  32.859  30.216  1.00  0.00     0.058 A 
ATOM     76  C   UNL A   1      37.045  33.715  29.110  1.00  0.00     0.135 A 
ATOM     77  C   UNL A   1      36.028  32.694  31.033  1.00  0.00     0.135 A 
ATOM     78  F   UNL A   1      38.097  33.903  28.300  1.00  0.00    -0.206 F 
ATOM     79  C   UNL A   1      35.866  34.398  28.834  1.00  0.00     0.059 A 
ATOM     80  C   UNL A   1      34.830  33.350  30.764  1.00  0.00     0.059 A 
ATOM     81  F   UNL A   1      36.077  31.867  32.088  1.00  0.00    -0.206 F 
ATOM     82  C   UNL A   1      34.762  34.209  29.667  1.00  0.00     0.060 A 
BRANCH  82  83
ATOM     83  S   UNL A   1      33.221  35.065  29.273  1.00  0.00     0.124 S 
ATOM     84  O   UNL A   1      33.714  36.349  28.789  1.00  0.00    -0.237 OA
ATOM     85  O   UNL A   1      32.630  34.187  28.267  1.00  0.00    -0.237 OA
ATOM     86  O   UNL A   1      32.521  35.098  30.553  1.00  0.00    -0.744 OA
ENDBRANCH  82  83
ENDBRANCH  50  75
BRANCH  62  87
ATOM     87  C   UNL A   1      42.878  34.348  33.912  1.00  0.00     0.058 A 
ATOM     88  C   UNL A   1      42.680  34.443  35.298  1.00  0.00     0.135 A 
ATOM     89  C   UNL A   1      43.527  35.410  33.264  1.00  0.00     0.135 A 
ATOM     90  F   UNL A   1      42.056  33.455  35.960  1.00  0.00    -0.206 F 
ATOM     91  C   UNL A   1      43.092  35.561  36.013  1.00  0.00     0.059 A 
ATOM     92  C   UNL A   1      43.969  36.528  33.963  1.00  0.00     0.059 A 
ATOM     93  F   UNL A   1      43.748  35.363  31.940  1.00  0.00    -0.206 F 
ATOM     94  C   UNL A   1      43.737  36.599  35.336  1.00  0.00     0.060 A 
BRANCH  94  95
ATOM     95  S   UNL A   1      44.298  38.031  36.280  1.00  0.00     0.124 S 
ATOM     96  O   UNL A   1      43.995  39.124  35.361  1.00  0.00    -0.237 OA
ATOM     97  O   UNL A   1      43.469  37.963  37.479  1.00  0.00    -0.237 OA
ATOM     98  O   UNL A   1      45.718  37.762  36.490  1.00  0.00    -0.744 OA
ENDBRANCH  94  95
ENDBRANCH  62  87
ENDBRANCH  36  37
ENDBRANCH  28  31
ENDBRANCH  26  27
ENDBRANCH  25  26
ENDBRANCH   1  25
TORSDOF 17
ENDMDL
