MODEL 1
REMARK VINA RESULT:     -11.9      0.000      0.000
REMARK SMILES O=C(NCCCNC(=O)[C@H]1CCCCN1C(=O)c1cc([N+](=O)[O-])c[nH]c1=O)c1ccc(-c2c3nc(c(-c4c(F)cc(S(=O)(=O)[O-])cc4F)c4ccc([nH]4)c(-c4c(F)cc(S(=O)(=O)[O-])cc4F)c4nc(c(-c5c(F)cc(S(=O)(=O)[O-])cc5F)c5ccc2[nH]5)C=C4)C=C3)cc1
REMARK SMILES IDX 5 1 4 2 3 3 1 4 2 5 28 7 29 8 93 9 30 10 92 11 31 12 32 13
REMARK SMILES IDX 33 14 86 15 34 16 91 17 85 18 87 19 35 20 90 21 84 22 83 23
REMARK SMILES IDX 36 25 70 26 49 27 69 28 50 29 53 30 68 31 88 32 51 33 52 34
REMARK SMILES IDX 67 36 89 37 54 38 37 39 38 40 47 41 39 42 40 43 46 44 48 45
REMARK SMILES IDX 41 46 42 47 43 48 44 49 45 50 71 51 72 52 81 53 73 54 74 55
REMARK SMILES IDX 80 56 82 57 75 58 76 59 77 60 78 61 79 62 55 63 56 64 65 65
REMARK SMILES IDX 57 66 58 67 64 68 66 69 59 70 60 71 61 72 62 73 63 74 6 75
REMARK SMILES IDX 7 76 8 77 9 79 10 80 11 81 15 82 12 83 14 84 13 85 16 86
REMARK SMILES IDX 17 87 18 88 19 89 26 90 20 91 25 92 27 93 24 94 21 96 22 97
REMARK SMILES IDX 23 98
REMARK H PARENT 3 6 87 24 53 35 7 78 25 95
REMARK Flexibility Score: inf
ROOT
ATOM      1  C   UNL A   1      34.054  28.272  25.159  1.00  0.00     0.042 C 
ENDROOT
BRANCH   1   2
ATOM      2  C   UNL A   1      33.995  28.318  26.676  1.00  0.00     0.118 C 
BRANCH   2   3
ATOM      3  N   UNL A   1      33.741  29.667  27.176  1.00  0.00    -0.352 N 
ATOM      4  O   UNL A   1      33.984  31.458  28.516  1.00  0.00    -0.269 OA
ATOM      5  C   UNL A   1      34.492  30.463  28.008  1.00  0.00     0.251 C 
ATOM      6  H   UNL A   1      32.897  30.070  26.867  1.00  0.00     0.163 HD
BRANCH   5   7
ATOM      7  C   UNL A   1      35.898  30.110  28.295  1.00  0.00     0.039 A 
ATOM      8  C   UNL A   1      36.882  30.328  27.331  1.00  0.00     0.014 A 
ATOM      9  C   UNL A   1      36.250  29.580  29.540  1.00  0.00     0.014 A 
ATOM     10  C   UNL A   1      38.161  29.837  27.526  1.00  0.00     0.010 A 
ATOM     11  C   UNL A   1      37.577  29.216  29.790  1.00  0.00     0.010 A 
ATOM     12  C   UNL A   1      38.538  29.316  28.773  1.00  0.00    -0.014 A 
BRANCH  12  13
ATOM     13  C   UNL A   1      39.969  28.990  28.993  1.00  0.00     0.031 A 
ATOM     14  C   UNL A   1      40.542  27.661  28.591  1.00  0.00     0.074 A 
ATOM     15  C   UNL A   1      40.760  29.948  29.522  1.00  0.00     0.049 A 
ATOM     16  N   UNL A   1      41.775  27.235  28.701  1.00  0.00    -0.248 NA
ATOM     17  C   UNL A   1      39.621  26.678  27.999  1.00  0.00     0.031 C 
ATOM     18  C   UNL A   1      40.298  31.272  29.958  1.00  0.00     0.029 A 
ATOM     19  N   UNL A   1      42.108  29.980  29.754  1.00  0.00    -0.354 N 
ATOM     20  C   UNL A   1      41.775  25.932  28.219  1.00  0.00     0.074 A 
ATOM     21  C   UNL A   1      40.415  25.628  27.828  1.00  0.00     0.031 C 
ATOM     22  C   UNL A   1      41.351  32.005  30.340  1.00  0.00     0.029 A 
ATOM     23  C   UNL A   1      42.548  31.180  30.265  1.00  0.00     0.049 A 
ATOM     24  H   UNL A   1      42.706  29.219  29.574  1.00  0.00     0.167 HD
ATOM     25  C   UNL A   1      42.819  25.075  28.112  1.00  0.00     0.037 A 
ATOM     26  C   UNL A   1      43.775  31.569  30.657  1.00  0.00     0.037 A 
ATOM     27  C   UNL A   1      44.172  25.407  28.484  1.00  0.00     0.049 A 
ATOM     28  C   UNL A   1      44.907  30.593  30.537  1.00  0.00     0.074 A 
ATOM     29  C   UNL A   1      45.308  24.622  28.386  1.00  0.00     0.029 A 
ATOM     30  N   UNL A   1      44.574  26.621  29.024  1.00  0.00    -0.354 N 
ATOM     31  N   UNL A   1      44.889  29.369  30.063  1.00  0.00    -0.248 NA
ATOM     32  C   UNL A   1      46.221  31.040  31.013  1.00  0.00     0.031 C 
ATOM     33  C   UNL A   1      46.387  25.343  28.908  1.00  0.00     0.029 A 
ATOM     34  C   UNL A   1      45.935  26.598  29.284  1.00  0.00     0.049 A 
ATOM     35  H   UNL A   1      43.979  27.386  29.197  1.00  0.00     0.167 HD
ATOM     36  C   UNL A   1      46.191  28.904  30.172  1.00  0.00     0.074 A 
ATOM     37  C   UNL A   1      46.975  29.986  30.735  1.00  0.00     0.031 C 
ATOM     38  C   UNL A   1      46.694  27.689  29.842  1.00  0.00     0.037 A 
BRANCH  25  39
ATOM     39  C   UNL A   1      42.551  23.689  27.593  1.00  0.00     0.058 A 
ATOM     40  C   UNL A   1      42.489  23.411  26.218  1.00  0.00     0.135 A 
ATOM     41  C   UNL A   1      42.426  22.610  28.483  1.00  0.00     0.135 A 
ATOM     42  F   UNL A   1      42.585  24.406  25.321  1.00  0.00    -0.206 F 
ATOM     43  C   UNL A   1      42.303  22.114  25.746  1.00  0.00     0.059 A 
ATOM     44  C   UNL A   1      42.264  21.302  28.033  1.00  0.00     0.059 A 
ATOM     45  F   UNL A   1      42.475  22.819  29.808  1.00  0.00    -0.206 F 
ATOM     46  C   UNL A   1      42.196  21.066  26.661  1.00  0.00     0.060 A 
BRANCH  46  47
ATOM     47  S   UNL A   1      41.984  19.387  26.032  1.00  0.00     0.124 S 
ATOM     48  O   UNL A   1      40.546  19.349  25.782  1.00  0.00    -0.237 OA
ATOM     49  O   UNL A   1      42.832  19.390  24.844  1.00  0.00    -0.237 OA
ATOM     50  O   UNL A   1      42.452  18.548  27.130  1.00  0.00    -0.744 OA
ENDBRANCH  46  47
ENDBRANCH  25  39
BRANCH  26  51
ATOM     51  C   UNL A   1      43.976  32.926  31.227  1.00  0.00     0.058 A 
ATOM     52  C   UNL A   1      43.858  33.162  32.604  1.00  0.00     0.135 A 
ATOM     53  C   UNL A   1      44.310  34.014  30.403  1.00  0.00     0.135 A 
ATOM     54  F   UNL A   1      43.542  32.156  33.433  1.00  0.00    -0.206 F 
ATOM     55  C   UNL A   1      44.044  34.432  33.143  1.00  0.00     0.059 A 
ATOM     56  C   UNL A   1      44.531  35.284  30.921  1.00  0.00     0.059 A 
ATOM     57  F   UNL A   1      44.457  33.836  29.081  1.00  0.00    -0.206 F 
ATOM     58  C   UNL A   1      44.380  35.486  32.291  1.00  0.00     0.060 A 
BRANCH  58  59
ATOM     59  S   UNL A   1      44.648  37.125  32.999  1.00  0.00     0.124 S 
ATOM     60  O   UNL A   1      44.601  37.968  31.810  1.00  0.00    -0.237 OA
ATOM     61  O   UNL A   1      43.522  37.252  33.919  1.00  0.00    -0.237 OA
ATOM     62  O   UNL A   1      45.956  37.004  33.636  1.00  0.00    -0.744 OA
ENDBRANCH  58  59
ENDBRANCH  26  51
BRANCH  38  63
ATOM     63  C   UNL A   1      48.166  27.482  30.055  1.00  0.00     0.058 A 
ATOM     64  C   UNL A   1      48.665  26.923  31.241  1.00  0.00     0.135 A 
ATOM     65  C   UNL A   1      49.083  27.818  29.047  1.00  0.00     0.135 A 
ATOM     66  F   UNL A   1      47.829  26.595  32.239  1.00  0.00    -0.206 F 
ATOM     67  C   UNL A   1      50.028  26.727  31.431  1.00  0.00     0.059 A 
ATOM     68  C   UNL A   1      50.447  27.606  29.205  1.00  0.00     0.059 A 
ATOM     69  F   UNL A   1      48.654  28.350  27.891  1.00  0.00    -0.206 F 
ATOM     70  C   UNL A   1      50.911  27.071  30.407  1.00  0.00     0.060 A 
BRANCH  70  71
ATOM     71  S   UNL A   1      52.677  26.788  30.654  1.00  0.00     0.124 S 
ATOM     72  O   UNL A   1      53.125  26.516  29.292  1.00  0.00    -0.237 OA
ATOM     73  O   UNL A   1      53.119  28.055  31.227  1.00  0.00    -0.237 OA
ATOM     74  O   UNL A   1      52.713  25.649  31.567  1.00  0.00    -0.744 OA
ENDBRANCH  70  71
ENDBRANCH  38  63
ENDBRANCH  12  13
ENDBRANCH   5   7
ENDBRANCH   2   3
ENDBRANCH   1   2
BRANCH   1  75
ATOM     75  C   UNL A   1      32.886  27.513  24.560  1.00  0.00     0.117 C 
BRANCH  75  76
ATOM     76  N   UNL A   1      33.308  26.573  23.539  1.00  0.00    -0.354 N 
ATOM     77  C   UNL A   1      33.690  25.276  23.535  1.00  0.00     0.242 C 
ATOM     78  H   UNL A   1      33.319  26.973  22.639  1.00  0.00     0.163 HD
ATOM     79  O   UNL A   1      33.924  24.819  22.407  1.00  0.00    -0.273 OA
BRANCH  77  80
ATOM     80  C   UNL A   1      33.868  24.374  24.789  1.00  0.00     0.174 C 
ATOM     81  C   UNL A   1      33.225  24.710  26.134  1.00  0.00     0.035 C 
ATOM     82  N   UNL A   1      33.393  23.011  24.452  1.00  0.00    -0.326 N 
ATOM     83  C   UNL A   1      31.693  24.633  26.079  1.00  0.00     0.004 C 
ATOM     84  C   UNL A   1      31.943  22.905  24.255  1.00  0.00     0.120 C 
ATOM     85  C   UNL A   1      31.222  23.280  25.548  1.00  0.00     0.022 C 
BRANCH  82  86
ATOM     86  C   UNL A   1      34.288  21.959  24.523  1.00  0.00     0.260 C 
ATOM     87  O   UNL A   1      35.509  22.102  24.467  1.00  0.00    -0.269 OA
BRANCH  86  88
ATOM     88  C   UNL A   1      33.754  20.629  24.884  1.00  0.00     0.111 A 
ATOM     89  C   UNL A   1      33.633  19.737  23.881  1.00  0.00     0.107 A 
ATOM     90  C   UNL A   1      33.359  20.251  26.271  1.00  0.00     0.261 A 
ATOM     91  C   UNL A   1      33.153  18.397  24.148  1.00  0.00     0.286 A 
ATOM     92  N   UNL A   1      32.929  18.947  26.428  1.00  0.00    -0.322 N 
ATOM     93  O   UNL A   1      33.434  21.010  27.226  1.00  0.00    -0.269 OA
ATOM     94  C   UNL A   1      32.825  18.035  25.400  1.00  0.00     0.172 A 
ATOM     95  H   UNL A   1      32.681  18.651  27.334  1.00  0.00     0.169 HD
BRANCH  91  96
ATOM     96  N   UNL A   1      33.037  17.395  23.089  1.00  0.00     0.064 N 
ATOM     97  O   UNL A   1      32.233  17.602  22.169  1.00  0.00    -0.258 OA
ATOM     98  O   UNL A   1      33.750  16.387  23.182  1.00  0.00    -0.258 OA
ENDBRANCH  91  96
ENDBRANCH  86  88
ENDBRANCH  82  86
ENDBRANCH  77  80
ENDBRANCH  75  76
ENDBRANCH   1  75
TORSDOF 16
ENDMDL
MODEL 2
REMARK VINA RESULT:     -11.8      4.231      7.833
REMARK SMILES O=C(NCCCNC(=O)[C@H]1CCCCN1C(=O)c1cc([N+](=O)[O-])c[nH]c1=O)c1ccc(-c2c3nc(c(-c4c(F)cc(S(=O)(=O)[O-])cc4F)c4ccc([nH]4)c(-c4c(F)cc(S(=O)(=O)[O-])cc4F)c4nc(c(-c5c(F)cc(S(=O)(=O)[O-])cc5F)c5ccc2[nH]5)C=C4)C=C3)cc1
REMARK SMILES IDX 5 1 4 2 3 3 1 4 2 5 28 7 29 8 93 9 30 10 92 11 31 12 32 13
REMARK SMILES IDX 33 14 86 15 34 16 91 17 85 18 87 19 35 20 90 21 84 22 83 23
REMARK SMILES IDX 36 25 70 26 49 27 69 28 50 29 53 30 68 31 88 32 51 33 52 34
REMARK SMILES IDX 67 36 89 37 54 38 37 39 38 40 47 41 39 42 40 43 46 44 48 45
REMARK SMILES IDX 41 46 42 47 43 48 44 49 45 50 71 51 72 52 81 53 73 54 74 55
REMARK SMILES IDX 80 56 82 57 75 58 76 59 77 60 78 61 79 62 55 63 56 64 65 65
REMARK SMILES IDX 57 66 58 67 64 68 66 69 59 70 60 71 61 72 62 73 63 74 6 75
REMARK SMILES IDX 7 76 8 77 9 79 10 80 11 81 15 82 12 83 14 84 13 85 16 86
REMARK SMILES IDX 17 87 18 88 19 89 26 90 20 91 25 92 27 93 24 94 21 96 22 97
REMARK SMILES IDX 23 98
REMARK H PARENT 3 6 87 24 53 35 7 78 25 95
REMARK Flexibility Score: inf
ROOT
ATOM      1  C   UNL A   1      35.774  33.129  29.120  1.00  0.00     0.042 C 
ENDROOT
BRANCH   1   2
ATOM      2  C   UNL A   1      35.092  32.837  27.794  1.00  0.00     0.118 C 
BRANCH   2   3
ATOM      3  N   UNL A   1      34.283  31.622  27.848  1.00  0.00    -0.352 N 
ATOM      4  O   UNL A   1      33.838  29.423  27.678  1.00  0.00    -0.269 OA
ATOM      5  C   UNL A   1      34.664  30.302  27.902  1.00  0.00     0.251 C 
ATOM      6  H   UNL A   1      33.310  31.772  27.845  1.00  0.00     0.163 HD
BRANCH   5   7
ATOM      7  C   UNL A   1      36.066  29.952  28.214  1.00  0.00     0.039 A 
ATOM      8  C   UNL A   1      37.051  30.085  27.238  1.00  0.00     0.014 A 
ATOM      9  C   UNL A   1      36.411  29.510  29.496  1.00  0.00     0.014 A 
ATOM     10  C   UNL A   1      38.323  29.592  27.468  1.00  0.00     0.010 A 
ATOM     11  C   UNL A   1      37.733  29.148  29.772  1.00  0.00     0.010 A 
ATOM     12  C   UNL A   1      38.695  29.160  28.750  1.00  0.00    -0.014 A 
BRANCH  12  13
ATOM     13  C   UNL A   1      40.122  28.831  28.994  1.00  0.00     0.031 A 
ATOM     14  C   UNL A   1      40.706  27.512  28.577  1.00  0.00     0.074 A 
ATOM     15  C   UNL A   1      40.899  29.780  29.559  1.00  0.00     0.049 A 
ATOM     16  N   UNL A   1      41.937  27.086  28.705  1.00  0.00    -0.248 NA
ATOM     17  C   UNL A   1      39.799  26.539  27.946  1.00  0.00     0.031 C 
ATOM     18  C   UNL A   1      40.425  31.094  30.012  1.00  0.00     0.029 A 
ATOM     19  N   UNL A   1      42.242  29.810  29.820  1.00  0.00    -0.354 N 
ATOM     20  C   UNL A   1      41.950  25.793  28.197  1.00  0.00     0.074 A 
ATOM     21  C   UNL A   1      40.599  25.495  27.771  1.00  0.00     0.031 C 
ATOM     22  C   UNL A   1      41.468  31.821  30.431  1.00  0.00     0.029 A 
ATOM     23  C   UNL A   1      42.669  31.000  30.364  1.00  0.00     0.049 A 
ATOM     24  H   UNL A   1      42.845  29.054  29.637  1.00  0.00     0.167 HD
ATOM     25  C   UNL A   1      42.998  24.940  28.095  1.00  0.00     0.037 A 
ATOM     26  C   UNL A   1      43.886  31.382  30.790  1.00  0.00     0.037 A 
ATOM     27  C   UNL A   1      44.342  25.266  28.502  1.00  0.00     0.049 A 
ATOM     28  C   UNL A   1      45.022  30.411  30.675  1.00  0.00     0.074 A 
ATOM     29  C   UNL A   1      45.481  24.485  28.412  1.00  0.00     0.029 A 
ATOM     30  N   UNL A   1      44.730  26.470  29.075  1.00  0.00    -0.354 N 
ATOM     31  N   UNL A   1      45.017  29.197  30.176  1.00  0.00    -0.248 NA
ATOM     32  C   UNL A   1      46.325  30.851  31.187  1.00  0.00     0.031 C 
ATOM     33  C   UNL A   1      46.547  25.198  28.972  1.00  0.00     0.029 A 
ATOM     34  C   UNL A   1      46.085  26.444  29.363  1.00  0.00     0.049 A 
ATOM     35  H   UNL A   1      44.129  27.231  29.250  1.00  0.00     0.167 HD
ATOM     36  C   UNL A   1      46.318  28.732  30.303  1.00  0.00     0.074 A 
ATOM     37  C   UNL A   1      47.087  29.804  30.904  1.00  0.00     0.031 C 
ATOM     38  C   UNL A   1      46.830  27.525  29.959  1.00  0.00     0.037 A 
BRANCH  25  39
ATOM     39  C   UNL A   1      42.743  23.565  27.542  1.00  0.00     0.058 A 
ATOM     40  C   UNL A   1      42.873  23.280  26.173  1.00  0.00     0.135 A 
ATOM     41  C   UNL A   1      42.437  22.499  28.404  1.00  0.00     0.135 A 
ATOM     42  F   UNL A   1      43.147  24.262  25.300  1.00  0.00    -0.206 F 
ATOM     43  C   UNL A   1      42.697  21.989  25.679  1.00  0.00     0.059 A 
ATOM     44  C   UNL A   1      42.281  21.197  27.936  1.00  0.00     0.059 A 
ATOM     45  F   UNL A   1      42.299  22.715  29.722  1.00  0.00    -0.206 F 
ATOM     46  C   UNL A   1      42.405  20.954  26.569  1.00  0.00     0.060 A 
BRANCH  46  47
ATOM     47  S   UNL A   1      42.209  19.282  25.916  1.00  0.00     0.124 S 
ATOM     48  O   UNL A   1      42.685  18.475  27.036  1.00  0.00    -0.237 OA
ATOM     49  O   UNL A   1      40.775  19.216  25.653  1.00  0.00    -0.237 OA
ATOM     50  O   UNL A   1      43.062  19.276  24.731  1.00  0.00    -0.744 OA
ENDBRANCH  46  47
ENDBRANCH  25  39
BRANCH  26  51
ATOM     51  C   UNL A   1      44.072  32.728  31.392  1.00  0.00     0.058 A 
ATOM     52  C   UNL A   1      44.435  33.832  30.609  1.00  0.00     0.135 A 
ATOM     53  C   UNL A   1      43.871  32.939  32.766  1.00  0.00     0.135 A 
ATOM     54  F   UNL A   1      44.637  33.683  29.291  1.00  0.00    -0.206 F 
ATOM     55  C   UNL A   1      44.613  35.094  31.168  1.00  0.00     0.059 A 
ATOM     56  C   UNL A   1      44.011  34.195  33.343  1.00  0.00     0.059 A 
ATOM     57  F   UNL A   1      43.501  31.919  33.557  1.00  0.00    -0.206 F 
ATOM     58  C   UNL A   1      44.399  35.264  32.537  1.00  0.00     0.060 A 
BRANCH  58  59
ATOM     59  S   UNL A   1      44.602  36.909  33.252  1.00  0.00     0.124 S 
ATOM     60  O   UNL A   1      44.125  36.697  34.614  1.00  0.00    -0.237 OA
ATOM     61  O   UNL A   1      46.036  37.135  33.104  1.00  0.00    -0.237 OA
ATOM     62  O   UNL A   1      43.755  37.747  32.409  1.00  0.00    -0.744 OA
ENDBRANCH  58  59
ENDBRANCH  26  51
BRANCH  38  63
ATOM     63  C   UNL A   1      48.298  27.316  30.199  1.00  0.00     0.058 A 
ATOM     64  C   UNL A   1      48.776  26.784  31.406  1.00  0.00     0.135 A 
ATOM     65  C   UNL A   1      49.231  27.623  29.197  1.00  0.00     0.135 A 
ATOM     66  F   UNL A   1      47.924  26.484  32.399  1.00  0.00    -0.206 F 
ATOM     67  C   UNL A   1      50.135  26.586  31.621  1.00  0.00     0.059 A 
ATOM     68  C   UNL A   1      50.592  27.408  29.380  1.00  0.00     0.059 A 
ATOM     69  F   UNL A   1      48.822  28.128  28.022  1.00  0.00    -0.206 F 
ATOM     70  C   UNL A   1      51.035  26.901  30.601  1.00  0.00     0.060 A 
BRANCH  70  71
ATOM     71  S   UNL A   1      52.795  26.615  30.882  1.00  0.00     0.124 S 
ATOM     72  O   UNL A   1      52.768  25.429  31.731  1.00  0.00    -0.237 OA
ATOM     73  O   UNL A   1      53.299  26.415  29.527  1.00  0.00    -0.237 OA
ATOM     74  O   UNL A   1      53.239  27.844  31.533  1.00  0.00    -0.744 OA
ENDBRANCH  70  71
ENDBRANCH  38  63
ENDBRANCH  12  13
ENDBRANCH   5   7
ENDBRANCH   2   3
ENDBRANCH   1   2
BRANCH   1  75
ATOM     75  C   UNL A   1      37.278  33.260  28.978  1.00  0.00     0.117 C 
BRANCH  75  76
ATOM     76  N   UNL A   1      37.894  33.820  30.165  1.00  0.00    -0.354 N 
ATOM     77  C   UNL A   1      37.723  33.656  31.497  1.00  0.00     0.242 C 
ATOM     78  H   UNL A   1      38.602  34.471  29.953  1.00  0.00     0.163 HD
ATOM     79  O   UNL A   1      38.518  34.303  32.194  1.00  0.00    -0.273 OA
BRANCH  77  80
ATOM     80  C   UNL A   1      36.637  32.773  32.174  1.00  0.00     0.174 C 
ATOM     81  C   UNL A   1      36.976  31.465  32.887  1.00  0.00     0.035 C 
ATOM     82  N   UNL A   1      35.927  33.601  33.179  1.00  0.00    -0.326 N 
ATOM     83  C   UNL A   1      37.824  31.694  34.145  1.00  0.00     0.004 C 
ATOM     84  C   UNL A   1      36.737  33.964  34.347  1.00  0.00     0.120 C 
ATOM     85  C   UNL A   1      37.164  32.699  35.088  1.00  0.00     0.022 C 
BRANCH  82  86
ATOM     86  C   UNL A   1      34.567  33.805  33.031  1.00  0.00     0.260 C 
ATOM     87  O   UNL A   1      33.713  33.075  33.532  1.00  0.00    -0.269 OA
BRANCH  86  88
ATOM     88  C   UNL A   1      34.130  35.073  32.410  1.00  0.00     0.111 A 
ATOM     89  C   UNL A   1      33.785  35.018  31.108  1.00  0.00     0.107 A 
ATOM     90  C   UNL A   1      34.056  36.366  33.148  1.00  0.00     0.261 A 
ATOM     91  C   UNL A   1      33.308  36.203  30.427  1.00  0.00     0.286 A 
ATOM     92  N   UNL A   1      33.574  37.436  32.417  1.00  0.00    -0.322 N 
ATOM     93  O   UNL A   1      34.360  36.492  34.325  1.00  0.00    -0.269 OA
ATOM     94  C   UNL A   1      33.207  37.368  31.091  1.00  0.00     0.172 A 
ATOM     95  H   UNL A   1      33.489  38.304  32.875  1.00  0.00     0.169 HD
BRANCH  91  96
ATOM     96  N   UNL A   1      32.898  36.173  29.024  1.00  0.00     0.064 N 
ATOM     97  O   UNL A   1      32.524  35.093  28.544  1.00  0.00    -0.258 OA
ATOM     98  O   UNL A   1      32.959  37.236  28.392  1.00  0.00    -0.258 OA
ENDBRANCH  91  96
ENDBRANCH  86  88
ENDBRANCH  82  86
ENDBRANCH  77  80
ENDBRANCH  75  76
ENDBRANCH   1  75
TORSDOF 16
ENDMDL
MODEL 3
REMARK VINA RESULT:     -11.7      5.036      9.518
REMARK SMILES O=C(NCCCNC(=O)[C@H]1CCCCN1C(=O)c1cc([N+](=O)[O-])c[nH]c1=O)c1ccc(-c2c3nc(c(-c4c(F)cc(S(=O)(=O)[O-])cc4F)c4ccc([nH]4)c(-c4c(F)cc(S(=O)(=O)[O-])cc4F)c4nc(c(-c5c(F)cc(S(=O)(=O)[O-])cc5F)c5ccc2[nH]5)C=C4)C=C3)cc1
REMARK SMILES IDX 5 1 4 2 3 3 1 4 2 5 28 7 29 8 93 9 30 10 92 11 31 12 32 13
REMARK SMILES IDX 33 14 86 15 34 16 91 17 85 18 87 19 35 20 90 21 84 22 83 23
REMARK SMILES IDX 36 25 70 26 49 27 69 28 50 29 53 30 68 31 88 32 51 33 52 34
REMARK SMILES IDX 67 36 89 37 54 38 37 39 38 40 47 41 39 42 40 43 46 44 48 45
REMARK SMILES IDX 41 46 42 47 43 48 44 49 45 50 71 51 72 52 81 53 73 54 74 55
REMARK SMILES IDX 80 56 82 57 75 58 76 59 77 60 78 61 79 62 55 63 56 64 65 65
REMARK SMILES IDX 57 66 58 67 64 68 66 69 59 70 60 71 61 72 62 73 63 74 6 75
REMARK SMILES IDX 7 76 8 77 9 79 10 80 11 81 15 82 12 83 14 84 13 85 16 86
REMARK SMILES IDX 17 87 18 88 19 89 26 90 20 91 25 92 27 93 24 94 21 96 22 97
REMARK SMILES IDX 23 98
REMARK H PARENT 3 6 87 24 53 35 7 78 25 95
REMARK Flexibility Score: inf
ROOT
ATOM      1  C   UNL A   1      38.583  22.592  26.154  1.00  0.00     0.042 C 
ENDROOT
BRANCH   1   2
ATOM      2  C   UNL A   1      39.469  23.575  26.899  1.00  0.00     0.118 C 
BRANCH   2   3
ATOM      3  N   UNL A   1      40.463  24.192  26.025  1.00  0.00    -0.352 N 
ATOM      4  O   UNL A   1      41.638  25.864  25.082  1.00  0.00    -0.269 OA
ATOM      5  C   UNL A   1      41.015  25.451  26.056  1.00  0.00     0.251 C 
ATOM      6  H   UNL A   1      40.791  23.613  25.299  1.00  0.00     0.163 HD
BRANCH   5   7
ATOM      7  C   UNL A   1      40.844  26.302  27.252  1.00  0.00     0.039 A 
ATOM      8  C   UNL A   1      41.601  27.463  27.395  1.00  0.00     0.014 A 
ATOM      9  C   UNL A   1      39.906  25.958  28.231  1.00  0.00     0.014 A 
ATOM     10  C   UNL A   1      41.573  28.164  28.588  1.00  0.00     0.010 A 
ATOM     11  C   UNL A   1      39.775  26.750  29.376  1.00  0.00     0.010 A 
ATOM     12  C   UNL A   1      40.630  27.845  29.576  1.00  0.00    -0.014 A 
BRANCH  12  13
ATOM     13  C   UNL A   1      40.507  28.749  30.747  1.00  0.00     0.031 A 
ATOM     14  C   UNL A   1      41.425  28.630  31.929  1.00  0.00     0.074 A 
ATOM     15  C   UNL A   1      39.574  29.723  30.696  1.00  0.00     0.049 A 
ATOM     16  N   UNL A   1      41.456  29.356  33.018  1.00  0.00    -0.248 NA
ATOM     17  C   UNL A   1      42.434  27.557  31.899  1.00  0.00     0.031 C 
ATOM     18  C   UNL A   1      38.622  29.918  29.596  1.00  0.00     0.029 A 
ATOM     19  N   UNL A   1      39.287  30.745  31.560  1.00  0.00    -0.354 N 
ATOM     20  C   UNL A   1      42.461  28.817  33.811  1.00  0.00     0.074 A 
ATOM     21  C   UNL A   1      43.011  27.692  33.087  1.00  0.00     0.031 C 
ATOM     22  C   UNL A   1      37.906  31.027  29.819  1.00  0.00     0.029 A 
ATOM     23  C   UNL A   1      38.280  31.572  31.117  1.00  0.00     0.049 A 
ATOM     24  H   UNL A   1      39.755  30.876  32.416  1.00  0.00     0.167 HD
ATOM     25  C   UNL A   1      42.884  29.233  35.029  1.00  0.00     0.037 A 
ATOM     26  C   UNL A   1      37.698  32.635  31.700  1.00  0.00     0.037 A 
ATOM     27  C   UNL A   1      42.340  30.373  35.723  1.00  0.00     0.049 A 
ATOM     28  C   UNL A   1      38.181  33.061  33.054  1.00  0.00     0.074 A 
ATOM     29  C   UNL A   1      42.720  30.897  36.947  1.00  0.00     0.029 A 
ATOM     30  N   UNL A   1      41.302  31.168  35.256  1.00  0.00    -0.354 N 
ATOM     31  N   UNL A   1      39.145  32.548  33.780  1.00  0.00    -0.248 NA
ATOM     32  C   UNL A   1      37.495  34.201  33.673  1.00  0.00     0.031 C 
ATOM     33  C   UNL A   1      41.881  31.978  37.241  1.00  0.00     0.029 A 
ATOM     34  C   UNL A   1      41.014  32.163  36.176  1.00  0.00     0.049 A 
ATOM     35  H   UNL A   1      40.839  31.043  34.396  1.00  0.00     0.167 HD
ATOM     36  C   UNL A   1      39.191  33.310  34.939  1.00  0.00     0.074 A 
ATOM     37  C   UNL A   1      38.172  34.333  34.805  1.00  0.00     0.031 C 
ATOM     38  C   UNL A   1      39.997  33.173  36.020  1.00  0.00     0.037 A 
BRANCH  25  39
ATOM     39  C   UNL A   1      43.973  28.448  35.709  1.00  0.00     0.058 A 
ATOM     40  C   UNL A   1      45.332  28.750  35.523  1.00  0.00     0.135 A 
ATOM     41  C   UNL A   1      43.650  27.426  36.616  1.00  0.00     0.135 A 
ATOM     42  F   UNL A   1      45.700  29.705  34.655  1.00  0.00    -0.206 F 
ATOM     43  C   UNL A   1      46.330  28.059  36.206  1.00  0.00     0.059 A 
ATOM     44  C   UNL A   1      44.630  26.739  37.328  1.00  0.00     0.059 A 
ATOM     45  F   UNL A   1      42.367  27.094  36.830  1.00  0.00    -0.206 F 
ATOM     46  C   UNL A   1      45.969  27.058  37.109  1.00  0.00     0.060 A 
BRANCH  46  47
ATOM     47  S   UNL A   1      47.275  26.192  38.006  1.00  0.00     0.124 S 
ATOM     48  O   UNL A   1      47.721  25.224  37.008  1.00  0.00    -0.237 OA
ATOM     49  O   UNL A   1      48.213  27.269  38.307  1.00  0.00    -0.237 OA
ATOM     50  O   UNL A   1      46.581  25.628  39.160  1.00  0.00    -0.744 OA
ENDBRANCH  46  47
ENDBRANCH  25  39
BRANCH  26  51
ATOM     51  C   UNL A   1      36.580  33.335  31.017  1.00  0.00     0.058 A 
ATOM     52  C   UNL A   1      36.804  34.145  29.896  1.00  0.00     0.135 A 
ATOM     53  C   UNL A   1      35.256  33.192  31.466  1.00  0.00     0.135 A 
ATOM     54  F   UNL A   1      38.050  34.314  29.428  1.00  0.00    -0.206 F 
ATOM     55  C   UNL A   1      35.760  34.806  29.254  1.00  0.00     0.059 A 
ATOM     56  C   UNL A   1      34.193  33.815  30.824  1.00  0.00     0.059 A 
ATOM     57  F   UNL A   1      34.985  32.409  32.522  1.00  0.00    -0.206 F 
ATOM     58  C   UNL A   1      34.458  34.633  29.728  1.00  0.00     0.060 A 
BRANCH  58  59
ATOM     59  S   UNL A   1      33.105  35.469  28.874  1.00  0.00     0.124 S 
ATOM     60  O   UNL A   1      33.826  36.448  28.070  1.00  0.00    -0.237 OA
ATOM     61  O   UNL A   1      32.480  34.373  28.139  1.00  0.00    -0.237 OA
ATOM     62  O   UNL A   1      32.305  36.014  29.967  1.00  0.00    -0.744 OA
ENDBRANCH  58  59
ENDBRANCH  26  51
BRANCH  38  63
ATOM     63  C   UNL A   1      39.827  34.173  37.127  1.00  0.00     0.058 A 
ATOM     64  C   UNL A   1      39.098  33.869  38.286  1.00  0.00     0.135 A 
ATOM     65  C   UNL A   1      40.426  35.439  37.037  1.00  0.00     0.135 A 
ATOM     66  F   UNL A   1      38.496  32.676  38.414  1.00  0.00    -0.206 F 
ATOM     67  C   UNL A   1      38.948  34.797  39.311  1.00  0.00     0.059 A 
ATOM     68  C   UNL A   1      40.313  36.372  38.061  1.00  0.00     0.059 A 
ATOM     69  F   UNL A   1      41.140  35.775  35.950  1.00  0.00    -0.206 F 
ATOM     70  C   UNL A   1      39.561  36.046  39.189  1.00  0.00     0.060 A 
BRANCH  70  71
ATOM     71  S   UNL A   1      39.382  37.232  40.537  1.00  0.00     0.124 S 
ATOM     72  O   UNL A   1      38.603  38.288  39.898  1.00  0.00    -0.237 OA
ATOM     73  O   UNL A   1      38.680  36.451  41.550  1.00  0.00    -0.237 OA
ATOM     74  O   UNL A   1      40.760  37.580  40.868  1.00  0.00    -0.744 OA
ENDBRANCH  70  71
ENDBRANCH  38  63
ENDBRANCH  12  13
ENDBRANCH   5   7
ENDBRANCH   2   3
ENDBRANCH   1   2
BRANCH   1  75
ATOM     75  C   UNL A   1      37.207  23.160  25.864  1.00  0.00     0.117 C 
BRANCH  75  76
ATOM     76  N   UNL A   1      36.833  23.007  24.471  1.00  0.00    -0.354 N 
ATOM     77  C   UNL A   1      35.731  23.296  23.742  1.00  0.00     0.242 C 
ATOM     78  H   UNL A   1      37.547  22.597  23.930  1.00  0.00     0.163 HD
ATOM     79  O   UNL A   1      35.844  23.048  22.532  1.00  0.00    -0.273 OA
BRANCH  77  80
ATOM     80  C   UNL A   1      34.395  23.866  24.296  1.00  0.00     0.174 C 
ATOM     81  C   UNL A   1      34.085  25.362  24.301  1.00  0.00     0.035 C 
ATOM     82  N   UNL A   1      33.277  23.230  23.557  1.00  0.00    -0.326 N 
ATOM     83  C   UNL A   1      33.940  25.927  22.881  1.00  0.00     0.004 C 
ATOM     84  C   UNL A   1      33.173  23.635  22.151  1.00  0.00     0.120 C 
ATOM     85  C   UNL A   1      32.915  25.138  22.069  1.00  0.00     0.022 C 
BRANCH  82  86
ATOM     86  C   UNL A   1      32.355  22.480  24.264  1.00  0.00     0.260 C 
ATOM     87  O   UNL A   1      31.210  22.862  24.504  1.00  0.00    -0.269 OA
BRANCH  86  88
ATOM     88  C   UNL A   1      32.703  21.076  24.565  1.00  0.00     0.111 A 
ATOM     89  C   UNL A   1      32.584  20.195  23.551  1.00  0.00     0.107 A 
ATOM     90  C   UNL A   1      33.167  20.613  25.904  1.00  0.00     0.261 A 
ATOM     91  C   UNL A   1      32.938  18.805  23.745  1.00  0.00     0.286 A 
ATOM     92  N   UNL A   1      33.496  19.273  25.985  1.00  0.00    -0.322 N 
ATOM     93  O   UNL A   1      33.290  21.352  26.869  1.00  0.00    -0.269 OA
ATOM     94  C   UNL A   1      33.389  18.383  24.939  1.00  0.00     0.172 A 
ATOM     95  H   UNL A   1      33.829  18.933  26.847  1.00  0.00     0.169 HD
BRANCH  91  96
ATOM     96  N   UNL A   1      32.849  17.829  22.658  1.00  0.00     0.064 N 
ATOM     97  O   UNL A   1      33.458  16.757  22.780  1.00  0.00    -0.258 OA
ATOM     98  O   UNL A   1      32.171  18.142  21.670  1.00  0.00    -0.258 OA
ENDBRANCH  91  96
ENDBRANCH  86  88
ENDBRANCH  82  86
ENDBRANCH  77  80
ENDBRANCH  75  76
ENDBRANCH   1  75
TORSDOF 16
ENDMDL
