MODEL 1
REMARK VINA RESULT:     -12.1      0.000      0.000
REMARK SMILES CCn1cc(C(=O)/C=C/c2cccc(O[C@H](C)C(=O)NCCCNC(=O)c3ccc(-c4c5nc(c(-c6c(F)cc(S(=O)(=O)[O-])cc6F)c6ccc([nH]6)c(-c6c(F)cc(S(=O)(=O)[O-])cc6F)c6nc(c(-c7c(F)cc(S(=O)(=O)[O-])cc7F)c7ccc4[nH]7)C=C6)C=C5)cc3)c2)cn1
REMARK SMILES IDX 18 1 19 2 20 3 16 5 17 6 15 7 14 8 10 9 11 10 93 11 12 12
REMARK SMILES IDX 13 13 9 14 8 15 6 16 7 17 5 18 3 19 4 20 95 21 94 22 2 23
REMARK SMILES IDX 1 24 21 25 22 26 23 27 24 28 25 29 26 31 27 32 28 33 92 34
REMARK SMILES IDX 29 35 91 36 30 37 31 38 32 39 85 40 33 41 90 42 84 43 86 44
REMARK SMILES IDX 34 45 89 46 83 47 82 48 35 50 69 51 48 52 68 53 49 54 52 55
REMARK SMILES IDX 67 56 87 57 50 58 51 59 66 61 88 62 53 63 36 64 37 65 46 66
REMARK SMILES IDX 38 67 39 68 45 69 47 70 40 71 41 72 42 73 43 74 44 75 70 76
REMARK SMILES IDX 71 77 80 78 72 79 73 80 79 81 81 82 74 83 75 84 76 85 77 86
REMARK SMILES IDX 78 87 54 88 55 89 64 90 56 91 57 92 63 93 65 94 58 95 59 96
REMARK SMILES IDX 60 97 61 98 62 99
REMARK H PARENT 20 4 24 30 86 49 52 60
REMARK Flexibility Score: inf
ROOT
ATOM      1  C   UNL A   1      31.118  28.931  23.210  1.00  0.00     0.260 C 
ATOM      2  O   UNL A   1      31.194  29.102  21.991  1.00  0.00    -0.271 OA
ATOM      3  N   UNL A   1      32.107  29.455  24.004  1.00  0.00    -0.353 N 
ATOM      4  H   UNL A   1      32.858  29.865  23.517  1.00  0.00     0.163 HD
ENDROOT
BRANCH   1   5
ATOM      5  C   UNL A   1      29.967  28.126  23.830  1.00  0.00     0.258 C 
ATOM      6  C   UNL A   1      28.658  28.600  23.194  1.00  0.00     0.064 C 
BRANCH   5   7
ATOM      7  O   UNL A   1      30.363  26.766  23.642  1.00  0.00    -0.481 OA
BRANCH   7   8
ATOM      8  C   UNL A   1      31.125  26.079  24.531  1.00  0.00     0.121 A 
ATOM      9  C   UNL A   1      33.280  24.993  24.807  1.00  0.00    -0.022 A 
ATOM     10  C   UNL A   1      32.851  24.486  26.037  1.00  0.00     0.008 A 
ATOM     11  C   UNL A   1      32.417  25.800  24.066  1.00  0.00     0.054 A 
ATOM     12  C   UNL A   1      31.583  24.804  26.525  1.00  0.00     0.004 A 
ATOM     13  C   UNL A   1      30.729  25.617  25.780  1.00  0.00     0.046 A 
BRANCH   9  14
ATOM     14  C   UNL A   1      34.584  24.581  24.287  1.00  0.00     0.012 C 
ATOM     15  C   UNL A   1      35.225  23.468  24.668  1.00  0.00     0.053 C 
BRANCH  15  16
ATOM     16  C   UNL A   1      36.490  22.917  24.093  1.00  0.00     0.189 C 
ATOM     17  O   UNL A   1      36.588  22.814  22.873  1.00  0.00    -0.289 OA
BRANCH  16  18
ATOM     18  C   UNL A   1      37.593  22.573  24.981  1.00  0.00     0.060 A 
ATOM     19  N   UNL A   1      39.281  21.644  26.065  1.00  0.00    -0.272 N 
ATOM     20  C   UNL A   1      38.265  21.383  25.190  1.00  0.00     0.120 A 
ATOM     21  N   UNL A   1      39.222  22.881  26.583  1.00  0.00    -0.181 NA
ATOM     22  C   UNL A   1      38.202  23.442  25.925  1.00  0.00     0.147 A 
BRANCH  19  23
ATOM     23  C   UNL A   1      40.324  20.720  26.472  1.00  0.00     0.141 C 
ATOM     24  C   UNL A   1      40.891  21.036  27.848  1.00  0.00     0.029 C 
ENDBRANCH  19  23
ENDBRANCH  16  18
ENDBRANCH  15  16
ENDBRANCH   9  14
ENDBRANCH   7   8
ENDBRANCH   5   7
ENDBRANCH   1   5
BRANCH   3  25
ATOM     25  C   UNL A   1      32.215  29.497  25.458  1.00  0.00     0.118 C 
BRANCH  25  26
ATOM     26  C   UNL A   1      33.361  28.651  26.020  1.00  0.00     0.042 C 
BRANCH  26  27
ATOM     27  C   UNL A   1      33.909  29.202  27.321  1.00  0.00     0.118 C 
BRANCH  27  28
ATOM     28  N   UNL A   1      33.662  30.636  27.496  1.00  0.00    -0.352 N 
ATOM     29  C   UNL A   1      34.498  31.574  28.093  1.00  0.00     0.251 C 
ATOM     30  H   UNL A   1      32.805  30.974  27.151  1.00  0.00     0.163 HD
ATOM     31  O   UNL A   1      34.062  32.634  28.491  1.00  0.00    -0.269 OA
BRANCH  29  32
ATOM     32  C   UNL A   1      35.932  31.238  28.213  1.00  0.00     0.039 A 
ATOM     33  C   UNL A   1      36.832  32.039  28.918  1.00  0.00     0.014 A 
ATOM     34  C   UNL A   1      36.350  30.044  27.635  1.00  0.00     0.014 A 
ATOM     35  C   UNL A   1      38.137  31.574  29.095  1.00  0.00     0.010 A 
ATOM     36  C   UNL A   1      37.543  29.491  28.003  1.00  0.00     0.010 A 
ATOM     37  C   UNL A   1      38.474  30.282  28.652  1.00  0.00    -0.014 A 
BRANCH  37  38
ATOM     38  C   UNL A   1      39.756  29.661  28.963  1.00  0.00     0.031 A 
ATOM     39  C   UNL A   1      39.981  29.484  30.418  1.00  0.00     0.074 A 
ATOM     40  C   UNL A   1      40.555  29.103  28.023  1.00  0.00     0.049 A 
ATOM     41  N   UNL A   1      40.769  30.184  31.162  1.00  0.00    -0.248 NA
ATOM     42  C   UNL A   1      39.095  28.585  31.177  1.00  0.00     0.031 C 
ATOM     43  C   UNL A   1      40.321  28.967  26.579  1.00  0.00     0.029 A 
ATOM     44  N   UNL A   1      41.739  28.451  28.182  1.00  0.00    -0.354 N 
ATOM     45  C   UNL A   1      40.690  29.621  32.430  1.00  0.00     0.074 A 
ATOM     46  C   UNL A   1      39.496  28.818  32.431  1.00  0.00     0.031 C 
ATOM     47  C   UNL A   1      41.205  28.094  26.047  1.00  0.00     0.029 A 
ATOM     48  C   UNL A   1      42.174  27.735  27.066  1.00  0.00     0.049 A 
ATOM     49  H   UNL A   1      42.251  28.482  29.023  1.00  0.00     0.167 HD
ATOM     50  C   UNL A   1      41.767  29.650  33.263  1.00  0.00     0.037 A 
ATOM     51  C   UNL A   1      43.260  26.919  26.984  1.00  0.00     0.037 A 
ATOM     52  C   UNL A   1      42.766  30.573  32.773  1.00  0.00     0.049 A 
ATOM     53  C   UNL A   1      44.178  27.334  28.079  1.00  0.00     0.074 A 
ATOM     54  C   UNL A   1      42.784  31.926  32.495  1.00  0.00     0.029 A 
ATOM     55  N   UNL A   1      43.835  30.034  32.096  1.00  0.00    -0.354 N 
ATOM     56  N   UNL A   1      44.772  28.497  28.110  1.00  0.00    -0.248 NA
ATOM     57  C   UNL A   1      44.025  26.678  29.368  1.00  0.00     0.031 C 
ATOM     58  C   UNL A   1      43.554  32.046  31.300  1.00  0.00     0.029 A 
ATOM     59  C   UNL A   1      44.043  30.783  30.966  1.00  0.00     0.049 A 
ATOM     60  H   UNL A   1      44.360  29.249  32.375  1.00  0.00     0.167 HD
ATOM     61  C   UNL A   1      44.650  28.920  29.426  1.00  0.00     0.074 A 
ATOM     62  C   UNL A   1      44.248  27.723  30.170  1.00  0.00     0.031 C 
ATOM     63  C   UNL A   1      44.592  30.249  29.736  1.00  0.00     0.037 A 
BRANCH  50  64
ATOM     64  C   UNL A   1      42.106  28.579  34.271  1.00  0.00     0.058 A 
ATOM     65  C   UNL A   1      42.168  28.926  35.637  1.00  0.00     0.135 A 
ATOM     66  C   UNL A   1      42.645  27.316  33.940  1.00  0.00     0.135 A 
ATOM     67  F   UNL A   1      41.688  30.105  36.066  1.00  0.00    -0.206 F 
ATOM     68  C   UNL A   1      42.789  28.116  36.587  1.00  0.00     0.059 A 
ATOM     69  C   UNL A   1      43.221  26.470  34.882  1.00  0.00     0.059 A 
ATOM     70  F   UNL A   1      42.726  26.877  32.680  1.00  0.00    -0.206 F 
ATOM     71  C   UNL A   1      43.324  26.894  36.195  1.00  0.00     0.060 A 
BRANCH  71  72
ATOM     72  S   UNL A   1      44.192  25.883  37.404  1.00  0.00     0.124 S 
ATOM     73  O   UNL A   1      43.518  26.262  38.640  1.00  0.00    -0.237 OA
ATOM     74  O   UNL A   1      43.923  24.534  36.914  1.00  0.00    -0.237 OA
ATOM     75  O   UNL A   1      45.578  26.323  37.278  1.00  0.00    -0.744 OA
ENDBRANCH  71  72
ENDBRANCH  50  64
BRANCH  51  76
ATOM     76  C   UNL A   1      43.395  25.609  26.280  1.00  0.00     0.058 A 
ATOM     77  C   UNL A   1      44.367  25.405  25.281  1.00  0.00     0.135 A 
ATOM     78  C   UNL A   1      42.780  24.446  26.783  1.00  0.00     0.135 A 
ATOM     79  F   UNL A   1      45.019  26.451  24.751  1.00  0.00    -0.206 F 
ATOM     80  C   UNL A   1      44.751  24.125  24.854  1.00  0.00     0.059 A 
ATOM     81  C   UNL A   1      43.142  23.161  26.370  1.00  0.00     0.059 A 
ATOM     82  F   UNL A   1      41.872  24.516  27.767  1.00  0.00    -0.206 F 
ATOM     83  C   UNL A   1      44.149  23.005  25.426  1.00  0.00     0.060 A 
BRANCH  83  84
ATOM     84  S   UNL A   1      44.773  21.350  25.031  1.00  0.00     0.124 S 
ATOM     85  O   UNL A   1      44.751  21.355  23.572  1.00  0.00    -0.237 OA
ATOM     86  O   UNL A   1      46.095  21.360  25.649  1.00  0.00    -0.237 OA
ATOM     87  O   UNL A   1      43.801  20.462  25.666  1.00  0.00    -0.744 OA
ENDBRANCH  83  84
ENDBRANCH  51  76
BRANCH  63  88
ATOM     88  C   UNL A   1      44.952  31.246  28.661  1.00  0.00     0.058 A 
ATOM     89  C   UNL A   1      44.105  31.639  27.607  1.00  0.00     0.135 A 
ATOM     90  C   UNL A   1      46.169  31.930  28.784  1.00  0.00     0.135 A 
ATOM     91  F   UNL A   1      42.879  31.117  27.475  1.00  0.00    -0.206 F 
ATOM     92  C   UNL A   1      44.476  32.627  26.689  1.00  0.00     0.059 A 
ATOM     93  C   UNL A   1      46.546  32.939  27.902  1.00  0.00     0.059 A 
ATOM     94  F   UNL A   1      46.996  31.651  29.805  1.00  0.00    -0.206 F 
ATOM     95  C   UNL A   1      45.703  33.268  26.843  1.00  0.00     0.060 A 
BRANCH  95  96
ATOM     96  S   UNL A   1      46.175  34.569  25.682  1.00  0.00     0.124 S 
ATOM     97  O   UNL A   1      45.831  35.779  26.421  1.00  0.00    -0.237 OA
ATOM     98  O   UNL A   1      47.603  34.326  25.493  1.00  0.00    -0.237 OA
ATOM     99  O   UNL A   1      45.346  34.297  24.510  1.00  0.00    -0.744 OA
ENDBRANCH  95  96
ENDBRANCH  63  88
ENDBRANCH  37  38
ENDBRANCH  29  32
ENDBRANCH  27  28
ENDBRANCH  26  27
ENDBRANCH  25  26
ENDBRANCH   3  25
TORSDOF 19
ENDMDL
MODEL 2
REMARK VINA RESULT:     -11.8      2.135      2.570
REMARK SMILES CCn1cc(C(=O)/C=C/c2cccc(O[C@H](C)C(=O)NCCCNC(=O)c3ccc(-c4c5nc(c(-c6c(F)cc(S(=O)(=O)[O-])cc6F)c6ccc([nH]6)c(-c6c(F)cc(S(=O)(=O)[O-])cc6F)c6nc(c(-c7c(F)cc(S(=O)(=O)[O-])cc7F)c7ccc4[nH]7)C=C6)C=C5)cc3)c2)cn1
REMARK SMILES IDX 18 1 19 2 20 3 16 5 17 6 15 7 14 8 10 9 11 10 93 11 12 12
REMARK SMILES IDX 13 13 9 14 8 15 6 16 7 17 5 18 3 19 4 20 95 21 94 22 2 23
REMARK SMILES IDX 1 24 21 25 22 26 23 27 24 28 25 29 26 31 27 32 28 33 92 34
REMARK SMILES IDX 29 35 91 36 30 37 31 38 32 39 85 40 33 41 90 42 84 43 86 44
REMARK SMILES IDX 34 45 89 46 83 47 82 48 35 50 69 51 48 52 68 53 49 54 52 55
REMARK SMILES IDX 67 56 87 57 50 58 51 59 66 61 88 62 53 63 36 64 37 65 46 66
REMARK SMILES IDX 38 67 39 68 45 69 47 70 40 71 41 72 42 73 43 74 44 75 70 76
REMARK SMILES IDX 71 77 80 78 72 79 73 80 79 81 81 82 74 83 75 84 76 85 77 86
REMARK SMILES IDX 78 87 54 88 55 89 64 90 56 91 57 92 63 93 65 94 58 95 59 96
REMARK SMILES IDX 60 97 61 98 62 99
REMARK H PARENT 20 4 24 30 86 49 52 60
REMARK Flexibility Score: inf
ROOT
ATOM      1  C   UNL A   1      32.920  28.949  23.498  1.00  0.00     0.260 C 
ATOM      2  O   UNL A   1      33.706  28.815  22.557  1.00  0.00    -0.271 OA
ATOM      3  N   UNL A   1      33.333  29.664  24.594  1.00  0.00    -0.353 N 
ATOM      4  H   UNL A   1      34.275  29.949  24.575  1.00  0.00     0.163 HD
ENDROOT
BRANCH   1   5
ATOM      5  C   UNL A   1      31.525  28.309  23.465  1.00  0.00     0.258 C 
ATOM      6  C   UNL A   1      30.751  28.914  22.293  1.00  0.00     0.064 C 
BRANCH   5   7
ATOM      7  O   UNL A   1      31.795  26.905  23.453  1.00  0.00    -0.481 OA
BRANCH   7   8
ATOM      8  C   UNL A   1      31.441  26.067  24.460  1.00  0.00     0.121 A 
ATOM      9  C   UNL A   1      32.042  23.980  25.548  1.00  0.00    -0.022 A 
ATOM     10  C   UNL A   1      30.864  24.049  26.299  1.00  0.00     0.008 A 
ATOM     11  C   UNL A   1      32.330  24.999  24.640  1.00  0.00     0.054 A 
ATOM     12  C   UNL A   1      30.003  25.138  26.157  1.00  0.00     0.004 A 
ATOM     13  C   UNL A   1      30.302  26.155  25.250  1.00  0.00     0.046 A 
BRANCH   9  14
ATOM     14  C   UNL A   1      32.886  22.792  25.664  1.00  0.00     0.012 C 
ATOM     15  C   UNL A   1      33.215  22.002  24.633  1.00  0.00     0.053 C 
BRANCH  15  16
ATOM     16  C   UNL A   1      34.170  20.853  24.649  1.00  0.00     0.189 C 
ATOM     17  O   UNL A   1      35.376  21.088  24.671  1.00  0.00    -0.289 OA
BRANCH  16  18
ATOM     18  C   UNL A   1      33.655  19.491  24.695  1.00  0.00     0.060 A 
ATOM     19  N   UNL A   1      33.338  17.303  24.708  1.00  0.00    -0.272 N 
ATOM     20  C   UNL A   1      34.244  18.277  24.394  1.00  0.00     0.120 A 
ATOM     21  N   UNL A   1      32.131  17.793  25.030  1.00  0.00    -0.181 NA
ATOM     22  C   UNL A   1      32.325  19.117  25.024  1.00  0.00     0.147 A 
BRANCH  19  23
ATOM     23  C   UNL A   1      33.572  15.871  24.678  1.00  0.00     0.141 C 
ATOM     24  C   UNL A   1      32.605  15.095  25.562  1.00  0.00     0.029 C 
ENDBRANCH  19  23
ENDBRANCH  16  18
ENDBRANCH  15  16
ENDBRANCH   9  14
ENDBRANCH   7   8
ENDBRANCH   5   7
ENDBRANCH   1   5
BRANCH   3  25
ATOM     25  C   UNL A   1      32.589  30.064  25.784  1.00  0.00     0.118 C 
BRANCH  25  26
ATOM     26  C   UNL A   1      33.027  29.343  27.062  1.00  0.00     0.042 C 
BRANCH  26  27
ATOM     27  C   UNL A   1      34.366  29.834  27.577  1.00  0.00     0.118 C 
BRANCH  27  28
ATOM     28  N   UNL A   1      34.338  31.223  28.040  1.00  0.00    -0.352 N 
ATOM     29  C   UNL A   1      35.093  31.794  29.059  1.00  0.00     0.251 C 
ATOM     30  H   UNL A   1      33.712  31.823  27.574  1.00  0.00     0.163 HD
ATOM     31  O   UNL A   1      34.751  32.833  29.582  1.00  0.00    -0.269 OA
BRANCH  29  32
ATOM     32  C   UNL A   1      36.329  31.095  29.473  1.00  0.00     0.039 A 
ATOM     33  C   UNL A   1      36.363  29.723  29.728  1.00  0.00     0.014 A 
ATOM     34  C   UNL A   1      37.489  31.858  29.545  1.00  0.00     0.014 A 
ATOM     35  C   UNL A   1      37.600  29.125  29.978  1.00  0.00     0.010 A 
ATOM     36  C   UNL A   1      38.708  31.242  29.559  1.00  0.00     0.010 A 
ATOM     37  C   UNL A   1      38.772  29.894  29.867  1.00  0.00    -0.014 A 
BRANCH  37  38
ATOM     38  C   UNL A   1      40.102  29.303  29.933  1.00  0.00     0.031 A 
ATOM     39  C   UNL A   1      40.583  29.099  31.321  1.00  0.00     0.074 A 
ATOM     40  C   UNL A   1      40.738  28.789  28.854  1.00  0.00     0.049 A 
ATOM     41  N   UNL A   1      41.472  29.804  31.936  1.00  0.00    -0.248 NA
ATOM     42  C   UNL A   1      39.866  28.158  32.198  1.00  0.00     0.031 C 
ATOM     43  C   UNL A   1      40.259  28.680  27.469  1.00  0.00     0.029 A 
ATOM     44  N   UNL A   1      41.947  28.168  28.786  1.00  0.00    -0.354 N 
ATOM     45  C   UNL A   1      41.629  29.210  33.182  1.00  0.00     0.074 A 
ATOM     46  C   UNL A   1      40.473  28.374  33.369  1.00  0.00     0.031 C 
ATOM     47  C   UNL A   1      41.057  27.845  26.767  1.00  0.00     0.029 A 
ATOM     48  C   UNL A   1      42.198  27.490  27.592  1.00  0.00     0.049 A 
ATOM     49  H   UNL A   1      42.598  28.194  29.525  1.00  0.00     0.167 HD
ATOM     50  C   UNL A   1      42.834  29.250  33.815  1.00  0.00     0.037 A 
ATOM     51  C   UNL A   1      43.272  26.707  27.299  1.00  0.00     0.037 A 
ATOM     52  C   UNL A   1      43.710  30.212  33.184  1.00  0.00     0.049 A 
ATOM     53  C   UNL A   1      44.357  27.123  28.229  1.00  0.00     0.074 A 
ATOM     54  C   UNL A   1      43.647  31.572  32.944  1.00  0.00     0.029 A 
ATOM     55  N   UNL A   1      44.657  29.720  32.317  1.00  0.00    -0.354 N 
ATOM     56  N   UNL A   1      44.919  28.301  28.187  1.00  0.00    -0.248 NA
ATOM     57  C   UNL A   1      44.447  26.434  29.506  1.00  0.00     0.031 C 
ATOM     58  C   UNL A   1      44.193  31.741  31.637  1.00  0.00     0.029 A 
ATOM     59  C   UNL A   1      44.646  30.499  31.189  1.00  0.00     0.049 A 
ATOM     60  H   UNL A   1      45.241  28.944  32.478  1.00  0.00     0.167 HD
ATOM     61  C   UNL A   1      45.019  28.690  29.516  1.00  0.00     0.074 A 
ATOM     62  C   UNL A   1      44.782  27.466  30.285  1.00  0.00     0.031 C 
ATOM     63  C   UNL A   1      44.984  30.010  29.868  1.00  0.00     0.037 A 
BRANCH  50  64
ATOM     64  C   UNL A   1      43.370  28.166  34.719  1.00  0.00     0.058 A 
ATOM     65  C   UNL A   1      43.824  28.518  36.008  1.00  0.00     0.135 A 
ATOM     66  C   UNL A   1      43.720  26.868  34.285  1.00  0.00     0.135 A 
ATOM     67  F   UNL A   1      43.551  29.728  36.522  1.00  0.00    -0.206 F 
ATOM     68  C   UNL A   1      44.630  27.677  36.773  1.00  0.00     0.059 A 
ATOM     69  C   UNL A   1      44.479  25.993  35.055  1.00  0.00     0.059 A 
ATOM     70  F   UNL A   1      43.427  26.416  33.061  1.00  0.00    -0.206 F 
ATOM     71  C   UNL A   1      44.962  26.419  36.279  1.00  0.00     0.060 A 
BRANCH  71  72
ATOM     72  S   UNL A   1      46.064  25.362  37.232  1.00  0.00     0.124 S 
ATOM     73  O   UNL A   1      46.587  26.299  38.219  1.00  0.00    -0.237 OA
ATOM     74  O   UNL A   1      45.143  24.347  37.735  1.00  0.00    -0.237 OA
ATOM     75  O   UNL A   1      47.022  24.891  36.236  1.00  0.00    -0.744 OA
ENDBRANCH  71  72
ENDBRANCH  50  64
BRANCH  51  76
ATOM     76  C   UNL A   1      43.313  25.418  26.547  1.00  0.00     0.058 A 
ATOM     77  C   UNL A   1      44.069  25.276  25.367  1.00  0.00     0.135 A 
ATOM     78  C   UNL A   1      42.860  24.219  27.132  1.00  0.00     0.135 A 
ATOM     79  F   UNL A   1      44.557  26.361  24.744  1.00  0.00    -0.206 F 
ATOM     80  C   UNL A   1      44.409  24.023  24.835  1.00  0.00     0.059 A 
ATOM     81  C   UNL A   1      43.181  22.960  26.619  1.00  0.00     0.059 A 
ATOM     82  F   UNL A   1      42.168  24.231  28.280  1.00  0.00    -0.206 F 
ATOM     83  C   UNL A   1      43.981  22.867  25.486  1.00  0.00     0.060 A 
BRANCH  83  84
ATOM     84  S   UNL A   1      44.577  21.249  24.928  1.00  0.00     0.124 S 
ATOM     85  O   UNL A   1      45.864  21.147  25.606  1.00  0.00    -0.237 OA
ATOM     86  O   UNL A   1      43.531  20.350  25.406  1.00  0.00    -0.237 OA
ATOM     87  O   UNL A   1      44.646  21.397  23.476  1.00  0.00    -0.744 OA
ENDBRANCH  83  84
ENDBRANCH  51  76
BRANCH  63  88
ATOM     88  C   UNL A   1      45.126  31.041  28.774  1.00  0.00     0.058 A 
ATOM     89  C   UNL A   1      44.076  31.507  27.961  1.00  0.00     0.135 A 
ATOM     90  C   UNL A   1      46.367  31.680  28.635  1.00  0.00     0.135 A 
ATOM     91  F   UNL A   1      42.832  31.030  28.099  1.00  0.00    -0.206 F 
ATOM     92  C   UNL A   1      44.265  32.521  27.017  1.00  0.00     0.059 A 
ATOM     93  C   UNL A   1      46.571  32.713  27.725  1.00  0.00     0.059 A 
ATOM     94  F   UNL A   1      47.395  31.330  29.425  1.00  0.00    -0.206 F 
ATOM     95  C   UNL A   1      45.520  33.116  26.904  1.00  0.00     0.060 A 
BRANCH  95  96
ATOM     96  S   UNL A   1      45.764  34.450  25.712  1.00  0.00     0.124 S 
ATOM     97  O   UNL A   1      47.194  34.358  25.436  1.00  0.00    -0.237 OA
ATOM     98  O   UNL A   1      44.881  34.063  24.615  1.00  0.00    -0.237 OA
ATOM     99  O   UNL A   1      45.345  35.643  26.444  1.00  0.00    -0.744 OA
ENDBRANCH  95  96
ENDBRANCH  63  88
ENDBRANCH  37  38
ENDBRANCH  29  32
ENDBRANCH  27  28
ENDBRANCH  26  27
ENDBRANCH  25  26
ENDBRANCH   3  25
TORSDOF 19
ENDMDL
MODEL 3
REMARK VINA RESULT:     -11.3      2.595      9.784
REMARK SMILES CCn1cc(C(=O)/C=C/c2cccc(O[C@H](C)C(=O)NCCCNC(=O)c3ccc(-c4c5nc(c(-c6c(F)cc(S(=O)(=O)[O-])cc6F)c6ccc([nH]6)c(-c6c(F)cc(S(=O)(=O)[O-])cc6F)c6nc(c(-c7c(F)cc(S(=O)(=O)[O-])cc7F)c7ccc4[nH]7)C=C6)C=C5)cc3)c2)cn1
REMARK SMILES IDX 18 1 19 2 20 3 16 5 17 6 15 7 14 8 10 9 11 10 93 11 12 12
REMARK SMILES IDX 13 13 9 14 8 15 6 16 7 17 5 18 3 19 4 20 95 21 94 22 2 23
REMARK SMILES IDX 1 24 21 25 22 26 23 27 24 28 25 29 26 31 27 32 28 33 92 34
REMARK SMILES IDX 29 35 91 36 30 37 31 38 32 39 85 40 33 41 90 42 84 43 86 44
REMARK SMILES IDX 34 45 89 46 83 47 82 48 35 50 69 51 48 52 68 53 49 54 52 55
REMARK SMILES IDX 67 56 87 57 50 58 51 59 66 61 88 62 53 63 36 64 37 65 46 66
REMARK SMILES IDX 38 67 39 68 45 69 47 70 40 71 41 72 42 73 43 74 44 75 70 76
REMARK SMILES IDX 71 77 80 78 72 79 73 80 79 81 81 82 74 83 75 84 76 85 77 86
REMARK SMILES IDX 78 87 54 88 55 89 64 90 56 91 57 92 63 93 65 94 58 95 59 96
REMARK SMILES IDX 60 97 61 98 62 99
REMARK H PARENT 20 4 24 30 86 49 52 60
REMARK Flexibility Score: inf
ROOT
ATOM      1  C   UNL A   1      38.096  21.640  25.616  1.00  0.00     0.260 C 
ATOM      2  O   UNL A   1      37.762  20.860  24.722  1.00  0.00    -0.271 OA
ATOM      3  N   UNL A   1      39.343  21.499  26.172  1.00  0.00    -0.353 N 
ATOM      4  H   UNL A   1      39.852  20.716  25.859  1.00  0.00     0.163 HD
ENDROOT
BRANCH   1   5
ATOM      5  C   UNL A   1      37.135  22.723  26.126  1.00  0.00     0.258 C 
ATOM      6  C   UNL A   1      37.754  24.089  25.824  1.00  0.00     0.064 C 
BRANCH   5   7
ATOM      7  O   UNL A   1      35.888  22.388  25.512  1.00  0.00    -0.481 OA
BRANCH   7   8
ATOM      8  C   UNL A   1      34.682  22.709  26.045  1.00  0.00     0.121 A 
ATOM      9  C   UNL A   1      32.971  24.433  26.073  1.00  0.00    -0.022 A 
ATOM     10  C   UNL A   1      32.322  23.753  27.108  1.00  0.00     0.008 A 
ATOM     11  C   UNL A   1      34.143  23.900  25.537  1.00  0.00     0.054 A 
ATOM     12  C   UNL A   1      32.831  22.542  27.580  1.00  0.00     0.004 A 
ATOM     13  C   UNL A   1      34.000  22.012  27.034  1.00  0.00     0.046 A 
BRANCH   9  14
ATOM     14  C   UNL A   1      32.457  25.736  25.652  1.00  0.00     0.012 C 
ATOM     15  C   UNL A   1      33.209  26.839  25.541  1.00  0.00     0.053 C 
BRANCH  15  16
ATOM     16  C   UNL A   1      32.786  28.166  24.998  1.00  0.00     0.189 C 
ATOM     17  O   UNL A   1      33.383  29.173  25.371  1.00  0.00    -0.289 OA
BRANCH  16  18
ATOM     18  C   UNL A   1      31.724  28.230  24.003  1.00  0.00     0.060 A 
ATOM     19  N   UNL A   1      29.927  28.663  22.790  1.00  0.00    -0.272 N 
ATOM     20  C   UNL A   1      30.478  28.828  24.029  1.00  0.00     0.120 A 
ATOM     21  N   UNL A   1      30.646  27.849  22.000  1.00  0.00    -0.181 NA
ATOM     22  C   UNL A   1      31.734  27.590  22.735  1.00  0.00     0.147 A 
BRANCH  19  23
ATOM     23  C   UNL A   1      28.681  29.239  22.319  1.00  0.00     0.141 C 
ATOM     24  C   UNL A   1      27.474  28.776  23.123  1.00  0.00     0.029 C 
ENDBRANCH  19  23
ENDBRANCH  16  18
ENDBRANCH  15  16
ENDBRANCH   9  14
ENDBRANCH   7   8
ENDBRANCH   5   7
ENDBRANCH   1   5
BRANCH   3  25
ATOM     25  C   UNL A   1      40.029  22.331  27.154  1.00  0.00     0.118 C 
BRANCH  25  26
ATOM     26  C   UNL A   1      41.141  21.605  27.915  1.00  0.00     0.042 C 
BRANCH  26  27
ATOM     27  C   UNL A   1      42.460  22.351  27.872  1.00  0.00     0.118 C 
BRANCH  27  28
ATOM     28  N   UNL A   1      43.101  22.324  26.555  1.00  0.00    -0.352 N 
ATOM     29  C   UNL A   1      43.130  23.338  25.604  1.00  0.00     0.251 C 
ATOM     30  H   UNL A   1      43.566  21.490  26.316  1.00  0.00     0.163 HD
ATOM     31  O   UNL A   1      43.377  23.097  24.442  1.00  0.00    -0.269 OA
BRANCH  29  32
ATOM     32  C   UNL A   1      42.860  24.718  26.063  1.00  0.00     0.039 A 
ATOM     33  C   UNL A   1      41.677  25.392  25.753  1.00  0.00     0.014 A 
ATOM     34  C   UNL A   1      43.820  25.310  26.876  1.00  0.00     0.014 A 
ATOM     35  C   UNL A   1      41.450  26.637  26.342  1.00  0.00     0.010 A 
ATOM     36  C   UNL A   1      43.497  26.405  27.624  1.00  0.00     0.010 A 
ATOM     37  C   UNL A   1      42.359  27.124  27.298  1.00  0.00    -0.014 A 
BRANCH  37  38
ATOM     38  C   UNL A   1      42.097  28.322  28.086  1.00  0.00     0.031 A 
ATOM     39  C   UNL A   1      43.138  29.366  27.927  1.00  0.00     0.074 A 
ATOM     40  C   UNL A   1      40.921  28.548  28.719  1.00  0.00     0.049 A 
ATOM     41  N   UNL A   1      44.051  29.675  28.785  1.00  0.00    -0.248 NA
ATOM     42  C   UNL A   1      43.331  29.992  26.608  1.00  0.00     0.031 C 
ATOM     43  C   UNL A   1      39.708  27.720  28.730  1.00  0.00     0.029 A 
ATOM     44  N   UNL A   1      40.530  29.636  29.437  1.00  0.00    -0.354 N 
ATOM     45  C   UNL A   1      44.753  30.735  28.224  1.00  0.00     0.074 A 
ATOM     46  C   UNL A   1      44.429  30.725  26.822  1.00  0.00     0.031 C 
ATOM     47  C   UNL A   1      38.667  28.431  29.220  1.00  0.00     0.029 A 
ATOM     48  C   UNL A   1      39.164  29.701  29.715  1.00  0.00     0.049 A 
ATOM     49  H   UNL A   1      41.164  30.327  29.739  1.00  0.00     0.167 HD
ATOM     50  C   UNL A   1      45.313  31.687  29.020  1.00  0.00     0.037 A 
ATOM     51  C   UNL A   1      38.495  30.720  30.320  1.00  0.00     0.037 A 
ATOM     52  C   UNL A   1      45.337  31.249  30.398  1.00  0.00     0.049 A 
ATOM     53  C   UNL A   1      39.509  31.481  31.099  1.00  0.00     0.074 A 
ATOM     54  C   UNL A   1      45.898  30.177  31.067  1.00  0.00     0.029 A 
ATOM     55  N   UNL A   1      44.352  31.736  31.226  1.00  0.00    -0.354 N 
ATOM     56  N   UNL A   1      40.139  30.982  32.128  1.00  0.00    -0.248 NA
ATOM     57  C   UNL A   1      40.182  32.581  30.428  1.00  0.00     0.031 C 
ATOM     58  C   UNL A   1      44.915  29.784  32.023  1.00  0.00     0.029 A 
ATOM     59  C   UNL A   1      43.854  30.687  31.955  1.00  0.00     0.049 A 
ATOM     60  H   UNL A   1      44.058  32.673  31.285  1.00  0.00     0.167 HD
ATOM     61  C   UNL A   1      41.459  31.377  31.957  1.00  0.00     0.074 A 
ATOM     62  C   UNL A   1      41.409  32.423  30.933  1.00  0.00     0.031 C 
ATOM     63  C   UNL A   1      42.489  30.617  32.435  1.00  0.00     0.037 A 
BRANCH  50  64
ATOM     64  C   UNL A   1      45.461  33.143  28.650  1.00  0.00     0.058 A 
ATOM     65  C   UNL A   1      46.725  33.754  28.786  1.00  0.00     0.135 A 
ATOM     66  C   UNL A   1      44.378  34.026  28.446  1.00  0.00     0.135 A 
ATOM     67  F   UNL A   1      47.826  33.010  28.987  1.00  0.00    -0.206 F 
ATOM     68  C   UNL A   1      46.890  35.138  28.798  1.00  0.00     0.059 A 
ATOM     69  C   UNL A   1      44.528  35.408  28.401  1.00  0.00     0.059 A 
ATOM     70  F   UNL A   1      43.111  33.606  28.373  1.00  0.00    -0.206 F 
ATOM     71  C   UNL A   1      45.781  35.957  28.617  1.00  0.00     0.060 A 
BRANCH  71  72
ATOM     72  S   UNL A   1      45.979  37.743  28.708  1.00  0.00     0.124 S 
ATOM     73  O   UNL A   1      44.749  38.206  28.077  1.00  0.00    -0.237 OA
ATOM     74  O   UNL A   1      46.082  37.959  30.148  1.00  0.00    -0.237 OA
ATOM     75  O   UNL A   1      47.206  37.983  27.956  1.00  0.00    -0.744 OA
ENDBRANCH  71  72
ENDBRANCH  50  64
BRANCH  51  76
ATOM     76  C   UNL A   1      37.150  31.281  29.993  1.00  0.00     0.058 A 
ATOM     77  C   UNL A   1      36.292  31.775  30.996  1.00  0.00     0.135 A 
ATOM     78  C   UNL A   1      36.807  31.623  28.670  1.00  0.00     0.135 A 
ATOM     79  F   UNL A   1      36.546  31.515  32.288  1.00  0.00    -0.206 F 
ATOM     80  C   UNL A   1      35.201  32.609  30.710  1.00  0.00     0.059 A 
ATOM     81  C   UNL A   1      35.722  32.447  28.360  1.00  0.00     0.059 A 
ATOM     82  F   UNL A   1      37.575  31.244  27.639  1.00  0.00    -0.206 F 
ATOM     83  C   UNL A   1      34.939  32.961  29.388  1.00  0.00     0.060 A 
BRANCH  83  84
ATOM     84  S   UNL A   1      33.660  34.192  29.022  1.00  0.00     0.124 S 
ATOM     85  O   UNL A   1      34.411  35.207  28.293  1.00  0.00    -0.237 OA
ATOM     86  O   UNL A   1      32.701  33.421  28.237  1.00  0.00    -0.237 OA
ATOM     87  O   UNL A   1      33.190  34.594  30.346  1.00  0.00    -0.744 OA
ENDBRANCH  83  84
ENDBRANCH  51  76
BRANCH  63  88
ATOM     88  C   UNL A   1      42.161  29.500  33.397  1.00  0.00     0.058 A 
ATOM     89  C   UNL A   1      41.875  28.172  33.027  1.00  0.00     0.135 A 
ATOM     90  C   UNL A   1      42.270  29.766  34.770  1.00  0.00     0.135 A 
ATOM     91  F   UNL A   1      41.856  27.803  31.741  1.00  0.00    -0.206 F 
ATOM     92  C   UNL A   1      41.655  27.171  33.979  1.00  0.00     0.059 A 
ATOM     93  C   UNL A   1      42.087  28.779  35.734  1.00  0.00     0.059 A 
ATOM     94  F   UNL A   1      42.605  30.997  35.190  1.00  0.00    -0.206 F 
ATOM     95  C   UNL A   1      41.759  27.487  35.332  1.00  0.00     0.060 A 
BRANCH  95  96
ATOM     96  S   UNL A   1      41.510  26.191  36.565  1.00  0.00     0.124 S 
ATOM     97  O   UNL A   1      41.132  25.049  35.739  1.00  0.00    -0.237 OA
ATOM     98  O   UNL A   1      42.820  26.104  37.206  1.00  0.00    -0.237 OA
ATOM     99  O   UNL A   1      40.448  26.726  37.413  1.00  0.00    -0.744 OA
ENDBRANCH  95  96
ENDBRANCH  63  88
ENDBRANCH  37  38
ENDBRANCH  29  32
ENDBRANCH  27  28
ENDBRANCH  26  27
ENDBRANCH  25  26
ENDBRANCH   3  25
TORSDOF 19
ENDMDL
