MODEL 1
REMARK VINA RESULT:     -11.8      0.000      0.000
REMARK SMILES COc1cc2nc(SCC(=O)NCCCNC(=O)c3ccc(-c4c5nc(c(-c6c(F)cc(S(=O)(=O)[O-])cc6F)c6ccc([nH]6)c(-c6c(F)cc(S(=O)(=O)[O-])cc6F)c6nc(c(-c7c(F)cc(S(=O)(=O)[O-])cc7F)c7ccc4[nH]7)C=C6)C=C5)cc3)nc(O)c2cc1OC
REMARK SMILES IDX 14 1 13 2 12 3 10 4 11 5 9 7 8 8 7 9 3 10 4 11 90 12 5 13
REMARK SMILES IDX 89 14 6 15 88 16 86 17 85 18 2 19 1 20 91 21 92 22 87 23
REMARK SMILES IDX 15 25 16 26 17 27 18 29 19 30 20 31 84 32 21 33 83 34 22 35
REMARK SMILES IDX 23 36 24 37 77 38 25 39 82 40 76 41 78 42 26 43 81 44 75 45
REMARK SMILES IDX 74 46 27 48 61 49 40 50 60 51 41 52 44 53 59 54 79 55 42 56
REMARK SMILES IDX 43 57 58 59 80 60 45 61 28 62 29 63 38 64 30 65 31 66 37 67
REMARK SMILES IDX 39 68 32 69 33 70 34 71 35 72 36 73 62 74 63 75 72 76 64 77
REMARK SMILES IDX 65 78 71 79 73 80 66 81 67 82 68 83 69 84 70 85 46 86 47 87
REMARK SMILES IDX 56 88 48 89 49 90 55 91 57 92 50 93 51 94 52 95 53 96 54 97
REMARK H PARENT 12 6 87 24 16 28 78 47 44 58
REMARK Flexibility Score: inf
ROOT
ATOM      1  C   UNL A   1      39.626  22.162  26.572  1.00  0.00     0.042 C 
ENDROOT
BRANCH   1   2
ATOM      2  C   UNL A   1      38.420  22.956  26.078  1.00  0.00     0.117 C 
BRANCH   2   3
ATOM      3  N   UNL A   1      37.175  22.221  26.224  1.00  0.00    -0.355 N 
ATOM      4  C   UNL A   1      35.933  22.490  25.724  1.00  0.00     0.230 C 
ATOM      5  O   UNL A   1      35.034  21.675  25.959  1.00  0.00    -0.274 OA
ATOM      6  H   UNL A   1      37.236  21.402  26.767  1.00  0.00     0.163 HD
BRANCH   4   7
ATOM      7  C   UNL A   1      35.698  23.689  24.820  1.00  0.00     0.178 C 
BRANCH   7   8
ATOM      8  S   UNL A   1      34.894  23.290  23.243  1.00  0.00    -0.076 SA
BRANCH   8   9
ATOM      9  C   UNL A   1      33.785  24.660  23.041  1.00  0.00     0.192 A 
ATOM     10  C   UNL A   1      31.678  28.405  25.025  1.00  0.00     0.162 A 
ATOM     11  C   UNL A   1      32.570  27.328  25.088  1.00  0.00     0.079 A 
ATOM     12  C   UNL A   1      30.972  28.683  23.847  1.00  0.00     0.161 A 
ATOM     13  C   UNL A   1      32.767  26.482  24.008  1.00  0.00     0.083 A 
ATOM     14  C   UNL A   1      31.164  27.842  22.752  1.00  0.00     0.066 A 
ATOM     15  N   UNL A   1      33.616  25.447  24.114  1.00  0.00    -0.222 NA
ATOM     16  C   UNL A   1      32.061  26.748  22.836  1.00  0.00     0.066 A 
ATOM     17  C   UNL A   1      32.330  25.859  21.808  1.00  0.00     0.223 A 
ATOM     18  N   UNL A   1      33.182  24.834  21.865  1.00  0.00    -0.187 NA
BRANCH  10  19
ATOM     19  O   UNL A   1      31.617  29.190  26.150  1.00  0.00    -0.493 OA
ATOM     20  C   UNL A   1      32.451  28.704  27.202  1.00  0.00     0.278 C 
ENDBRANCH  10  19
BRANCH  12  21
ATOM     21  O   UNL A   1      30.168  29.789  23.846  1.00  0.00    -0.493 OA
ATOM     22  C   UNL A   1      29.250  29.936  22.772  1.00  0.00     0.278 C 
ENDBRANCH  12  21
BRANCH  17  23
ATOM     23  O   UNL A   1      31.702  25.950  20.604  1.00  0.00    -0.493 OA
ATOM     24  H   UNL A   1      31.035  25.332  20.376  1.00  0.00     0.295 HD
ENDBRANCH  17  23
ENDBRANCH   8   9
ENDBRANCH   7   8
ENDBRANCH   4   7
ENDBRANCH   2   3
ENDBRANCH   1   2
BRANCH   1  25
ATOM     25  C   UNL A   1      40.819  23.014  26.993  1.00  0.00     0.118 C 
BRANCH  25  26
ATOM     26  N   UNL A   1      41.251  23.954  25.965  1.00  0.00    -0.352 N 
ATOM     27  C   UNL A   1      41.434  25.316  26.038  1.00  0.00     0.251 C 
ATOM     28  H   UNL A   1      41.439  23.553  25.086  1.00  0.00     0.163 HD
ATOM     29  O   UNL A   1      41.683  25.947  25.014  1.00  0.00    -0.269 OA
BRANCH  27  30
ATOM     30  C   UNL A   1      41.296  26.027  27.331  1.00  0.00     0.039 A 
ATOM     31  C   UNL A   1      40.145  25.893  28.110  1.00  0.00     0.014 A 
ATOM     32  C   UNL A   1      42.339  26.851  27.766  1.00  0.00     0.014 A 
ATOM     33  C   UNL A   1      39.966  26.709  29.224  1.00  0.00     0.010 A 
ATOM     34  C   UNL A   1      42.188  27.613  28.930  1.00  0.00     0.010 A 
ATOM     35  C   UNL A   1      40.977  27.591  29.638  1.00  0.00    -0.014 A 
BRANCH  35  36
ATOM     36  C   UNL A   1      40.730  28.500  30.789  1.00  0.00     0.031 A 
ATOM     37  C   UNL A   1      41.642  28.483  31.989  1.00  0.00     0.074 A 
ATOM     38  C   UNL A   1      39.729  29.400  30.723  1.00  0.00     0.049 A 
ATOM     39  N   UNL A   1      41.613  29.238  33.058  1.00  0.00    -0.248 NA
ATOM     40  C   UNL A   1      42.727  27.490  31.989  1.00  0.00     0.031 C 
ATOM     41  C   UNL A   1      38.788  29.531  29.610  1.00  0.00     0.029 A 
ATOM     42  N   UNL A   1      39.358  30.396  31.592  1.00  0.00    -0.354 N 
ATOM     43  C   UNL A   1      42.665  28.808  33.859  1.00  0.00     0.074 A 
ATOM     44  C   UNL A   1      43.292  27.700  33.170  1.00  0.00     0.031 C 
ATOM     45  C   UNL A   1      37.991  30.588  29.830  1.00  0.00     0.029 A 
ATOM     46  C   UNL A   1      38.328  31.177  31.123  1.00  0.00     0.049 A 
ATOM     47  H   UNL A   1      39.788  30.537  32.466  1.00  0.00     0.167 HD
ATOM     48  C   UNL A   1      43.085  29.300  35.050  1.00  0.00     0.037 A 
ATOM     49  C   UNL A   1      37.722  32.249  31.670  1.00  0.00     0.037 A 
ATOM     50  C   UNL A   1      42.473  30.412  35.730  1.00  0.00     0.049 A 
ATOM     51  C   UNL A   1      38.171  32.745  33.014  1.00  0.00     0.074 A 
ATOM     52  C   UNL A   1      42.828  30.983  36.940  1.00  0.00     0.029 A 
ATOM     53  N   UNL A   1      41.381  31.125  35.258  1.00  0.00    -0.354 N 
ATOM     54  N   UNL A   1      39.157  32.314  33.763  1.00  0.00    -0.248 NA
ATOM     55  C   UNL A   1      37.415  33.862  33.595  1.00  0.00     0.031 C 
ATOM     56  C   UNL A   1      41.932  32.021  37.215  1.00  0.00     0.029 A 
ATOM     57  C   UNL A   1      41.040  32.120  36.160  1.00  0.00     0.049 A 
ATOM     58  H   UNL A   1      40.917  30.950  34.408  1.00  0.00     0.167 HD
ATOM     59  C   UNL A   1      39.144  33.109  34.902  1.00  0.00     0.074 A 
ATOM     60  C   UNL A   1      38.063  34.060  34.736  1.00  0.00     0.031 C 
ATOM     61  C   UNL A   1      39.953  33.053  35.988  1.00  0.00     0.037 A 
BRANCH  48  62
ATOM     62  C   UNL A   1      44.265  28.630  35.697  1.00  0.00     0.058 A 
ATOM     63  C   UNL A   1      44.100  27.571  36.605  1.00  0.00     0.135 A 
ATOM     64  C   UNL A   1      45.574  29.035  35.393  1.00  0.00     0.135 A 
ATOM     65  F   UNL A   1      42.869  27.154  36.942  1.00  0.00    -0.206 F 
ATOM     66  C   UNL A   1      45.192  26.959  37.213  1.00  0.00     0.059 A 
ATOM     67  C   UNL A   1      46.682  28.423  35.974  1.00  0.00     0.059 A 
ATOM     68  F   UNL A   1      45.788  30.041  34.531  1.00  0.00    -0.206 F 
ATOM     69  C   UNL A   1      46.480  27.396  36.896  1.00  0.00     0.060 A 
BRANCH  69  70
ATOM     70  S   UNL A   1      47.885  26.605  37.708  1.00  0.00     0.124 S 
ATOM     71  O   UNL A   1      49.007  27.192  36.980  1.00  0.00    -0.237 OA
ATOM     72  O   UNL A   1      47.733  27.038  39.093  1.00  0.00    -0.237 OA
ATOM     73  O   UNL A   1      47.659  25.183  37.469  1.00  0.00    -0.744 OA
ENDBRANCH  69  70
ENDBRANCH  48  62
BRANCH  49  74
ATOM     74  C   UNL A   1      36.638  32.933  30.922  1.00  0.00     0.058 A 
ATOM     75  C   UNL A   1      35.298  32.791  31.311  1.00  0.00     0.135 A 
ATOM     76  C   UNL A   1      36.921  33.788  29.844  1.00  0.00     0.135 A 
ATOM     77  F   UNL A   1      34.980  31.978  32.331  1.00  0.00    -0.206 F 
ATOM     78  C   UNL A   1      34.277  33.480  30.668  1.00  0.00     0.059 A 
ATOM     79  C   UNL A   1      35.918  34.502  29.198  1.00  0.00     0.059 A 
ATOM     80  F   UNL A   1      38.189  33.965  29.443  1.00  0.00    -0.206 F 
ATOM     81  C   UNL A   1      34.599  34.342  29.618  1.00  0.00     0.060 A 
BRANCH  81  82
ATOM     82  S   UNL A   1      33.275  35.302  28.850  1.00  0.00     0.124 S 
ATOM     83  O   UNL A   1      32.489  35.699  30.011  1.00  0.00    -0.237 OA
ATOM     84  O   UNL A   1      34.018  36.369  28.186  1.00  0.00    -0.237 OA
ATOM     85  O   UNL A   1      32.640  34.341  27.954  1.00  0.00    -0.744 OA
ENDBRANCH  81  82
ENDBRANCH  49  74
BRANCH  61  86
ATOM     86  C   UNL A   1      39.703  34.043  37.088  1.00  0.00     0.058 A 
ATOM     87  C   UNL A   1      38.935  33.705  38.213  1.00  0.00     0.135 A 
ATOM     88  C   UNL A   1      40.284  35.320  37.048  1.00  0.00     0.135 A 
ATOM     89  F   UNL A   1      38.351  32.499  38.294  1.00  0.00    -0.206 F 
ATOM     90  C   UNL A   1      38.745  34.603  39.257  1.00  0.00     0.059 A 
ATOM     91  C   UNL A   1      40.122  36.228  38.090  1.00  0.00     0.059 A 
ATOM     92  F   UNL A   1      41.033  35.690  35.996  1.00  0.00    -0.206 F 
ATOM     93  C   UNL A   1      39.344  35.862  39.189  1.00  0.00     0.060 A 
BRANCH  93  94
ATOM     94  S   UNL A   1      39.124  37.002  40.571  1.00  0.00     0.124 S 
ATOM     95  O   UNL A   1      38.517  36.133  41.574  1.00  0.00    -0.237 OA
ATOM     96  O   UNL A   1      40.493  37.428  40.846  1.00  0.00    -0.237 OA
ATOM     97  O   UNL A   1      38.250  38.036  40.024  1.00  0.00    -0.744 OA
ENDBRANCH  93  94
ENDBRANCH  61  86
ENDBRANCH  35  36
ENDBRANCH  27  30
ENDBRANCH  25  26
ENDBRANCH   1  25
TORSDOF 18
ENDMDL
MODEL 2
REMARK VINA RESULT:     -11.4      1.553      8.437
REMARK SMILES COc1cc2nc(SCC(=O)NCCCNC(=O)c3ccc(-c4c5nc(c(-c6c(F)cc(S(=O)(=O)[O-])cc6F)c6ccc([nH]6)c(-c6c(F)cc(S(=O)(=O)[O-])cc6F)c6nc(c(-c7c(F)cc(S(=O)(=O)[O-])cc7F)c7ccc4[nH]7)C=C6)C=C5)cc3)nc(O)c2cc1OC
REMARK SMILES IDX 14 1 13 2 12 3 10 4 11 5 9 7 8 8 7 9 3 10 4 11 90 12 5 13
REMARK SMILES IDX 89 14 6 15 88 16 86 17 85 18 2 19 1 20 91 21 92 22 87 23
REMARK SMILES IDX 15 25 16 26 17 27 18 29 19 30 20 31 84 32 21 33 83 34 22 35
REMARK SMILES IDX 23 36 24 37 77 38 25 39 82 40 76 41 78 42 26 43 81 44 75 45
REMARK SMILES IDX 74 46 27 48 61 49 40 50 60 51 41 52 44 53 59 54 79 55 42 56
REMARK SMILES IDX 43 57 58 59 80 60 45 61 28 62 29 63 38 64 30 65 31 66 37 67
REMARK SMILES IDX 39 68 32 69 33 70 34 71 35 72 36 73 62 74 63 75 72 76 64 77
REMARK SMILES IDX 65 78 71 79 73 80 66 81 67 82 68 83 69 84 70 85 46 86 47 87
REMARK SMILES IDX 56 88 48 89 49 90 55 91 57 92 50 93 51 94 52 95 53 96 54 97
REMARK H PARENT 12 6 87 24 16 28 78 47 44 58
REMARK Flexibility Score: inf
ROOT
ATOM      1  C   UNL A   1      37.322  23.555  25.425  1.00  0.00     0.042 C 
ENDROOT
BRANCH   1   2
ATOM      2  C   UNL A   1      36.105  22.860  26.029  1.00  0.00     0.117 C 
BRANCH   2   3
ATOM      3  N   UNL A   1      35.900  21.528  25.487  1.00  0.00    -0.355 N 
ATOM      4  C   UNL A   1      34.749  20.814  25.323  1.00  0.00     0.230 C 
ATOM      5  O   UNL A   1      34.837  19.702  24.791  1.00  0.00    -0.274 OA
ATOM      6  H   UNL A   1      36.719  21.069  25.191  1.00  0.00     0.163 HD
BRANCH   4   7
ATOM      7  C   UNL A   1      33.399  21.414  25.682  1.00  0.00     0.178 C 
BRANCH   7   8
ATOM      8  S   UNL A   1      32.554  22.233  24.301  1.00  0.00    -0.076 SA
BRANCH   8   9
ATOM      9  C   UNL A   1      32.128  23.802  25.011  1.00  0.00     0.192 A 
ATOM     10  C   UNL A   1      33.592  28.102  26.340  1.00  0.00     0.162 A 
ATOM     11  C   UNL A   1      33.835  26.855  25.752  1.00  0.00     0.079 A 
ATOM     12  C   UNL A   1      32.319  28.430  26.824  1.00  0.00     0.161 A 
ATOM     13  C   UNL A   1      32.843  25.892  25.651  1.00  0.00     0.083 A 
ATOM     14  C   UNL A   1      31.311  27.472  26.725  1.00  0.00     0.066 A 
ATOM     15  N   UNL A   1      33.120  24.700  25.099  1.00  0.00    -0.222 NA
ATOM     16  C   UNL A   1      31.577  26.210  26.138  1.00  0.00     0.066 A 
ATOM     17  C   UNL A   1      30.647  25.193  25.984  1.00  0.00     0.223 A 
ATOM     18  N   UNL A   1      30.876  24.006  25.421  1.00  0.00    -0.187 NA
BRANCH  10  19
ATOM     19  O   UNL A   1      34.650  28.977  26.330  1.00  0.00    -0.493 OA
ATOM     20  C   UNL A   1      35.184  29.207  27.634  1.00  0.00     0.278 C 
ENDBRANCH  10  19
BRANCH  12  21
ATOM     21  O   UNL A   1      32.147  29.690  27.327  1.00  0.00    -0.493 OA
ATOM     22  C   UNL A   1      31.804  30.723  26.413  1.00  0.00     0.278 C 
ENDBRANCH  12  21
BRANCH  17  23
ATOM     23  O   UNL A   1      29.370  25.320  26.436  1.00  0.00    -0.493 OA
ATOM     24  H   UNL A   1      28.770  24.605  26.351  1.00  0.00     0.295 HD
ENDBRANCH  17  23
ENDBRANCH   8   9
ENDBRANCH   7   8
ENDBRANCH   4   7
ENDBRANCH   2   3
ENDBRANCH   1   2
BRANCH   1  25
ATOM     25  C   UNL A   1      38.218  24.261  26.437  1.00  0.00     0.118 C 
BRANCH  25  26
ATOM     26  N   UNL A   1      39.639  24.012  26.226  1.00  0.00    -0.352 N 
ATOM     27  C   UNL A   1      40.734  24.695  26.704  1.00  0.00     0.251 C 
ATOM     28  H   UNL A   1      39.845  23.238  25.654  1.00  0.00     0.163 HD
ATOM     29  O   UNL A   1      41.855  24.395  26.301  1.00  0.00    -0.269 OA
BRANCH  27  30
ATOM     30  C   UNL A   1      40.566  25.809  27.666  1.00  0.00     0.039 A 
ATOM     31  C   UNL A   1      41.348  26.963  27.579  1.00  0.00     0.014 A 
ATOM     32  C   UNL A   1      39.610  25.691  28.681  1.00  0.00     0.014 A 
ATOM     33  C   UNL A   1      41.297  27.910  28.599  1.00  0.00     0.010 A 
ATOM     34  C   UNL A   1      39.507  26.683  29.662  1.00  0.00     0.010 A 
ATOM     35  C   UNL A   1      40.389  27.774  29.661  1.00  0.00    -0.014 A 
BRANCH  35  36
ATOM     36  C   UNL A   1      40.406  28.764  30.771  1.00  0.00     0.031 A 
ATOM     37  C   UNL A   1      39.414  29.898  30.802  1.00  0.00     0.074 A 
ATOM     38  C   UNL A   1      41.265  28.599  31.796  1.00  0.00     0.049 A 
ATOM     39  N   UNL A   1      39.245  30.822  31.714  1.00  0.00    -0.248 NA
ATOM     40  C   UNL A   1      38.491  30.009  29.662  1.00  0.00     0.031 C 
ATOM     41  C   UNL A   1      42.262  27.532  31.895  1.00  0.00     0.029 A 
ATOM     42  N   UNL A   1      41.414  29.303  32.965  1.00  0.00    -0.354 N 
ATOM     43  C   UNL A   1      38.208  31.627  31.256  1.00  0.00     0.074 A 
ATOM     44  C   UNL A   1      37.809  31.105  29.967  1.00  0.00     0.031 C 
ATOM     45  C   UNL A   1      42.873  27.611  33.087  1.00  0.00     0.029 A 
ATOM     46  C   UNL A   1      42.351  28.764  33.815  1.00  0.00     0.049 A 
ATOM     47  H   UNL A   1      40.899  30.116  33.175  1.00  0.00     0.167 HD
ATOM     48  C   UNL A   1      37.626  32.691  31.860  1.00  0.00     0.037 A 
ATOM     49  C   UNL A   1      42.746  29.151  35.043  1.00  0.00     0.037 A 
ATOM     50  C   UNL A   1      38.010  33.203  33.150  1.00  0.00     0.049 A 
ATOM     51  C   UNL A   1      42.122  30.364  35.671  1.00  0.00     0.074 A 
ATOM     52  C   UNL A   1      37.479  34.277  33.844  1.00  0.00     0.029 A 
ATOM     53  N   UNL A   1      39.019  32.676  33.943  1.00  0.00    -0.354 N 
ATOM     54  N   UNL A   1      41.155  31.121  35.214  1.00  0.00    -0.248 NA
ATOM     55  C   UNL A   1      42.656  30.785  36.973  1.00  0.00     0.031 C 
ATOM     56  C   UNL A   1      38.187  34.418  35.042  1.00  0.00     0.029 A 
ATOM     57  C   UNL A   1      39.136  33.411  35.112  1.00  0.00     0.049 A 
ATOM     58  H   UNL A   1      39.570  31.894  33.709  1.00  0.00     0.167 HD
ATOM     59  C   UNL A   1      40.959  32.107  36.174  1.00  0.00     0.074 A 
ATOM     60  C   UNL A   1      41.897  31.839  37.246  1.00  0.00     0.031 C 
ATOM     61  C   UNL A   1      40.083  33.141  36.165  1.00  0.00     0.037 A 
BRANCH  48  62
ATOM     62  C   UNL A   1      36.510  33.379  31.123  1.00  0.00     0.058 A 
ATOM     63  C   UNL A   1      36.757  34.166  29.987  1.00  0.00     0.135 A 
ATOM     64  C   UNL A   1      35.178  33.235  31.544  1.00  0.00     0.135 A 
ATOM     65  F   UNL A   1      38.014  34.349  29.551  1.00  0.00    -0.206 F 
ATOM     66  C   UNL A   1      35.725  34.812  29.312  1.00  0.00     0.059 A 
ATOM     67  C   UNL A   1      34.129  33.855  30.872  1.00  0.00     0.059 A 
ATOM     68  F   UNL A   1      34.887  32.493  32.623  1.00  0.00    -0.206 F 
ATOM     69  C   UNL A   1      34.415  34.656  29.767  1.00  0.00     0.060 A 
BRANCH  69  70
ATOM     70  S   UNL A   1      33.090  35.517  28.893  1.00  0.00     0.124 S 
ATOM     71  O   UNL A   1      32.493  34.426  28.127  1.00  0.00    -0.237 OA
ATOM     72  O   UNL A   1      32.278  36.039  29.986  1.00  0.00    -0.237 OA
ATOM     73  O   UNL A   1      33.798  36.520  28.104  1.00  0.00    -0.744 OA
ENDBRANCH  69  70
ENDBRANCH  48  62
BRANCH  49  74
ATOM     74  C   UNL A   1      43.773  28.357  35.762  1.00  0.00     0.058 A 
ATOM     75  C   UNL A   1      43.400  27.344  36.657  1.00  0.00     0.135 A 
ATOM     76  C   UNL A   1      45.144  28.552  35.527  1.00  0.00     0.135 A 
ATOM     77  F   UNL A   1      42.101  27.128  36.919  1.00  0.00    -0.206 F 
ATOM     78  C   UNL A   1      44.347  26.543  37.285  1.00  0.00     0.059 A 
ATOM     79  C   UNL A   1      46.108  27.751  36.128  1.00  0.00     0.059 A 
ATOM     80  F   UNL A   1      45.549  29.502  34.670  1.00  0.00    -0.206 F 
ATOM     81  C   UNL A   1      45.699  26.749  37.006  1.00  0.00     0.060 A 
BRANCH  81  82
ATOM     82  S   UNL A   1      46.915  25.642  37.756  1.00  0.00     0.124 S 
ATOM     83  O   UNL A   1      46.899  24.517  36.828  1.00  0.00    -0.237 OA
ATOM     84  O   UNL A   1      48.122  26.463  37.744  1.00  0.00    -0.237 OA
ATOM     85  O   UNL A   1      46.358  25.380  39.079  1.00  0.00    -0.744 OA
ENDBRANCH  81  82
ENDBRANCH  49  74
BRANCH  61  86
ATOM     86  C   UNL A   1      40.095  34.067  37.347  1.00  0.00     0.058 A 
ATOM     87  C   UNL A   1      40.963  35.167  37.401  1.00  0.00     0.135 A 
ATOM     88  C   UNL A   1      39.190  33.889  38.405  1.00  0.00     0.135 A 
ATOM     89  F   UNL A   1      41.853  35.376  36.417  1.00  0.00    -0.206 F 
ATOM     90  C   UNL A   1      40.942  36.056  38.471  1.00  0.00     0.059 A 
ATOM     91  C   UNL A   1      39.138  34.777  39.476  1.00  0.00     0.059 A 
ATOM     92  F   UNL A   1      38.334  32.855  38.397  1.00  0.00    -0.206 F 
ATOM     93  C   UNL A   1      40.023  35.855  39.503  1.00  0.00     0.060 A 
BRANCH  93  94
ATOM     94  S   UNL A   1      39.976  37.040  40.863  1.00  0.00     0.124 S 
ATOM     95  O   UNL A   1      39.473  38.235  40.194  1.00  0.00    -0.237 OA
ATOM     96  O   UNL A   1      39.056  36.404  41.801  1.00  0.00    -0.237 OA
ATOM     97  O   UNL A   1      41.366  37.105  41.306  1.00  0.00    -0.744 OA
ENDBRANCH  93  94
ENDBRANCH  61  86
ENDBRANCH  35  36
ENDBRANCH  27  30
ENDBRANCH  25  26
ENDBRANCH   1  25
TORSDOF 18
ENDMDL
MODEL 3
REMARK VINA RESULT:     -11.4      3.949     10.557
REMARK SMILES COc1cc2nc(SCC(=O)NCCCNC(=O)c3ccc(-c4c5nc(c(-c6c(F)cc(S(=O)(=O)[O-])cc6F)c6ccc([nH]6)c(-c6c(F)cc(S(=O)(=O)[O-])cc6F)c6nc(c(-c7c(F)cc(S(=O)(=O)[O-])cc7F)c7ccc4[nH]7)C=C6)C=C5)cc3)nc(O)c2cc1OC
REMARK SMILES IDX 14 1 13 2 12 3 10 4 11 5 9 7 8 8 7 9 3 10 4 11 90 12 5 13
REMARK SMILES IDX 89 14 6 15 88 16 86 17 85 18 2 19 1 20 91 21 92 22 87 23
REMARK SMILES IDX 15 25 16 26 17 27 18 29 19 30 20 31 84 32 21 33 83 34 22 35
REMARK SMILES IDX 23 36 24 37 77 38 25 39 82 40 76 41 78 42 26 43 81 44 75 45
REMARK SMILES IDX 74 46 27 48 61 49 40 50 60 51 41 52 44 53 59 54 79 55 42 56
REMARK SMILES IDX 43 57 58 59 80 60 45 61 28 62 29 63 38 64 30 65 31 66 37 67
REMARK SMILES IDX 39 68 32 69 33 70 34 71 35 72 36 73 62 74 63 75 72 76 64 77
REMARK SMILES IDX 65 78 71 79 73 80 66 81 67 82 68 83 69 84 70 85 46 86 47 87
REMARK SMILES IDX 56 88 48 89 49 90 55 91 57 92 50 93 51 94 52 95 53 96 54 97
REMARK H PARENT 12 6 87 24 16 28 78 47 44 58
REMARK Flexibility Score: inf
ROOT
ATOM      1  C   UNL A   1      41.305  21.713  25.897  1.00  0.00     0.042 C 
ENDROOT
BRANCH   1   2
ATOM      2  C   UNL A   1      42.388  20.921  26.622  1.00  0.00     0.117 C 
BRANCH   2   3
ATOM      3  N   UNL A   1      42.843  19.773  25.856  1.00  0.00    -0.355 N 
ATOM      4  C   UNL A   1      44.023  19.567  25.200  1.00  0.00     0.230 C 
ATOM      5  O   UNL A   1      44.186  18.473  24.650  1.00  0.00    -0.274 OA
ATOM      6  H   UNL A   1      42.202  19.029  25.801  1.00  0.00     0.163 HD
BRANCH   4   7
ATOM      7  C   UNL A   1      45.133  20.604  25.244  1.00  0.00     0.178 C 
BRANCH   7   8
ATOM      8  S   UNL A   1      44.906  21.992  24.097  1.00  0.00    -0.076 SA
BRANCH   8   9
ATOM      9  C   UNL A   1      45.304  23.383  25.124  1.00  0.00     0.192 A 
ATOM     10  C   UNL A   1      44.159  27.755  26.529  1.00  0.00     0.162 A 
ATOM     11  C   UNL A   1      43.892  26.601  25.783  1.00  0.00     0.079 A 
ATOM     12  C   UNL A   1      45.289  27.830  27.355  1.00  0.00     0.161 A 
ATOM     13  C   UNL A   1      44.742  25.506  25.807  1.00  0.00     0.083 A 
ATOM     14  C   UNL A   1      46.148  26.733  27.391  1.00  0.00     0.066 A 
ATOM     15  N   UNL A   1      44.462  24.425  25.062  1.00  0.00    -0.222 NA
ATOM     16  C   UNL A   1      45.871  25.577  26.620  1.00  0.00     0.066 A 
ATOM     17  C   UNL A   1      46.653  24.433  26.591  1.00  0.00     0.223 A 
ATOM     18  N   UNL A   1      46.398  23.332  25.883  1.00  0.00    -0.187 NA
BRANCH  10  19
ATOM     19  O   UNL A   1      43.210  28.745  26.449  1.00  0.00    -0.493 OA
ATOM     20  C   UNL A   1      42.295  28.541  25.372  1.00  0.00     0.278 C 
ENDBRANCH  10  19
BRANCH  12  21
ATOM     21  O   UNL A   1      45.445  28.966  28.099  1.00  0.00    -0.493 OA
ATOM     22  C   UNL A   1      46.632  29.722  27.906  1.00  0.00     0.278 C 
ENDBRANCH  12  21
BRANCH  17  23
ATOM     23  O   UNL A   1      47.812  24.344  27.298  1.00  0.00    -0.493 OA
ATOM     24  H   UNL A   1      48.551  23.899  26.933  1.00  0.00     0.295 HD
ENDBRANCH  17  23
ENDBRANCH   8   9
ENDBRANCH   7   8
ENDBRANCH   4   7
ENDBRANCH   2   3
ENDBRANCH   1   2
BRANCH   1  25
ATOM     25  C   UNL A   1      39.918  21.616  26.526  1.00  0.00     0.118 C 
BRANCH  25  26
ATOM     26  N   UNL A   1      38.883  22.288  25.751  1.00  0.00    -0.352 N 
ATOM     27  C   UNL A   1      38.426  23.584  25.827  1.00  0.00     0.251 C 
ATOM     28  H   UNL A   1      38.444  21.729  25.070  1.00  0.00     0.163 HD
ATOM     29  O   UNL A   1      37.449  23.920  25.163  1.00  0.00    -0.269 OA
BRANCH  27  30
ATOM     30  C   UNL A   1      39.079  24.561  26.730  1.00  0.00     0.039 A 
ATOM     31  C   UNL A   1      38.768  24.608  28.090  1.00  0.00     0.014 A 
ATOM     32  C   UNL A   1      40.018  25.453  26.200  1.00  0.00     0.014 A 
ATOM     33  C   UNL A   1      39.256  25.649  28.875  1.00  0.00     0.010 A 
ATOM     34  C   UNL A   1      40.569  26.451  27.011  1.00  0.00     0.010 A 
ATOM     35  C   UNL A   1      40.149  26.593  28.342  1.00  0.00    -0.014 A 
BRANCH  35  36
ATOM     36  C   UNL A   1      40.600  27.733  29.185  1.00  0.00     0.031 A 
ATOM     37  C   UNL A   1      39.718  28.939  29.377  1.00  0.00     0.074 A 
ATOM     38  C   UNL A   1      41.773  27.650  29.842  1.00  0.00     0.049 A 
ATOM     39  N   UNL A   1      39.922  30.001  30.116  1.00  0.00    -0.248 NA
ATOM     40  C   UNL A   1      38.441  28.958  28.646  1.00  0.00     0.031 C 
ATOM     41  C   UNL A   1      42.709  26.529  29.755  1.00  0.00     0.029 A 
ATOM     42  N   UNL A   1      42.361  28.507  30.740  1.00  0.00    -0.354 N 
ATOM     43  C   UNL A   1      38.809  30.814  29.933  1.00  0.00     0.074 A 
ATOM     44  C   UNL A   1      37.948  30.141  28.984  1.00  0.00     0.031 C 
ATOM     45  C   UNL A   1      43.720  26.733  30.614  1.00  0.00     0.029 A 
ATOM     46  C   UNL A   1      43.532  28.022  31.273  1.00  0.00     0.049 A 
ATOM     47  H   UNL A   1      41.981  29.383  30.979  1.00  0.00     0.167 HD
ATOM     48  C   UNL A   1      38.518  32.003  30.515  1.00  0.00     0.037 A 
ATOM     49  C   UNL A   1      44.363  28.554  32.190  1.00  0.00     0.037 A 
ATOM     50  C   UNL A   1      39.365  32.668  31.471  1.00  0.00     0.049 A 
ATOM     51  C   UNL A   1      44.047  29.897  32.783  1.00  0.00     0.074 A 
ATOM     52  C   UNL A   1      39.155  33.875  32.115  1.00  0.00     0.029 A 
ATOM     53  N   UNL A   1      40.582  32.181  31.924  1.00  0.00    -0.354 N 
ATOM     54  N   UNL A   1      42.998  30.657  32.584  1.00  0.00    -0.248 NA
ATOM     55  C   UNL A   1      45.035  30.461  33.712  1.00  0.00     0.031 C 
ATOM     56  C   UNL A   1      40.259  34.133  32.934  1.00  0.00     0.029 A 
ATOM     57  C   UNL A   1      41.141  33.070  32.827  1.00  0.00     0.049 A 
ATOM     58  H   UNL A   1      40.988  31.329  31.644  1.00  0.00     0.167 HD
ATOM     59  C   UNL A   1      43.196  31.788  33.367  1.00  0.00     0.074 A 
ATOM     60  C   UNL A   1      44.457  31.605  34.056  1.00  0.00     0.031 C 
ATOM     61  C   UNL A   1      42.404  32.881  33.498  1.00  0.00     0.037 A 
BRANCH  48  62
ATOM     62  C   UNL A   1      37.226  32.666  30.124  1.00  0.00     0.058 A 
ATOM     63  C   UNL A   1      37.162  33.577  29.057  1.00  0.00     0.135 A 
ATOM     64  C   UNL A   1      36.036  32.375  30.809  1.00  0.00     0.135 A 
ATOM     65  F   UNL A   1      38.273  33.902  28.378  1.00  0.00    -0.206 F 
ATOM     66  C   UNL A   1      35.968  34.199  28.704  1.00  0.00     0.059 A 
ATOM     67  C   UNL A   1      34.827  32.969  30.459  1.00  0.00     0.059 A 
ATOM     68  F   UNL A   1      36.041  31.511  31.836  1.00  0.00    -0.206 F 
ATOM     69  C   UNL A   1      34.807  33.894  29.415  1.00  0.00     0.060 A 
BRANCH  69  70
ATOM     70  S   UNL A   1      33.270  34.724  28.958  1.00  0.00     0.124 S 
ATOM     71  O   UNL A   1      32.619  34.864  30.257  1.00  0.00    -0.237 OA
ATOM     72  O   UNL A   1      33.749  35.962  28.353  1.00  0.00    -0.237 OA
ATOM     73  O   UNL A   1      32.637  33.784  28.038  1.00  0.00    -0.744 OA
ENDBRANCH  69  70
ENDBRANCH  48  62
BRANCH  49  74
ATOM     74  C   UNL A   1      45.565  27.791  32.615  1.00  0.00     0.058 A 
ATOM     75  C   UNL A   1      46.809  28.020  32.010  1.00  0.00     0.135 A 
ATOM     76  C   UNL A   1      45.507  26.865  33.668  1.00  0.00     0.135 A 
ATOM     77  F   UNL A   1      46.910  28.890  30.994  1.00  0.00    -0.206 F 
ATOM     78  C   UNL A   1      47.958  27.367  32.443  1.00  0.00     0.059 A 
ATOM     79  C   UNL A   1      46.645  26.215  34.131  1.00  0.00     0.059 A 
ATOM     80  F   UNL A   1      44.340  26.621  34.285  1.00  0.00    -0.206 F 
ATOM     81  C   UNL A   1      47.867  26.473  33.511  1.00  0.00     0.060 A 
BRANCH  81  82
ATOM     82  S   UNL A   1      49.381  25.701  34.124  1.00  0.00     0.124 S 
ATOM     83  O   UNL A   1      48.899  25.019  35.320  1.00  0.00    -0.237 OA
ATOM     84  O   UNL A   1      49.759  24.841  33.007  1.00  0.00    -0.237 OA
ATOM     85  O   UNL A   1      50.266  26.837  34.356  1.00  0.00    -0.744 OA
ENDBRANCH  81  82
ENDBRANCH  49  74
BRANCH  61  86
ATOM     86  C   UNL A   1      42.876  33.969  34.418  1.00  0.00     0.058 A 
ATOM     87  C   UNL A   1      43.613  35.061  33.938  1.00  0.00     0.135 A 
ATOM     88  C   UNL A   1      42.536  33.952  35.780  1.00  0.00     0.135 A 
ATOM     89  F   UNL A   1      43.970  35.119  32.644  1.00  0.00    -0.206 F 
ATOM     90  C   UNL A   1      44.008  36.097  34.778  1.00  0.00     0.059 A 
ATOM     91  C   UNL A   1      42.903  34.987  36.635  1.00  0.00     0.059 A 
ATOM     92  F   UNL A   1      41.826  32.932  36.287  1.00  0.00    -0.206 F 
ATOM     93  C   UNL A   1      43.646  36.052  36.126  1.00  0.00     0.060 A 
BRANCH  93  94
ATOM     94  S   UNL A   1      44.127  37.424  37.196  1.00  0.00     0.124 S 
ATOM     95  O   UNL A   1      45.394  36.943  37.738  1.00  0.00    -0.237 OA
ATOM     96  O   UNL A   1      44.220  38.536  36.255  1.00  0.00    -0.237 OA
ATOM     97  O   UNL A   1      43.027  37.511  38.152  1.00  0.00    -0.744 OA
ENDBRANCH  93  94
ENDBRANCH  61  86
ENDBRANCH  35  36
ENDBRANCH  27  30
ENDBRANCH  25  26
ENDBRANCH   1  25
TORSDOF 18
ENDMDL
