MODEL 1
REMARK VINA RESULT:     -11.0      0.000      0.000
REMARK SMILES CCN(CC)C(=O)C[N@@H+](C)[C@@H](C)c1ccc(C(=O)NCCCNC(=O)c2ccc(-c3c4nc(c(-c5c(F)cc(S(=O)(=O)[O-])cc5F)c5ccc([nH]5)c(-c5c(F)cc(S(=O)(=O)[O-])cc5F)c5nc(c(-c6c(F)cc(S(=O)(=O)[O-])cc6F)c6ccc3[nH]6)C=C5)C=C4)cc2)o1
REMARK SMILES IDX 20 1 19 2 17 3 18 4 16 6 13 7 14 8 92 9 15 10 11 11 12 12
REMARK SMILES IDX 9 13 10 14 8 16 6 17 3 18 7 19 2 20 1 21 4 22 5 23 21 24
REMARK SMILES IDX 22 25 23 26 24 27 25 29 26 30 27 31 91 32 28 33 90 34 29 35
REMARK SMILES IDX 30 36 31 37 84 38 32 39 89 40 83 41 85 42 33 43 88 44 82 45
REMARK SMILES IDX 81 46 34 48 68 49 47 50 67 51 48 52 51 53 66 54 86 55 49 56
REMARK SMILES IDX 50 57 65 59 87 60 52 61 35 62 36 63 45 64 37 65 38 66 44 67
REMARK SMILES IDX 46 68 39 69 40 70 41 71 42 72 43 73 69 74 70 75 79 76 71 77
REMARK SMILES IDX 72 78 78 79 80 80 73 81 74 82 75 83 76 84 77 85 53 86 54 87
REMARK SMILES IDX 63 88 55 89 56 90 62 91 64 92 57 93 58 94 59 95 60 96 61 97
REMARK H PARENT 19 5 9 15 23 28 85 47 51 58
REMARK Flexibility Score: inf
ROOT
ATOM      1  C   UNL A   1      33.611  30.187  27.135  1.00  0.00     0.118 C 
ENDROOT
BRANCH   1   2
ATOM      2  N   UNL A   1      32.507  29.410  27.676  1.00  0.00    -0.349 N 
ATOM      3  C   UNL A   1      31.973  28.202  27.262  1.00  0.00     0.287 C 
ATOM      4  O   UNL A   1      30.966  27.818  27.852  1.00  0.00    -0.266 OA
ATOM      5  H   UNL A   1      32.068  29.807  28.464  1.00  0.00     0.163 HD
BRANCH   3   6
ATOM      6  C   UNL A   1      32.599  27.466  26.179  1.00  0.00     0.191 A 
ATOM      7  C   UNL A   1      32.617  26.460  24.204  1.00  0.00     0.161 A 
ATOM      8  C   UNL A   1      33.918  26.456  24.665  1.00  0.00     0.053 A 
ATOM      9  O   UNL A   1      31.807  27.063  25.127  1.00  0.00    -0.450 OA
ATOM     10  C   UNL A   1      33.890  27.030  25.951  1.00  0.00     0.057 A 
BRANCH   7  11
ATOM     11  C   UNL A   1      31.966  25.864  22.987  1.00  0.00     0.248 C 
ATOM     12  C   UNL A   1      30.683  25.120  23.406  1.00  0.00     0.084 C 
BRANCH  11  13
ATOM     13  N   UNL A   1      32.867  25.091  22.098  1.00  0.00    -0.321 N 
ATOM     14  C   UNL A   1      32.671  25.432  20.687  1.00  0.00     0.333 C 
ATOM     15  H   UNL A   1      33.789  25.392  22.412  1.00  0.00     0.348 HD
BRANCH  13  16
ATOM     16  C   UNL A   1      32.866  23.625  22.261  1.00  0.00     0.364 C 
BRANCH  16  17
ATOM     17  C   UNL A   1      34.090  23.083  23.016  1.00  0.00     0.277 C 
ATOM     18  N   UNL A   1      33.922  22.105  23.994  1.00  0.00    -0.338 N 
ATOM     19  O   UNL A   1      35.195  23.597  22.799  1.00  0.00    -0.268 OA
BRANCH  18  20
ATOM     20  C   UNL A   1      35.110  21.619  24.689  1.00  0.00     0.116 C 
ATOM     21  C   UNL A   1      34.907  21.668  26.190  1.00  0.00     0.027 C 
ENDBRANCH  18  20
BRANCH  18  22
ATOM     22  C   UNL A   1      32.666  21.437  24.340  1.00  0.00     0.116 C 
ATOM     23  C   UNL A   1      32.356  20.288  23.397  1.00  0.00     0.027 C 
ENDBRANCH  18  22
ENDBRANCH  16  17
ENDBRANCH  13  16
ENDBRANCH  11  13
ENDBRANCH   7  11
ENDBRANCH   3   6
ENDBRANCH   1   2
BRANCH   1  24
ATOM     24  C   UNL A   1      34.919  29.999  27.889  1.00  0.00     0.042 C 
BRANCH  24  25
ATOM     25  C   UNL A   1      35.485  31.261  28.514  1.00  0.00     0.118 C 
BRANCH  25  26
ATOM     26  N   UNL A   1      35.513  31.193  29.965  1.00  0.00    -0.352 N 
ATOM     27  C   UNL A   1      36.440  30.638  30.813  1.00  0.00     0.251 C 
ATOM     28  H   UNL A   1      34.743  31.613  30.414  1.00  0.00     0.163 HD
ATOM     29  O   UNL A   1      36.148  30.494  31.998  1.00  0.00    -0.269 OA
BRANCH  27  30
ATOM     30  C   UNL A   1      37.772  30.204  30.324  1.00  0.00     0.039 A 
ATOM     31  C   UNL A   1      38.649  29.582  31.218  1.00  0.00     0.014 A 
ATOM     32  C   UNL A   1      38.192  30.455  29.015  1.00  0.00     0.014 A 
ATOM     33  C   UNL A   1      39.920  29.182  30.790  1.00  0.00     0.010 A 
ATOM     34  C   UNL A   1      39.413  29.963  28.562  1.00  0.00     0.010 A 
ATOM     35  C   UNL A   1      40.306  29.348  29.450  1.00  0.00    -0.014 A 
BRANCH  35  36
ATOM     36  C   UNL A   1      41.655  28.941  28.973  1.00  0.00     0.031 A 
ATOM     37  C   UNL A   1      42.767  29.959  28.906  1.00  0.00     0.074 A 
ATOM     38  C   UNL A   1      41.871  27.679  28.552  1.00  0.00     0.049 A 
ATOM     39  N   UNL A   1      43.988  29.823  28.455  1.00  0.00    -0.248 NA
ATOM     40  C   UNL A   1      42.456  31.318  29.381  1.00  0.00     0.031 C 
ATOM     41  C   UNL A   1      40.867  26.612  28.519  1.00  0.00     0.029 A 
ATOM     42  N   UNL A   1      43.005  27.079  28.064  1.00  0.00    -0.354 N 
ATOM     43  C   UNL A   1      44.577  31.078  28.570  1.00  0.00     0.074 A 
ATOM     44  C   UNL A   1      43.564  31.976  29.078  1.00  0.00     0.031 C 
ATOM     45  C   UNL A   1      41.436  25.486  28.061  1.00  0.00     0.029 A 
ATOM     46  C   UNL A   1      42.833  25.754  27.734  1.00  0.00     0.049 A 
ATOM     47  H   UNL A   1      43.863  27.552  27.960  1.00  0.00     0.167 HD
ATOM     48  C   UNL A   1      45.855  31.445  28.305  1.00  0.00     0.037 A 
ATOM     49  C   UNL A   1      43.701  24.859  27.221  1.00  0.00     0.037 A 
ATOM     50  C   UNL A   1      46.871  30.537  27.840  1.00  0.00     0.049 A 
ATOM     51  C   UNL A   1      45.121  25.284  26.957  1.00  0.00     0.074 A 
ATOM     52  C   UNL A   1      48.209  30.796  27.595  1.00  0.00     0.029 A 
ATOM     53  N   UNL A   1      46.665  29.196  27.556  1.00  0.00    -0.354 N 
ATOM     54  N   UNL A   1      45.674  26.463  27.123  1.00  0.00    -0.248 NA
ATOM     55  C   UNL A   1      46.038  24.255  26.449  1.00  0.00     0.031 C 
ATOM     56  C   UNL A   1      48.802  29.619  27.126  1.00  0.00     0.029 A 
ATOM     57  C   UNL A   1      47.848  28.615  27.129  1.00  0.00     0.049 A 
ATOM     58  H   UNL A   1      45.805  28.724  27.646  1.00  0.00     0.167 HD
ATOM     59  C   UNL A   1      47.012  26.307  26.776  1.00  0.00     0.074 A 
ATOM     60  C   UNL A   1      47.185  24.919  26.398  1.00  0.00     0.031 C 
ATOM     61  C   UNL A   1      48.008  27.227  26.774  1.00  0.00     0.037 A 
BRANCH  48  62
ATOM     62  C   UNL A   1      46.230  32.886  28.525  1.00  0.00     0.058 A 
ATOM     63  C   UNL A   1      46.125  33.841  27.500  1.00  0.00     0.135 A 
ATOM     64  C   UNL A   1      46.666  33.327  29.785  1.00  0.00     0.135 A 
ATOM     65  F   UNL A   1      45.730  33.473  26.270  1.00  0.00    -0.206 F 
ATOM     66  C   UNL A   1      46.466  35.174  27.708  1.00  0.00     0.059 A 
ATOM     67  C   UNL A   1      46.983  34.661  30.025  1.00  0.00     0.059 A 
ATOM     68  F   UNL A   1      46.786  32.458  30.801  1.00  0.00    -0.206 F 
ATOM     69  C   UNL A   1      46.893  35.574  28.974  1.00  0.00     0.060 A 
BRANCH  69  70
ATOM     70  S   UNL A   1      47.320  37.310  29.230  1.00  0.00     0.124 S 
ATOM     71  O   UNL A   1      46.498  37.643  30.390  1.00  0.00    -0.237 OA
ATOM     72  O   UNL A   1      48.758  37.245  29.471  1.00  0.00    -0.237 OA
ATOM     73  O   UNL A   1      46.925  37.945  27.978  1.00  0.00    -0.744 OA
ENDBRANCH  69  70
ENDBRANCH  48  62
BRANCH  49  74
ATOM     74  C   UNL A   1      43.261  23.463  26.954  1.00  0.00     0.058 A 
ATOM     75  C   UNL A   1      43.117  22.538  27.999  1.00  0.00     0.135 A 
ATOM     76  C   UNL A   1      42.972  23.026  25.652  1.00  0.00     0.135 A 
ATOM     77  F   UNL A   1      43.386  22.907  29.261  1.00  0.00    -0.206 F 
ATOM     78  C   UNL A   1      42.728  21.224  27.763  1.00  0.00     0.059 A 
ATOM     79  C   UNL A   1      42.554  21.723  25.394  1.00  0.00     0.059 A 
ATOM     80  F   UNL A   1      43.075  23.876  24.619  1.00  0.00    -0.206 F 
ATOM     81  C   UNL A   1      42.448  20.826  26.455  1.00  0.00     0.060 A 
BRANCH  81  82
ATOM     82  S   UNL A   1      41.908  19.127  26.163  1.00  0.00     0.124 S 
ATOM     83  O   UNL A   1      42.741  18.745  25.029  1.00  0.00    -0.237 OA
ATOM     84  O   UNL A   1      42.224  18.482  27.434  1.00  0.00    -0.237 OA
ATOM     85  O   UNL A   1      40.483  19.273  25.879  1.00  0.00    -0.744 OA
ENDBRANCH  81  82
ENDBRANCH  49  74
BRANCH  61  86
ATOM     86  C   UNL A   1      49.388  26.755  26.408  1.00  0.00     0.058 A 
ATOM     87  C   UNL A   1      50.229  26.123  27.336  1.00  0.00     0.135 A 
ATOM     88  C   UNL A   1      49.857  26.901  25.092  1.00  0.00     0.135 A 
ATOM     89  F   UNL A   1      49.831  25.960  28.608  1.00  0.00    -0.206 F 
ATOM     90  C   UNL A   1      51.499  25.679  26.980  1.00  0.00     0.059 A 
ATOM     91  C   UNL A   1      51.110  26.439  24.706  1.00  0.00     0.059 A 
ATOM     92  F   UNL A   1      49.087  27.488  24.160  1.00  0.00    -0.206 F 
ATOM     93  C   UNL A   1      51.930  25.842  25.662  1.00  0.00     0.060 A 
BRANCH  93  94
ATOM     94  S   UNL A   1      53.572  25.244  25.207  1.00  0.00     0.124 S 
ATOM     95  O   UNL A   1      54.398  25.825  26.260  1.00  0.00    -0.237 OA
ATOM     96  O   UNL A   1      53.403  23.795  25.261  1.00  0.00    -0.237 OA
ATOM     97  O   UNL A   1      53.776  25.796  23.872  1.00  0.00    -0.744 OA
ENDBRANCH  93  94
ENDBRANCH  61  86
ENDBRANCH  35  36
ENDBRANCH  27  30
ENDBRANCH  25  26
ENDBRANCH  24  25
ENDBRANCH   1  24
TORSDOF 19
ENDMDL
MODEL 2
REMARK VINA RESULT:     -10.7      6.361     11.934
REMARK SMILES CCN(CC)C(=O)C[N@@H+](C)[C@@H](C)c1ccc(C(=O)NCCCNC(=O)c2ccc(-c3c4nc(c(-c5c(F)cc(S(=O)(=O)[O-])cc5F)c5ccc([nH]5)c(-c5c(F)cc(S(=O)(=O)[O-])cc5F)c5nc(c(-c6c(F)cc(S(=O)(=O)[O-])cc6F)c6ccc3[nH]6)C=C5)C=C4)cc2)o1
REMARK SMILES IDX 20 1 19 2 17 3 18 4 16 6 13 7 14 8 92 9 15 10 11 11 12 12
REMARK SMILES IDX 9 13 10 14 8 16 6 17 3 18 7 19 2 20 1 21 4 22 5 23 21 24
REMARK SMILES IDX 22 25 23 26 24 27 25 29 26 30 27 31 91 32 28 33 90 34 29 35
REMARK SMILES IDX 30 36 31 37 84 38 32 39 89 40 83 41 85 42 33 43 88 44 82 45
REMARK SMILES IDX 81 46 34 48 68 49 47 50 67 51 48 52 51 53 66 54 86 55 49 56
REMARK SMILES IDX 50 57 65 59 87 60 52 61 35 62 36 63 45 64 37 65 38 66 44 67
REMARK SMILES IDX 46 68 39 69 40 70 41 71 42 72 43 73 69 74 70 75 79 76 71 77
REMARK SMILES IDX 72 78 78 79 80 80 73 81 74 82 75 83 76 84 77 85 53 86 54 87
REMARK SMILES IDX 63 88 55 89 56 90 62 91 64 92 57 93 58 94 59 95 60 96 61 97
REMARK H PARENT 19 5 9 15 23 28 85 47 51 58
REMARK Flexibility Score: inf
ROOT
ATOM      1  C   UNL A   1      37.308  22.679  25.646  1.00  0.00     0.118 C 
ENDROOT
BRANCH   1   2
ATOM      2  N   UNL A   1      36.285  22.053  26.469  1.00  0.00    -0.349 N 
ATOM      3  C   UNL A   1      34.912  21.994  26.302  1.00  0.00     0.287 C 
ATOM      4  O   UNL A   1      34.272  21.476  27.214  1.00  0.00    -0.266 OA
ATOM      5  H   UNL A   1      36.623  21.598  27.274  1.00  0.00     0.163 HD
BRANCH   3   6
ATOM      6  C   UNL A   1      34.304  22.535  25.100  1.00  0.00     0.191 A 
ATOM      7  C   UNL A   1      32.983  23.925  23.988  1.00  0.00     0.161 A 
ATOM      8  C   UNL A   1      33.669  23.188  23.045  1.00  0.00     0.053 A 
ATOM      9  O   UNL A   1      33.356  23.524  25.242  1.00  0.00    -0.450 OA
ATOM     10  C   UNL A   1      34.452  22.257  23.754  1.00  0.00     0.057 A 
BRANCH   7  11
ATOM     11  C   UNL A   1      31.892  24.954  23.880  1.00  0.00     0.248 C 
ATOM     12  C   UNL A   1      30.612  24.287  23.341  1.00  0.00     0.084 C 
BRANCH  11  13
ATOM     13  N   UNL A   1      32.271  26.213  23.194  1.00  0.00    -0.321 N 
ATOM     14  C   UNL A   1      32.153  26.103  21.739  1.00  0.00     0.333 C 
ATOM     15  H   UNL A   1      31.582  26.872  23.558  1.00  0.00     0.348 HD
BRANCH  13  16
ATOM     16  C   UNL A   1      33.581  26.794  23.546  1.00  0.00     0.364 C 
BRANCH  16  17
ATOM     17  C   UNL A   1      33.498  28.234  24.078  1.00  0.00     0.277 C 
ATOM     18  N   UNL A   1      33.256  28.457  25.432  1.00  0.00    -0.338 N 
ATOM     19  O   UNL A   1      33.560  29.169  23.270  1.00  0.00    -0.268 OA
BRANCH  18  20
ATOM     20  C   UNL A   1      33.184  29.839  25.898  1.00  0.00     0.116 C 
ATOM     21  C   UNL A   1      31.749  30.327  25.895  1.00  0.00     0.027 C 
ENDBRANCH  18  20
BRANCH  18  22
ATOM     22  C   UNL A   1      33.155  27.431  26.472  1.00  0.00     0.116 C 
ATOM     23  C   UNL A   1      31.711  27.074  26.781  1.00  0.00     0.027 C 
ENDBRANCH  18  22
ENDBRANCH  16  17
ENDBRANCH  13  16
ENDBRANCH  11  13
ENDBRANCH   7  11
ENDBRANCH   3   6
ENDBRANCH   1   2
BRANCH   1  24
ATOM     24  C   UNL A   1      38.729  22.315  26.053  1.00  0.00     0.042 C 
BRANCH  24  25
ATOM     25  C   UNL A   1      39.482  23.407  26.792  1.00  0.00     0.118 C 
BRANCH  25  26
ATOM     26  N   UNL A   1      40.707  23.789  26.110  1.00  0.00    -0.352 N 
ATOM     27  C   UNL A   1      41.476  24.922  26.229  1.00  0.00     0.251 C 
ATOM     28  H   UNL A   1      41.041  23.130  25.459  1.00  0.00     0.163 HD
ATOM     29  O   UNL A   1      42.346  25.137  25.388  1.00  0.00    -0.269 OA
BRANCH  27  30
ATOM     30  C   UNL A   1      41.267  25.884  27.339  1.00  0.00     0.039 A 
ATOM     31  C   UNL A   1      42.121  26.987  27.444  1.00  0.00     0.014 A 
ATOM     32  C   UNL A   1      40.284  25.683  28.310  1.00  0.00     0.014 A 
ATOM     33  C   UNL A   1      41.962  27.898  28.493  1.00  0.00     0.010 A 
ATOM     34  C   UNL A   1      40.058  26.645  29.291  1.00  0.00     0.010 A 
ATOM     35  C   UNL A   1      40.913  27.750  29.415  1.00  0.00    -0.014 A 
BRANCH  35  36
ATOM     36  C   UNL A   1      40.729  28.699  30.545  1.00  0.00     0.031 A 
ATOM     37  C   UNL A   1      41.577  28.564  31.787  1.00  0.00     0.074 A 
ATOM     38  C   UNL A   1      39.772  29.647  30.483  1.00  0.00     0.049 A 
ATOM     39  N   UNL A   1      41.523  29.243  32.904  1.00  0.00    -0.248 NA
ATOM     40  C   UNL A   1      42.599  27.504  31.782  1.00  0.00     0.031 C 
ATOM     41  C   UNL A   1      38.853  29.852  29.361  1.00  0.00     0.029 A 
ATOM     42  N   UNL A   1      39.408  30.613  31.388  1.00  0.00    -0.354 N 
ATOM     43  C   UNL A   1      42.483  28.679  33.737  1.00  0.00     0.074 A 
ATOM     44  C   UNL A   1      43.064  27.566  33.021  1.00  0.00     0.031 C 
ATOM     45  C   UNL A   1      38.050  30.893  29.634  1.00  0.00     0.029 A 
ATOM     46  C   UNL A   1      38.369  31.408  30.961  1.00  0.00     0.049 A 
ATOM     47  H   UNL A   1      39.849  30.727  32.261  1.00  0.00     0.167 HD
ATOM     48  C   UNL A   1      42.869  29.069  34.977  1.00  0.00     0.037 A 
ATOM     49  C   UNL A   1      37.742  32.432  31.573  1.00  0.00     0.037 A 
ATOM     50  C   UNL A   1      42.317  30.205  35.669  1.00  0.00     0.049 A 
ATOM     51  C   UNL A   1      38.203  32.863  32.940  1.00  0.00     0.074 A 
ATOM     52  C   UNL A   1      42.677  30.718  36.903  1.00  0.00     0.029 A 
ATOM     53  N   UNL A   1      41.294  31.007  35.186  1.00  0.00    -0.354 N 
ATOM     54  N   UNL A   1      39.150  32.351  33.690  1.00  0.00    -0.248 NA
ATOM     55  C   UNL A   1      37.521  34.019  33.538  1.00  0.00     0.031 C 
ATOM     56  C   UNL A   1      41.845  31.807  37.182  1.00  0.00     0.029 A 
ATOM     57  C   UNL A   1      41.003  32.005  36.100  1.00  0.00     0.049 A 
ATOM     58  H   UNL A   1      40.842  30.885  34.319  1.00  0.00     0.167 HD
ATOM     59  C   UNL A   1      39.202  33.145  34.831  1.00  0.00     0.074 A 
ATOM     60  C   UNL A   1      38.197  34.175  34.668  1.00  0.00     0.031 C 
ATOM     61  C   UNL A   1      40.011  33.035  35.914  1.00  0.00     0.037 A 
BRANCH  48  62
ATOM     62  C   UNL A   1      43.947  28.272  35.659  1.00  0.00     0.058 A 
ATOM     63  C   UNL A   1      45.310  28.562  35.476  1.00  0.00     0.135 A 
ATOM     64  C   UNL A   1      43.616  27.226  36.536  1.00  0.00     0.135 A 
ATOM     65  F   UNL A   1      45.686  29.540  34.636  1.00  0.00    -0.206 F 
ATOM     66  C   UNL A   1      46.304  27.826  36.113  1.00  0.00     0.059 A 
ATOM     67  C   UNL A   1      44.593  26.497  37.209  1.00  0.00     0.059 A 
ATOM     68  F   UNL A   1      42.331  26.903  36.749  1.00  0.00    -0.206 F 
ATOM     69  C   UNL A   1      45.936  26.796  36.979  1.00  0.00     0.060 A 
BRANCH  69  70
ATOM     70  S   UNL A   1      47.238  25.861  37.807  1.00  0.00     0.124 S 
ATOM     71  O   UNL A   1      46.966  26.162  39.210  1.00  0.00    -0.237 OA
ATOM     72  O   UNL A   1      46.955  24.492  37.388  1.00  0.00    -0.237 OA
ATOM     73  O   UNL A   1      48.466  26.437  37.269  1.00  0.00    -0.744 OA
ENDBRANCH  69  70
ENDBRANCH  48  62
BRANCH  49  74
ATOM     74  C   UNL A   1      36.631  33.144  30.885  1.00  0.00     0.058 A 
ATOM     75  C   UNL A   1      35.294  32.913  31.241  1.00  0.00     0.135 A 
ATOM     76  C   UNL A   1      36.882  34.071  29.861  1.00  0.00     0.135 A 
ATOM     77  F   UNL A   1      35.002  32.032  32.211  1.00  0.00    -0.206 F 
ATOM     78  C   UNL A   1      34.243  33.553  30.593  1.00  0.00     0.059 A 
ATOM     79  C   UNL A   1      35.849  34.746  29.216  1.00  0.00     0.059 A 
ATOM     80  F   UNL A   1      38.144  34.343  29.495  1.00  0.00    -0.206 F 
ATOM     81  C   UNL A   1      34.533  34.470  29.581  1.00  0.00     0.060 A 
BRANCH  81  82
ATOM     82  S   UNL A   1      33.163  35.325  28.769  1.00  0.00     0.124 S 
ATOM     83  O   UNL A   1      33.870  36.312  27.962  1.00  0.00    -0.237 OA
ATOM     84  O   UNL A   1      32.519  34.242  28.033  1.00  0.00    -0.237 OA
ATOM     85  O   UNL A   1      32.392  35.858  29.887  1.00  0.00    -0.744 OA
ENDBRANCH  81  82
ENDBRANCH  49  74
BRANCH  61  86
ATOM     86  C   UNL A   1      39.887  34.085  36.983  1.00  0.00     0.058 A 
ATOM     87  C   UNL A   1      40.445  35.364  36.837  1.00  0.00     0.135 A 
ATOM     88  C   UNL A   1      39.158  33.817  38.153  1.00  0.00     0.135 A 
ATOM     89  F   UNL A   1      41.154  35.672  35.740  1.00  0.00    -0.206 F 
ATOM     90  C   UNL A   1      40.311  36.331  37.829  1.00  0.00     0.059 A 
ATOM     91  C   UNL A   1      38.986  34.777  39.144  1.00  0.00     0.059 A 
ATOM     92  F   UNL A   1      38.591  32.613  38.337  1.00  0.00    -0.206 F 
ATOM     93  C   UNL A   1      39.579  36.028  38.979  1.00  0.00     0.060 A 
BRANCH  93  94
ATOM     94  S   UNL A   1      39.395  37.297  40.249  1.00  0.00     0.124 S 
ATOM     95  O   UNL A   1      40.772  37.463  40.701  1.00  0.00    -0.237 OA
ATOM     96  O   UNL A   1      38.836  38.415  39.496  1.00  0.00    -0.237 OA
ATOM     97  O   UNL A   1      38.488  36.683  41.214  1.00  0.00    -0.744 OA
ENDBRANCH  93  94
ENDBRANCH  61  86
ENDBRANCH  35  36
ENDBRANCH  27  30
ENDBRANCH  25  26
ENDBRANCH  24  25
ENDBRANCH   1  24
TORSDOF 19
ENDMDL
MODEL 3
REMARK VINA RESULT:     -10.5      2.299      8.800
REMARK SMILES CCN(CC)C(=O)C[N@@H+](C)[C@@H](C)c1ccc(C(=O)NCCCNC(=O)c2ccc(-c3c4nc(c(-c5c(F)cc(S(=O)(=O)[O-])cc5F)c5ccc([nH]5)c(-c5c(F)cc(S(=O)(=O)[O-])cc5F)c5nc(c(-c6c(F)cc(S(=O)(=O)[O-])cc6F)c6ccc3[nH]6)C=C5)C=C4)cc2)o1
REMARK SMILES IDX 20 1 19 2 17 3 18 4 16 6 13 7 14 8 92 9 15 10 11 11 12 12
REMARK SMILES IDX 9 13 10 14 8 16 6 17 3 18 7 19 2 20 1 21 4 22 5 23 21 24
REMARK SMILES IDX 22 25 23 26 24 27 25 29 26 30 27 31 91 32 28 33 90 34 29 35
REMARK SMILES IDX 30 36 31 37 84 38 32 39 89 40 83 41 85 42 33 43 88 44 82 45
REMARK SMILES IDX 81 46 34 48 68 49 47 50 67 51 48 52 51 53 66 54 86 55 49 56
REMARK SMILES IDX 50 57 65 59 87 60 52 61 35 62 36 63 45 64 37 65 38 66 44 67
REMARK SMILES IDX 46 68 39 69 40 70 41 71 42 72 43 73 69 74 70 75 79 76 71 77
REMARK SMILES IDX 72 78 78 79 80 80 73 81 74 82 75 83 76 84 77 85 53 86 54 87
REMARK SMILES IDX 63 88 55 89 56 90 62 91 64 92 57 93 58 94 59 95 60 96 61 97
REMARK H PARENT 19 5 9 15 23 28 85 47 51 58
REMARK Flexibility Score: inf
ROOT
ATOM      1  C   UNL A   1      37.676  21.312  24.593  1.00  0.00     0.118 C 
ENDROOT
BRANCH   1   2
ATOM      2  N   UNL A   1      38.114  22.486  25.330  1.00  0.00    -0.349 N 
ATOM      3  C   UNL A   1      37.382  23.527  25.875  1.00  0.00     0.287 C 
ATOM      4  O   UNL A   1      38.026  24.450  26.367  1.00  0.00    -0.266 OA
ATOM      5  H   UNL A   1      39.088  22.552  25.464  1.00  0.00     0.163 HD
BRANCH   3   6
ATOM      6  C   UNL A   1      35.931  23.491  25.838  1.00  0.00     0.191 A 
ATOM      7  C   UNL A   1      33.953  23.853  24.906  1.00  0.00     0.161 A 
ATOM      8  C   UNL A   1      33.721  23.154  26.072  1.00  0.00     0.053 A 
ATOM      9  O   UNL A   1      35.296  24.073  24.763  1.00  0.00    -0.450 OA
ATOM     10  C   UNL A   1      34.973  22.989  26.698  1.00  0.00     0.057 A 
BRANCH   7  11
ATOM     11  C   UNL A   1      33.033  24.464  23.885  1.00  0.00     0.248 C 
ATOM     12  C   UNL A   1      33.705  25.708  23.272  1.00  0.00     0.084 C 
BRANCH  11  13
ATOM     13  N   UNL A   1      31.635  24.672  24.332  1.00  0.00    -0.321 N 
ATOM     14  C   UNL A   1      30.686  23.859  23.569  1.00  0.00     0.333 C 
ATOM     15  H   UNL A   1      31.670  24.361  25.302  1.00  0.00     0.348 HD
BRANCH  13  16
ATOM     16  C   UNL A   1      31.157  26.067  24.395  1.00  0.00     0.364 C 
BRANCH  16  17
ATOM     17  C   UNL A   1      31.462  26.768  25.728  1.00  0.00     0.277 C 
ATOM     18  N   UNL A   1      31.831  28.112  25.734  1.00  0.00    -0.338 N 
ATOM     19  O   UNL A   1      31.460  26.094  26.766  1.00  0.00    -0.268 OA
BRANCH  18  20
ATOM     20  C   UNL A   1      32.112  28.740  27.021  1.00  0.00     0.116 C 
ATOM     21  C   UNL A   1      33.594  28.672  27.334  1.00  0.00     0.027 C 
ENDBRANCH  18  20
BRANCH  18  22
ATOM     22  C   UNL A   1      31.877  29.000  24.571  1.00  0.00     0.116 C 
ATOM     23  C   UNL A   1      30.513  29.157  23.921  1.00  0.00     0.027 C 
ENDBRANCH  18  22
ENDBRANCH  16  17
ENDBRANCH  13  16
ENDBRANCH  11  13
ENDBRANCH   7  11
ENDBRANCH   3   6
ENDBRANCH   1   2
BRANCH   1  24
ATOM     24  C   UNL A   1      38.384  20.030  25.007  1.00  0.00     0.042 C 
BRANCH  24  25
ATOM     25  C   UNL A   1      39.350  20.179  26.168  1.00  0.00     0.118 C 
BRANCH  25  26
ATOM     26  N   UNL A   1      40.498  19.295  26.048  1.00  0.00    -0.352 N 
ATOM     27  C   UNL A   1      41.838  19.583  25.957  1.00  0.00     0.251 C 
ATOM     28  H   UNL A   1      40.280  18.335  26.029  1.00  0.00     0.163 HD
ATOM     29  O   UNL A   1      42.615  18.688  25.631  1.00  0.00    -0.269 OA
BRANCH  27  30
ATOM     30  C   UNL A   1      42.356  20.945  26.233  1.00  0.00     0.039 A 
ATOM     31  C   UNL A   1      42.652  21.299  27.554  1.00  0.00     0.014 A 
ATOM     32  C   UNL A   1      42.495  21.898  25.221  1.00  0.00     0.014 A 
ATOM     33  C   UNL A   1      43.121  22.584  27.847  1.00  0.00     0.010 A 
ATOM     34  C   UNL A   1      43.061  23.140  25.497  1.00  0.00     0.010 A 
ATOM     35  C   UNL A   1      43.352  23.511  26.817  1.00  0.00    -0.014 A 
BRANCH  35  36
ATOM     36  C   UNL A   1      43.840  24.887  27.103  1.00  0.00     0.031 A 
ATOM     37  C   UNL A   1      45.302  25.219  26.929  1.00  0.00     0.074 A 
ATOM     38  C   UNL A   1      42.987  25.824  27.564  1.00  0.00     0.049 A 
ATOM     39  N   UNL A   1      45.935  26.333  27.192  1.00  0.00    -0.248 NA
ATOM     40  C   UNL A   1      46.172  24.145  26.422  1.00  0.00     0.031 C 
ATOM     41  C   UNL A   1      41.560  25.618  27.823  1.00  0.00     0.029 A 
ATOM     42  N   UNL A   1      43.198  27.137  27.907  1.00  0.00    -0.354 N 
ATOM     43  C   UNL A   1      47.273  26.086  26.905  1.00  0.00     0.074 A 
ATOM     44  C   UNL A   1      47.371  24.700  26.506  1.00  0.00     0.031 C 
ATOM     45  C   UNL A   1      41.020  26.768  28.257  1.00  0.00     0.029 A 
ATOM     46  C   UNL A   1      42.065  27.783  28.345  1.00  0.00     0.049 A 
ATOM     47  H   UNL A   1      44.077  27.575  27.845  1.00  0.00     0.167 HD
ATOM     48  C   UNL A   1      48.323  26.942  26.943  1.00  0.00     0.037 A 
ATOM     49  C   UNL A   1      41.890  29.050  28.772  1.00  0.00     0.037 A 
ATOM     50  C   UNL A   1      48.214  28.333  27.301  1.00  0.00     0.049 A 
ATOM     51  C   UNL A   1      43.066  29.989  28.783  1.00  0.00     0.074 A 
ATOM     52  C   UNL A   1      49.206  29.298  27.316  1.00  0.00     0.029 A 
ATOM     53  N   UNL A   1      47.042  28.958  27.700  1.00  0.00    -0.354 N 
ATOM     54  N   UNL A   1      44.315  29.751  28.457  1.00  0.00    -0.248 NA
ATOM     55  C   UNL A   1      42.808  31.372  29.206  1.00  0.00     0.031 C 
ATOM     56  C   UNL A   1      48.641  30.497  27.762  1.00  0.00     0.029 A 
ATOM     57  C   UNL A   1      47.287  30.293  27.973  1.00  0.00     0.049 A 
ATOM     58  H   UNL A   1      46.164  28.517  27.776  1.00  0.00     0.167 HD
ATOM     59  C   UNL A   1      44.982  30.964  28.600  1.00  0.00     0.074 A 
ATOM     60  C   UNL A   1      43.998  31.933  29.035  1.00  0.00     0.031 C 
ATOM     61  C   UNL A   1      46.291  31.250  28.387  1.00  0.00     0.037 A 
BRANCH  48  62
ATOM     62  C   UNL A   1      49.680  26.404  26.576  1.00  0.00     0.058 A 
ATOM     63  C   UNL A   1      50.124  26.366  25.244  1.00  0.00     0.135 A 
ATOM     64  C   UNL A   1      50.564  25.954  27.571  1.00  0.00     0.135 A 
ATOM     65  F   UNL A   1      49.316  26.768  24.249  1.00  0.00    -0.206 F 
ATOM     66  C   UNL A   1      51.382  25.874  24.908  1.00  0.00     0.059 A 
ATOM     67  C   UNL A   1      51.838  25.486  27.261  1.00  0.00     0.059 A 
ATOM     68  F   UNL A   1      50.192  25.966  28.861  1.00  0.00    -0.206 F 
ATOM     69  C   UNL A   1      52.232  25.437  25.924  1.00  0.00     0.060 A 
BRANCH  69  70
ATOM     70  S   UNL A   1      53.865  24.814  25.473  1.00  0.00     0.124 S 
ATOM     71  O   UNL A   1      53.553  23.444  25.075  1.00  0.00    -0.237 OA
ATOM     72  O   UNL A   1      54.255  25.713  24.392  1.00  0.00    -0.237 OA
ATOM     73  O   UNL A   1      54.634  24.949  26.706  1.00  0.00    -0.744 OA
ENDBRANCH  69  70
ENDBRANCH  48  62
BRANCH  49  74
ATOM     74  C   UNL A   1      40.540  29.514  29.194  1.00  0.00     0.058 A 
ATOM     75  C   UNL A   1      40.239  29.726  30.548  1.00  0.00     0.135 A 
ATOM     76  C   UNL A   1      39.527  29.760  28.254  1.00  0.00     0.135 A 
ATOM     77  F   UNL A   1      41.174  29.501  31.484  1.00  0.00    -0.206 F 
ATOM     78  C   UNL A   1      38.977  30.138  30.960  1.00  0.00     0.059 A 
ATOM     79  C   UNL A   1      38.264  30.200  28.640  1.00  0.00     0.059 A 
ATOM     80  F   UNL A   1      39.768  29.591  26.945  1.00  0.00    -0.206 F 
ATOM     81  C   UNL A   1      37.994  30.374  29.996  1.00  0.00     0.060 A 
BRANCH  81  82
ATOM     82  S   UNL A   1      36.369  30.945  30.538  1.00  0.00     0.124 S 
ATOM     83  O   UNL A   1      35.621  30.933  29.286  1.00  0.00    -0.237 OA
ATOM     84  O   UNL A   1      35.995  29.925  31.514  1.00  0.00    -0.237 OA
ATOM     85  O   UNL A   1      36.646  32.265  31.096  1.00  0.00    -0.744 OA
ENDBRANCH  81  82
ENDBRANCH  49  74
BRANCH  61  86
ATOM     86  C   UNL A   1      46.726  32.678  28.563  1.00  0.00     0.058 A 
ATOM     87  C   UNL A   1      47.222  33.160  29.784  1.00  0.00     0.135 A 
ATOM     88  C   UNL A   1      46.686  33.567  27.475  1.00  0.00     0.135 A 
ATOM     89  F   UNL A   1      47.280  32.353  30.855  1.00  0.00    -0.206 F 
ATOM     90  C   UNL A   1      47.634  34.480  29.929  1.00  0.00     0.059 A 
ATOM     91  C   UNL A   1      47.120  34.883  27.590  1.00  0.00     0.059 A 
ATOM     92  F   UNL A   1      46.232  33.154  26.280  1.00  0.00    -0.206 F 
ATOM     93  C   UNL A   1      47.579  35.335  28.826  1.00  0.00     0.060 A 
BRANCH  93  94
ATOM     94  S   UNL A   1      48.135  37.041  29.022  1.00  0.00     0.124 S 
ATOM     95  O   UNL A   1      49.585  36.885  28.974  1.00  0.00    -0.237 OA
ATOM     96  O   UNL A   1      47.530  37.702  27.870  1.00  0.00    -0.237 OA
ATOM     97  O   UNL A   1      47.588  37.430  30.318  1.00  0.00    -0.744 OA
ENDBRANCH  93  94
ENDBRANCH  61  86
ENDBRANCH  35  36
ENDBRANCH  27  30
ENDBRANCH  25  26
ENDBRANCH  24  25
ENDBRANCH   1  24
TORSDOF 19
ENDMDL
