MODEL 1
REMARK VINA RESULT:     -12.1      0.000      0.000
REMARK SMILES O=C(CC(=O)c1ccccc1)Nc1cccc(C(=O)NCCCNC(=O)c2ccc(-c3c4nc(c(-c5c(F)cc(S(=O)(=O)[O-])cc5F)c5ccc([nH]5)c(-c5c(F)cc(S(=O)(=O)[O-])cc5F)c5nc(c(-c6c(F)cc(S(=O)(=O)[O-])cc6F)c6ccc3[nH]6)C=C5)C=C4)cc2)c1
REMARK SMILES IDX 21 1 20 2 18 3 19 4 17 6 13 7 14 8 93 9 15 10 16 11 12 12
REMARK SMILES IDX 1 13 2 14 3 16 4 17 5 18 6 19 7 20 11 21 8 22 10 23 9 24
REMARK SMILES IDX 22 25 23 26 24 27 25 28 26 30 27 31 28 32 92 33 29 34 91 35
REMARK SMILES IDX 30 36 31 37 32 38 85 39 33 40 90 41 84 42 86 43 34 44 89 45
REMARK SMILES IDX 83 46 82 47 35 49 69 50 48 51 68 52 49 53 52 54 67 55 87 56
REMARK SMILES IDX 50 57 51 58 66 60 88 61 53 62 36 63 37 64 46 65 38 66 39 67
REMARK SMILES IDX 45 68 47 69 40 70 41 71 42 72 43 73 44 74 70 75 71 76 80 77
REMARK SMILES IDX 72 78 73 79 79 80 81 81 74 82 75 83 76 84 77 85 78 86 54 87
REMARK SMILES IDX 55 88 64 89 56 90 57 91 63 92 65 93 58 94 59 95 60 96 61 97
REMARK SMILES IDX 62 98
REMARK H PARENT 20 5 12 15 24 29 86 48 52 59
REMARK Flexibility Score: inf
ROOT
ATOM      1  C   UNL A   1      37.706  22.227  25.594  1.00  0.00     0.118 C 
ENDROOT
BRANCH   1   2
ATOM      2  N   UNL A   1      36.518  21.778  26.319  1.00  0.00    -0.352 N 
ATOM      3  C   UNL A   1      35.167  21.960  26.094  1.00  0.00     0.251 C 
ATOM      4  O   UNL A   1      34.367  21.441  26.871  1.00  0.00    -0.269 OA
ATOM      5  H   UNL A   1      36.719  21.244  27.120  1.00  0.00     0.163 HD
BRANCH   3   6
ATOM      6  C   UNL A   1      34.647  22.826  25.000  1.00  0.00     0.041 A 
ATOM      7  C   UNL A   1      33.615  24.904  24.340  1.00  0.00     0.041 A 
ATOM      8  C   UNL A   1      33.186  24.314  23.150  1.00  0.00     0.026 A 
ATOM      9  C   UNL A   1      34.491  24.197  25.157  1.00  0.00     0.040 A 
ATOM     10  C   UNL A   1      33.546  22.996  22.853  1.00  0.00     0.003 A 
ATOM     11  C   UNL A   1      34.229  22.235  23.803  1.00  0.00     0.014 A 
BRANCH   7  12
ATOM     12  N   UNL A   1      33.054  26.143  24.722  1.00  0.00    -0.326 N 
ATOM     13  O   UNL A   1      31.304  25.450  26.108  1.00  0.00    -0.274 OA
ATOM     14  C   UNL A   1      31.939  26.329  25.531  1.00  0.00     0.232 C 
ATOM     15  H   UNL A   1      33.497  26.955  24.383  1.00  0.00     0.169 HD
BRANCH  14  16
ATOM     16  C   UNL A   1      31.512  27.759  25.676  1.00  0.00     0.181 C 
BRANCH  16  17
ATOM     17  C   UNL A   1      31.794  28.405  27.002  1.00  0.00     0.172 C 
ATOM     18  O   UNL A   1      31.102  28.145  27.986  1.00  0.00    -0.294 OA
BRANCH  17  19
ATOM     19  C   UNL A   1      32.946  29.334  27.179  1.00  0.00     0.018 A 
ATOM     20  C   UNL A   1      34.219  28.757  27.269  1.00  0.00     0.012 A 
ATOM     21  C   UNL A   1      32.810  30.715  27.354  1.00  0.00     0.012 A 
ATOM     22  C   UNL A   1      35.335  29.550  27.539  1.00  0.00     0.001 A 
ATOM     23  C   UNL A   1      33.925  31.504  27.642  1.00  0.00     0.001 A 
ATOM     24  C   UNL A   1      35.186  30.921  27.736  1.00  0.00     0.000 A 
ENDBRANCH  17  19
ENDBRANCH  16  17
ENDBRANCH  14  16
ENDBRANCH   7  12
ENDBRANCH   3   6
ENDBRANCH   1   2
BRANCH   1  25
ATOM     25  C   UNL A   1      38.964  22.358  26.433  1.00  0.00     0.042 C 
BRANCH  25  26
ATOM     26  C   UNL A   1      39.365  23.780  26.771  1.00  0.00     0.118 C 
BRANCH  26  27
ATOM     27  N   UNL A   1      40.466  24.274  25.953  1.00  0.00    -0.352 N 
ATOM     28  C   UNL A   1      41.256  25.393  26.075  1.00  0.00     0.251 C 
ATOM     29  H   UNL A   1      40.682  23.707  25.178  1.00  0.00     0.163 HD
ATOM     30  O   UNL A   1      42.015  25.694  25.159  1.00  0.00    -0.269 OA
BRANCH  28  31
ATOM     31  C   UNL A   1      41.185  26.250  27.282  1.00  0.00     0.039 A 
ATOM     32  C   UNL A   1      42.048  27.345  27.390  1.00  0.00     0.014 A 
ATOM     33  C   UNL A   1      40.292  25.973  28.318  1.00  0.00     0.014 A 
ATOM     34  C   UNL A   1      41.956  28.200  28.493  1.00  0.00     0.010 A 
ATOM     35  C   UNL A   1      40.122  26.886  29.355  1.00  0.00     0.010 A 
ATOM     36  C   UNL A   1      40.958  28.004  29.462  1.00  0.00    -0.014 A 
BRANCH  36  37
ATOM     37  C   UNL A   1      40.774  28.949  30.595  1.00  0.00     0.031 A 
ATOM     38  C   UNL A   1      41.603  28.804  31.844  1.00  0.00     0.074 A 
ATOM     39  C   UNL A   1      39.804  29.884  30.531  1.00  0.00     0.049 A 
ATOM     40  N   UNL A   1      41.533  29.475  32.965  1.00  0.00    -0.248 NA
ATOM     41  C   UNL A   1      42.624  27.743  31.847  1.00  0.00     0.031 C 
ATOM     42  C   UNL A   1      38.893  30.082  29.401  1.00  0.00     0.029 A 
ATOM     43  N   UNL A   1      39.413  30.834  31.441  1.00  0.00    -0.354 N 
ATOM     44  C   UNL A   1      42.480  28.905  33.809  1.00  0.00     0.074 A 
ATOM     45  C   UNL A   1      43.069  27.796  33.093  1.00  0.00     0.031 C 
ATOM     46  C   UNL A   1      38.068  31.104  29.674  1.00  0.00     0.029 A 
ATOM     47  C   UNL A   1      38.358  31.606  31.013  1.00  0.00     0.049 A 
ATOM     48  H   UNL A   1      39.845  30.951  32.317  1.00  0.00     0.167 HD
ATOM     49  C   UNL A   1      42.843  29.287  35.057  1.00  0.00     0.037 A 
ATOM     50  C   UNL A   1      37.691  32.601  31.632  1.00  0.00     0.037 A 
ATOM     51  C   UNL A   1      42.269  30.411  35.750  1.00  0.00     0.049 A 
ATOM     52  C   UNL A   1      38.117  33.015  33.014  1.00  0.00     0.074 A 
ATOM     53  C   UNL A   1      42.616  30.928  36.986  1.00  0.00     0.029 A 
ATOM     54  N   UNL A   1      41.223  31.189  35.271  1.00  0.00    -0.354 N 
ATOM     55  N   UNL A   1      39.069  32.515  33.767  1.00  0.00    -0.248 NA
ATOM     56  C   UNL A   1      37.389  34.133  33.628  1.00  0.00     0.031 C 
ATOM     57  C   UNL A   1      41.743  31.980  37.279  1.00  0.00     0.029 A 
ATOM     58  C   UNL A   1      40.893  32.163  36.199  1.00  0.00     0.049 A 
ATOM     59  H   UNL A   1      40.781  31.065  34.400  1.00  0.00     0.167 HD
ATOM     60  C   UNL A   1      39.070  33.274  34.932  1.00  0.00     0.074 A 
ATOM     61  C   UNL A   1      38.033  34.274  34.778  1.00  0.00     0.031 C 
ATOM     62  C   UNL A   1      39.858  33.153  36.030  1.00  0.00     0.037 A 
BRANCH  49  63
ATOM     63  C   UNL A   1      43.908  28.482  35.754  1.00  0.00     0.058 A 
ATOM     64  C   UNL A   1      43.591  27.414  36.611  1.00  0.00     0.135 A 
ATOM     65  C   UNL A   1      45.268  28.765  35.542  1.00  0.00     0.135 A 
ATOM     66  F   UNL A   1      42.309  27.107  36.862  1.00  0.00    -0.206 F 
ATOM     67  C   UNL A   1      44.580  26.682  37.260  1.00  0.00     0.059 A 
ATOM     68  C   UNL A   1      46.275  28.023  36.155  1.00  0.00     0.059 A 
ATOM     69  F   UNL A   1      45.631  29.773  34.734  1.00  0.00    -0.206 F 
ATOM     70  C   UNL A   1      45.920  26.994  37.025  1.00  0.00     0.060 A 
BRANCH  70  71
ATOM     71  S   UNL A   1      47.190  26.033  37.875  1.00  0.00     0.124 S 
ATOM     72  O   UNL A   1      46.379  25.192  38.752  1.00  0.00    -0.237 OA
ATOM     73  O   UNL A   1      47.850  25.344  36.771  1.00  0.00    -0.237 OA
ATOM     74  O   UNL A   1      47.993  27.048  38.548  1.00  0.00    -0.744 OA
ENDBRANCH  70  71
ENDBRANCH  49  63
BRANCH  50  75
ATOM     75  C   UNL A   1      36.566  33.282  30.936  1.00  0.00     0.058 A 
ATOM     76  C   UNL A   1      35.239  33.091  31.347  1.00  0.00     0.135 A 
ATOM     77  C   UNL A   1      36.798  34.165  29.869  1.00  0.00     0.135 A 
ATOM     78  F   UNL A   1      34.965  32.253  32.357  1.00  0.00    -0.206 F 
ATOM     79  C   UNL A   1      34.180  33.740  30.718  1.00  0.00     0.059 A 
ATOM     80  C   UNL A   1      35.759  34.847  29.243  1.00  0.00     0.059 A 
ATOM     81  F   UNL A   1      38.051  34.397  29.448  1.00  0.00    -0.206 F 
ATOM     82  C   UNL A   1      34.451  34.621  29.670  1.00  0.00     0.060 A 
BRANCH  82  83
ATOM     83  S   UNL A   1      33.076  35.506  28.906  1.00  0.00     0.124 S 
ATOM     84  O   UNL A   1      33.776  36.499  28.099  1.00  0.00    -0.237 OA
ATOM     85  O   UNL A   1      32.402  34.443  28.167  1.00  0.00    -0.237 OA
ATOM     86  O   UNL A   1      32.336  36.030  30.049  1.00  0.00    -0.744 OA
ENDBRANCH  82  83
ENDBRANCH  50  75
BRANCH  62  87
ATOM     87  C   UNL A   1      39.656  34.147  37.141  1.00  0.00     0.058 A 
ATOM     88  C   UNL A   1      38.922  33.830  38.295  1.00  0.00     0.135 A 
ATOM     89  C   UNL A   1      40.256  35.416  37.074  1.00  0.00     0.135 A 
ATOM     90  F   UNL A   1      38.323  32.634  38.407  1.00  0.00    -0.206 F 
ATOM     91  C   UNL A   1      38.767  34.746  39.331  1.00  0.00     0.059 A 
ATOM     92  C   UNL A   1      40.141  36.335  38.112  1.00  0.00     0.059 A 
ATOM     93  F   UNL A   1      40.979  35.767  35.999  1.00  0.00    -0.206 F 
ATOM     94  C   UNL A   1      39.384  35.994  39.232  1.00  0.00     0.060 A 
BRANCH  94  95
ATOM     95  S   UNL A   1      39.204  37.158  40.600  1.00  0.00     0.124 S 
ATOM     96  O   UNL A   1      38.322  38.163  40.016  1.00  0.00    -0.237 OA
ATOM     97  O   UNL A   1      38.614  36.325  41.643  1.00  0.00    -0.237 OA
ATOM     98  O   UNL A   1      40.573  37.597  40.855  1.00  0.00    -0.744 OA
ENDBRANCH  94  95
ENDBRANCH  62  87
ENDBRANCH  36  37
ENDBRANCH  28  31
ENDBRANCH  26  27
ENDBRANCH  25  26
ENDBRANCH   1  25
TORSDOF 17
ENDMDL
MODEL 2
REMARK VINA RESULT:     -12.0      6.673     12.207
REMARK SMILES O=C(CC(=O)c1ccccc1)Nc1cccc(C(=O)NCCCNC(=O)c2ccc(-c3c4nc(c(-c5c(F)cc(S(=O)(=O)[O-])cc5F)c5ccc([nH]5)c(-c5c(F)cc(S(=O)(=O)[O-])cc5F)c5nc(c(-c6c(F)cc(S(=O)(=O)[O-])cc6F)c6ccc3[nH]6)C=C5)C=C4)cc2)c1
REMARK SMILES IDX 21 1 20 2 18 3 19 4 17 6 13 7 14 8 93 9 15 10 16 11 12 12
REMARK SMILES IDX 1 13 2 14 3 16 4 17 5 18 6 19 7 20 11 21 8 22 10 23 9 24
REMARK SMILES IDX 22 25 23 26 24 27 25 28 26 30 27 31 28 32 92 33 29 34 91 35
REMARK SMILES IDX 30 36 31 37 32 38 85 39 33 40 90 41 84 42 86 43 34 44 89 45
REMARK SMILES IDX 83 46 82 47 35 49 69 50 48 51 68 52 49 53 52 54 67 55 87 56
REMARK SMILES IDX 50 57 51 58 66 60 88 61 53 62 36 63 37 64 46 65 38 66 39 67
REMARK SMILES IDX 45 68 47 69 40 70 41 71 42 72 43 73 44 74 70 75 71 76 80 77
REMARK SMILES IDX 72 78 73 79 79 80 81 81 74 82 75 83 76 84 77 85 78 86 54 87
REMARK SMILES IDX 55 88 64 89 56 90 57 91 63 92 65 93 58 94 59 95 60 96 61 97
REMARK SMILES IDX 62 98
REMARK H PARENT 20 5 12 15 24 29 86 48 52 59
REMARK Flexibility Score: inf
ROOT
ATOM      1  C   UNL A   1      32.904  30.014  26.416  1.00  0.00     0.118 C 
ENDROOT
BRANCH   1   2
ATOM      2  N   UNL A   1      33.219  29.865  24.996  1.00  0.00    -0.352 N 
ATOM      3  C   UNL A   1      32.716  29.035  24.013  1.00  0.00     0.251 C 
ATOM      4  O   UNL A   1      33.161  29.139  22.871  1.00  0.00    -0.269 OA
ATOM      5  H   UNL A   1      33.925  30.473  24.679  1.00  0.00     0.163 HD
BRANCH   3   6
ATOM      6  C   UNL A   1      31.719  27.966  24.301  1.00  0.00     0.041 A 
ATOM      7  C   UNL A   1      31.284  25.660  24.856  1.00  0.00     0.041 A 
ATOM      8  C   UNL A   1      29.990  25.781  24.348  1.00  0.00     0.026 A 
ATOM      9  C   UNL A   1      32.060  26.807  24.986  1.00  0.00     0.040 A 
ATOM     10  C   UNL A   1      29.536  27.016  23.877  1.00  0.00     0.003 A 
ATOM     11  C   UNL A   1      30.419  28.095  23.802  1.00  0.00     0.014 A 
BRANCH   7  12
ATOM     12  N   UNL A   1      31.794  24.367  25.110  1.00  0.00    -0.326 N 
ATOM     13  O   UNL A   1      30.950  23.950  27.250  1.00  0.00    -0.274 OA
ATOM     14  C   UNL A   1      31.630  23.630  26.278  1.00  0.00     0.232 C 
ATOM     15  H   UNL A   1      32.317  23.946  24.390  1.00  0.00     0.169 HD
BRANCH  14  16
ATOM     16  C   UNL A   1      32.378  22.331  26.300  1.00  0.00     0.181 C 
BRANCH  16  17
ATOM     17  C   UNL A   1      33.264  22.055  25.120  1.00  0.00     0.172 C 
ATOM     18  O   UNL A   1      32.848  21.401  24.163  1.00  0.00    -0.294 OA
BRANCH  17  19
ATOM     19  C   UNL A   1      34.647  22.605  25.048  1.00  0.00     0.018 A 
ATOM     20  C   UNL A   1      35.385  22.320  23.892  1.00  0.00     0.012 A 
ATOM     21  C   UNL A   1      35.265  23.294  26.097  1.00  0.00     0.012 A 
ATOM     22  C   UNL A   1      36.721  22.711  23.793  1.00  0.00     0.001 A 
ATOM     23  C   UNL A   1      36.607  23.668  26.004  1.00  0.00     0.001 A 
ATOM     24  C   UNL A   1      37.333  23.374  24.854  1.00  0.00     0.000 A 
ENDBRANCH  17  19
ENDBRANCH  16  17
ENDBRANCH  14  16
ENDBRANCH   7  12
ENDBRANCH   3   6
ENDBRANCH   1   2
BRANCH   1  25
ATOM     25  C   UNL A   1      33.658  29.082  27.347  1.00  0.00     0.042 C 
BRANCH  25  26
ATOM     26  C   UNL A   1      35.091  29.483  27.634  1.00  0.00     0.118 C 
BRANCH  26  27
ATOM     27  N   UNL A   1      35.227  30.304  28.830  1.00  0.00    -0.352 N 
ATOM     28  C   UNL A   1      36.287  30.492  29.686  1.00  0.00     0.251 C 
ATOM     29  H   UNL A   1      34.419  30.815  29.068  1.00  0.00     0.163 HD
ATOM     30  O   UNL A   1      36.109  31.105  30.735  1.00  0.00    -0.269 OA
BRANCH  28  31
ATOM     31  C   UNL A   1      37.628  29.946  29.373  1.00  0.00     0.039 A 
ATOM     32  C   UNL A   1      38.029  29.853  28.036  1.00  0.00     0.014 A 
ATOM     33  C   UNL A   1      38.486  29.502  30.380  1.00  0.00     0.014 A 
ATOM     34  C   UNL A   1      39.313  29.395  27.723  1.00  0.00     0.010 A 
ATOM     35  C   UNL A   1      39.799  29.158  30.077  1.00  0.00     0.010 A 
ATOM     36  C   UNL A   1      40.226  29.089  28.744  1.00  0.00    -0.014 A 
BRANCH  36  37
ATOM     37  C   UNL A   1      41.627  28.691  28.446  1.00  0.00     0.031 A 
ATOM     38  C   UNL A   1      42.720  29.729  28.422  1.00  0.00     0.074 A 
ATOM     39  C   UNL A   1      41.901  27.413  28.117  1.00  0.00     0.049 A 
ATOM     40  N   UNL A   1      43.982  29.592  28.104  1.00  0.00    -0.248 NA
ATOM     41  C   UNL A   1      42.337  31.108  28.767  1.00  0.00     0.031 C 
ATOM     42  C   UNL A   1      40.917  26.330  28.043  1.00  0.00     0.029 A 
ATOM     43  N   UNL A   1      43.083  26.809  27.770  1.00  0.00    -0.354 N 
ATOM     44  C   UNL A   1      44.534  30.865  28.190  1.00  0.00     0.074 A 
ATOM     45  C   UNL A   1      43.460  31.770  28.530  1.00  0.00     0.031 C 
ATOM     46  C   UNL A   1      41.540  25.191  27.699  1.00  0.00     0.029 A 
ATOM     47  C   UNL A   1      42.956  25.469  27.484  1.00  0.00     0.049 A 
ATOM     48  H   UNL A   1      43.941  27.289  27.728  1.00  0.00     0.167 HD
ATOM     49  C   UNL A   1      45.825  31.242  28.025  1.00  0.00     0.037 A 
ATOM     50  C   UNL A   1      43.873  24.567  27.083  1.00  0.00     0.037 A 
ATOM     51  C   UNL A   1      46.893  30.328  27.713  1.00  0.00     0.049 A 
ATOM     52  C   UNL A   1      45.303  25.004  26.916  1.00  0.00     0.074 A 
ATOM     53  C   UNL A   1      48.246  30.593  27.598  1.00  0.00     0.029 A 
ATOM     54  N   UNL A   1      46.730  28.972  27.462  1.00  0.00    -0.354 N 
ATOM     55  N   UNL A   1      45.823  26.199  27.078  1.00  0.00    -0.248 NA
ATOM     56  C   UNL A   1      46.273  23.975  26.521  1.00  0.00     0.031 C 
ATOM     57  C   UNL A   1      48.892  29.413  27.220  1.00  0.00     0.029 A 
ATOM     58  C   UNL A   1      47.952  28.395  27.163  1.00  0.00     0.049 A 
ATOM     59  H   UNL A   1      45.870  28.493  27.491  1.00  0.00     0.167 HD
ATOM     60  C   UNL A   1      47.183  26.058  26.830  1.00  0.00     0.074 A 
ATOM     61  C   UNL A   1      47.407  24.661  26.520  1.00  0.00     0.031 C 
ATOM     62  C   UNL A   1      48.160  27.000  26.857  1.00  0.00     0.037 A 
BRANCH  49  63
ATOM     63  C   UNL A   1      46.153  32.704  28.176  1.00  0.00     0.058 A 
ATOM     64  C   UNL A   1      46.548  33.253  29.408  1.00  0.00     0.135 A 
ATOM     65  C   UNL A   1      46.098  33.565  27.067  1.00  0.00     0.135 A 
ATOM     66  F   UNL A   1      46.606  32.481  30.505  1.00  0.00    -0.206 F 
ATOM     67  C   UNL A   1      46.840  34.607  29.542  1.00  0.00     0.059 A 
ATOM     68  C   UNL A   1      46.418  34.917  27.172  1.00  0.00     0.059 A 
ATOM     69  F   UNL A   1      45.728  33.098  25.865  1.00  0.00    -0.206 F 
ATOM     70  C   UNL A   1      46.772  35.431  28.418  1.00  0.00     0.060 A 
BRANCH  70  71
ATOM     71  S   UNL A   1      47.154  37.185  28.612  1.00  0.00     0.124 S 
ATOM     72  O   UNL A   1      45.841  37.733  28.940  1.00  0.00    -0.237 OA
ATOM     73  O   UNL A   1      48.125  37.173  29.701  1.00  0.00    -0.237 OA
ATOM     74  O   UNL A   1      47.683  37.565  27.306  1.00  0.00    -0.744 OA
ENDBRANCH  70  71
ENDBRANCH  49  63
BRANCH  50  75
ATOM     75  C   UNL A   1      43.465  23.157  26.835  1.00  0.00     0.058 A 
ATOM     76  C   UNL A   1      43.448  22.627  25.537  1.00  0.00     0.135 A 
ATOM     77  C   UNL A   1      43.118  22.303  27.894  1.00  0.00     0.135 A 
ATOM     78  F   UNL A   1      43.765  23.405  24.491  1.00  0.00    -0.206 F 
ATOM     79  C   UNL A   1      43.090  21.305  25.294  1.00  0.00     0.059 A 
ATOM     80  C   UNL A   1      42.784  20.969  27.679  1.00  0.00     0.059 A 
ATOM     81  F   UNL A   1      43.135  22.755  29.157  1.00  0.00    -0.206 F 
ATOM     82  C   UNL A   1      42.765  20.481  26.373  1.00  0.00     0.060 A 
BRANCH  82  83
ATOM     83  S   UNL A   1      42.365  18.750  26.052  1.00  0.00     0.124 S 
ATOM     84  O   UNL A   1      43.300  18.425  24.981  1.00  0.00    -0.237 OA
ATOM     85  O   UNL A   1      42.634  18.129  27.346  1.00  0.00    -0.237 OA
ATOM     86  O   UNL A   1      40.957  18.795  25.669  1.00  0.00    -0.744 OA
ENDBRANCH  82  83
ENDBRANCH  50  75
BRANCH  62  87
ATOM     87  C   UNL A   1      49.567  26.549  26.577  1.00  0.00     0.058 A 
ATOM     88  C   UNL A   1      50.406  26.064  27.592  1.00  0.00     0.135 A 
ATOM     89  C   UNL A   1      50.062  26.551  25.262  1.00  0.00     0.135 A 
ATOM     90  F   UNL A   1      49.985  26.047  28.866  1.00  0.00    -0.206 F 
ATOM     91  C   UNL A   1      51.696  25.619  27.317  1.00  0.00     0.059 A 
ATOM     92  C   UNL A   1      51.336  26.081  24.959  1.00  0.00     0.059 A 
ATOM     93  F   UNL A   1      49.297  26.994  24.251  1.00  0.00    -0.206 F 
ATOM     94  C   UNL A   1      52.150  25.628  25.996  1.00  0.00     0.060 A 
BRANCH  94  95
ATOM     95  S   UNL A   1      53.813  25.016  25.650  1.00  0.00     0.124 S 
ATOM     96  O   UNL A   1      53.553  23.610  25.358  1.00  0.00    -0.237 OA
ATOM     97  O   UNL A   1      54.216  25.836  24.512  1.00  0.00    -0.237 OA
ATOM     98  O   UNL A   1      54.536  25.276  26.891  1.00  0.00    -0.744 OA
ENDBRANCH  94  95
ENDBRANCH  62  87
ENDBRANCH  36  37
ENDBRANCH  28  31
ENDBRANCH  26  27
ENDBRANCH  25  26
ENDBRANCH   1  25
TORSDOF 17
ENDMDL
MODEL 3
REMARK VINA RESULT:     -11.9      0.643      8.317
REMARK SMILES O=C(CC(=O)c1ccccc1)Nc1cccc(C(=O)NCCCNC(=O)c2ccc(-c3c4nc(c(-c5c(F)cc(S(=O)(=O)[O-])cc5F)c5ccc([nH]5)c(-c5c(F)cc(S(=O)(=O)[O-])cc5F)c5nc(c(-c6c(F)cc(S(=O)(=O)[O-])cc6F)c6ccc3[nH]6)C=C5)C=C4)cc2)c1
REMARK SMILES IDX 21 1 20 2 18 3 19 4 17 6 13 7 14 8 93 9 15 10 16 11 12 12
REMARK SMILES IDX 1 13 2 14 3 16 4 17 5 18 6 19 7 20 11 21 8 22 10 23 9 24
REMARK SMILES IDX 22 25 23 26 24 27 25 28 26 30 27 31 28 32 92 33 29 34 91 35
REMARK SMILES IDX 30 36 31 37 32 38 85 39 33 40 90 41 84 42 86 43 34 44 89 45
REMARK SMILES IDX 83 46 82 47 35 49 69 50 48 51 68 52 49 53 52 54 67 55 87 56
REMARK SMILES IDX 50 57 51 58 66 60 88 61 53 62 36 63 37 64 46 65 38 66 39 67
REMARK SMILES IDX 45 68 47 69 40 70 41 71 42 72 43 73 44 74 70 75 71 76 80 77
REMARK SMILES IDX 72 78 73 79 79 80 81 81 74 82 75 83 76 84 77 85 78 86 54 87
REMARK SMILES IDX 55 88 64 89 56 90 57 91 63 92 65 93 58 94 59 95 60 96 61 97
REMARK SMILES IDX 62 98
REMARK H PARENT 20 5 12 15 24 29 86 48 52 59
REMARK Flexibility Score: inf
ROOT
ATOM      1  C   UNL A   1      37.839  22.673  25.709  1.00  0.00     0.118 C 
ENDROOT
BRANCH   1   2
ATOM      2  N   UNL A   1      36.697  21.981  26.304  1.00  0.00    -0.352 N 
ATOM      3  C   UNL A   1      35.342  22.026  26.041  1.00  0.00     0.251 C 
ATOM      4  O   UNL A   1      34.591  21.305  26.698  1.00  0.00    -0.269 OA
ATOM      5  H   UNL A   1      36.940  21.364  27.032  1.00  0.00     0.163 HD
BRANCH   3   6
ATOM      6  C   UNL A   1      34.748  22.972  25.055  1.00  0.00     0.041 A 
ATOM      7  C   UNL A   1      33.555  25.027  24.642  1.00  0.00     0.041 A 
ATOM      8  C   UNL A   1      33.164  24.548  23.390  1.00  0.00     0.026 A 
ATOM      9  C   UNL A   1      34.489  24.299  25.372  1.00  0.00     0.040 A 
ATOM     10  C   UNL A   1      33.621  23.306  22.942  1.00  0.00     0.003 A 
ATOM     11  C   UNL A   1      34.369  22.494  23.797  1.00  0.00     0.014 A 
BRANCH   7  12
ATOM     12  N   UNL A   1      32.904  26.166  25.166  1.00  0.00    -0.326 N 
ATOM     13  O   UNL A   1      31.532  25.204  26.795  1.00  0.00    -0.274 OA
ATOM     14  C   UNL A   1      31.930  26.176  26.158  1.00  0.00     0.232 C 
ATOM     15  H   UNL A   1      33.167  27.039  24.793  1.00  0.00     0.169 HD
BRANCH  14  16
ATOM     16  C   UNL A   1      31.343  27.527  26.434  1.00  0.00     0.181 C 
BRANCH  16  17
ATOM     17  C   UNL A   1      32.091  28.704  25.877  1.00  0.00     0.172 C 
ATOM     18  O   UNL A   1      31.804  29.162  24.772  1.00  0.00    -0.294 OA
BRANCH  17  19
ATOM     19  C   UNL A   1      33.160  29.382  26.664  1.00  0.00     0.018 A 
ATOM     20  C   UNL A   1      32.884  30.673  27.130  1.00  0.00     0.012 A 
ATOM     21  C   UNL A   1      34.434  28.841  26.870  1.00  0.00     0.012 A 
ATOM     22  C   UNL A   1      33.870  31.413  27.784  1.00  0.00     0.001 A 
ATOM     23  C   UNL A   1      35.424  29.590  27.508  1.00  0.00     0.001 A 
ATOM     24  C   UNL A   1      35.142  30.875  27.962  1.00  0.00     0.000 A 
ENDBRANCH  17  19
ENDBRANCH  16  17
ENDBRANCH  14  16
ENDBRANCH   7  12
ENDBRANCH   3   6
ENDBRANCH   1   2
BRANCH   1  25
ATOM     25  C   UNL A   1      39.191  22.319  26.304  1.00  0.00     0.042 C 
BRANCH  25  26
ATOM     26  C   UNL A   1      39.921  23.470  26.966  1.00  0.00     0.118 C 
BRANCH  26  27
ATOM     27  N   UNL A   1      40.837  24.160  26.067  1.00  0.00    -0.352 N 
ATOM     28  C   UNL A   1      41.310  25.452  26.069  1.00  0.00     0.251 C 
ATOM     29  H   UNL A   1      41.177  23.605  25.328  1.00  0.00     0.163 HD
ATOM     30  O   UNL A   1      41.945  25.859  25.101  1.00  0.00    -0.269 OA
BRANCH  28  31
ATOM     31  C   UNL A   1      41.043  26.361  27.208  1.00  0.00     0.039 A 
ATOM     32  C   UNL A   1      40.098  25.988  28.169  1.00  0.00     0.014 A 
ATOM     33  C   UNL A   1      41.699  27.587  27.328  1.00  0.00     0.014 A 
ATOM     34  C   UNL A   1      39.875  26.805  29.282  1.00  0.00     0.010 A 
ATOM     35  C   UNL A   1      41.562  28.340  28.490  1.00  0.00     0.010 A 
ATOM     36  C   UNL A   1      40.641  27.965  29.477  1.00  0.00    -0.014 A 
BRANCH  36  37
ATOM     37  C   UNL A   1      40.495  28.803  30.696  1.00  0.00     0.031 A 
ATOM     38  C   UNL A   1      39.455  29.891  30.746  1.00  0.00     0.074 A 
ATOM     39  C   UNL A   1      41.352  28.638  31.724  1.00  0.00     0.049 A 
ATOM     40  N   UNL A   1      39.229  30.776  31.684  1.00  0.00    -0.248 NA
ATOM     41  C   UNL A   1      38.573  30.026  29.574  1.00  0.00     0.031 C 
ATOM     42  C   UNL A   1      42.442  27.661  31.767  1.00  0.00     0.029 A 
ATOM     43  N   UNL A   1      41.451  29.297  32.924  1.00  0.00    -0.354 N 
ATOM     44  C   UNL A   1      38.200  31.580  31.206  1.00  0.00     0.074 A 
ATOM     45  C   UNL A   1      37.887  31.119  29.873  1.00  0.00     0.031 C 
ATOM     46  C   UNL A   1      43.082  27.767  32.943  1.00  0.00     0.029 A 
ATOM     47  C   UNL A   1      42.480  28.846  33.717  1.00  0.00     0.049 A 
ATOM     48  H   UNL A   1      40.843  30.023  33.191  1.00  0.00     0.167 HD
ATOM     49  C   UNL A   1      37.558  32.596  31.832  1.00  0.00     0.037 A 
ATOM     50  C   UNL A   1      42.900  29.262  34.929  1.00  0.00     0.037 A 
ATOM     51  C   UNL A   1      37.859  33.030  33.171  1.00  0.00     0.049 A 
ATOM     52  C   UNL A   1      42.167  30.384  35.610  1.00  0.00     0.074 A 
ATOM     53  C   UNL A   1      37.221  33.999  33.925  1.00  0.00     0.029 A 
ATOM     54  N   UNL A   1      38.889  32.529  33.956  1.00  0.00    -0.354 N 
ATOM     55  N   UNL A   1      41.144  31.083  35.176  1.00  0.00    -0.248 NA
ATOM     56  C   UNL A   1      42.635  30.771  36.947  1.00  0.00     0.031 C 
ATOM     57  C   UNL A   1      37.899  34.123  35.141  1.00  0.00     0.029 A 
ATOM     58  C   UNL A   1      38.922  33.187  35.173  1.00  0.00     0.049 A 
ATOM     59  H   UNL A   1      39.506  31.810  33.685  1.00  0.00     0.167 HD
ATOM     60  C   UNL A   1      40.831  31.973  36.196  1.00  0.00     0.074 A 
ATOM     61  C   UNL A   1      41.763  31.715  37.274  1.00  0.00     0.031 C 
ATOM     62  C   UNL A   1      39.857  32.918  36.238  1.00  0.00     0.037 A 
BRANCH  49  63
ATOM     63  C   UNL A   1      36.468  33.308  31.075  1.00  0.00     0.058 A 
ATOM     64  C   UNL A   1      36.747  34.135  29.973  1.00  0.00     0.135 A 
ATOM     65  C   UNL A   1      35.122  33.142  31.439  1.00  0.00     0.135 A 
ATOM     66  F   UNL A   1      38.017  34.343  29.588  1.00  0.00    -0.206 F 
ATOM     67  C   UNL A   1      35.736  34.798  29.284  1.00  0.00     0.059 A 
ATOM     68  C   UNL A   1      34.091  33.769  30.743  1.00  0.00     0.059 A 
ATOM     69  F   UNL A   1      34.794  32.364  32.482  1.00  0.00    -0.206 F 
ATOM     70  C   UNL A   1      34.411  34.609  29.677  1.00  0.00     0.060 A 
BRANCH  70  71
ATOM     71  S   UNL A   1      33.112  35.477  28.772  1.00  0.00     0.124 S 
ATOM     72  O   UNL A   1      32.331  36.051  29.864  1.00  0.00    -0.237 OA
ATOM     73  O   UNL A   1      33.875  36.430  27.972  1.00  0.00    -0.237 OA
ATOM     74  O   UNL A   1      32.453  34.416  28.019  1.00  0.00    -0.744 OA
ENDBRANCH  70  71
ENDBRANCH  49  63
BRANCH  50  75
ATOM     75  C   UNL A   1      44.062  28.594  35.578  1.00  0.00     0.058 A 
ATOM     76  C   UNL A   1      45.373  29.031  35.341  1.00  0.00     0.135 A 
ATOM     77  C   UNL A   1      43.881  27.529  36.476  1.00  0.00     0.135 A 
ATOM     78  F   UNL A   1      45.598  30.041  34.487  1.00  0.00    -0.206 F 
ATOM     79  C   UNL A   1      46.465  28.430  35.959  1.00  0.00     0.059 A 
ATOM     80  C   UNL A   1      44.955  26.931  37.128  1.00  0.00     0.059 A 
ATOM     81  F   UNL A   1      42.645  27.085  36.752  1.00  0.00    -0.206 F 
ATOM     82  C   UNL A   1      46.245  27.383  36.856  1.00  0.00     0.060 A 
BRANCH  82  83
ATOM     83  S   UNL A   1      47.664  26.654  37.702  1.00  0.00     0.124 S 
ATOM     84  O   UNL A   1      47.773  27.505  38.881  1.00  0.00    -0.237 OA
ATOM     85  O   UNL A   1      47.209  25.288  37.939  1.00  0.00    -0.237 OA
ATOM     86  O   UNL A   1      48.741  26.788  36.726  1.00  0.00    -0.744 OA
ENDBRANCH  82  83
ENDBRANCH  50  75
BRANCH  62  87
ATOM     87  C   UNL A   1      39.727  33.725  37.501  1.00  0.00     0.058 A 
ATOM     88  C   UNL A   1      40.417  34.933  37.684  1.00  0.00     0.135 A 
ATOM     89  C   UNL A   1      38.854  33.308  38.520  1.00  0.00     0.135 A 
ATOM     90  F   UNL A   1      41.269  35.373  36.744  1.00  0.00    -0.206 F 
ATOM     91  C   UNL A   1      40.266  35.688  38.843  1.00  0.00     0.059 A 
ATOM     92  C   UNL A   1      38.663  34.063  39.673  1.00  0.00     0.059 A 
ATOM     93  F   UNL A   1      38.160  32.165  38.392  1.00  0.00    -0.206 F 
ATOM     94  C   UNL A   1      39.383  35.245  39.830  1.00  0.00     0.060 A 
BRANCH  94  95
ATOM     95  S   UNL A   1      39.170  36.253  41.313  1.00  0.00     0.124 S 
ATOM     96  O   UNL A   1      37.999  35.633  41.923  1.00  0.00    -0.237 OA
ATOM     97  O   UNL A   1      40.434  36.047  42.014  1.00  0.00    -0.237 OA
ATOM     98  O   UNL A   1      38.965  37.598  40.784  1.00  0.00    -0.744 OA
ENDBRANCH  94  95
ENDBRANCH  62  87
ENDBRANCH  36  37
ENDBRANCH  28  31
ENDBRANCH  26  27
ENDBRANCH  25  26
ENDBRANCH   1  25
TORSDOF 17
ENDMDL
