MODEL 1
REMARK VINA RESULT:     -11.3      0.000      0.000
REMARK SMILES [NH3+][C@@]1(C(=O)NCCCNC(=O)c2ccc(-c3c4nc(c(-c5c(F)cc(S(=O)(=O)[O-])cc5F)c5ccc([nH]5)c(-c5c(F)cc(S(=O)(=O)[O-])cc5F)c5nc(c(-c6c(F)cc(S(=O)(=O)[O-])cc6F)c6ccc3[nH]6)C=C5)C=C4)cc2)CC[C@H](Sc2cccs2)C1
REMARK SMILES IDX 7 1 6 2 5 3 3 4 4 5 2 7 78 8 87 9 79 10 80 11 1 12 81 16
REMARK SMILES IDX 82 17 83 18 86 19 84 20 85 21 8 22 9 23 10 24 11 26 12 27
REMARK SMILES IDX 13 28 77 29 14 30 76 31 15 32 16 33 17 34 70 35 18 36 75 37
REMARK SMILES IDX 69 38 71 39 19 40 74 41 68 42 67 43 20 45 54 46 33 47 53 48
REMARK SMILES IDX 34 49 37 50 52 51 72 52 35 53 36 54 51 56 73 57 38 58 21 59
REMARK SMILES IDX 22 60 31 61 23 62 24 63 30 64 32 65 25 66 26 67 27 68 28 69
REMARK SMILES IDX 29 70 55 71 56 72 65 73 57 74 58 75 64 76 66 77 59 78 60 79
REMARK SMILES IDX 61 80 62 81 63 82 39 83 40 84 49 85 41 86 42 87 48 88 50 89
REMARK SMILES IDX 43 90 44 91 45 92 46 93 47 94
REMARK H PARENT 5 6 1 13 1 14 1 15 9 25 71 44 37 55
REMARK Flexibility Score: inf
ROOT
ATOM      1  C   UNL A   1      32.816  28.388  25.944  1.00  0.00     0.042 C 
ENDROOT
BRANCH   1   2
ATOM      2  C   UNL A   1      31.315  28.169  26.027  1.00  0.00     0.118 C 
BRANCH   2   3
ATOM      3  N   UNL A   1      30.933  26.836  26.438  1.00  0.00    -0.351 N 
ATOM      4  C   UNL A   1      30.416  25.799  25.724  1.00  0.00     0.281 C 
ATOM      5  O   UNL A   1      30.263  24.736  26.345  1.00  0.00    -0.268 OA
ATOM      6  H   UNL A   1      31.070  26.646  27.393  1.00  0.00     0.163 HD
BRANCH   4   7
ATOM      7  C   UNL A   1      30.004  25.889  24.206  1.00  0.00     0.175 C 
ATOM      8  C   UNL A   1      30.915  26.783  23.353  1.00  0.00     0.080 C 
ATOM      9  C   UNL A   1      28.573  26.403  24.006  1.00  0.00     0.094 C 
ATOM     10  C   UNL A   1      30.101  28.005  22.931  1.00  0.00     0.022 C 
ATOM     11  C   UNL A   1      28.640  27.573  23.004  1.00  0.00     0.059 C 
BRANCH   7  12
ATOM     12  N   UNL A   1      30.090  24.504  23.653  1.00  0.00    -0.345 N 
ATOM     13  H   UNL A   1      30.447  23.873  24.370  1.00  0.00     0.345 HD
ATOM     14  H   UNL A   1      30.720  24.497  22.850  1.00  0.00     0.345 HD
ATOM     15  H   UNL A   1      29.163  24.196  23.359  1.00  0.00     0.345 HD
ENDBRANCH   7  12
BRANCH  11  16
ATOM     16  S   UNL A   1      27.314  28.745  23.427  1.00  0.00    -0.112 SA
BRANCH  16  17
ATOM     17  C   UNL A   1      27.731  30.365  22.912  1.00  0.00     0.060 A 
ATOM     18  C   UNL A   1      27.915  31.506  23.663  1.00  0.00     0.027 A 
ATOM     19  S   UNL A   1      28.130  30.646  21.261  1.00  0.00    -0.137 S 
ATOM     20  C   UNL A   1      28.367  32.613  22.879  1.00  0.00     0.013 A 
ATOM     21  C   UNL A   1      28.536  32.277  21.555  1.00  0.00     0.066 A 
ENDBRANCH  16  17
ENDBRANCH  11  16
ENDBRANCH   4   7
ENDBRANCH   2   3
ENDBRANCH   1   2
BRANCH   1  22
ATOM     22  C   UNL A   1      33.488  28.564  27.295  1.00  0.00     0.118 C 
BRANCH  22  23
ATOM     23  N   UNL A   1      33.551  29.963  27.711  1.00  0.00    -0.352 N 
ATOM     24  C   UNL A   1      34.531  30.683  28.350  1.00  0.00     0.251 C 
ATOM     25  H   UNL A   1      32.746  30.484  27.493  1.00  0.00     0.163 HD
ATOM     26  O   UNL A   1      34.243  31.797  28.799  1.00  0.00    -0.269 OA
BRANCH  24  27
ATOM     27  C   UNL A   1      35.902  30.153  28.532  1.00  0.00     0.039 A 
ATOM     28  C   UNL A   1      36.768  30.119  27.433  1.00  0.00     0.014 A 
ATOM     29  C   UNL A   1      36.335  29.649  29.758  1.00  0.00     0.014 A 
ATOM     30  C   UNL A   1      38.085  29.675  27.592  1.00  0.00     0.010 A 
ATOM     31  C   UNL A   1      37.672  29.309  29.942  1.00  0.00     0.010 A 
ATOM     32  C   UNL A   1      38.567  29.323  28.863  1.00  0.00    -0.014 A 
BRANCH  32  33
ATOM     33  C   UNL A   1      40.002  29.007  29.097  1.00  0.00     0.031 A 
ATOM     34  C   UNL A   1      40.951  30.067  29.594  1.00  0.00     0.074 A 
ATOM     35  C   UNL A   1      40.470  27.785  28.767  1.00  0.00     0.049 A 
ATOM     36  N   UNL A   1      42.250  30.009  29.745  1.00  0.00    -0.248 NA
ATOM     37  C   UNL A   1      40.369  31.376  29.938  1.00  0.00     0.031 C 
ATOM     38  C   UNL A   1      39.666  26.691  28.216  1.00  0.00     0.029 A 
ATOM     39  N   UNL A   1      41.738  27.262  28.825  1.00  0.00    -0.354 N 
ATOM     40  C   UNL A   1      42.641  31.271  30.178  1.00  0.00     0.074 A 
ATOM     41  C   UNL A   1      41.450  32.090  30.220  1.00  0.00     0.031 C 
ATOM     42  C   UNL A   1      40.452  25.624  28.008  1.00  0.00     0.029 A 
ATOM     43  C   UNL A   1      41.825  25.970  28.361  1.00  0.00     0.049 A 
ATOM     44  H   UNL A   1      42.513  27.765  29.166  1.00  0.00     0.167 HD
ATOM     45  C   UNL A   1      43.877  31.703  30.526  1.00  0.00     0.037 A 
ATOM     46  C   UNL A   1      42.891  25.159  28.214  1.00  0.00     0.037 A 
ATOM     47  C   UNL A   1      45.054  30.872  30.510  1.00  0.00     0.049 A 
ATOM     48  C   UNL A   1      44.253  25.662  28.607  1.00  0.00     0.074 A 
ATOM     49  C   UNL A   1      46.338  31.191  30.920  1.00  0.00     0.029 A 
ATOM     50  N   UNL A   1      45.096  29.562  30.056  1.00  0.00    -0.354 N 
ATOM     51  N   UNL A   1      44.591  26.835  29.088  1.00  0.00    -0.248 NA
ATOM     52  C   UNL A   1      45.379  24.733  28.437  1.00  0.00     0.031 C 
ATOM     53  C   UNL A   1      47.165  30.093  30.667  1.00  0.00     0.029 A 
ATOM     54  C   UNL A   1      46.388  29.070  30.146  1.00  0.00     0.049 A 
ATOM     55  H   UNL A   1      44.322  29.057  29.719  1.00  0.00     0.167 HD
ATOM     56  C   UNL A   1      45.965  26.780  29.292  1.00  0.00     0.074 A 
ATOM     57  C   UNL A   1      46.392  25.451  28.904  1.00  0.00     0.031 C 
ATOM     58  C   UNL A   1      46.799  27.744  29.754  1.00  0.00     0.037 A 
BRANCH  45  59
ATOM     59  C   UNL A   1      44.027  33.134  30.965  1.00  0.00     0.058 A 
ATOM     60  C   UNL A   1      44.299  34.163  30.050  1.00  0.00     0.135 A 
ATOM     61  C   UNL A   1      43.839  33.492  32.311  1.00  0.00     0.135 A 
ATOM     62  F   UNL A   1      44.501  33.879  28.754  1.00  0.00    -0.206 F 
ATOM     63  C   UNL A   1      44.404  35.491  30.454  1.00  0.00     0.059 A 
ATOM     64  C   UNL A   1      43.911  34.816  32.734  1.00  0.00     0.059 A 
ATOM     65  F   UNL A   1      43.576  32.550  33.231  1.00  0.00    -0.206 F 
ATOM     66  C   UNL A   1      44.205  35.808  31.799  1.00  0.00     0.060 A 
BRANCH  66  67
ATOM     67  S   UNL A   1      44.327  37.537  32.305  1.00  0.00     0.124 S 
ATOM     68  O   UNL A   1      45.748  37.646  32.628  1.00  0.00    -0.237 OA
ATOM     69  O   UNL A   1      43.898  38.243  31.099  1.00  0.00    -0.237 OA
ATOM     70  O   UNL A   1      43.417  37.627  33.439  1.00  0.00    -0.744 OA
ENDBRANCH  66  67
ENDBRANCH  45  59
BRANCH  46  71
ATOM     71  C   UNL A   1      42.711  23.784  27.672  1.00  0.00     0.058 A 
ATOM     72  C   UNL A   1      42.542  22.688  28.529  1.00  0.00     0.135 A 
ATOM     73  C   UNL A   1      42.693  23.541  26.289  1.00  0.00     0.135 A 
ATOM     74  F   UNL A   1      42.559  22.867  29.858  1.00  0.00    -0.206 F 
ATOM     75  C   UNL A   1      42.380  21.396  28.038  1.00  0.00     0.059 A 
ATOM     76  C   UNL A   1      42.503  22.263  25.773  1.00  0.00     0.059 A 
ATOM     77  F   UNL A   1      42.835  24.558  25.425  1.00  0.00    -0.206 F 
ATOM     78  C   UNL A   1      42.359  21.194  26.657  1.00  0.00     0.060 A 
BRANCH  78  79
ATOM     79  S   UNL A   1      42.104  19.519  26.031  1.00  0.00     0.124 S 
ATOM     80  O   UNL A   1      40.667  19.518  25.778  1.00  0.00    -0.237 OA
ATOM     81  O   UNL A   1      42.959  19.502  24.846  1.00  0.00    -0.237 OA
ATOM     82  O   UNL A   1      42.554  18.676  27.131  1.00  0.00    -0.744 OA
ENDBRANCH  78  79
ENDBRANCH  46  71
BRANCH  58  83
ATOM     83  C   UNL A   1      48.256  27.395  29.880  1.00  0.00     0.058 A 
ATOM     84  C   UNL A   1      49.163  27.640  28.837  1.00  0.00     0.135 A 
ATOM     85  C   UNL A   1      48.760  26.857  31.075  1.00  0.00     0.135 A 
ATOM     86  F   UNL A   1      48.731  28.145  27.671  1.00  0.00    -0.206 F 
ATOM     87  C   UNL A   1      50.516  27.345  28.966  1.00  0.00     0.059 A 
ATOM     88  C   UNL A   1      50.114  26.580  31.237  1.00  0.00     0.059 A 
ATOM     89  F   UNL A   1      47.938  26.612  32.107  1.00  0.00    -0.206 F 
ATOM     90  C   UNL A   1      50.983  26.817  30.172  1.00  0.00     0.060 A 
BRANCH  90  91
ATOM     91  S   UNL A   1      52.747  26.473  30.339  1.00  0.00     0.124 S 
ATOM     92  O   UNL A   1      53.253  27.755  30.820  1.00  0.00    -0.237 OA
ATOM     93  O   UNL A   1      52.762  25.381  31.307  1.00  0.00    -0.237 OA
ATOM     94  O   UNL A   1      53.152  26.108  28.985  1.00  0.00    -0.744 OA
ENDBRANCH  90  91
ENDBRANCH  58  83
ENDBRANCH  32  33
ENDBRANCH  24  27
ENDBRANCH  22  23
ENDBRANCH   1  22
TORSDOF 16
ENDMDL
MODEL 2
REMARK VINA RESULT:     -11.3      1.542      2.358
REMARK SMILES [NH3+][C@@]1(C(=O)NCCCNC(=O)c2ccc(-c3c4nc(c(-c5c(F)cc(S(=O)(=O)[O-])cc5F)c5ccc([nH]5)c(-c5c(F)cc(S(=O)(=O)[O-])cc5F)c5nc(c(-c6c(F)cc(S(=O)(=O)[O-])cc6F)c6ccc3[nH]6)C=C5)C=C4)cc2)CC[C@H](Sc2cccs2)C1
REMARK SMILES IDX 7 1 6 2 5 3 3 4 4 5 2 7 78 8 87 9 79 10 80 11 1 12 81 16
REMARK SMILES IDX 82 17 83 18 86 19 84 20 85 21 8 22 9 23 10 24 11 26 12 27
REMARK SMILES IDX 13 28 77 29 14 30 76 31 15 32 16 33 17 34 70 35 18 36 75 37
REMARK SMILES IDX 69 38 71 39 19 40 74 41 68 42 67 43 20 45 54 46 33 47 53 48
REMARK SMILES IDX 34 49 37 50 52 51 72 52 35 53 36 54 51 56 73 57 38 58 21 59
REMARK SMILES IDX 22 60 31 61 23 62 24 63 30 64 32 65 25 66 26 67 27 68 28 69
REMARK SMILES IDX 29 70 55 71 56 72 65 73 57 74 58 75 64 76 66 77 59 78 60 79
REMARK SMILES IDX 61 80 62 81 63 82 39 83 40 84 49 85 41 86 42 87 48 88 50 89
REMARK SMILES IDX 43 90 44 91 45 92 46 93 47 94
REMARK H PARENT 5 6 1 13 1 14 1 15 9 25 71 44 37 55
REMARK Flexibility Score: inf
ROOT
ATOM      1  C   UNL A   1      31.872  27.868  26.978  1.00  0.00     0.042 C 
ENDROOT
BRANCH   1   2
ATOM      2  C   UNL A   1      31.797  26.609  26.130  1.00  0.00     0.118 C 
BRANCH   2   3
ATOM      3  N   UNL A   1      30.909  25.594  26.654  1.00  0.00    -0.351 N 
ATOM      4  C   UNL A   1      31.009  24.237  26.652  1.00  0.00     0.281 C 
ATOM      5  O   UNL A   1      30.115  23.626  27.257  1.00  0.00    -0.268 OA
ATOM      6  H   UNL A   1      30.097  25.944  27.085  1.00  0.00     0.163 HD
BRANCH   4   7
ATOM      7  C   UNL A   1      32.157  23.437  25.928  1.00  0.00     0.175 C 
ATOM      8  C   UNL A   1      33.577  23.901  26.283  1.00  0.00     0.080 C 
ATOM      9  C   UNL A   1      32.048  23.488  24.399  1.00  0.00     0.094 C 
ATOM     10  C   UNL A   1      34.181  24.540  25.033  1.00  0.00     0.022 C 
ATOM     11  C   UNL A   1      33.416  23.946  23.855  1.00  0.00     0.059 C 
BRANCH   7  12
ATOM     12  N   UNL A   1      32.030  22.013  26.362  1.00  0.00    -0.345 N 
ATOM     13  H   UNL A   1      31.073  21.696  26.211  1.00  0.00     0.345 HD
ATOM     14  H   UNL A   1      32.260  21.938  27.354  1.00  0.00     0.345 HD
ATOM     15  H   UNL A   1      32.671  21.433  25.820  1.00  0.00     0.345 HD
ENDBRANCH   7  12
BRANCH  11  16
ATOM     16  S   UNL A   1      33.122  24.891  22.328  1.00  0.00    -0.112 SA
BRANCH  16  17
ATOM     17  C   UNL A   1      32.779  26.567  22.693  1.00  0.00     0.060 A 
ATOM     18  C   UNL A   1      33.635  27.575  23.082  1.00  0.00     0.027 A 
ATOM     19  S   UNL A   1      31.194  27.181  22.416  1.00  0.00    -0.137 S 
ATOM     20  C   UNL A   1      32.985  28.846  23.170  1.00  0.00     0.013 A 
ATOM     21  C   UNL A   1      31.655  28.773  22.822  1.00  0.00     0.066 A 
ENDBRANCH  16  17
ENDBRANCH  11  16
ENDBRANCH   4   7
ENDBRANCH   2   3
ENDBRANCH   1   2
BRANCH   1  22
ATOM     22  C   UNL A   1      33.289  28.348  27.242  1.00  0.00     0.118 C 
BRANCH  22  23
ATOM     23  N   UNL A   1      33.353  29.784  27.507  1.00  0.00    -0.352 N 
ATOM     24  C   UNL A   1      34.328  30.564  28.079  1.00  0.00     0.251 C 
ATOM     25  H   UNL A   1      32.553  30.281  27.226  1.00  0.00     0.163 HD
ATOM     26  O   UNL A   1      34.040  31.720  28.403  1.00  0.00    -0.269 OA
BRANCH  24  27
ATOM     27  C   UNL A   1      35.694  30.053  28.333  1.00  0.00     0.039 A 
ATOM     28  C   UNL A   1      36.631  30.070  27.292  1.00  0.00     0.014 A 
ATOM     29  C   UNL A   1      36.057  29.516  29.568  1.00  0.00     0.014 A 
ATOM     30  C   UNL A   1      37.943  29.644  27.523  1.00  0.00     0.010 A 
ATOM     31  C   UNL A   1      37.386  29.194  29.827  1.00  0.00     0.010 A 
ATOM     32  C   UNL A   1      38.349  29.259  28.811  1.00  0.00    -0.014 A 
BRANCH  32  33
ATOM     33  C   UNL A   1      39.771  28.961  29.128  1.00  0.00     0.031 A 
ATOM     34  C   UNL A   1      40.670  30.025  29.703  1.00  0.00     0.074 A 
ATOM     35  C   UNL A   1      40.280  27.753  28.805  1.00  0.00     0.049 A 
ATOM     36  N   UNL A   1      41.957  29.984  29.933  1.00  0.00    -0.248 NA
ATOM     37  C   UNL A   1      40.046  31.318  30.035  1.00  0.00     0.031 C 
ATOM     38  C   UNL A   1      39.529  26.658  28.184  1.00  0.00     0.029 A 
ATOM     39  N   UNL A   1      41.550  27.249  28.931  1.00  0.00    -0.354 N 
ATOM     40  C   UNL A   1      42.300  31.243  30.413  1.00  0.00     0.074 A 
ATOM     41  C   UNL A   1      41.095  32.043  30.397  1.00  0.00     0.031 C 
ATOM     42  C   UNL A   1      40.345  25.608  28.005  1.00  0.00     0.029 A 
ATOM     43  C   UNL A   1      41.687  25.968  28.450  1.00  0.00     0.049 A 
ATOM     44  H   UNL A   1      42.294  27.756  29.330  1.00  0.00     0.167 HD
ATOM     45  C   UNL A   1      43.505  31.687  30.846  1.00  0.00     0.037 A 
ATOM     46  C   UNL A   1      42.773  25.176  28.353  1.00  0.00     0.037 A 
ATOM     47  C   UNL A   1      44.694  30.875  30.888  1.00  0.00     0.049 A 
ATOM     48  C   UNL A   1      44.100  25.692  28.841  1.00  0.00     0.074 A 
ATOM     49  C   UNL A   1      45.944  31.206  31.384  1.00  0.00     0.029 A 
ATOM     50  N   UNL A   1      44.786  29.575  30.413  1.00  0.00    -0.354 N 
ATOM     51  N   UNL A   1      44.387  26.860  29.364  1.00  0.00    -0.248 NA
ATOM     52  C   UNL A   1      45.250  24.785  28.724  1.00  0.00     0.031 C 
ATOM     53  C   UNL A   1      46.804  30.125  31.161  1.00  0.00     0.029 A 
ATOM     54  C   UNL A   1      46.078  29.101  30.574  1.00  0.00     0.049 A 
ATOM     55  H   UNL A   1      44.043  29.065  30.018  1.00  0.00     0.167 HD
ATOM     56  C   UNL A   1      45.747  26.823  29.652  1.00  0.00     0.074 A 
ATOM     57  C   UNL A   1      46.219  25.508  29.267  1.00  0.00     0.031 C 
ATOM     58  C   UNL A   1      46.534  27.790  30.184  1.00  0.00     0.037 A 
BRANCH  45  59
ATOM     59  C   UNL A   1      43.603  33.112  31.321  1.00  0.00     0.058 A 
ATOM     60  C   UNL A   1      43.442  33.452  32.674  1.00  0.00     0.135 A 
ATOM     61  C   UNL A   1      43.918  34.144  30.422  1.00  0.00     0.135 A 
ATOM     62  F   UNL A   1      43.127  32.509  33.575  1.00  0.00    -0.206 F 
ATOM     63  C   UNL A   1      43.565  34.766  33.115  1.00  0.00     0.059 A 
ATOM     64  C   UNL A   1      44.074  35.462  30.845  1.00  0.00     0.059 A 
ATOM     65  F   UNL A   1      44.083  33.878  29.117  1.00  0.00    -0.206 F 
ATOM     66  C   UNL A   1      43.885  35.764  32.193  1.00  0.00     0.060 A 
BRANCH  66  67
ATOM     67  S   UNL A   1      44.059  37.461  32.785  1.00  0.00     0.124 S 
ATOM     68  O   UNL A   1      45.397  37.427  33.372  1.00  0.00    -0.237 OA
ATOM     69  O   UNL A   1      43.931  38.235  31.552  1.00  0.00    -0.237 OA
ATOM     70  O   UNL A   1      42.962  37.608  33.732  1.00  0.00    -0.744 OA
ENDBRANCH  66  67
ENDBRANCH  45  59
BRANCH  46  71
ATOM     71  C   UNL A   1      42.650  23.810  27.776  1.00  0.00     0.058 A 
ATOM     72  C   UNL A   1      42.510  22.687  28.603  1.00  0.00     0.135 A 
ATOM     73  C   UNL A   1      42.659  23.601  26.387  1.00  0.00     0.135 A 
ATOM     74  F   UNL A   1      42.503  22.833  29.937  1.00  0.00    -0.206 F 
ATOM     75  C   UNL A   1      42.401  21.403  28.078  1.00  0.00     0.059 A 
ATOM     76  C   UNL A   1      42.521  22.330  25.837  1.00  0.00     0.059 A 
ATOM     77  F   UNL A   1      42.775  24.644  25.551  1.00  0.00    -0.206 F 
ATOM     78  C   UNL A   1      42.406  21.235  26.693  1.00  0.00     0.060 A 
BRANCH  78  79
ATOM     79  S   UNL A   1      42.219  19.568  26.022  1.00  0.00     0.124 S 
ATOM     80  O   UNL A   1      40.788  19.525  25.742  1.00  0.00    -0.237 OA
ATOM     81  O   UNL A   1      43.096  19.609  24.853  1.00  0.00    -0.237 OA
ATOM     82  O   UNL A   1      42.677  18.714  27.111  1.00  0.00    -0.744 OA
ENDBRANCH  78  79
ENDBRANCH  46  71
BRANCH  58  83
ATOM     83  C   UNL A   1      47.986  27.461  30.393  1.00  0.00     0.058 A 
ATOM     84  C   UNL A   1      48.929  27.608  29.364  1.00  0.00     0.135 A 
ATOM     85  C   UNL A   1      48.449  27.044  31.652  1.00  0.00     0.135 A 
ATOM     86  F   UNL A   1      48.538  27.996  28.140  1.00  0.00    -0.206 F 
ATOM     87  C   UNL A   1      50.277  27.333  29.568  1.00  0.00     0.059 A 
ATOM     88  C   UNL A   1      49.797  26.790  31.887  1.00  0.00     0.059 A 
ATOM     89  F   UNL A   1      47.591  26.897  32.673  1.00  0.00    -0.206 F 
ATOM     90  C   UNL A   1      50.702  26.926  30.835  1.00  0.00     0.060 A 
BRANCH  90  91
ATOM     91  S   UNL A   1      52.459  26.608  31.096  1.00  0.00     0.124 S 
ATOM     92  O   UNL A   1      52.451  25.196  31.464  1.00  0.00    -0.237 OA
ATOM     93  O   UNL A   1      53.030  26.919  29.788  1.00  0.00    -0.237 OA
ATOM     94  O   UNL A   1      52.818  27.534  32.165  1.00  0.00    -0.744 OA
ENDBRANCH  90  91
ENDBRANCH  58  83
ENDBRANCH  32  33
ENDBRANCH  24  27
ENDBRANCH  22  23
ENDBRANCH   1  22
TORSDOF 16
ENDMDL
MODEL 3
REMARK VINA RESULT:     -11.1      2.476      4.254
REMARK SMILES [NH3+][C@@]1(C(=O)NCCCNC(=O)c2ccc(-c3c4nc(c(-c5c(F)cc(S(=O)(=O)[O-])cc5F)c5ccc([nH]5)c(-c5c(F)cc(S(=O)(=O)[O-])cc5F)c5nc(c(-c6c(F)cc(S(=O)(=O)[O-])cc6F)c6ccc3[nH]6)C=C5)C=C4)cc2)CC[C@H](Sc2cccs2)C1
REMARK SMILES IDX 7 1 6 2 5 3 3 4 4 5 2 7 78 8 87 9 79 10 80 11 1 12 81 16
REMARK SMILES IDX 82 17 83 18 86 19 84 20 85 21 8 22 9 23 10 24 11 26 12 27
REMARK SMILES IDX 13 28 77 29 14 30 76 31 15 32 16 33 17 34 70 35 18 36 75 37
REMARK SMILES IDX 69 38 71 39 19 40 74 41 68 42 67 43 20 45 54 46 33 47 53 48
REMARK SMILES IDX 34 49 37 50 52 51 72 52 35 53 36 54 51 56 73 57 38 58 21 59
REMARK SMILES IDX 22 60 31 61 23 62 24 63 30 64 32 65 25 66 26 67 27 68 28 69
REMARK SMILES IDX 29 70 55 71 56 72 65 73 57 74 58 75 64 76 66 77 59 78 60 79
REMARK SMILES IDX 61 80 62 81 63 82 39 83 40 84 49 85 41 86 42 87 48 88 50 89
REMARK SMILES IDX 43 90 44 91 45 92 46 93 47 94
REMARK H PARENT 5 6 1 13 1 14 1 15 9 25 71 44 37 55
REMARK Flexibility Score: inf
ROOT
ATOM      1  C   UNL A   1      31.800  27.925  27.384  1.00  0.00     0.042 C 
ENDROOT
BRANCH   1   2
ATOM      2  C   UNL A   1      31.344  27.182  26.139  1.00  0.00     0.118 C 
BRANCH   2   3
ATOM      3  N   UNL A   1      32.427  26.662  25.332  1.00  0.00    -0.351 N 
ATOM      4  C   UNL A   1      32.689  25.397  24.903  1.00  0.00     0.281 C 
ATOM      5  O   UNL A   1      33.664  25.271  24.147  1.00  0.00    -0.268 OA
ATOM      6  H   UNL A   1      33.083  27.335  25.044  1.00  0.00     0.163 HD
BRANCH   4   7
ATOM      7  C   UNL A   1      31.850  24.131  25.323  1.00  0.00     0.175 C 
ATOM      8  C   UNL A   1      31.760  23.902  26.838  1.00  0.00     0.080 C 
ATOM      9  C   UNL A   1      32.388  22.830  24.713  1.00  0.00     0.094 C 
ATOM     10  C   UNL A   1      32.544  22.631  27.162  1.00  0.00     0.022 C 
ATOM     11  C   UNL A   1      32.576  21.825  25.867  1.00  0.00     0.059 C 
BRANCH   7  12
ATOM     12  N   UNL A   1      30.460  24.348  24.820  1.00  0.00    -0.345 N 
ATOM     13  H   UNL A   1      29.908  23.504  24.970  1.00  0.00     0.345 HD
ATOM     14  H   UNL A   1      30.489  24.561  23.822  1.00  0.00     0.345 HD
ATOM     15  H   UNL A   1      30.034  25.128  25.321  1.00  0.00     0.345 HD
ENDBRANCH   7  12
BRANCH  11  16
ATOM     16  S   UNL A   1      33.979  20.746  25.444  1.00  0.00    -0.112 SA
BRANCH  16  17
ATOM     17  C   UNL A   1      33.461  19.428  24.418  1.00  0.00     0.060 A 
ATOM     18  C   UNL A   1      32.449  19.387  23.483  1.00  0.00     0.027 A 
ATOM     19  S   UNL A   1      34.377  17.970  24.395  1.00  0.00    -0.137 S 
ATOM     20  C   UNL A   1      32.416  18.153  22.761  1.00  0.00     0.013 A 
ATOM     21  C   UNL A   1      33.419  17.296  23.153  1.00  0.00     0.066 A 
ENDBRANCH  16  17
ENDBRANCH  11  16
ENDBRANCH   4   7
ENDBRANCH   2   3
ENDBRANCH   1   2
BRANCH   1  22
ATOM     22  C   UNL A   1      33.222  28.453  27.300  1.00  0.00     0.118 C 
BRANCH  22  23
ATOM     23  N   UNL A   1      33.299  29.893  27.532  1.00  0.00    -0.352 N 
ATOM     24  C   UNL A   1      34.287  30.679  28.074  1.00  0.00     0.251 C 
ATOM     25  H   UNL A   1      32.500  30.390  27.249  1.00  0.00     0.163 HD
ATOM     26  O   UNL A   1      34.011  31.844  28.375  1.00  0.00    -0.269 OA
BRANCH  24  27
ATOM     27  C   UNL A   1      35.653  30.163  28.323  1.00  0.00     0.039 A 
ATOM     28  C   UNL A   1      36.579  30.159  27.274  1.00  0.00     0.014 A 
ATOM     29  C   UNL A   1      36.024  29.643  29.562  1.00  0.00     0.014 A 
ATOM     30  C   UNL A   1      37.891  29.729  27.499  1.00  0.00     0.010 A 
ATOM     31  C   UNL A   1      37.353  29.316  29.815  1.00  0.00     0.010 A 
ATOM     32  C   UNL A   1      38.306  29.361  28.789  1.00  0.00    -0.014 A 
BRANCH  32  33
ATOM     33  C   UNL A   1      39.730  29.059  29.097  1.00  0.00     0.031 A 
ATOM     34  C   UNL A   1      40.639  30.125  29.651  1.00  0.00     0.074 A 
ATOM     35  C   UNL A   1      40.229  27.844  28.785  1.00  0.00     0.049 A 
ATOM     36  N   UNL A   1      41.929  30.080  29.871  1.00  0.00    -0.248 NA
ATOM     37  C   UNL A   1      40.025  31.425  29.972  1.00  0.00     0.031 C 
ATOM     38  C   UNL A   1      39.468  26.746  28.184  1.00  0.00     0.029 A 
ATOM     39  N   UNL A   1      41.498  27.335  28.906  1.00  0.00    -0.354 N 
ATOM     40  C   UNL A   1      42.282  31.343  30.332  1.00  0.00     0.074 A 
ATOM     41  C   UNL A   1      41.081  32.149  30.316  1.00  0.00     0.031 C 
ATOM     42  C   UNL A   1      40.276  25.689  28.012  1.00  0.00     0.029 A 
ATOM     43  C   UNL A   1      41.624  26.047  28.440  1.00  0.00     0.049 A 
ATOM     44  H   UNL A   1      42.248  27.843  29.293  1.00  0.00     0.167 HD
ATOM     45  C   UNL A   1      43.493  31.785  30.749  1.00  0.00     0.037 A 
ATOM     46  C   UNL A   1      42.705  25.248  28.344  1.00  0.00     0.037 A 
ATOM     47  C   UNL A   1      44.678  30.967  30.791  1.00  0.00     0.049 A 
ATOM     48  C   UNL A   1      44.038  25.763  28.813  1.00  0.00     0.074 A 
ATOM     49  C   UNL A   1      45.934  31.298  31.272  1.00  0.00     0.029 A 
ATOM     50  N   UNL A   1      44.759  29.661  30.331  1.00  0.00    -0.354 N 
ATOM     51  N   UNL A   1      44.337  26.936  29.319  1.00  0.00    -0.248 NA
ATOM     52  C   UNL A   1      45.183  24.848  28.698  1.00  0.00     0.031 C 
ATOM     53  C   UNL A   1      46.786  30.210  31.055  1.00  0.00     0.029 A 
ATOM     54  C   UNL A   1      46.050  29.183  30.487  1.00  0.00     0.049 A 
ATOM     55  H   UNL A   1      44.010  29.150  29.949  1.00  0.00     0.167 HD
ATOM     56  C   UNL A   1      45.699  26.895  29.596  1.00  0.00     0.074 A 
ATOM     57  C   UNL A   1      46.160  25.573  29.223  1.00  0.00     0.031 C 
ATOM     58  C   UNL A   1      46.496  27.865  30.109  1.00  0.00     0.037 A 
BRANCH  45  59
ATOM     59  C   UNL A   1      43.603  33.215  31.206  1.00  0.00     0.058 A 
ATOM     60  C   UNL A   1      43.326  33.591  32.530  1.00  0.00     0.135 A 
ATOM     61  C   UNL A   1      44.044  34.215  30.323  1.00  0.00     0.135 A 
ATOM     62  F   UNL A   1      42.888  32.681  33.413  1.00  0.00    -0.206 F 
ATOM     63  C   UNL A   1      43.460  34.909  32.957  1.00  0.00     0.059 A 
ATOM     64  C   UNL A   1      44.213  35.535  30.735  1.00  0.00     0.059 A 
ATOM     65  F   UNL A   1      44.323  33.914  29.045  1.00  0.00    -0.206 F 
ATOM     66  C   UNL A   1      43.907  35.874  32.052  1.00  0.00     0.060 A 
BRANCH  66  67
ATOM     67  S   UNL A   1      44.093  37.575  32.627  1.00  0.00     0.124 S 
ATOM     68  O   UNL A   1      45.465  37.563  33.130  1.00  0.00    -0.237 OA
ATOM     69  O   UNL A   1      43.876  38.342  31.403  1.00  0.00    -0.237 OA
ATOM     70  O   UNL A   1      43.055  37.709  33.641  1.00  0.00    -0.744 OA
ENDBRANCH  66  67
ENDBRANCH  45  59
BRANCH  46  71
ATOM     71  C   UNL A   1      42.570  23.876  27.785  1.00  0.00     0.058 A 
ATOM     72  C   UNL A   1      42.567  23.658  26.400  1.00  0.00     0.135 A 
ATOM     73  C   UNL A   1      42.452  22.755  28.621  1.00  0.00     0.135 A 
ATOM     74  F   UNL A   1      42.669  24.698  25.558  1.00  0.00    -0.206 F 
ATOM     75  C   UNL A   1      42.434  22.382  25.861  1.00  0.00     0.059 A 
ATOM     76  C   UNL A   1      42.348  21.465  28.108  1.00  0.00     0.059 A 
ATOM     77  F   UNL A   1      42.464  22.906  29.955  1.00  0.00    -0.206 F 
ATOM     78  C   UNL A   1      42.328  21.291  26.725  1.00  0.00     0.060 A 
BRANCH  78  79
ATOM     79  S   UNL A   1      42.201  19.635  26.015  1.00  0.00     0.124 S 
ATOM     80  O   UNL A   1      43.134  19.724  24.898  1.00  0.00    -0.237 OA
ATOM     81  O   UNL A   1      42.622  18.790  27.131  1.00  0.00    -0.237 OA
ATOM     82  O   UNL A   1      40.792  19.529  25.656  1.00  0.00    -0.744 OA
ENDBRANCH  78  79
ENDBRANCH  46  71
BRANCH  58  83
ATOM     83  C   UNL A   1      47.948  27.530  30.310  1.00  0.00     0.058 A 
ATOM     84  C   UNL A   1      48.392  26.841  31.450  1.00  0.00     0.135 A 
ATOM     85  C   UNL A   1      48.898  27.857  29.329  1.00  0.00     0.135 A 
ATOM     86  F   UNL A   1      47.526  26.513  32.421  1.00  0.00    -0.206 F 
ATOM     87  C   UNL A   1      49.731  26.505  31.619  1.00  0.00     0.059 A 
ATOM     88  C   UNL A   1      50.238  27.506  29.464  1.00  0.00     0.059 A 
ATOM     89  F   UNL A   1      48.525  28.507  28.216  1.00  0.00    -0.206 F 
ATOM     90  C   UNL A   1      50.647  26.840  30.619  1.00  0.00     0.060 A 
BRANCH  90  91
ATOM     91  S   UNL A   1      52.375  26.365  30.836  1.00  0.00     0.124 S 
ATOM     92  O   UNL A   1      52.247  25.125  31.595  1.00  0.00    -0.237 OA
ATOM     93  O   UNL A   1      52.834  26.221  29.458  1.00  0.00    -0.237 OA
ATOM     94  O   UNL A   1      52.948  27.492  31.566  1.00  0.00    -0.744 OA
ENDBRANCH  90  91
ENDBRANCH  58  83
ENDBRANCH  32  33
ENDBRANCH  24  27
ENDBRANCH  22  23
ENDBRANCH   1  22
TORSDOF 16
ENDMDL
