MODEL 1
REMARK VINA RESULT:     -13.0      0.000      0.000
REMARK SMILES Cc1ccc(O[C@H](C)C(=O)Nc2ccsc2C(=O)NCCCNC(=O)c2ccc(-c3c4nc(c(-c5c(F)cc(S(=O)(=O)[O-])cc5F)c5ccc([nH]5)c(-c5c(F)cc(S(=O)(=O)[O-])cc5F)c5nc(c(-c6c(F)cc(S(=O)(=O)[O-])cc6F)c6ccc3[nH]6)C=C5)C=C4)cc2)cc1
REMARK SMILES IDX 20 1 19 2 17 3 18 4 16 6 12 7 13 8 14 9 15 10 11 11 9 12
REMARK SMILES IDX 10 13 7 15 8 16 6 17 5 18 1 19 2 20 3 21 93 22 4 23 92 24
REMARK SMILES IDX 21 25 22 26 23 27 24 28 25 30 26 31 27 32 91 33 28 34 90 35
REMARK SMILES IDX 29 36 30 37 31 38 84 39 32 40 89 41 83 42 85 43 33 44 88 45
REMARK SMILES IDX 82 46 81 47 34 49 68 50 47 51 67 52 48 53 51 54 66 55 86 56
REMARK SMILES IDX 49 57 50 58 65 60 87 61 52 62 35 63 36 64 45 65 37 66 38 67
REMARK SMILES IDX 44 68 46 69 39 70 40 71 41 72 42 73 43 74 69 75 70 76 79 77
REMARK SMILES IDX 71 78 72 79 78 80 80 81 73 82 74 83 75 84 76 85 77 86 53 87
REMARK SMILES IDX 54 88 63 89 55 90 56 91 62 92 64 93 57 94 58 95 59 96 60 97
REMARK SMILES IDX 61 98
REMARK H PARENT 19 5 11 14 23 29 85 48 51 59
REMARK Flexibility Score: inf
ROOT
ATOM      1  C   UNL A   1      34.063  27.815  26.411  1.00  0.00     0.118 C 
ENDROOT
BRANCH   1   2
ATOM      2  N   UNL A   1      32.684  27.460  26.708  1.00  0.00    -0.351 N 
ATOM      3  C   UNL A   1      31.611  26.878  26.091  1.00  0.00     0.263 C 
ATOM      4  O   UNL A   1      30.625  26.846  26.843  1.00  0.00    -0.268 OA
ATOM      5  H   UNL A   1      32.454  27.716  27.630  1.00  0.00     0.163 HD
BRANCH   3   6
ATOM      6  C   UNL A   1      31.550  26.339  24.725  1.00  0.00     0.115 A 
ATOM      7  C   UNL A   1      31.203  25.148  24.094  1.00  0.00     0.065 A 
ATOM      8  C   UNL A   1      31.337  25.219  22.667  1.00  0.00     0.038 A 
ATOM      9  C   UNL A   1      31.864  26.404  22.228  1.00  0.00     0.068 A 
ATOM     10  S   UNL A   1      32.163  27.459  23.517  1.00  0.00    -0.137 S 
BRANCH   7  11
ATOM     11  N   UNL A   1      30.667  24.038  24.708  1.00  0.00    -0.321 N 
ATOM     12  C   UNL A   1      31.254  23.138  25.550  1.00  0.00     0.265 C 
ATOM     13  O   UNL A   1      30.566  22.172  25.906  1.00  0.00    -0.270 OA
ATOM     14  H   UNL A   1      29.718  23.867  24.510  1.00  0.00     0.170 HD
BRANCH  12  15
ATOM     15  C   UNL A   1      32.706  23.277  26.065  1.00  0.00     0.259 C 
ATOM     16  C   UNL A   1      32.680  22.815  27.516  1.00  0.00     0.064 C 
BRANCH  15  17
ATOM     17  O   UNL A   1      33.669  22.802  25.137  1.00  0.00    -0.481 OA
BRANCH  17  18
ATOM     18  C   UNL A   1      34.937  22.375  25.346  1.00  0.00     0.120 A 
ATOM     19  C   UNL A   1      39.195  21.690  25.744  1.00  0.00     0.044 C 
ATOM     20  C   UNL A   1      37.716  21.921  25.678  1.00  0.00    -0.051 A 
ATOM     21  C   UNL A   1      36.870  20.913  25.211  1.00  0.00     0.007 A 
ATOM     22  C   UNL A   1      37.159  23.158  26.002  1.00  0.00     0.007 A 
ATOM     23  C   UNL A   1      35.495  21.137  25.058  1.00  0.00     0.047 A 
ATOM     24  C   UNL A   1      35.787  23.376  25.837  1.00  0.00     0.047 A 
ENDBRANCH  17  18
ENDBRANCH  15  17
ENDBRANCH  12  15
ENDBRANCH   7  11
ENDBRANCH   3   6
ENDBRANCH   1   2
BRANCH   1  25
ATOM     25  C   UNL A   1      34.274  29.325  26.409  1.00  0.00     0.042 C 
BRANCH  25  26
ATOM     26  C   UNL A   1      34.318  29.911  27.814  1.00  0.00     0.118 C 
BRANCH  26  27
ATOM     27  N   UNL A   1      35.178  31.083  27.969  1.00  0.00    -0.352 N 
ATOM     28  C   UNL A   1      36.533  31.098  28.287  1.00  0.00     0.251 C 
ATOM     29  H   UNL A   1      34.750  31.959  27.834  1.00  0.00     0.163 HD
ATOM     30  O   UNL A   1      37.137  32.135  28.487  1.00  0.00    -0.269 OA
BRANCH  28  31
ATOM     31  C   UNL A   1      37.219  29.786  28.348  1.00  0.00     0.039 A 
ATOM     32  C   UNL A   1      37.264  29.111  29.571  1.00  0.00     0.014 A 
ATOM     33  C   UNL A   1      38.081  29.453  27.309  1.00  0.00     0.014 A 
ATOM     34  C   UNL A   1      38.340  28.264  29.836  1.00  0.00     0.010 A 
ATOM     35  C   UNL A   1      39.206  28.719  27.621  1.00  0.00     0.010 A 
ATOM     36  C   UNL A   1      39.369  28.164  28.902  1.00  0.00    -0.014 A 
BRANCH  36  37
ATOM     37  C   UNL A   1      40.700  27.624  29.183  1.00  0.00     0.031 A 
ATOM     38  C   UNL A   1      41.015  26.218  28.821  1.00  0.00     0.074 A 
ATOM     39  C   UNL A   1      41.694  28.440  29.609  1.00  0.00     0.049 A 
ATOM     40  N   UNL A   1      42.133  25.629  29.079  1.00  0.00    -0.248 NA
ATOM     41  C   UNL A   1      40.044  25.322  28.194  1.00  0.00     0.031 C 
ATOM     42  C   UNL A   1      43.134  28.216  29.474  1.00  0.00     0.029 A 
ATOM     43  N   UNL A   1      41.602  29.553  30.446  1.00  0.00    -0.354 N 
ATOM     44  C   UNL A   1      42.143  24.419  28.427  1.00  0.00     0.074 A 
ATOM     45  C   UNL A   1      40.787  24.232  27.982  1.00  0.00     0.031 C 
ATOM     46  C   UNL A   1      43.786  28.987  30.356  1.00  0.00     0.029 A 
ATOM     47  C   UNL A   1      42.789  29.611  31.202  1.00  0.00     0.049 A 
ATOM     48  H   UNL A   1      40.846  30.182  30.497  1.00  0.00     0.167 HD
ATOM     49  C   UNL A   1      43.338  23.787  28.253  1.00  0.00     0.037 A 
ATOM     50  C   UNL A   1      42.777  29.506  32.564  1.00  0.00     0.037 A 
ATOM     51  C   UNL A   1      44.331  24.327  29.188  1.00  0.00     0.049 A 
ATOM     52  C   UNL A   1      43.526  28.311  33.107  1.00  0.00     0.074 A 
ATOM     53  C   UNL A   1      45.434  25.152  29.059  1.00  0.00     0.029 A 
ATOM     54  N   UNL A   1      44.080  24.223  30.557  1.00  0.00    -0.354 N 
ATOM     55  N   UNL A   1      43.889  27.281  32.394  1.00  0.00    -0.248 NA
ATOM     56  C   UNL A   1      43.914  28.184  34.507  1.00  0.00     0.031 C 
ATOM     57  C   UNL A   1      45.797  25.603  30.358  1.00  0.00     0.029 A 
ATOM     58  C   UNL A   1      44.938  25.027  31.280  1.00  0.00     0.049 A 
ATOM     59  H   UNL A   1      43.384  23.651  30.954  1.00  0.00     0.167 HD
ATOM     60  C   UNL A   1      44.470  26.338  33.208  1.00  0.00     0.074 A 
ATOM     61  C   UNL A   1      44.507  26.977  34.510  1.00  0.00     0.031 C 
ATOM     62  C   UNL A   1      44.841  25.107  32.737  1.00  0.00     0.037 A 
BRANCH  49  63
ATOM     63  C   UNL A   1      43.672  22.822  27.120  1.00  0.00     0.058 A 
ATOM     64  C   UNL A   1      43.016  21.570  27.031  1.00  0.00     0.135 A 
ATOM     65  C   UNL A   1      44.712  22.986  26.176  1.00  0.00     0.135 A 
ATOM     66  F   UNL A   1      42.004  21.254  27.852  1.00  0.00    -0.206 F 
ATOM     67  C   UNL A   1      43.388  20.566  26.124  1.00  0.00     0.059 A 
ATOM     68  C   UNL A   1      45.081  22.012  25.244  1.00  0.00     0.059 A 
ATOM     69  F   UNL A   1      45.474  24.081  26.121  1.00  0.00    -0.206 F 
ATOM     70  C   UNL A   1      44.432  20.792  25.239  1.00  0.00     0.060 A 
BRANCH  70  71
ATOM     71  S   UNL A   1      44.956  19.487  24.113  1.00  0.00     0.124 S 
ATOM     72  O   UNL A   1      44.267  18.322  24.660  1.00  0.00    -0.237 OA
ATOM     73  O   UNL A   1      44.468  19.971  22.827  1.00  0.00    -0.237 OA
ATOM     74  O   UNL A   1      46.409  19.473  24.260  1.00  0.00    -0.744 OA
ENDBRANCH  70  71
ENDBRANCH  49  63
BRANCH  50  75
ATOM     75  C   UNL A   1      41.579  30.127  33.190  1.00  0.00     0.058 A 
ATOM     76  C   UNL A   1      41.582  31.527  33.334  1.00  0.00     0.135 A 
ATOM     77  C   UNL A   1      40.341  29.470  33.188  1.00  0.00     0.135 A 
ATOM     78  F   UNL A   1      42.746  32.196  33.366  1.00  0.00    -0.206 F 
ATOM     79  C   UNL A   1      40.406  32.262  33.282  1.00  0.00     0.059 A 
ATOM     80  C   UNL A   1      39.146  30.191  33.146  1.00  0.00     0.059 A 
ATOM     81  F   UNL A   1      40.282  28.137  33.058  1.00  0.00    -0.206 F 
ATOM     82  C   UNL A   1      39.201  31.585  33.110  1.00  0.00     0.060 A 
BRANCH  82  83
ATOM     83  S   UNL A   1      37.768  32.555  32.587  1.00  0.00     0.124 S 
ATOM     84  O   UNL A   1      37.136  32.879  33.861  1.00  0.00    -0.237 OA
ATOM     85  O   UNL A   1      38.416  33.669  31.898  1.00  0.00    -0.237 OA
ATOM     86  O   UNL A   1      37.033  31.634  31.728  1.00  0.00    -0.744 OA
ENDBRANCH  82  83
ENDBRANCH  50  75
BRANCH  62  87
ATOM     87  C   UNL A   1      45.225  23.894  33.578  1.00  0.00     0.058 A 
ATOM     88  C   UNL A   1      46.451  23.734  34.249  1.00  0.00     0.135 A 
ATOM     89  C   UNL A   1      44.277  22.867  33.832  1.00  0.00     0.135 A 
ATOM     90  F   UNL A   1      47.391  24.688  34.238  1.00  0.00    -0.206 F 
ATOM     91  C   UNL A   1      46.757  22.605  35.017  1.00  0.00     0.059 A 
ATOM     92  C   UNL A   1      44.537  21.765  34.647  1.00  0.00     0.059 A 
ATOM     93  F   UNL A   1      43.043  22.904  33.310  1.00  0.00    -0.206 F 
ATOM     94  C   UNL A   1      45.795  21.621  35.206  1.00  0.00     0.060 A 
BRANCH  94  95
ATOM     95  S   UNL A   1      46.168  20.189  36.236  1.00  0.00     0.124 S 
ATOM     96  O   UNL A   1      45.309  19.171  35.641  1.00  0.00    -0.237 OA
ATOM     97  O   UNL A   1      47.601  20.004  36.028  1.00  0.00    -0.237 OA
ATOM     98  O   UNL A   1      45.790  20.633  37.574  1.00  0.00    -0.744 OA
ENDBRANCH  94  95
ENDBRANCH  62  87
ENDBRANCH  36  37
ENDBRANCH  28  31
ENDBRANCH  26  27
ENDBRANCH  25  26
ENDBRANCH   1  25
TORSDOF 17
ENDMDL
MODEL 2
REMARK VINA RESULT:     -12.9      1.439      2.298
REMARK SMILES Cc1ccc(O[C@H](C)C(=O)Nc2ccsc2C(=O)NCCCNC(=O)c2ccc(-c3c4nc(c(-c5c(F)cc(S(=O)(=O)[O-])cc5F)c5ccc([nH]5)c(-c5c(F)cc(S(=O)(=O)[O-])cc5F)c5nc(c(-c6c(F)cc(S(=O)(=O)[O-])cc6F)c6ccc3[nH]6)C=C5)C=C4)cc2)cc1
REMARK SMILES IDX 20 1 19 2 17 3 18 4 16 6 12 7 13 8 14 9 15 10 11 11 9 12
REMARK SMILES IDX 10 13 7 15 8 16 6 17 5 18 1 19 2 20 3 21 93 22 4 23 92 24
REMARK SMILES IDX 21 25 22 26 23 27 24 28 25 30 26 31 27 32 91 33 28 34 90 35
REMARK SMILES IDX 29 36 30 37 31 38 84 39 32 40 89 41 83 42 85 43 33 44 88 45
REMARK SMILES IDX 82 46 81 47 34 49 68 50 47 51 67 52 48 53 51 54 66 55 86 56
REMARK SMILES IDX 49 57 50 58 65 60 87 61 52 62 35 63 36 64 45 65 37 66 38 67
REMARK SMILES IDX 44 68 46 69 39 70 40 71 41 72 42 73 43 74 69 75 70 76 79 77
REMARK SMILES IDX 71 78 72 79 78 80 80 81 73 82 74 83 75 84 76 85 77 86 53 87
REMARK SMILES IDX 54 88 63 89 55 90 56 91 62 92 64 93 57 94 58 95 59 96 60 97
REMARK SMILES IDX 61 98
REMARK H PARENT 19 5 11 14 23 29 85 48 51 59
REMARK Flexibility Score: inf
ROOT
ATOM      1  C   UNL A   1      32.153  30.075  25.981  1.00  0.00     0.118 C 
ENDROOT
BRANCH   1   2
ATOM      2  N   UNL A   1      31.643  30.089  24.620  1.00  0.00    -0.351 N 
ATOM      3  C   UNL A   1      30.951  29.273  23.766  1.00  0.00     0.263 C 
ATOM      4  O   UNL A   1      30.800  29.810  22.658  1.00  0.00    -0.268 OA
ATOM      5  H   UNL A   1      31.861  30.942  24.180  1.00  0.00     0.163 HD
BRANCH   3   6
ATOM      6  C   UNL A   1      30.426  27.930  24.045  1.00  0.00     0.115 A 
ATOM      7  C   UNL A   1      30.886  26.722  24.563  1.00  0.00     0.065 A 
ATOM      8  C   UNL A   1      29.864  25.716  24.609  1.00  0.00     0.038 A 
ATOM      9  C   UNL A   1      28.680  26.116  24.053  1.00  0.00     0.068 A 
ATOM     10  S   UNL A   1      28.765  27.716  23.509  1.00  0.00    -0.137 S 
BRANCH   7  11
ATOM     11  N   UNL A   1      32.135  26.500  25.099  1.00  0.00    -0.321 N 
ATOM     12  C   UNL A   1      33.310  26.197  24.475  1.00  0.00     0.265 C 
ATOM     13  O   UNL A   1      34.287  25.965  25.201  1.00  0.00    -0.270 OA
ATOM     14  H   UNL A   1      32.188  26.570  26.080  1.00  0.00     0.170 HD
BRANCH  12  15
ATOM     15  C   UNL A   1      33.467  26.135  22.937  1.00  0.00     0.259 C 
ATOM     16  C   UNL A   1      34.023  27.491  22.520  1.00  0.00     0.064 C 
BRANCH  15  17
ATOM     17  O   UNL A   1      34.033  24.914  22.489  1.00  0.00    -0.481 OA
BRANCH  17  18
ATOM     18  C   UNL A   1      33.840  23.652  22.942  1.00  0.00     0.120 A 
ATOM     19  C   UNL A   1      32.513  19.844  24.522  1.00  0.00     0.044 C 
ATOM     20  C   UNL A   1      32.984  21.129  23.912  1.00  0.00    -0.051 A 
ATOM     21  C   UNL A   1      34.236  21.646  24.252  1.00  0.00     0.007 A 
ATOM     22  C   UNL A   1      32.167  21.872  23.061  1.00  0.00     0.007 A 
ATOM     23  C   UNL A   1      34.661  22.890  23.763  1.00  0.00     0.047 A 
ATOM     24  C   UNL A   1      32.595  23.116  22.584  1.00  0.00     0.047 A 
ENDBRANCH  17  18
ENDBRANCH  15  17
ENDBRANCH  12  15
ENDBRANCH   7  11
ENDBRANCH   3   6
ENDBRANCH   1   2
BRANCH   1  25
ATOM     25  C   UNL A   1      33.628  29.693  26.032  1.00  0.00     0.042 C 
BRANCH  25  26
ATOM     26  C   UNL A   1      34.209  29.793  27.437  1.00  0.00     0.118 C 
BRANCH  26  27
ATOM     27  N   UNL A   1      35.029  30.977  27.685  1.00  0.00    -0.352 N 
ATOM     28  C   UNL A   1      36.362  31.011  28.082  1.00  0.00     0.251 C 
ATOM     29  H   UNL A   1      34.588  31.848  27.556  1.00  0.00     0.163 HD
ATOM     30  O   UNL A   1      36.928  32.054  28.355  1.00  0.00    -0.269 OA
BRANCH  28  31
ATOM     31  C   UNL A   1      37.076  29.714  28.136  1.00  0.00     0.039 A 
ATOM     32  C   UNL A   1      37.077  29.001  29.338  1.00  0.00     0.014 A 
ATOM     33  C   UNL A   1      37.997  29.435  27.133  1.00  0.00     0.014 A 
ATOM     34  C   UNL A   1      38.159  28.169  29.631  1.00  0.00     0.010 A 
ATOM     35  C   UNL A   1      39.123  28.716  27.477  1.00  0.00     0.010 A 
ATOM     36  C   UNL A   1      39.234  28.124  28.748  1.00  0.00    -0.014 A 
BRANCH  36  37
ATOM     37  C   UNL A   1      40.563  27.606  29.078  1.00  0.00     0.031 A 
ATOM     38  C   UNL A   1      40.914  26.205  28.728  1.00  0.00     0.074 A 
ATOM     39  C   UNL A   1      41.527  28.437  29.540  1.00  0.00     0.049 A 
ATOM     40  N   UNL A   1      42.030  25.634  29.028  1.00  0.00    -0.248 NA
ATOM     41  C   UNL A   1      39.982  25.293  28.065  1.00  0.00     0.031 C 
ATOM     42  C   UNL A   1      42.974  28.237  29.460  1.00  0.00     0.029 A 
ATOM     43  N   UNL A   1      41.385  29.548  30.373  1.00  0.00    -0.354 N 
ATOM     44  C   UNL A   1      42.085  24.424  28.378  1.00  0.00     0.074 A 
ATOM     45  C   UNL A   1      40.750  24.216  27.882  1.00  0.00     0.031 C 
ATOM     46  C   UNL A   1      43.581  29.018  30.365  1.00  0.00     0.029 A 
ATOM     47  C   UNL A   1      42.542  29.625  31.173  1.00  0.00     0.049 A 
ATOM     48  H   UNL A   1      40.618  30.165  30.396  1.00  0.00     0.167 HD
ATOM     49  C   UNL A   1      43.295  23.812  28.249  1.00  0.00     0.037 A 
ATOM     50  C   UNL A   1      42.481  29.520  32.533  1.00  0.00     0.037 A 
ATOM     51  C   UNL A   1      44.244  24.367  29.219  1.00  0.00     0.049 A 
ATOM     52  C   UNL A   1      43.229  28.337  33.105  1.00  0.00     0.074 A 
ATOM     53  C   UNL A   1      45.337  25.210  29.132  1.00  0.00     0.029 A 
ATOM     54  N   UNL A   1      43.944  24.259  30.578  1.00  0.00    -0.354 N 
ATOM     55  N   UNL A   1      43.635  27.313  32.406  1.00  0.00    -0.248 NA
ATOM     56  C   UNL A   1      43.566  28.215  34.519  1.00  0.00     0.031 C 
ATOM     57  C   UNL A   1      45.644  25.666  30.443  1.00  0.00     0.029 A 
ATOM     58  C   UNL A   1      44.761  25.077  31.332  1.00  0.00     0.049 A 
ATOM     59  H   UNL A   1      43.243  23.675  30.949  1.00  0.00     0.167 HD
ATOM     60  C   UNL A   1      44.200  26.379  33.242  1.00  0.00     0.074 A 
ATOM     61  C   UNL A   1      44.177  27.018  34.544  1.00  0.00     0.031 C 
ATOM     62  C   UNL A   1      44.608  25.154  32.785  1.00  0.00     0.037 A 
BRANCH  49  63
ATOM     63  C   UNL A   1      43.688  22.852  27.129  1.00  0.00     0.058 A 
ATOM     64  C   UNL A   1      42.986  21.635  26.953  1.00  0.00     0.135 A 
ATOM     65  C   UNL A   1      44.816  22.984  26.287  1.00  0.00     0.135 A 
ATOM     66  F   UNL A   1      41.889  21.352  27.672  1.00  0.00    -0.206 F 
ATOM     67  C   UNL A   1      43.393  20.631  26.061  1.00  0.00     0.059 A 
ATOM     68  C   UNL A   1      45.223  22.011  25.370  1.00  0.00     0.059 A 
ATOM     69  F   UNL A   1      45.628  24.042  26.326  1.00  0.00    -0.206 F 
ATOM     70  C   UNL A   1      44.523  20.823  25.280  1.00  0.00     0.060 A 
BRANCH  70  71
ATOM     71  S   UNL A   1      45.087  19.516  24.177  1.00  0.00     0.124 S 
ATOM     72  O   UNL A   1      44.472  19.902  22.910  1.00  0.00    -0.237 OA
ATOM     73  O   UNL A   1      46.537  19.651  24.249  1.00  0.00    -0.237 OA
ATOM     74  O   UNL A   1      44.547  18.301  24.782  1.00  0.00    -0.744 OA
ENDBRANCH  70  71
ENDBRANCH  49  63
BRANCH  50  75
ATOM     75  C   UNL A   1      41.251  30.121  33.114  1.00  0.00     0.058 A 
ATOM     76  C   UNL A   1      41.211  31.523  33.223  1.00  0.00     0.135 A 
ATOM     77  C   UNL A   1      40.032  29.429  33.099  1.00  0.00     0.135 A 
ATOM     78  F   UNL A   1      42.354  32.227  33.266  1.00  0.00    -0.206 F 
ATOM     79  C   UNL A   1      40.016  32.223  33.123  1.00  0.00     0.059 A 
ATOM     80  C   UNL A   1      38.819  30.113  33.009  1.00  0.00     0.059 A 
ATOM     81  F   UNL A   1      40.014  28.092  33.001  1.00  0.00    -0.206 F 
ATOM     82  C   UNL A   1      38.835  31.507  32.939  1.00  0.00     0.060 A 
BRANCH  82  83
ATOM     83  S   UNL A   1      37.389  32.422  32.356  1.00  0.00     0.124 S 
ATOM     84  O   UNL A   1      36.866  32.989  33.595  1.00  0.00    -0.237 OA
ATOM     85  O   UNL A   1      38.007  33.372  31.434  1.00  0.00    -0.237 OA
ATOM     86  O   UNL A   1      36.567  31.391  31.733  1.00  0.00    -0.744 OA
ENDBRANCH  82  83
ENDBRANCH  50  75
BRANCH  62  87
ATOM     87  C   UNL A   1      44.980  23.948  33.640  1.00  0.00     0.058 A 
ATOM     88  C   UNL A   1      44.153  22.831  33.862  1.00  0.00     0.135 A 
ATOM     89  C   UNL A   1      46.284  23.831  34.189  1.00  0.00     0.135 A 
ATOM     90  F   UNL A   1      42.951  22.717  33.282  1.00  0.00    -0.206 F 
ATOM     91  C   UNL A   1      44.541  21.741  34.649  1.00  0.00     0.059 A 
ATOM     92  C   UNL A   1      46.715  22.724  34.922  1.00  0.00     0.059 A 
ATOM     93  F   UNL A   1      47.208  24.787  34.016  1.00  0.00    -0.206 F 
ATOM     94  C   UNL A   1      45.823  21.698  35.181  1.00  0.00     0.060 A 
BRANCH  94  95
ATOM     95  S   UNL A   1      46.343  20.272  36.154  1.00  0.00     0.124 S 
ATOM     96  O   UNL A   1      45.921  20.665  37.494  1.00  0.00    -0.237 OA
ATOM     97  O   UNL A   1      45.588  19.177  35.552  1.00  0.00    -0.237 OA
ATOM     98  O   UNL A   1      47.784  20.225  35.932  1.00  0.00    -0.744 OA
ENDBRANCH  94  95
ENDBRANCH  62  87
ENDBRANCH  36  37
ENDBRANCH  28  31
ENDBRANCH  26  27
ENDBRANCH  25  26
ENDBRANCH   1  25
TORSDOF 17
ENDMDL
MODEL 3
REMARK VINA RESULT:     -12.8      1.617      2.334
REMARK SMILES Cc1ccc(O[C@H](C)C(=O)Nc2ccsc2C(=O)NCCCNC(=O)c2ccc(-c3c4nc(c(-c5c(F)cc(S(=O)(=O)[O-])cc5F)c5ccc([nH]5)c(-c5c(F)cc(S(=O)(=O)[O-])cc5F)c5nc(c(-c6c(F)cc(S(=O)(=O)[O-])cc6F)c6ccc3[nH]6)C=C5)C=C4)cc2)cc1
REMARK SMILES IDX 20 1 19 2 17 3 18 4 16 6 12 7 13 8 14 9 15 10 11 11 9 12
REMARK SMILES IDX 10 13 7 15 8 16 6 17 5 18 1 19 2 20 3 21 93 22 4 23 92 24
REMARK SMILES IDX 21 25 22 26 23 27 24 28 25 30 26 31 27 32 91 33 28 34 90 35
REMARK SMILES IDX 29 36 30 37 31 38 84 39 32 40 89 41 83 42 85 43 33 44 88 45
REMARK SMILES IDX 82 46 81 47 34 49 68 50 47 51 67 52 48 53 51 54 66 55 86 56
REMARK SMILES IDX 49 57 50 58 65 60 87 61 52 62 35 63 36 64 45 65 37 66 38 67
REMARK SMILES IDX 44 68 46 69 39 70 40 71 41 72 42 73 43 74 69 75 70 76 79 77
REMARK SMILES IDX 71 78 72 79 78 80 80 81 73 82 74 83 75 84 76 85 77 86 53 87
REMARK SMILES IDX 54 88 63 89 55 90 56 91 62 92 64 93 57 94 58 95 59 96 60 97
REMARK SMILES IDX 61 98
REMARK H PARENT 19 5 11 14 23 29 85 48 51 59
REMARK Flexibility Score: inf
ROOT
ATOM      1  C   UNL A   1      32.297  30.427  25.923  1.00  0.00     0.118 C 
ENDROOT
BRANCH   1   2
ATOM      2  N   UNL A   1      32.923  29.676  24.847  1.00  0.00    -0.351 N 
ATOM      3  C   UNL A   1      32.781  28.477  24.202  1.00  0.00     0.263 C 
ATOM      4  O   UNL A   1      33.649  28.333  23.328  1.00  0.00    -0.268 OA
ATOM      5  H   UNL A   1      33.676  30.184  24.467  1.00  0.00     0.163 HD
BRANCH   3   6
ATOM      6  C   UNL A   1      31.766  27.445  24.453  1.00  0.00     0.115 A 
ATOM      7  C   UNL A   1      31.684  26.199  25.069  1.00  0.00     0.065 A 
ATOM      8  C   UNL A   1      30.363  25.640  25.010  1.00  0.00     0.038 A 
ATOM      9  C   UNL A   1      29.484  26.397  24.285  1.00  0.00     0.068 A 
ATOM     10  S   UNL A   1      30.218  27.806  23.704  1.00  0.00    -0.137 S 
BRANCH   7  11
ATOM     11  N   UNL A   1      32.691  25.583  25.777  1.00  0.00    -0.321 N 
ATOM     12  C   UNL A   1      33.424  24.474  25.465  1.00  0.00     0.265 C 
ATOM     13  O   UNL A   1      34.226  24.074  26.320  1.00  0.00    -0.270 OA
ATOM     14  H   UNL A   1      32.917  26.005  26.638  1.00  0.00     0.170 HD
BRANCH  12  15
ATOM     15  C   UNL A   1      33.297  23.720  24.120  1.00  0.00     0.259 C 
ATOM     16  C   UNL A   1      34.669  23.801  23.465  1.00  0.00     0.064 C 
BRANCH  15  17
ATOM     17  O   UNL A   1      32.584  22.499  24.238  1.00  0.00    -0.481 OA
BRANCH  17  18
ATOM     18  C   UNL A   1      33.030  21.223  24.140  1.00  0.00     0.120 A 
ATOM     19  C   UNL A   1      33.721  16.958  23.839  1.00  0.00     0.044 C 
ATOM     20  C   UNL A   1      33.512  18.442  23.878  1.00  0.00    -0.051 A 
ATOM     21  C   UNL A   1      34.316  19.240  24.694  1.00  0.00     0.007 A 
ATOM     22  C   UNL A   1      32.474  19.048  23.171  1.00  0.00     0.007 A 
ATOM     23  C   UNL A   1      34.081  20.617  24.814  1.00  0.00     0.047 A 
ATOM     24  C   UNL A   1      32.241  20.421  23.303  1.00  0.00     0.047 A 
ENDBRANCH  17  18
ENDBRANCH  15  17
ENDBRANCH  12  15
ENDBRANCH   7  11
ENDBRANCH   3   6
ENDBRANCH   1   2
BRANCH   1  25
ATOM     25  C   UNL A   1      32.952  30.145  27.270  1.00  0.00     0.042 C 
BRANCH  25  26
ATOM     26  C   UNL A   1      34.463  29.985  27.163  1.00  0.00     0.118 C 
BRANCH  26  27
ATOM     27  N   UNL A   1      35.241  31.136  27.618  1.00  0.00    -0.352 N 
ATOM     28  C   UNL A   1      36.551  31.135  28.089  1.00  0.00     0.251 C 
ATOM     29  H   UNL A   1      34.786  32.009  27.589  1.00  0.00     0.163 HD
ATOM     30  O   UNL A   1      37.077  32.138  28.535  1.00  0.00    -0.269 OA
BRANCH  28  31
ATOM     31  C   UNL A   1      37.292  29.855  28.000  1.00  0.00     0.039 A 
ATOM     32  C   UNL A   1      37.263  28.988  29.096  1.00  0.00     0.014 A 
ATOM     33  C   UNL A   1      38.256  29.728  27.007  1.00  0.00     0.014 A 
ATOM     34  C   UNL A   1      38.351  28.144  29.320  1.00  0.00     0.010 A 
ATOM     35  C   UNL A   1      39.384  28.990  27.299  1.00  0.00     0.010 A 
ATOM     36  C   UNL A   1      39.460  28.236  28.483  1.00  0.00    -0.014 A 
BRANCH  36  37
ATOM     37  C   UNL A   1      40.787  27.701  28.796  1.00  0.00     0.031 A 
ATOM     38  C   UNL A   1      41.090  26.274  28.514  1.00  0.00     0.074 A 
ATOM     39  C   UNL A   1      41.788  28.531  29.175  1.00  0.00     0.049 A 
ATOM     40  N   UNL A   1      42.202  25.691  28.808  1.00  0.00    -0.248 NA
ATOM     41  C   UNL A   1      40.112  25.352  27.938  1.00  0.00     0.031 C 
ATOM     42  C   UNL A   1      43.226  28.288  29.055  1.00  0.00     0.029 A 
ATOM     43  N   UNL A   1      41.704  29.691  29.947  1.00  0.00    -0.354 N 
ATOM     44  C   UNL A   1      42.203  24.446  28.226  1.00  0.00     0.074 A 
ATOM     45  C   UNL A   1      40.846  24.246  27.790  1.00  0.00     0.031 C 
ATOM     46  C   UNL A   1      43.884  29.102  29.893  1.00  0.00     0.029 A 
ATOM     47  C   UNL A   1      42.891  29.782  30.701  1.00  0.00     0.049 A 
ATOM     48  H   UNL A   1      40.954  30.329  29.962  1.00  0.00     0.167 HD
ATOM     49  C   UNL A   1      43.392  23.795  28.090  1.00  0.00     0.037 A 
ATOM     50  C   UNL A   1      42.877  29.755  32.066  1.00  0.00     0.037 A 
ATOM     51  C   UNL A   1      44.389  24.378  28.993  1.00  0.00     0.049 A 
ATOM     52  C   UNL A   1      43.616  28.587  32.677  1.00  0.00     0.074 A 
ATOM     53  C   UNL A   1      45.499  25.185  28.819  1.00  0.00     0.029 A 
ATOM     54  N   UNL A   1      44.137  24.355  30.365  1.00  0.00    -0.354 N 
ATOM     55  N   UNL A   1      43.970  27.514  32.025  1.00  0.00    -0.248 NA
ATOM     56  C   UNL A   1      44.001  28.536  34.083  1.00  0.00     0.031 C 
ATOM     57  C   UNL A   1      45.865  25.706  30.090  1.00  0.00     0.029 A 
ATOM     58  C   UNL A   1      45.000  25.192  31.043  1.00  0.00     0.049 A 
ATOM     59  H   UNL A   1      43.435  23.812  30.794  1.00  0.00     0.167 HD
ATOM     60  C   UNL A   1      44.542  26.614  32.892  1.00  0.00     0.074 A 
ATOM     61  C   UNL A   1      44.583  27.326  34.156  1.00  0.00     0.031 C 
ATOM     62  C   UNL A   1      44.902  25.355  32.493  1.00  0.00     0.037 A 
BRANCH  49  63
ATOM     63  C   UNL A   1      43.719  22.763  27.014  1.00  0.00     0.058 A 
ATOM     64  C   UNL A   1      43.009  21.539  26.958  1.00  0.00     0.135 A 
ATOM     65  C   UNL A   1      44.797  22.837  26.101  1.00  0.00     0.135 A 
ATOM     66  F   UNL A   1      41.957  21.307  27.757  1.00  0.00    -0.206 F 
ATOM     67  C   UNL A   1      43.365  20.478  26.112  1.00  0.00     0.059 A 
ATOM     68  C   UNL A   1      45.151  21.805  25.227  1.00  0.00     0.059 A 
ATOM     69  F   UNL A   1      45.609  23.893  26.023  1.00  0.00    -0.206 F 
ATOM     70  C   UNL A   1      44.447  20.616  25.255  1.00  0.00     0.060 A 
BRANCH  70  71
ATOM     71  S   UNL A   1      44.947  19.238  24.208  1.00  0.00     0.124 S 
ATOM     72  O   UNL A   1      44.225  18.122  24.812  1.00  0.00    -0.237 OA
ATOM     73  O   UNL A   1      44.482  19.661  22.893  1.00  0.00    -0.237 OA
ATOM     74  O   UNL A   1      46.398  19.196  24.369  1.00  0.00    -0.744 OA
ENDBRANCH  70  71
ENDBRANCH  49  63
BRANCH  50  75
ATOM     75  C   UNL A   1      41.685  30.421  32.654  1.00  0.00     0.058 A 
ATOM     76  C   UNL A   1      40.637  29.591  33.096  1.00  0.00     0.135 A 
ATOM     77  C   UNL A   1      41.770  31.713  33.193  1.00  0.00     0.135 A 
ATOM     78  F   UNL A   1      40.501  28.355  32.589  1.00  0.00    -0.206 F 
ATOM     79  C   UNL A   1      39.830  29.953  34.166  1.00  0.00     0.059 A 
ATOM     80  C   UNL A   1      40.961  32.099  34.262  1.00  0.00     0.059 A 
ATOM     81  F   UNL A   1      42.746  32.545  32.803  1.00  0.00    -0.206 F 
ATOM     82  C   UNL A   1      40.055  31.178  34.789  1.00  0.00     0.060 A 
BRANCH  82  83
ATOM     83  S   UNL A   1      39.330  31.424  36.427  1.00  0.00     0.124 S 
ATOM     84  O   UNL A   1      38.449  32.565  36.204  1.00  0.00    -0.237 OA
ATOM     85  O   UNL A   1      38.666  30.139  36.639  1.00  0.00    -0.237 OA
ATOM     86  O   UNL A   1      40.491  31.673  37.274  1.00  0.00    -0.744 OA
ENDBRANCH  82  83
ENDBRANCH  50  75
BRANCH  62  87
ATOM     87  C   UNL A   1      45.275  24.189  33.402  1.00  0.00     0.058 A 
ATOM     88  C   UNL A   1      46.558  23.957  33.930  1.00  0.00     0.135 A 
ATOM     89  C   UNL A   1      44.274  23.300  33.876  1.00  0.00     0.135 A 
ATOM     90  F   UNL A   1      47.577  24.797  33.705  1.00  0.00    -0.206 F 
ATOM     91  C   UNL A   1      46.852  22.876  34.769  1.00  0.00     0.059 A 
ATOM     92  C   UNL A   1      44.533  22.254  34.764  1.00  0.00     0.059 A 
ATOM     93  F   UNL A   1      42.991  23.424  33.509  1.00  0.00    -0.206 F 
ATOM     94  C   UNL A   1      45.833  22.024  35.176  1.00  0.00     0.060 A 
BRANCH  94  95
ATOM     95  S   UNL A   1      46.199  20.660  36.296  1.00  0.00     0.124 S 
ATOM     96  O   UNL A   1      45.452  19.569  35.679  1.00  0.00    -0.237 OA
ATOM     97  O   UNL A   1      47.653  20.553  36.213  1.00  0.00    -0.237 OA
ATOM     98  O   UNL A   1      45.687  21.134  37.578  1.00  0.00    -0.744 OA
ENDBRANCH  94  95
ENDBRANCH  62  87
ENDBRANCH  36  37
ENDBRANCH  28  31
ENDBRANCH  26  27
ENDBRANCH  25  26
ENDBRANCH   1  25
TORSDOF 17
ENDMDL
