MODEL 1
REMARK VINA RESULT:     -13.2      0.000      0.000
REMARK SMILES O=C(NCCCNC(=O)c1cc(-c2cncnc2)cc(S(=O)(=O)N2CCCC2)c1)c1ccc(-c2c3nc(c(-c4c(F)cc(S(=O)(=O)[O-])cc4F)c4ccc([nH]4)c(-c4c(F)cc(S(=O)(=O)[O-])cc4F)c4nc(c(-c5c(F)cc(S(=O)(=O)[O-])cc5F)c5ccc2[nH]5)C=C4)C=C3)cc1
REMARK SMILES IDX 4 1 3 2 1 3 2 4 30 6 31 7 95 8 32 9 94 10 33 11 34 12 35 13
REMARK SMILES IDX 88 14 36 15 93 16 87 17 89 18 37 19 92 20 86 21 85 22 38 24
REMARK SMILES IDX 72 25 51 26 71 27 52 28 55 29 70 30 90 31 53 32 54 33 69 35
REMARK SMILES IDX 91 36 56 37 39 38 40 39 49 40 41 41 42 42 48 43 50 44 43 45
REMARK SMILES IDX 44 46 45 47 46 48 47 49 73 50 74 51 83 52 75 53 76 54 82 55
REMARK SMILES IDX 84 56 77 57 78 58 79 59 80 60 81 61 57 62 58 63 67 64 59 65
REMARK SMILES IDX 60 66 66 67 68 68 61 69 62 70 63 71 64 72 65 73 5 74 6 75
REMARK SMILES IDX 7 76 8 77 9 79 10 80 11 81 29 82 12 83 20 84 19 85 13 86
REMARK SMILES IDX 14 87 18 88 15 89 17 90 16 91 21 92 22 93 23 94 24 95 25 96
REMARK SMILES IDX 28 97 26 98 27 99
REMARK H PARENT 3 5 89 23 55 34 7 78
REMARK Flexibility Score: inf
ROOT
ATOM      1  C   UNL A   1      35.618  31.297  28.261  1.00  0.00     0.118 C 
ENDROOT
BRANCH   1   2
ATOM      2  N   UNL A   1      35.579  30.836  29.646  1.00  0.00    -0.352 N 
ATOM      3  O   UNL A   1      36.115  29.615  31.459  1.00  0.00    -0.269 OA
ATOM      4  C   UNL A   1      36.442  30.023  30.349  1.00  0.00     0.251 C 
ATOM      5  H   UNL A   1      34.808  31.161  30.165  1.00  0.00     0.163 HD
BRANCH   4   6
ATOM      6  C   UNL A   1      37.736  29.618  29.754  1.00  0.00     0.039 A 
ATOM      7  C   UNL A   1      38.767  29.165  30.570  1.00  0.00     0.014 A 
ATOM      8  C   UNL A   1      37.932  29.691  28.372  1.00  0.00     0.014 A 
ATOM      9  C   UNL A   1      40.046  29.040  30.054  1.00  0.00     0.010 A 
ATOM     10  C   UNL A   1      39.191  29.398  27.828  1.00  0.00     0.010 A 
ATOM     11  C   UNL A   1      40.275  29.116  28.671  1.00  0.00    -0.014 A 
BRANCH  11  12
ATOM     12  C   UNL A   1      41.649  28.824  28.180  1.00  0.00     0.031 A 
ATOM     13  C   UNL A   1      42.747  29.854  28.228  1.00  0.00     0.074 A 
ATOM     14  C   UNL A   1      41.922  27.562  27.787  1.00  0.00     0.049 A 
ATOM     15  N   UNL A   1      44.014  29.712  27.934  1.00  0.00    -0.248 NA
ATOM     16  C   UNL A   1      42.382  31.217  28.643  1.00  0.00     0.031 C 
ATOM     17  C   UNL A   1      40.929  26.486  27.669  1.00  0.00     0.029 A 
ATOM     18  N   UNL A   1      43.106  26.945  27.477  1.00  0.00    -0.354 N 
ATOM     19  C   UNL A   1      44.594  30.962  28.106  1.00  0.00     0.074 A 
ATOM     20  C   UNL A   1      43.535  31.862  28.509  1.00  0.00     0.031 C 
ATOM     21  C   UNL A   1      41.555  25.331  27.418  1.00  0.00     0.029 A 
ATOM     22  C   UNL A   1      42.980  25.592  27.265  1.00  0.00     0.049 A 
ATOM     23  H   UNL A   1      43.964  27.424  27.413  1.00  0.00     0.167 HD
ATOM     24  C   UNL A   1      45.892  31.323  27.949  1.00  0.00     0.037 A 
ATOM     25  C   UNL A   1      43.902  24.659  26.967  1.00  0.00     0.037 A 
ATOM     26  C   UNL A   1      46.943  30.413  27.567  1.00  0.00     0.049 A 
ATOM     27  C   UNL A   1      45.335  25.081  26.834  1.00  0.00     0.074 A 
ATOM     28  C   UNL A   1      48.287  30.681  27.374  1.00  0.00     0.029 A 
ATOM     29  N   UNL A   1      46.772  29.056  27.332  1.00  0.00    -0.354 N 
ATOM     30  N   UNL A   1      45.855  26.275  26.989  1.00  0.00    -0.248 NA
ATOM     31  C   UNL A   1      46.302  24.038  26.475  1.00  0.00     0.031 C 
ATOM     32  C   UNL A   1      48.923  29.493  26.995  1.00  0.00     0.029 A 
ATOM     33  C   UNL A   1      47.983  28.475  26.992  1.00  0.00     0.049 A 
ATOM     34  H   UNL A   1      45.915  28.576  27.397  1.00  0.00     0.167 HD
ATOM     35  C   UNL A   1      47.210  26.130  26.732  1.00  0.00     0.074 A 
ATOM     36  C   UNL A   1      47.435  24.724  26.456  1.00  0.00     0.031 C 
ATOM     37  C   UNL A   1      48.180  27.077  26.706  1.00  0.00     0.037 A 
BRANCH  24  38
ATOM     38  C   UNL A   1      46.252  32.766  28.179  1.00  0.00     0.058 A 
ATOM     39  C   UNL A   1      46.720  33.220  29.423  1.00  0.00     0.135 A 
ATOM     40  C   UNL A   1      46.187  33.694  27.127  1.00  0.00     0.135 A 
ATOM     41  F   UNL A   1      46.786  32.379  30.466  1.00  0.00    -0.206 F 
ATOM     42  C   UNL A   1      47.096  34.545  29.619  1.00  0.00     0.059 A 
ATOM     43  C   UNL A   1      46.579  35.020  27.296  1.00  0.00     0.059 A 
ATOM     44  F   UNL A   1      45.747  33.316  25.917  1.00  0.00    -0.206 F 
ATOM     45  C   UNL A   1      47.022  35.439  28.549  1.00  0.00     0.060 A 
BRANCH  45  46
ATOM     46  S   UNL A   1      47.530  37.152  28.815  1.00  0.00     0.124 S 
ATOM     47  O   UNL A   1      46.853  37.829  27.715  1.00  0.00    -0.237 OA
ATOM     48  O   UNL A   1      47.006  37.430  30.149  1.00  0.00    -0.237 OA
ATOM     49  O   UNL A   1      48.985  37.094  28.717  1.00  0.00    -0.744 OA
ENDBRANCH  45  46
ENDBRANCH  24  38
BRANCH  25  50
ATOM     50  C   UNL A   1      43.483  23.251  26.747  1.00  0.00     0.058 A 
ATOM     51  C   UNL A   1      43.457  22.686  25.463  1.00  0.00     0.135 A 
ATOM     52  C   UNL A   1      43.130  22.429  27.830  1.00  0.00     0.135 A 
ATOM     53  F   UNL A   1      43.784  23.430  24.395  1.00  0.00    -0.206 F 
ATOM     54  C   UNL A   1      43.084  21.361  25.259  1.00  0.00     0.059 A 
ATOM     55  C   UNL A   1      42.785  21.095  27.656  1.00  0.00     0.059 A 
ATOM     56  F   UNL A   1      43.160  22.916  29.080  1.00  0.00    -0.206 F 
ATOM     57  C   UNL A   1      42.752  20.572  26.363  1.00  0.00     0.060 A 
BRANCH  57  58
ATOM     58  S   UNL A   1      42.322  18.838  26.106  1.00  0.00     0.124 S 
ATOM     59  O   UNL A   1      40.917  18.939  25.727  1.00  0.00    -0.237 OA
ATOM     60  O   UNL A   1      43.243  18.444  25.045  1.00  0.00    -0.237 OA
ATOM     61  O   UNL A   1      42.586  18.234  27.409  1.00  0.00    -0.744 OA
ENDBRANCH  57  58
ENDBRANCH  25  50
BRANCH  37  62
ATOM     62  C   UNL A   1      49.565  26.609  26.364  1.00  0.00     0.058 A 
ATOM     63  C   UNL A   1      50.087  26.763  25.070  1.00  0.00     0.135 A 
ATOM     64  C   UNL A   1      50.373  25.999  27.335  1.00  0.00     0.135 A 
ATOM     65  F   UNL A   1      49.348  27.333  24.105  1.00  0.00    -0.206 F 
ATOM     66  C   UNL A   1      51.352  26.290  24.739  1.00  0.00     0.059 A 
ATOM     67  C   UNL A   1      51.650  25.540  27.031  1.00  0.00     0.059 A 
ATOM     68  F   UNL A   1      49.921  25.838  28.588  1.00  0.00    -0.206 F 
ATOM     69  C   UNL A   1      52.123  25.672  25.726  1.00  0.00     0.060 A 
BRANCH  69  70
ATOM     70  S   UNL A   1      53.761  25.054  25.286  1.00  0.00     0.124 S 
ATOM     71  O   UNL A   1      53.565  23.612  25.389  1.00  0.00    -0.237 OA
ATOM     72  O   UNL A   1      53.941  25.573  23.933  1.00  0.00    -0.237 OA
ATOM     73  O   UNL A   1      54.629  25.647  26.299  1.00  0.00    -0.744 OA
ENDBRANCH  69  70
ENDBRANCH  37  62
ENDBRANCH  11  12
ENDBRANCH   4   6
ENDBRANCH   1   2
BRANCH   1  74
ATOM     74  C   UNL A   1      34.344  30.987  27.496  1.00  0.00     0.042 C 
BRANCH  74  75
ATOM     75  C   UNL A   1      34.315  29.578  26.935  1.00  0.00     0.118 C 
BRANCH  75  76
ATOM     76  N   UNL A   1      33.273  28.761  27.547  1.00  0.00    -0.352 N 
ATOM     77  C   UNL A   1      32.104  28.270  27.028  1.00  0.00     0.251 C 
ATOM     78  H   UNL A   1      33.438  28.522  28.488  1.00  0.00     0.163 HD
ATOM     79  O   UNL A   1      31.262  27.782  27.777  1.00  0.00    -0.269 OA
BRANCH  77  80
ATOM     80  C   UNL A   1      31.862  28.275  25.572  1.00  0.00     0.041 A 
ATOM     81  C   UNL A   1      31.008  29.233  25.021  1.00  0.00     0.022 A 
ATOM     82  C   UNL A   1      32.384  27.267  24.767  1.00  0.00     0.035 A 
ATOM     83  C   UNL A   1      30.697  29.215  23.651  1.00  0.00    -0.013 A 
ATOM     84  C   UNL A   1      32.131  27.252  23.404  1.00  0.00     0.084 A 
ATOM     85  C   UNL A   1      31.283  28.218  22.844  1.00  0.00     0.030 A 
BRANCH  83  86
ATOM     86  C   UNL A   1      29.751  30.189  23.105  1.00  0.00     0.018 A 
ATOM     87  C   UNL A   1      29.201  31.208  23.866  1.00  0.00     0.123 A 
ATOM     88  C   UNL A   1      29.372  30.220  21.773  1.00  0.00     0.123 A 
ATOM     89  N   UNL A   1      28.375  32.164  23.387  1.00  0.00    -0.244 NA
ATOM     90  N   UNL A   1      28.551  31.146  21.232  1.00  0.00    -0.244 NA
ATOM     91  C   UNL A   1      28.093  32.080  22.078  1.00  0.00     0.221 A 
ENDBRANCH  83  86
BRANCH  84  92
ATOM     92  S   UNL A   1      32.847  26.010  22.345  1.00  0.00     0.243 S 
ATOM     93  O   UNL A   1      31.805  25.648  21.403  1.00  0.00    -0.207 OA
ATOM     94  O   UNL A   1      34.118  26.538  21.911  1.00  0.00    -0.207 OA
BRANCH  92  95
ATOM     95  N   UNL A   1      33.147  24.657  23.297  1.00  0.00    -0.198 NA
ATOM     96  C   UNL A   1      34.497  24.343  23.781  1.00  0.00     0.102 C 
ATOM     97  C   UNL A   1      32.324  23.440  23.188  1.00  0.00     0.102 C 
ATOM     98  C   UNL A   1      34.649  22.847  23.547  1.00  0.00     0.018 C 
ATOM     99  C   UNL A   1      33.233  22.307  23.661  1.00  0.00     0.018 C 
ENDBRANCH  92  95
ENDBRANCH  84  92
ENDBRANCH  77  80
ENDBRANCH  75  76
ENDBRANCH  74  75
ENDBRANCH   1  74
TORSDOF 16
ENDMDL
MODEL 2
REMARK VINA RESULT:     -12.6      2.863      9.459
REMARK SMILES O=C(NCCCNC(=O)c1cc(-c2cncnc2)cc(S(=O)(=O)N2CCCC2)c1)c1ccc(-c2c3nc(c(-c4c(F)cc(S(=O)(=O)[O-])cc4F)c4ccc([nH]4)c(-c4c(F)cc(S(=O)(=O)[O-])cc4F)c4nc(c(-c5c(F)cc(S(=O)(=O)[O-])cc5F)c5ccc2[nH]5)C=C4)C=C3)cc1
REMARK SMILES IDX 4 1 3 2 1 3 2 4 30 6 31 7 95 8 32 9 94 10 33 11 34 12 35 13
REMARK SMILES IDX 88 14 36 15 93 16 87 17 89 18 37 19 92 20 86 21 85 22 38 24
REMARK SMILES IDX 72 25 51 26 71 27 52 28 55 29 70 30 90 31 53 32 54 33 69 35
REMARK SMILES IDX 91 36 56 37 39 38 40 39 49 40 41 41 42 42 48 43 50 44 43 45
REMARK SMILES IDX 44 46 45 47 46 48 47 49 73 50 74 51 83 52 75 53 76 54 82 55
REMARK SMILES IDX 84 56 77 57 78 58 79 59 80 60 81 61 57 62 58 63 67 64 59 65
REMARK SMILES IDX 60 66 66 67 68 68 61 69 62 70 63 71 64 72 65 73 5 74 6 75
REMARK SMILES IDX 7 76 8 77 9 79 10 80 11 81 29 82 12 83 20 84 19 85 13 86
REMARK SMILES IDX 14 87 18 88 15 89 17 90 16 91 21 92 22 93 23 94 24 95 25 96
REMARK SMILES IDX 28 97 26 98 27 99
REMARK H PARENT 3 5 89 23 55 34 7 78
REMARK Flexibility Score: inf
ROOT
ATOM      1  C   UNL A   1      34.139  28.251  26.879  1.00  0.00     0.118 C 
ENDROOT
BRANCH   1   2
ATOM      2  N   UNL A   1      34.049  29.599  27.434  1.00  0.00    -0.352 N 
ATOM      3  O   UNL A   1      34.615  31.392  28.670  1.00  0.00    -0.269 OA
ATOM      4  C   UNL A   1      34.971  30.346  28.136  1.00  0.00     0.251 C 
ATOM      5  H   UNL A   1      33.187  30.049  27.281  1.00  0.00     0.163 HD
BRANCH   4   6
ATOM      6  C   UNL A   1      36.365  29.871  28.275  1.00  0.00     0.039 A 
ATOM      7  C   UNL A   1      36.795  29.306  29.471  1.00  0.00     0.014 A 
ATOM      8  C   UNL A   1      37.262  29.991  27.209  1.00  0.00     0.014 A 
ATOM      9  C   UNL A   1      38.147  29.108  29.691  1.00  0.00     0.010 A 
ATOM     10  C   UNL A   1      38.606  29.628  27.381  1.00  0.00     0.010 A 
ATOM     11  C   UNL A   1      39.072  29.228  28.641  1.00  0.00    -0.014 A 
BRANCH  11  12
ATOM     12  C   UNL A   1      40.486  28.856  28.919  1.00  0.00     0.031 A 
ATOM     13  C   UNL A   1      41.051  27.520  28.516  1.00  0.00     0.074 A 
ATOM     14  C   UNL A   1      41.292  29.800  29.451  1.00  0.00     0.049 A 
ATOM     15  N   UNL A   1      42.288  27.098  28.598  1.00  0.00    -0.248 NA
ATOM     16  C   UNL A   1      40.118  26.526  27.963  1.00  0.00     0.031 C 
ATOM     17  C   UNL A   1      40.847  31.122  29.911  1.00  0.00     0.029 A 
ATOM     18  N   UNL A   1      42.649  29.832  29.638  1.00  0.00    -0.354 N 
ATOM     19  C   UNL A   1      42.281  25.789  28.131  1.00  0.00     0.074 A 
ATOM     20  C   UNL A   1      40.911  25.475  27.787  1.00  0.00     0.031 C 
ATOM     21  C   UNL A   1      41.915  31.864  30.225  1.00  0.00     0.029 A 
ATOM     22  C   UNL A   1      43.113  31.049  30.080  1.00  0.00     0.049 A 
ATOM     23  H   UNL A   1      43.235  29.058  29.473  1.00  0.00     0.167 HD
ATOM     24  C   UNL A   1      43.323  24.933  27.997  1.00  0.00     0.037 A 
ATOM     25  C   UNL A   1      44.363  31.468  30.351  1.00  0.00     0.037 A 
ATOM     26  C   UNL A   1      44.688  25.264  28.324  1.00  0.00     0.049 A 
ATOM     27  C   UNL A   1      45.500  30.510  30.159  1.00  0.00     0.074 A 
ATOM     28  C   UNL A   1      45.815  24.464  28.230  1.00  0.00     0.029 A 
ATOM     29  N   UNL A   1      45.115  26.496  28.796  1.00  0.00    -0.354 N 
ATOM     30  N   UNL A   1      45.464  29.271  29.728  1.00  0.00    -0.248 NA
ATOM     31  C   UNL A   1      46.841  30.997  30.500  1.00  0.00     0.031 C 
ATOM     32  C   UNL A   1      46.918  25.205  28.671  1.00  0.00     0.029 A 
ATOM     33  C   UNL A   1      46.486  26.479  29.002  1.00  0.00     0.049 A 
ATOM     34  H   UNL A   1      44.530  27.271  28.960  1.00  0.00     0.167 HD
ATOM     35  C   UNL A   1      46.777  28.825  29.760  1.00  0.00     0.074 A 
ATOM     36  C   UNL A   1      47.587  29.941  30.208  1.00  0.00     0.031 C 
ATOM     37  C   UNL A   1      47.268  27.597  29.463  1.00  0.00     0.037 A 
BRANCH  24  38
ATOM     38  C   UNL A   1      43.033  23.549  27.482  1.00  0.00     0.058 A 
ATOM     39  C   UNL A   1      43.187  23.218  26.126  1.00  0.00     0.135 A 
ATOM     40  C   UNL A   1      42.655  22.524  28.366  1.00  0.00     0.135 A 
ATOM     41  F   UNL A   1      43.529  24.163  25.237  1.00  0.00    -0.206 F 
ATOM     42  C   UNL A   1      42.961  21.926  25.662  1.00  0.00     0.059 A 
ATOM     43  C   UNL A   1      42.445  21.219  27.926  1.00  0.00     0.059 A 
ATOM     44  F   UNL A   1      42.493  22.783  29.672  1.00  0.00    -0.206 F 
ATOM     45  C   UNL A   1      42.591  20.932  26.570  1.00  0.00     0.060 A 
BRANCH  45  46
ATOM     46  S   UNL A   1      42.319  19.256  25.954  1.00  0.00     0.124 S 
ATOM     47  O   UNL A   1      42.817  18.454  27.067  1.00  0.00    -0.237 OA
ATOM     48  O   UNL A   1      40.874  19.228  25.750  1.00  0.00    -0.237 OA
ATOM     49  O   UNL A   1      43.122  19.206  24.736  1.00  0.00    -0.744 OA
ENDBRANCH  45  46
ENDBRANCH  24  38
BRANCH  25  50
ATOM     50  C   UNL A   1      44.585  32.846  30.861  1.00  0.00     0.058 A 
ATOM     51  C   UNL A   1      44.623  33.121  32.236  1.00  0.00     0.135 A 
ATOM     52  C   UNL A   1      44.797  33.914  29.974  1.00  0.00     0.135 A 
ATOM     53  F   UNL A   1      44.424  32.136  33.124  1.00  0.00    -0.206 F 
ATOM     54  C   UNL A   1      44.851  34.408  32.713  1.00  0.00     0.059 A 
ATOM     55  C   UNL A   1      45.058  35.201  30.426  1.00  0.00     0.059 A 
ATOM     56  F   UNL A   1      44.792  33.698  28.649  1.00  0.00    -0.206 F 
ATOM     57  C   UNL A   1      45.071  35.441  31.799  1.00  0.00     0.060 A 
BRANCH  57  58
ATOM     58  S   UNL A   1      45.422  37.100  32.418  1.00  0.00     0.124 S 
ATOM     59  O   UNL A   1      46.262  36.809  33.573  1.00  0.00    -0.237 OA
ATOM     60  O   UNL A   1      46.092  37.721  31.279  1.00  0.00    -0.237 OA
ATOM     61  O   UNL A   1      44.094  37.631  32.717  1.00  0.00    -0.744 OA
ENDBRANCH  57  58
ENDBRANCH  25  50
BRANCH  37  62
ATOM     62  C   UNL A   1      48.749  27.411  29.622  1.00  0.00     0.058 A 
ATOM     63  C   UNL A   1      49.299  26.929  30.822  1.00  0.00     0.135 A 
ATOM     64  C   UNL A   1      49.626  27.721  28.572  1.00  0.00     0.135 A 
ATOM     65  F   UNL A   1      48.500  26.627  31.858  1.00  0.00    -0.206 F 
ATOM     66  C   UNL A   1      50.672  26.798  30.987  1.00  0.00     0.059 A 
ATOM     67  C   UNL A   1      51.001  27.575  28.708  1.00  0.00     0.059 A 
ATOM     68  F   UNL A   1      49.147  28.176  27.404  1.00  0.00    -0.206 F 
ATOM     69  C   UNL A   1      51.517  27.132  29.926  1.00  0.00     0.060 A 
BRANCH  69  70
ATOM     70  S   UNL A   1      53.300  26.967  30.153  1.00  0.00     0.124 S 
ATOM     71  O   UNL A   1      53.703  28.360  30.317  1.00  0.00    -0.237 OA
ATOM     72  O   UNL A   1      53.391  26.136  31.350  1.00  0.00    -0.237 OA
ATOM     73  O   UNL A   1      53.739  26.326  28.917  1.00  0.00    -0.744 OA
ENDBRANCH  69  70
ENDBRANCH  37  62
ENDBRANCH  11  12
ENDBRANCH   4   6
ENDBRANCH   1   2
BRANCH   1  74
ATOM     74  C   UNL A   1      33.563  28.147  25.477  1.00  0.00     0.042 C 
BRANCH  74  75
ATOM     75  C   UNL A   1      33.183  26.729  25.095  1.00  0.00     0.118 C 
BRANCH  75  76
ATOM     76  N   UNL A   1      33.141  26.539  23.650  1.00  0.00    -0.352 N 
ATOM     77  C   UNL A   1      33.594  25.506  22.872  1.00  0.00     0.251 C 
ATOM     78  H   UNL A   1      32.716  27.274  23.151  1.00  0.00     0.163 HD
ATOM     79  O   UNL A   1      33.653  25.640  21.654  1.00  0.00    -0.269 OA
BRANCH  77  80
ATOM     80  C   UNL A   1      33.968  24.211  23.477  1.00  0.00     0.041 A 
ATOM     81  C   UNL A   1      35.204  24.082  24.112  1.00  0.00     0.022 A 
ATOM     82  C   UNL A   1      33.150  23.097  23.317  1.00  0.00     0.035 A 
ATOM     83  C   UNL A   1      35.620  22.842  24.628  1.00  0.00    -0.013 A 
ATOM     84  C   UNL A   1      33.515  21.873  23.856  1.00  0.00     0.084 A 
ATOM     85  C   UNL A   1      34.751  21.740  24.504  1.00  0.00     0.030 A 
BRANCH  83  86
ATOM     86  C   UNL A   1      36.946  22.713  25.234  1.00  0.00     0.018 A 
ATOM     87  C   UNL A   1      37.521  23.713  26.002  1.00  0.00     0.123 A 
ATOM     88  C   UNL A   1      37.713  21.563  25.150  1.00  0.00     0.123 A 
ATOM     89  N   UNL A   1      38.712  23.610  26.630  1.00  0.00    -0.244 NA
ATOM     90  N   UNL A   1      38.911  21.396  25.753  1.00  0.00    -0.244 NA
ATOM     91  C   UNL A   1      39.349  22.440  26.471  1.00  0.00     0.221 A 
ENDBRANCH  83  86
BRANCH  84  92
ATOM     92  S   UNL A   1      32.450  20.450  23.721  1.00  0.00     0.243 S 
ATOM     93  O   UNL A   1      31.777  20.338  25.002  1.00  0.00    -0.207 OA
ATOM     94  O   UNL A   1      31.720  20.611  22.487  1.00  0.00    -0.207 OA
BRANCH  92  95
ATOM     95  N   UNL A   1      33.441  19.101  23.563  1.00  0.00    -0.198 NA
ATOM     96  C   UNL A   1      33.040  17.944  22.752  1.00  0.00     0.102 C 
ATOM     97  C   UNL A   1      34.378  18.704  24.628  1.00  0.00     0.102 C 
ATOM     98  C   UNL A   1      33.395  16.736  23.606  1.00  0.00     0.018 C 
ATOM     99  C   UNL A   1      34.580  17.202  24.437  1.00  0.00     0.018 C 
ENDBRANCH  92  95
ENDBRANCH  84  92
ENDBRANCH  77  80
ENDBRANCH  75  76
ENDBRANCH  74  75
ENDBRANCH   1  74
TORSDOF 16
ENDMDL
MODEL 3
REMARK VINA RESULT:     -12.5      5.281      7.502
REMARK SMILES O=C(NCCCNC(=O)c1cc(-c2cncnc2)cc(S(=O)(=O)N2CCCC2)c1)c1ccc(-c2c3nc(c(-c4c(F)cc(S(=O)(=O)[O-])cc4F)c4ccc([nH]4)c(-c4c(F)cc(S(=O)(=O)[O-])cc4F)c4nc(c(-c5c(F)cc(S(=O)(=O)[O-])cc5F)c5ccc2[nH]5)C=C4)C=C3)cc1
REMARK SMILES IDX 4 1 3 2 1 3 2 4 30 6 31 7 95 8 32 9 94 10 33 11 34 12 35 13
REMARK SMILES IDX 88 14 36 15 93 16 87 17 89 18 37 19 92 20 86 21 85 22 38 24
REMARK SMILES IDX 72 25 51 26 71 27 52 28 55 29 70 30 90 31 53 32 54 33 69 35
REMARK SMILES IDX 91 36 56 37 39 38 40 39 49 40 41 41 42 42 48 43 50 44 43 45
REMARK SMILES IDX 44 46 45 47 46 48 47 49 73 50 74 51 83 52 75 53 76 54 82 55
REMARK SMILES IDX 84 56 77 57 78 58 79 59 80 60 81 61 57 62 58 63 67 64 59 65
REMARK SMILES IDX 60 66 66 67 68 68 61 69 62 70 63 71 64 72 65 73 5 74 6 75
REMARK SMILES IDX 7 76 8 77 9 79 10 80 11 81 29 82 12 83 20 84 19 85 13 86
REMARK SMILES IDX 14 87 18 88 15 89 17 90 16 91 21 92 22 93 23 94 24 95 25 96
REMARK SMILES IDX 28 97 26 98 27 99
REMARK H PARENT 3 5 89 23 55 34 7 78
REMARK Flexibility Score: inf
ROOT
ATOM      1  C   UNL A   1      34.226  28.254  25.476  1.00  0.00     0.118 C 
ENDROOT
BRANCH   1   2
ATOM      2  N   UNL A   1      33.737  29.483  26.096  1.00  0.00    -0.352 N 
ATOM      3  O   UNL A   1      33.559  31.125  27.624  1.00  0.00    -0.269 OA
ATOM      4  C   UNL A   1      34.238  30.220  27.147  1.00  0.00     0.251 C 
ATOM      5  H   UNL A   1      32.914  29.846  25.695  1.00  0.00     0.163 HD
BRANCH   4   6
ATOM      6  C   UNL A   1      35.565  29.899  27.719  1.00  0.00     0.039 A 
ATOM      7  C   UNL A   1      35.664  29.384  29.007  1.00  0.00     0.014 A 
ATOM      8  C   UNL A   1      36.727  30.116  26.972  1.00  0.00     0.014 A 
ATOM      9  C   UNL A   1      36.897  29.333  29.634  1.00  0.00     0.010 A 
ATOM     10  C   UNL A   1      37.984  29.901  27.557  1.00  0.00     0.010 A 
ATOM     11  C   UNL A   1      38.081  29.553  28.911  1.00  0.00    -0.014 A 
BRANCH  11  12
ATOM     12  C   UNL A   1      39.373  29.336  29.618  1.00  0.00     0.031 A 
ATOM     13  C   UNL A   1      39.702  30.038  30.909  1.00  0.00     0.074 A 
ATOM     14  C   UNL A   1      40.210  28.399  29.125  1.00  0.00     0.049 A 
ATOM     15  N   UNL A   1      40.739  29.869  31.689  1.00  0.00    -0.248 NA
ATOM     16  C   UNL A   1      38.761  31.064  31.384  1.00  0.00     0.031 C 
ATOM     17  C   UNL A   1      40.011  27.677  27.861  1.00  0.00     0.029 A 
ATOM     18  N   UNL A   1      41.352  27.843  29.639  1.00  0.00    -0.354 N 
ATOM     19  C   UNL A   1      40.591  30.777  32.731  1.00  0.00     0.074 A 
ATOM     20  C   UNL A   1      39.372  31.514  32.473  1.00  0.00     0.031 C 
ATOM     21  C   UNL A   1      40.930  26.711  27.753  1.00  0.00     0.029 A 
ATOM     22  C   UNL A   1      41.840  26.799  28.888  1.00  0.00     0.049 A 
ATOM     23  H   UNL A   1      41.781  28.160  30.466  1.00  0.00     0.167 HD
ATOM     24  C   UNL A   1      41.395  30.972  33.805  1.00  0.00     0.037 A 
ATOM     25  C   UNL A   1      42.908  26.003  29.077  1.00  0.00     0.037 A 
ATOM     26  C   UNL A   1      42.596  30.217  34.062  1.00  0.00     0.049 A 
ATOM     27  C   UNL A   1      43.758  26.218  30.293  1.00  0.00     0.074 A 
ATOM     28  C   UNL A   1      43.483  30.342  35.118  1.00  0.00     0.029 A 
ATOM     29  N   UNL A   1      43.074  29.188  33.264  1.00  0.00    -0.354 N 
ATOM     30  N   UNL A   1      43.603  27.095  31.257  1.00  0.00    -0.248 NA
ATOM     31  C   UNL A   1      44.932  25.351  30.442  1.00  0.00     0.031 C 
ATOM     32  C   UNL A   1      44.511  29.409  34.943  1.00  0.00     0.029 A 
ATOM     33  C   UNL A   1      44.244  28.673  33.800  1.00  0.00     0.049 A 
ATOM     34  H   UNL A   1      42.645  28.869  32.437  1.00  0.00     0.167 HD
ATOM     35  C   UNL A   1      44.669  26.894  32.121  1.00  0.00     0.074 A 
ATOM     36  C   UNL A   1      45.435  25.783  31.589  1.00  0.00     0.031 C 
ATOM     37  C   UNL A   1      44.997  27.578  33.245  1.00  0.00     0.037 A 
BRANCH  24  38
ATOM     38  C   UNL A   1      41.012  32.049  34.783  1.00  0.00     0.058 A 
ATOM     39  C   UNL A   1      40.204  31.779  35.899  1.00  0.00     0.135 A 
ATOM     40  C   UNL A   1      41.507  33.356  34.636  1.00  0.00     0.135 A 
ATOM     41  F   UNL A   1      39.690  30.553  36.079  1.00  0.00    -0.206 F 
ATOM     42  C   UNL A   1      39.889  32.768  36.826  1.00  0.00     0.059 A 
ATOM     43  C   UNL A   1      41.222  34.355  35.563  1.00  0.00     0.059 A 
ATOM     44  F   UNL A   1      42.283  33.671  33.588  1.00  0.00    -0.206 F 
ATOM     45  C   UNL A   1      40.403  34.054  36.650  1.00  0.00     0.060 A 
BRANCH  45  46
ATOM     46  S   UNL A   1      39.999  35.322  37.872  1.00  0.00     0.124 S 
ATOM     47  O   UNL A   1      38.751  34.806  38.423  1.00  0.00    -0.237 OA
ATOM     48  O   UNL A   1      41.153  35.275  38.764  1.00  0.00    -0.237 OA
ATOM     49  O   UNL A   1      39.879  36.537  37.073  1.00  0.00    -0.744 OA
ENDBRANCH  45  46
ENDBRANCH  24  38
BRANCH  25  50
ATOM     50  C   UNL A   1      43.237  24.959  28.073  1.00  0.00     0.058 A 
ATOM     51  C   UNL A   1      44.083  25.228  26.987  1.00  0.00     0.135 A 
ATOM     52  C   UNL A   1      42.734  23.654  28.202  1.00  0.00     0.135 A 
ATOM     53  F   UNL A   1      44.589  26.459  26.818  1.00  0.00    -0.206 F 
ATOM     54  C   UNL A   1      44.408  24.244  26.057  1.00  0.00     0.059 A 
ATOM     55  C   UNL A   1      43.068  22.647  27.305  1.00  0.00     0.059 A 
ATOM     56  F   UNL A   1      41.937  23.340  29.236  1.00  0.00    -0.206 F 
ATOM     57  C   UNL A   1      43.898  22.956  26.227  1.00  0.00     0.060 A 
BRANCH  57  58
ATOM     58  S   UNL A   1      44.363  21.665  25.054  1.00  0.00     0.124 S 
ATOM     59  O   UNL A   1      43.387  20.627  25.359  1.00  0.00    -0.237 OA
ATOM     60  O   UNL A   1      44.199  22.339  23.769  1.00  0.00    -0.237 OA
ATOM     61  O   UNL A   1      45.745  21.366  25.422  1.00  0.00    -0.744 OA
ENDBRANCH  57  58
ENDBRANCH  25  50
BRANCH  37  62
ATOM     62  C   UNL A   1      46.241  27.135  33.960  1.00  0.00     0.058 A 
ATOM     63  C   UNL A   1      46.194  26.153  34.963  1.00  0.00     0.135 A 
ATOM     64  C   UNL A   1      47.486  27.698  33.644  1.00  0.00     0.135 A 
ATOM     65  F   UNL A   1      45.024  25.591  35.306  1.00  0.00    -0.206 F 
ATOM     66  C   UNL A   1      47.337  25.774  35.657  1.00  0.00     0.059 A 
ATOM     67  C   UNL A   1      48.645  27.316  34.310  1.00  0.00     0.059 A 
ATOM     68  F   UNL A   1      47.582  28.634  32.687  1.00  0.00    -0.206 F 
ATOM     69  C   UNL A   1      48.558  26.367  35.328  1.00  0.00     0.060 A 
BRANCH  69  70
ATOM     70  S   UNL A   1      50.035  25.875  36.241  1.00  0.00     0.124 S 
ATOM     71  O   UNL A   1      51.091  26.469  35.429  1.00  0.00    -0.237 OA
ATOM     72  O   UNL A   1      49.818  26.490  37.548  1.00  0.00    -0.237 OA
ATOM     73  O   UNL A   1      49.971  24.417  36.223  1.00  0.00    -0.744 OA
ENDBRANCH  69  70
ENDBRANCH  37  62
ENDBRANCH  11  12
ENDBRANCH   4   6
ENDBRANCH   1   2
BRANCH   1  74
ATOM     74  C   UNL A   1      33.621  27.001  26.084  1.00  0.00     0.042 C 
BRANCH  74  75
ATOM     75  C   UNL A   1      32.524  26.396  25.228  1.00  0.00     0.118 C 
BRANCH  75  76
ATOM     76  N   UNL A   1      32.900  26.319  23.821  1.00  0.00    -0.352 N 
ATOM     77  C   UNL A   1      33.673  25.406  23.153  1.00  0.00     0.251 C 
ATOM     78  H   UNL A   1      32.537  27.041  23.259  1.00  0.00     0.163 HD
ATOM     79  O   UNL A   1      34.043  25.643  22.007  1.00  0.00    -0.269 OA
BRANCH  77  80
ATOM     80  C   UNL A   1      34.030  24.116  23.776  1.00  0.00     0.041 A 
ATOM     81  C   UNL A   1      35.285  23.963  24.369  1.00  0.00     0.022 A 
ATOM     82  C   UNL A   1      33.174  23.024  23.675  1.00  0.00     0.035 A 
ATOM     83  C   UNL A   1      35.682  22.724  24.900  1.00  0.00    -0.013 A 
ATOM     84  C   UNL A   1      33.520  21.803  24.231  1.00  0.00     0.084 A 
ATOM     85  C   UNL A   1      34.775  21.647  24.837  1.00  0.00     0.030 A 
BRANCH  83  86
ATOM     86  C   UNL A   1      37.025  22.568  25.460  1.00  0.00     0.018 A 
ATOM     87  C   UNL A   1      37.764  21.404  25.325  1.00  0.00     0.123 A 
ATOM     88  C   UNL A   1      37.700  23.586  26.115  1.00  0.00     0.123 A 
ATOM     89  N   UNL A   1      39.029  21.242  25.771  1.00  0.00    -0.244 NA
ATOM     90  N   UNL A   1      38.964  23.487  26.584  1.00  0.00    -0.244 NA
ATOM     91  C   UNL A   1      39.567  22.308  26.382  1.00  0.00     0.221 A 
ENDBRANCH  83  86
BRANCH  84  92
ATOM     92  S   UNL A   1      32.409  20.411  24.173  1.00  0.00     0.243 S 
ATOM     93  O   UNL A   1      31.384  20.683  25.164  1.00  0.00    -0.207 OA
ATOM     94  O   UNL A   1      32.089  20.212  22.780  1.00  0.00    -0.207 OA
BRANCH  92  95
ATOM     95  N   UNL A   1      33.267  19.067  24.703  1.00  0.00    -0.198 NA
ATOM     96  C   UNL A   1      34.052  18.242  23.776  1.00  0.00     0.102 C 
ATOM     97  C   UNL A   1      32.826  18.283  25.870  1.00  0.00     0.102 C 
ATOM     98  C   UNL A   1      33.719  16.808  24.163  1.00  0.00     0.018 C 
ATOM     99  C   UNL A   1      33.405  16.886  25.648  1.00  0.00     0.018 C 
ENDBRANCH  92  95
ENDBRANCH  84  92
ENDBRANCH  77  80
ENDBRANCH  75  76
ENDBRANCH  74  75
ENDBRANCH   1  74
TORSDOF 16
ENDMDL
