MODEL 1
REMARK VINA RESULT:     -12.8      0.000      0.000
REMARK SMILES Cc1cc2c(c(C)c1Cl)C=C(C(=O)NCCCNC(=O)c1ccc(-c3c4nc(c(-c5c(F)cc(S(=O)(=O)[O-])cc5F)c5ccc([nH]5)c(-c5c(F)cc(S(=O)(=O)[O-])cc5F)c5nc(c(-c6c(F)cc(S(=O)(=O)[O-])cc6F)c6ccc3[nH]6)C=C5)C=C4)cc1)[C@H](C(F)(F)F)O2
REMARK SMILES IDX 17 1 16 2 15 3 14 4 12 5 13 6 11 8 1 9 2 10 3 11 8 12 4 13
REMARK SMILES IDX 6 14 9 15 5 16 92 17 7 18 10 19 87 20 88 21 89 22 90 23
REMARK SMILES IDX 91 24 18 25 19 26 20 28 21 29 22 30 86 31 23 32 85 33 24 34
REMARK SMILES IDX 25 35 26 36 79 37 27 38 84 39 78 40 80 41 28 42 83 43 77 44
REMARK SMILES IDX 76 45 29 47 63 48 42 49 62 50 43 51 46 52 61 53 81 54 44 55
REMARK SMILES IDX 45 56 60 58 82 59 47 60 30 61 31 62 40 63 32 64 33 65 39 66
REMARK SMILES IDX 41 67 34 68 35 69 36 70 37 71 38 72 64 73 65 74 74 75 66 76
REMARK SMILES IDX 67 77 73 78 75 79 68 80 69 81 70 82 71 83 72 84 48 85 49 86
REMARK SMILES IDX 58 87 50 88 51 89 57 90 59 91 52 92 53 93 54 94 55 95 56 96
REMARK H PARENT 14 7 18 27 80 46 46 57
REMARK Flexibility Score: inf
ROOT
ATOM      1  C   UNL A   1      35.110  29.653  27.737  1.00  0.00     0.118 C 
ENDROOT
BRANCH   1   2
ATOM      2  C   UNL A   1      33.890  30.093  26.929  1.00  0.00     0.042 C 
BRANCH   2   3
ATOM      3  C   UNL A   1      33.295  28.964  26.092  1.00  0.00     0.118 C 
BRANCH   3   4
ATOM      4  N   UNL A   1      33.624  29.104  24.682  1.00  0.00    -0.352 N 
ATOM      5  C   UNL A   1      33.535  28.349  23.564  1.00  0.00     0.251 C 
ATOM      6  O   UNL A   1      33.865  28.921  22.520  1.00  0.00    -0.270 OA
ATOM      7  H   UNL A   1      34.017  29.986  24.491  1.00  0.00     0.163 HD
BRANCH   5   8
ATOM      8  C   UNL A   1      33.080  26.930  23.511  1.00  0.00     0.067 C 
ATOM      9  C   UNL A   1      32.393  20.461  23.782  1.00  0.00     0.046 C 
ATOM     10  C   UNL A   1      32.850  21.891  23.894  1.00  0.00    -0.028 A 
ATOM     11  C   UNL A   1      32.049  22.884  23.320  1.00  0.00     0.052 A 
ATOM     12  C   UNL A   1      34.067  22.263  24.499  1.00  0.00     0.047 A 
ATOM     13  C   UNL A   1      32.431  24.220  23.369  1.00  0.00     0.128 A 
ATOM     14  C   UNL A   1      34.467  23.622  24.560  1.00  0.00    -0.021 A 
ATOM     15  Cl  UNL A   1      35.090  21.013  25.144  1.00  0.00    -0.084 Cl
ATOM     16  C   UNL A   1      33.635  24.603  23.969  1.00  0.00     0.022 A 
ATOM     17  O   UNL A   1      31.582  25.100  22.757  1.00  0.00    -0.475 OA
ATOM     18  C   UNL A   1      35.753  24.045  25.232  1.00  0.00     0.047 C 
ATOM     19  C   UNL A   1      33.993  26.023  23.905  1.00  0.00     0.026 C 
ATOM     20  C   UNL A   1      31.688  26.491  23.161  1.00  0.00     0.314 C 
BRANCH  20  21
ATOM     21  C   UNL A   1      30.646  26.817  24.243  1.00  0.00     0.429 C 
ATOM     22  F   UNL A   1      29.500  26.120  24.091  1.00  0.00    -0.167 F 
ATOM     23  F   UNL A   1      31.102  26.566  25.491  1.00  0.00    -0.167 F 
ATOM     24  F   UNL A   1      30.330  28.137  24.200  1.00  0.00    -0.167 F 
ENDBRANCH  20  21
ENDBRANCH   5   8
ENDBRANCH   3   4
ENDBRANCH   2   3
ENDBRANCH   1   2
BRANCH   1  25
ATOM     25  N   UNL A   1      35.182  30.346  29.015  1.00  0.00    -0.352 N 
ATOM     26  C   UNL A   1      36.196  30.383  29.940  1.00  0.00     0.251 C 
ATOM     27  H   UNL A   1      34.382  30.869  29.253  1.00  0.00     0.163 HD
ATOM     28  O   UNL A   1      35.951  30.774  31.081  1.00  0.00    -0.269 OA
BRANCH  26  29
ATOM     29  C   UNL A   1      37.567  29.961  29.580  1.00  0.00     0.039 A 
ATOM     30  C   UNL A   1      38.428  29.515  30.587  1.00  0.00     0.014 A 
ATOM     31  C   UNL A   1      38.029  30.065  28.265  1.00  0.00     0.014 A 
ATOM     32  C   UNL A   1      39.734  29.135  30.268  1.00  0.00     0.010 A 
ATOM     33  C   UNL A   1      39.304  29.614  27.936  1.00  0.00     0.010 A 
ATOM     34  C   UNL A   1      40.177  29.161  28.936  1.00  0.00    -0.014 A 
BRANCH  34  35
ATOM     35  C   UNL A   1      41.562  28.765  28.575  1.00  0.00     0.031 A 
ATOM     36  C   UNL A   1      42.663  29.791  28.589  1.00  0.00     0.074 A 
ATOM     37  C   UNL A   1      41.819  27.498  28.195  1.00  0.00     0.049 A 
ATOM     38  N   UNL A   1      43.919  29.661  28.246  1.00  0.00    -0.248 NA
ATOM     39  C   UNL A   1      42.299  31.151  29.021  1.00  0.00     0.031 C 
ATOM     40  C   UNL A   1      40.830  26.423  28.109  1.00  0.00     0.029 A 
ATOM     41  N   UNL A   1      42.991  26.901  27.805  1.00  0.00    -0.354 N 
ATOM     42  C   UNL A   1      44.490  30.917  28.413  1.00  0.00     0.074 A 
ATOM     43  C   UNL A   1      43.432  31.811  28.829  1.00  0.00     0.031 C 
ATOM     44  C   UNL A   1      41.442  25.291  27.727  1.00  0.00     0.029 A 
ATOM     45  C   UNL A   1      42.858  25.566  27.503  1.00  0.00     0.049 A 
ATOM     46  H   UNL A   1      43.849  27.383  27.749  1.00  0.00     0.167 HD
ATOM     47  C   UNL A   1      45.784  31.287  28.262  1.00  0.00     0.037 A 
ATOM     48  C   UNL A   1      43.773  24.667  27.092  1.00  0.00     0.037 A 
ATOM     49  C   UNL A   1      46.837  30.386  27.877  1.00  0.00     0.049 A 
ATOM     50  C   UNL A   1      45.201  25.104  26.914  1.00  0.00     0.074 A 
ATOM     51  C   UNL A   1      48.188  30.652  27.738  1.00  0.00     0.029 A 
ATOM     52  N   UNL A   1      46.659  29.045  27.572  1.00  0.00    -0.354 N 
ATOM     53  N   UNL A   1      45.731  26.288  27.113  1.00  0.00    -0.248 NA
ATOM     54  C   UNL A   1      46.157  24.085  26.459  1.00  0.00     0.031 C 
ATOM     55  C   UNL A   1      48.822  29.479  27.315  1.00  0.00     0.029 A 
ATOM     56  C   UNL A   1      47.872  28.472  27.231  1.00  0.00     0.049 A 
ATOM     57  H   UNL A   1      45.797  28.569  27.597  1.00  0.00     0.167 HD
ATOM     58  C   UNL A   1      47.084  26.153  26.822  1.00  0.00     0.074 A 
ATOM     59  C   UNL A   1      47.295  24.769  26.448  1.00  0.00     0.031 C 
ATOM     60  C   UNL A   1      48.062  27.091  26.860  1.00  0.00     0.037 A 
BRANCH  47  61
ATOM     61  C   UNL A   1      46.134  32.725  28.535  1.00  0.00     0.058 A 
ATOM     62  C   UNL A   1      46.106  33.690  27.516  1.00  0.00     0.135 A 
ATOM     63  C   UNL A   1      46.470  33.148  29.830  1.00  0.00     0.135 A 
ATOM     64  F   UNL A   1      45.809  33.335  26.256  1.00  0.00    -0.206 F 
ATOM     65  C   UNL A   1      46.426  35.020  27.766  1.00  0.00     0.059 A 
ATOM     66  C   UNL A   1      46.767  34.481  30.108  1.00  0.00     0.059 A 
ATOM     67  F   UNL A   1      46.512  32.267  30.841  1.00  0.00    -0.206 F 
ATOM     68  C   UNL A   1      46.755  35.406  29.066  1.00  0.00     0.060 A 
BRANCH  68  69
ATOM     69  S   UNL A   1      47.164  37.138  29.370  1.00  0.00     0.124 S 
ATOM     70  O   UNL A   1      47.921  37.474  28.168  1.00  0.00    -0.237 OA
ATOM     71  O   UNL A   1      45.846  37.754  29.481  1.00  0.00    -0.237 OA
ATOM     72  O   UNL A   1      47.940  37.093  30.606  1.00  0.00    -0.744 OA
ENDBRANCH  68  69
ENDBRANCH  47  61
BRANCH  48  73
ATOM     73  C   UNL A   1      43.367  23.256  26.858  1.00  0.00     0.058 A 
ATOM     74  C   UNL A   1      43.292  22.740  25.556  1.00  0.00     0.135 A 
ATOM     75  C   UNL A   1      43.088  22.386  27.924  1.00  0.00     0.135 A 
ATOM     76  F   UNL A   1      43.542  23.535  24.504  1.00  0.00    -0.206 F 
ATOM     77  C   UNL A   1      42.954  21.412  25.317  1.00  0.00     0.059 A 
ATOM     78  C   UNL A   1      42.768  21.048  27.711  1.00  0.00     0.059 A 
ATOM     79  F   UNL A   1      43.160  22.828  29.189  1.00  0.00    -0.206 F 
ATOM     80  C   UNL A   1      42.701  20.572  26.402  1.00  0.00     0.060 A 
BRANCH  80  81
ATOM     81  S   UNL A   1      42.333  18.833  26.079  1.00  0.00     0.124 S 
ATOM     82  O   UNL A   1      43.277  18.525  25.012  1.00  0.00    -0.237 OA
ATOM     83  O   UNL A   1      42.609  18.218  27.374  1.00  0.00    -0.237 OA
ATOM     84  O   UNL A   1      40.925  18.853  25.690  1.00  0.00    -0.744 OA
ENDBRANCH  80  81
ENDBRANCH  48  73
BRANCH  60  85
ATOM     85  C   UNL A   1      49.454  26.657  26.497  1.00  0.00     0.058 A 
ATOM     86  C   UNL A   1      50.296  26.042  27.434  1.00  0.00     0.135 A 
ATOM     87  C   UNL A   1      49.921  26.789  25.178  1.00  0.00     0.135 A 
ATOM     88  F   UNL A   1      49.898  25.898  28.708  1.00  0.00    -0.206 F 
ATOM     89  C   UNL A   1      51.558  25.577  27.081  1.00  0.00     0.059 A 
ATOM     90  C   UNL A   1      51.170  26.310  24.797  1.00  0.00     0.059 A 
ATOM     91  F   UNL A   1      49.150  27.363  24.243  1.00  0.00    -0.206 F 
ATOM     92  C   UNL A   1      51.985  25.712  25.758  1.00  0.00     0.060 A 
BRANCH  92  93
ATOM     93  S   UNL A   1      53.605  25.057  25.303  1.00  0.00     0.124 S 
ATOM     94  O   UNL A   1      54.450  25.606  26.358  1.00  0.00    -0.237 OA
ATOM     95  O   UNL A   1      53.383  23.615  25.354  1.00  0.00    -0.237 OA
ATOM     96  O   UNL A   1      53.831  25.603  23.969  1.00  0.00    -0.744 OA
ENDBRANCH  92  93
ENDBRANCH  60  85
ENDBRANCH  34  35
ENDBRANCH  26  29
ENDBRANCH   1  25
TORSDOF 14
ENDMDL
MODEL 2
REMARK VINA RESULT:     -12.8      2.417      3.242
REMARK SMILES Cc1cc2c(c(C)c1Cl)C=C(C(=O)NCCCNC(=O)c1ccc(-c3c4nc(c(-c5c(F)cc(S(=O)(=O)[O-])cc5F)c5ccc([nH]5)c(-c5c(F)cc(S(=O)(=O)[O-])cc5F)c5nc(c(-c6c(F)cc(S(=O)(=O)[O-])cc6F)c6ccc3[nH]6)C=C5)C=C4)cc1)[C@H](C(F)(F)F)O2
REMARK SMILES IDX 17 1 16 2 15 3 14 4 12 5 13 6 11 8 1 9 2 10 3 11 8 12 4 13
REMARK SMILES IDX 6 14 9 15 5 16 92 17 7 18 10 19 87 20 88 21 89 22 90 23
REMARK SMILES IDX 91 24 18 25 19 26 20 28 21 29 22 30 86 31 23 32 85 33 24 34
REMARK SMILES IDX 25 35 26 36 79 37 27 38 84 39 78 40 80 41 28 42 83 43 77 44
REMARK SMILES IDX 76 45 29 47 63 48 42 49 62 50 43 51 46 52 61 53 81 54 44 55
REMARK SMILES IDX 45 56 60 58 82 59 47 60 30 61 31 62 40 63 32 64 33 65 39 66
REMARK SMILES IDX 41 67 34 68 35 69 36 70 37 71 38 72 64 73 65 74 74 75 66 76
REMARK SMILES IDX 67 77 73 78 75 79 68 80 69 81 70 82 71 83 72 84 48 85 49 86
REMARK SMILES IDX 58 87 50 88 51 89 57 90 59 91 52 92 53 93 54 94 55 95 56 96
REMARK H PARENT 14 7 18 27 80 46 46 57
REMARK Flexibility Score: inf
ROOT
ATOM      1  C   UNL A   1      33.654  28.201  27.251  1.00  0.00     0.118 C 
ENDROOT
BRANCH   1   2
ATOM      2  C   UNL A   1      33.941  27.911  25.779  1.00  0.00     0.042 C 
BRANCH   2   3
ATOM      3  C   UNL A   1      33.183  28.838  24.834  1.00  0.00     0.118 C 
BRANCH   3   4
ATOM      4  N   UNL A   1      33.632  28.693  23.457  1.00  0.00    -0.352 N 
ATOM      5  C   UNL A   1      33.631  27.727  22.511  1.00  0.00     0.251 C 
ATOM      6  O   UNL A   1      34.053  28.079  21.405  1.00  0.00    -0.270 OA
ATOM      7  H   UNL A   1      34.047  29.522  23.125  1.00  0.00     0.163 HD
BRANCH   5   8
ATOM      8  C   UNL A   1      33.169  26.323  22.708  1.00  0.00     0.067 C 
ATOM      9  C   UNL A   1      32.484  19.980  24.007  1.00  0.00     0.046 C 
ATOM     10  C   UNL A   1      32.952  21.404  23.868  1.00  0.00    -0.028 A 
ATOM     11  C   UNL A   1      32.115  22.309  23.209  1.00  0.00     0.052 A 
ATOM     12  C   UNL A   1      34.212  21.846  24.320  1.00  0.00     0.047 A 
ATOM     13  C   UNL A   1      32.503  23.632  23.026  1.00  0.00     0.128 A 
ATOM     14  C   UNL A   1      34.619  23.192  24.146  1.00  0.00    -0.021 A 
ATOM     15  Cl  UNL A   1      35.276  20.694  25.073  1.00  0.00    -0.084 Cl
ATOM     16  C   UNL A   1      33.749  24.085  23.473  1.00  0.00     0.022 A 
ATOM     17  O   UNL A   1      31.615  24.421  22.350  1.00  0.00    -0.475 OA
ATOM     18  C   UNL A   1      35.952  23.694  24.652  1.00  0.00     0.047 C 
ATOM     19  C   UNL A   1      34.105  25.473  23.169  1.00  0.00     0.026 C 
ATOM     20  C   UNL A   1      31.754  25.856  22.529  1.00  0.00     0.314 C 
BRANCH  20  21
ATOM     21  C   UNL A   1      30.795  26.357  23.620  1.00  0.00     0.429 C 
ATOM     22  F   UNL A   1      31.302  26.217  24.865  1.00  0.00    -0.167 F 
ATOM     23  F   UNL A   1      30.473  27.660  23.467  1.00  0.00    -0.167 F 
ATOM     24  F   UNL A   1      29.632  25.658  23.573  1.00  0.00    -0.167 F 
ENDBRANCH  20  21
ENDBRANCH   5   8
ENDBRANCH   3   4
ENDBRANCH   2   3
ENDBRANCH   1   2
BRANCH   1  25
ATOM     25  N   UNL A   1      33.541  29.631  27.502  1.00  0.00    -0.352 N 
ATOM     26  C   UNL A   1      34.416  30.487  28.121  1.00  0.00     0.251 C 
ATOM     27  H   UNL A   1      32.710  30.048  27.176  1.00  0.00     0.163 HD
ATOM     28  O   UNL A   1      34.010  31.587  28.499  1.00  0.00    -0.269 OA
BRANCH  26  29
ATOM     29  C   UNL A   1      35.827  30.105  28.338  1.00  0.00     0.039 A 
ATOM     30  C   UNL A   1      36.231  29.680  29.608  1.00  0.00     0.014 A 
ATOM     31  C   UNL A   1      36.770  30.226  27.313  1.00  0.00     0.014 A 
ATOM     32  C   UNL A   1      37.567  29.338  29.835  1.00  0.00     0.010 A 
ATOM     33  C   UNL A   1      38.083  29.812  27.519  1.00  0.00     0.010 A 
ATOM     34  C   UNL A   1      38.500  29.381  28.787  1.00  0.00    -0.014 A 
BRANCH  34  35
ATOM     35  C   UNL A   1      39.925  29.024  29.007  1.00  0.00     0.031 A 
ATOM     36  C   UNL A   1      40.871  30.042  29.587  1.00  0.00     0.074 A 
ATOM     37  C   UNL A   1      40.375  27.807  28.647  1.00  0.00     0.049 A 
ATOM     38  N   UNL A   1      42.159  29.948  29.796  1.00  0.00    -0.248 NA
ATOM     39  C   UNL A   1      40.298  31.347  29.958  1.00  0.00     0.031 C 
ATOM     40  C   UNL A   1      39.562  26.749  28.045  1.00  0.00     0.029 A 
ATOM     41  N   UNL A   1      41.627  27.254  28.732  1.00  0.00    -0.354 N 
ATOM     42  C   UNL A   1      42.549  31.177  30.313  1.00  0.00     0.074 A 
ATOM     43  C   UNL A   1      41.376  32.022  30.330  1.00  0.00     0.031 C 
ATOM     44  C   UNL A   1      40.329  25.664  27.847  1.00  0.00     0.029 A 
ATOM     45  C   UNL A   1      41.694  25.961  28.270  1.00  0.00     0.049 A 
ATOM     46  H   UNL A   1      42.407  27.738  29.092  1.00  0.00     0.167 HD
ATOM     47  C   UNL A   1      43.769  31.560  30.760  1.00  0.00     0.037 A 
ATOM     48  C   UNL A   1      42.736  25.111  28.197  1.00  0.00     0.037 A 
ATOM     49  C   UNL A   1      44.926  30.706  30.769  1.00  0.00     0.049 A 
ATOM     50  C   UNL A   1      44.086  25.562  28.684  1.00  0.00     0.074 A 
ATOM     51  C   UNL A   1      46.197  30.983  31.241  1.00  0.00     0.029 A 
ATOM     52  N   UNL A   1      44.953  29.406  30.286  1.00  0.00    -0.354 N 
ATOM     53  N   UNL A   1      44.429  26.717  29.205  1.00  0.00    -0.248 NA
ATOM     54  C   UNL A   1      45.189  24.598  28.576  1.00  0.00     0.031 C 
ATOM     55  C   UNL A   1      47.002  29.862  31.011  1.00  0.00     0.029 A 
ATOM     56  C   UNL A   1      46.222  28.872  30.433  1.00  0.00     0.049 A 
ATOM     57  H   UNL A   1      44.183  28.932  29.896  1.00  0.00     0.167 HD
ATOM     58  C   UNL A   1      45.784  26.613  29.501  1.00  0.00     0.074 A 
ATOM     59  C   UNL A   1      46.194  25.278  29.115  1.00  0.00     0.031 C 
ATOM     60  C   UNL A   1      46.612  27.540  30.042  1.00  0.00     0.037 A 
BRANCH  47  61
ATOM     61  C   UNL A   1      43.907  32.959  31.297  1.00  0.00     0.058 A 
ATOM     62  C   UNL A   1      43.683  33.247  32.653  1.00  0.00     0.135 A 
ATOM     63  C   UNL A   1      44.295  34.015  30.459  1.00  0.00     0.135 A 
ATOM     64  F   UNL A   1      43.291  32.278  33.496  1.00  0.00    -0.206 F 
ATOM     65  C   UNL A   1      43.811  34.539  33.153  1.00  0.00     0.059 A 
ATOM     66  C   UNL A   1      44.457  35.311  30.944  1.00  0.00     0.059 A 
ATOM     67  F   UNL A   1      44.521  33.796  29.155  1.00  0.00    -0.206 F 
ATOM     68  C   UNL A   1      44.200  35.564  32.290  1.00  0.00     0.060 A 
BRANCH  68  69
ATOM     69  S   UNL A   1      44.366  37.233  32.959  1.00  0.00     0.124 S 
ATOM     70  O   UNL A   1      43.254  37.279  33.905  1.00  0.00    -0.237 OA
ATOM     71  O   UNL A   1      45.699  37.199  33.551  1.00  0.00    -0.237 OA
ATOM     72  O   UNL A   1      44.224  38.087  31.784  1.00  0.00    -0.744 OA
ENDBRANCH  68  69
ENDBRANCH  47  61
BRANCH  48  73
ATOM     73  C   UNL A   1      42.531  23.735  27.674  1.00  0.00     0.058 A 
ATOM     74  C   UNL A   1      42.571  23.479  26.296  1.00  0.00     0.135 A 
ATOM     75  C   UNL A   1      42.331  22.644  28.536  1.00  0.00     0.135 A 
ATOM     76  F   UNL A   1      42.750  24.490  25.432  1.00  0.00    -0.206 F 
ATOM     77  C   UNL A   1      42.421  22.193  25.788  1.00  0.00     0.059 A 
ATOM     78  C   UNL A   1      42.200  21.345  28.053  1.00  0.00     0.059 A 
ATOM     79  F   UNL A   1      42.299  22.834  29.865  1.00  0.00    -0.206 F 
ATOM     80  C   UNL A   1      42.244  21.131  26.676  1.00  0.00     0.060 A 
BRANCH  80  81
ATOM     81  S   UNL A   1      42.122  19.458  26.006  1.00  0.00     0.124 S 
ATOM     82  O   UNL A   1      40.698  19.360  25.712  1.00  0.00    -0.237 OA
ATOM     83  O   UNL A   1      43.011  19.528  24.849  1.00  0.00    -0.237 OA
ATOM     84  O   UNL A   1      42.600  18.620  27.103  1.00  0.00    -0.744 OA
ENDBRANCH  80  81
ENDBRANCH  48  73
BRANCH  60  85
ATOM     85  C   UNL A   1      48.046  27.147  30.260  1.00  0.00     0.058 A 
ATOM     86  C   UNL A   1      49.030  27.406  29.294  1.00  0.00     0.135 A 
ATOM     87  C   UNL A   1      48.452  26.577  31.478  1.00  0.00     0.135 A 
ATOM     88  F   UNL A   1      48.691  27.944  28.112  1.00  0.00    -0.206 F 
ATOM     89  C   UNL A   1      50.368  27.107  29.524  1.00  0.00     0.059 A 
ATOM     90  C   UNL A   1      49.788  26.291  31.738  1.00  0.00     0.059 A 
ATOM     91  F   UNL A   1      47.549  26.318  32.436  1.00  0.00    -0.206 F 
ATOM     92  C   UNL A   1      50.739  26.554  30.752  1.00  0.00     0.060 A 
BRANCH  92  93
ATOM     93  S   UNL A   1      52.486  26.218  31.055  1.00  0.00     0.124 S 
ATOM     94  O   UNL A   1      52.423  24.946  31.767  1.00  0.00    -0.237 OA
ATOM     95  O   UNL A   1      53.031  26.161  29.703  1.00  0.00    -0.237 OA
ATOM     96  O   UNL A   1      52.920  27.362  31.851  1.00  0.00    -0.744 OA
ENDBRANCH  92  93
ENDBRANCH  60  85
ENDBRANCH  34  35
ENDBRANCH  26  29
ENDBRANCH   1  25
TORSDOF 14
ENDMDL
MODEL 3
REMARK VINA RESULT:     -12.7      6.628     11.929
REMARK SMILES Cc1cc2c(c(C)c1Cl)C=C(C(=O)NCCCNC(=O)c1ccc(-c3c4nc(c(-c5c(F)cc(S(=O)(=O)[O-])cc5F)c5ccc([nH]5)c(-c5c(F)cc(S(=O)(=O)[O-])cc5F)c5nc(c(-c6c(F)cc(S(=O)(=O)[O-])cc6F)c6ccc3[nH]6)C=C5)C=C4)cc1)[C@H](C(F)(F)F)O2
REMARK SMILES IDX 17 1 16 2 15 3 14 4 12 5 13 6 11 8 1 9 2 10 3 11 8 12 4 13
REMARK SMILES IDX 6 14 9 15 5 16 92 17 7 18 10 19 87 20 88 21 89 22 90 23
REMARK SMILES IDX 91 24 18 25 19 26 20 28 21 29 22 30 86 31 23 32 85 33 24 34
REMARK SMILES IDX 25 35 26 36 79 37 27 38 84 39 78 40 80 41 28 42 83 43 77 44
REMARK SMILES IDX 76 45 29 47 63 48 42 49 62 50 43 51 46 52 61 53 81 54 44 55
REMARK SMILES IDX 45 56 60 58 82 59 47 60 30 61 31 62 40 63 32 64 33 65 39 66
REMARK SMILES IDX 41 67 34 68 35 69 36 70 37 71 38 72 64 73 65 74 74 75 66 76
REMARK SMILES IDX 67 77 73 78 75 79 68 80 69 81 70 82 71 83 72 84 48 85 49 86
REMARK SMILES IDX 58 87 50 88 51 89 57 90 59 91 52 92 53 93 54 94 55 95 56 96
REMARK H PARENT 14 7 18 27 80 46 46 57
REMARK Flexibility Score: inf
ROOT
ATOM      1  C   UNL A   1      38.754  23.898  26.471  1.00  0.00     0.118 C 
ENDROOT
BRANCH   1   2
ATOM      2  C   UNL A   1      37.955  22.787  25.792  1.00  0.00     0.042 C 
BRANCH   2   3
ATOM      3  C   UNL A   1      36.484  23.145  25.603  1.00  0.00     0.118 C 
BRANCH   3   4
ATOM      4  N   UNL A   1      35.628  22.430  26.538  1.00  0.00    -0.352 N 
ATOM      5  C   UNL A   1      34.302  22.299  26.766  1.00  0.00     0.251 C 
ATOM      6  O   UNL A   1      34.001  21.485  27.645  1.00  0.00    -0.270 OA
ATOM      7  H   UNL A   1      36.157  21.898  27.175  1.00  0.00     0.163 HD
BRANCH   5   8
ATOM      8  C   UNL A   1      33.223  23.039  26.051  1.00  0.00     0.067 C 
ATOM      9  C   UNL A   1      29.138  27.417  23.492  1.00  0.00     0.046 C 
ATOM     10  C   UNL A   1      30.267  26.691  24.174  1.00  0.00    -0.028 A 
ATOM     11  C   UNL A   1      30.210  25.294  24.233  1.00  0.00     0.052 A 
ATOM     12  C   UNL A   1      31.340  27.355  24.801  1.00  0.00     0.047 A 
ATOM     13  C   UNL A   1      31.209  24.569  24.872  1.00  0.00     0.128 A 
ATOM     14  C   UNL A   1      32.368  26.629  25.453  1.00  0.00    -0.021 A 
ATOM     15  Cl  UNL A   1      31.363  29.094  24.787  1.00  0.00    -0.084 Cl
ATOM     16  C   UNL A   1      32.281  25.216  25.495  1.00  0.00     0.022 A 
ATOM     17  O   UNL A   1      31.038  23.213  24.886  1.00  0.00    -0.475 OA
ATOM     18  C   UNL A   1      33.545  27.321  26.103  1.00  0.00     0.047 C 
ATOM     19  C   UNL A   1      33.246  24.376  26.211  1.00  0.00     0.026 C 
ATOM     20  C   UNL A   1      32.227  22.411  25.121  1.00  0.00     0.314 C 
BRANCH  20  21
ATOM     21  C   UNL A   1      32.833  21.946  23.787  1.00  0.00     0.429 C 
ATOM     22  F   UNL A   1      33.262  20.666  23.827  1.00  0.00    -0.167 F 
ATOM     23  F   UNL A   1      31.959  22.042  22.761  1.00  0.00    -0.167 F 
ATOM     24  F   UNL A   1      33.900  22.724  23.467  1.00  0.00    -0.167 F 
ENDBRANCH  20  21
ENDBRANCH   5   8
ENDBRANCH   3   4
ENDBRANCH   2   3
ENDBRANCH   1   2
BRANCH   1  25
ATOM     25  N   UNL A   1      40.166  23.831  26.121  1.00  0.00    -0.352 N 
ATOM     26  C   UNL A   1      41.189  24.693  26.425  1.00  0.00     0.251 C 
ATOM     27  H   UNL A   1      40.427  23.047  25.584  1.00  0.00     0.163 HD
ATOM     28  O   UNL A   1      42.242  24.620  25.790  1.00  0.00    -0.269 OA
BRANCH  26  29
ATOM     29  C   UNL A   1      41.041  25.698  27.499  1.00  0.00     0.039 A 
ATOM     30  C   UNL A   1      41.937  26.770  27.557  1.00  0.00     0.014 A 
ATOM     31  C   UNL A   1      40.064  25.555  28.488  1.00  0.00     0.014 A 
ATOM     32  C   UNL A   1      41.825  27.716  28.579  1.00  0.00     0.010 A 
ATOM     33  C   UNL A   1      39.904  26.539  29.460  1.00  0.00     0.010 A 
ATOM     34  C   UNL A   1      40.794  27.620  29.527  1.00  0.00    -0.014 A 
BRANCH  34  35
ATOM     35  C   UNL A   1      40.659  28.612  30.624  1.00  0.00     0.031 A 
ATOM     36  C   UNL A   1      41.562  28.530  31.826  1.00  0.00     0.074 A 
ATOM     37  C   UNL A   1      39.700  29.556  30.559  1.00  0.00     0.049 A 
ATOM     38  N   UNL A   1      41.561  29.258  32.912  1.00  0.00    -0.248 NA
ATOM     39  C   UNL A   1      42.586  27.471  31.817  1.00  0.00     0.031 C 
ATOM     40  C   UNL A   1      38.744  29.717  29.462  1.00  0.00     0.029 A 
ATOM     41  N   UNL A   1      39.369  30.558  31.436  1.00  0.00    -0.354 N 
ATOM     42  C   UNL A   1      42.572  28.744  33.715  1.00  0.00     0.074 A 
ATOM     43  C   UNL A   1      43.127  27.604  33.019  1.00  0.00     0.031 C 
ATOM     44  C   UNL A   1      37.957  30.775  29.716  1.00  0.00     0.029 A 
ATOM     45  C   UNL A   1      38.325  31.345  31.009  1.00  0.00     0.049 A 
ATOM     46  H   UNL A   1      39.836  30.702  32.292  1.00  0.00     0.167 HD
ATOM     47  C   UNL A   1      43.019  29.197  34.910  1.00  0.00     0.037 A 
ATOM     48  C   UNL A   1      37.733  32.404  31.593  1.00  0.00     0.037 A 
ATOM     49  C   UNL A   1      42.483  30.349  35.584  1.00  0.00     0.049 A 
ATOM     50  C   UNL A   1      38.234  32.881  32.928  1.00  0.00     0.074 A 
ATOM     51  C   UNL A   1      42.894  30.916  36.777  1.00  0.00     0.029 A 
ATOM     52  N   UNL A   1      41.422  31.113  35.121  1.00  0.00    -0.354 N 
ATOM     53  N   UNL A   1      39.217  32.405  33.656  1.00  0.00    -0.248 NA
ATOM     54  C   UNL A   1      37.550  34.036  33.523  1.00  0.00     0.031 C 
ATOM     55  C   UNL A   1      42.057  32.003  37.055  1.00  0.00     0.029 A 
ATOM     56  C   UNL A   1      41.152  32.138  36.013  1.00  0.00     0.049 A 
ATOM     57  H   UNL A   1      40.933  30.952  34.282  1.00  0.00     0.167 HD
ATOM     58  C   UNL A   1      39.279  33.212  34.787  1.00  0.00     0.074 A 
ATOM     59  C   UNL A   1      38.244  34.216  34.640  1.00  0.00     0.031 C 
ATOM     60  C   UNL A   1      40.116  33.128  35.850  1.00  0.00     0.037 A 
BRANCH  47  61
ATOM     61  C   UNL A   1      44.158  28.455  35.555  1.00  0.00     0.058 A 
ATOM     62  C   UNL A   1      45.495  28.774  35.268  1.00  0.00     0.135 A 
ATOM     63  C   UNL A   1      43.914  27.437  36.490  1.00  0.00     0.135 A 
ATOM     64  F   UNL A   1      45.784  29.727  34.367  1.00  0.00    -0.206 F 
ATOM     65  C   UNL A   1      46.550  28.092  35.864  1.00  0.00     0.059 A 
ATOM     66  C   UNL A   1      44.956  26.759  37.120  1.00  0.00     0.059 A 
ATOM     67  F   UNL A   1      42.656  27.091  36.801  1.00  0.00    -0.206 F 
ATOM     68  C   UNL A   1      46.270  27.086  36.789  1.00  0.00     0.060 A 
BRANCH  68  69
ATOM     69  S   UNL A   1      47.653  26.215  37.556  1.00  0.00     0.124 S 
ATOM     70  O   UNL A   1      47.067  24.901  37.804  1.00  0.00    -0.237 OA
ATOM     71  O   UNL A   1      48.671  26.266  36.511  1.00  0.00    -0.237 OA
ATOM     72  O   UNL A   1      47.939  27.009  38.747  1.00  0.00    -0.744 OA
ENDBRANCH  68  69
ENDBRANCH  47  61
BRANCH  48  73
ATOM     73  C   UNL A   1      36.625  33.107  30.895  1.00  0.00     0.058 A 
ATOM     74  C   UNL A   1      35.301  32.973  31.338  1.00  0.00     0.135 A 
ATOM     75  C   UNL A   1      36.866  33.955  29.802  1.00  0.00     0.135 A 
ATOM     76  F   UNL A   1      35.020  32.168  32.374  1.00  0.00    -0.206 F 
ATOM     77  C   UNL A   1      34.255  33.654  30.725  1.00  0.00     0.059 A 
ATOM     78  C   UNL A   1      35.838  34.663  29.184  1.00  0.00     0.059 A 
ATOM     79  F   UNL A   1      38.117  34.128  29.348  1.00  0.00    -0.206 F 
ATOM     80  C   UNL A   1      34.534  34.502  29.653  1.00  0.00     0.060 A 
BRANCH  80  81
ATOM     81  S   UNL A   1      33.175  35.434  28.912  1.00  0.00     0.124 S 
ATOM     82  O   UNL A   1      32.468  35.913  30.093  1.00  0.00    -0.237 OA
ATOM     83  O   UNL A   1      33.887  36.446  28.138  1.00  0.00    -0.237 OA
ATOM     84  O   UNL A   1      32.471  34.429  28.119  1.00  0.00    -0.744 OA
ENDBRANCH  80  81
ENDBRANCH  48  73
BRANCH  60  85
ATOM     85  C   UNL A   1      39.960  34.151  36.939  1.00  0.00     0.058 A 
ATOM     86  C   UNL A   1      40.506  35.437  36.818  1.00  0.00     0.135 A 
ATOM     87  C   UNL A   1      39.189  33.867  38.079  1.00  0.00     0.135 A 
ATOM     88  F   UNL A   1      41.255  35.755  35.751  1.00  0.00    -0.206 F 
ATOM     89  C   UNL A   1      40.302  36.406  37.794  1.00  0.00     0.059 A 
ATOM     90  C   UNL A   1      38.953  34.828  39.056  1.00  0.00     0.059 A 
ATOM     91  F   UNL A   1      38.638  32.654  38.236  1.00  0.00    -0.206 F 
ATOM     92  C   UNL A   1      39.520  36.094  38.908  1.00  0.00     0.060 A 
BRANCH  92  93
ATOM     93  S   UNL A   1      39.221  37.379  40.141  1.00  0.00     0.124 S 
ATOM     94  O   UNL A   1      38.610  36.613  41.222  1.00  0.00    -0.237 OA
ATOM     95  O   UNL A   1      40.568  37.878  40.401  1.00  0.00    -0.237 OA
ATOM     96  O   UNL A   1      38.335  38.312  39.453  1.00  0.00    -0.744 OA
ENDBRANCH  92  93
ENDBRANCH  60  85
ENDBRANCH  34  35
ENDBRANCH  26  29
ENDBRANCH   1  25
TORSDOF 14
ENDMDL
