MODEL 1
REMARK VINA RESULT:     -13.1      0.000      0.000
REMARK SMILES CC(=O)n1cc2c3c(cccc31)C(=O)C[C@@H]2C(=O)NCCCNC(=O)c1ccc(-c2c3nc(c(-c4c(F)cc(S(=O)(=O)[O-])cc4F)c4ccc([nH]4)c(-c4c(F)cc(S(=O)(=O)[O-])cc4F)c4nc(c(-c5c(F)cc(S(=O)(=O)[O-])cc5F)c5ccc2[nH]5)C=C4)C=C3)cc1
REMARK SMILES IDX 22 1 21 2 20 3 19 4 17 5 18 6 16 8 4 9 5 10 12 11 6 12 7 13
REMARK SMILES IDX 11 14 8 15 10 16 15 17 9 18 13 19 14 20 2 21 1 22 3 23 23 24
REMARK SMILES IDX 24 25 25 27 26 28 27 29 91 30 28 31 90 32 29 33 30 34 31 35
REMARK SMILES IDX 84 36 32 37 89 38 83 39 85 40 33 41 88 42 82 43 81 44 34 46
REMARK SMILES IDX 68 47 47 48 67 49 48 50 51 51 66 52 86 53 49 54 50 55 65 57
REMARK SMILES IDX 87 58 52 59 35 60 36 61 45 62 37 63 38 64 44 65 46 66 39 67
REMARK SMILES IDX 40 68 41 69 42 70 43 71 69 72 70 73 79 74 71 75 72 76 78 77
REMARK SMILES IDX 80 78 73 79 74 80 75 81 76 82 77 83 53 84 54 85 63 86 55 87
REMARK SMILES IDX 56 88 62 89 64 90 57 91 58 92 59 93 60 94 61 95
REMARK H PARENT 19 7 23 26 85 45 51 56
REMARK Flexibility Score: inf
ROOT
ATOM      1  C   UNL A   1      39.162  22.731  26.797  1.00  0.00     0.118 C 
ENDROOT
BRANCH   1   2
ATOM      2  C   UNL A   1      38.122  22.625  25.697  1.00  0.00     0.042 C 
BRANCH   2   3
ATOM      3  C   UNL A   1      37.145  23.798  25.698  1.00  0.00     0.117 C 
BRANCH   3   4
ATOM      4  N   UNL A   1      35.771  23.420  26.008  1.00  0.00    -0.355 N 
ATOM      5  C   UNL A   1      34.583  23.840  25.481  1.00  0.00     0.228 C 
ATOM      6  O   UNL A   1      33.555  23.273  25.862  1.00  0.00    -0.274 OA
ATOM      7  H   UNL A   1      35.685  22.745  26.720  1.00  0.00     0.163 HD
BRANCH   5   8
ATOM      8  C   UNL A   1      34.498  24.987  24.471  1.00  0.00     0.118 C 
ATOM      9  N   UNL A   1      32.365  27.578  26.121  1.00  0.00    -0.287 N 
ATOM     10  C   UNL A   1      33.469  26.726  26.168  1.00  0.00     0.100 A 
ATOM     11  C   UNL A   1      31.824  27.498  24.831  1.00  0.00     0.057 A 
ATOM     12  C   UNL A   1      33.602  26.085  24.957  1.00  0.00    -0.008 A 
ATOM     13  C   UNL A   1      32.625  26.624  24.112  1.00  0.00     0.015 A 
ATOM     14  C   UNL A   1      30.726  28.114  24.205  1.00  0.00     0.027 A 
ATOM     15  C   UNL A   1      32.371  26.332  22.774  1.00  0.00     0.027 A 
ATOM     16  C   UNL A   1      30.492  27.833  22.846  1.00  0.00     0.003 A 
ATOM     17  C   UNL A   1      34.101  24.435  23.077  1.00  0.00     0.099 C 
ATOM     18  C   UNL A   1      31.308  26.957  22.127  1.00  0.00     0.012 A 
ATOM     19  C   UNL A   1      33.267  25.333  22.156  1.00  0.00     0.164 C 
ATOM     20  O   UNL A   1      33.258  25.187  20.936  1.00  0.00    -0.294 OA
BRANCH   9  21
ATOM     21  C   UNL A   1      31.866  28.382  27.171  1.00  0.00     0.227 C 
ATOM     22  C   UNL A   1      32.309  29.818  27.136  1.00  0.00     0.115 C 
ATOM     23  O   UNL A   1      31.082  27.925  27.980  1.00  0.00    -0.274 OA
ENDBRANCH   9  21
ENDBRANCH   5   8
ENDBRANCH   3   4
ENDBRANCH   2   3
ENDBRANCH   1   2
BRANCH   1  24
ATOM     24  N   UNL A   1      40.491  22.334  26.346  1.00  0.00    -0.352 N 
ATOM     25  C   UNL A   1      41.596  23.125  26.120  1.00  0.00     0.251 C 
ATOM     26  H   UNL A   1      40.615  21.371  26.180  1.00  0.00     0.163 HD
ATOM     27  O   UNL A   1      42.515  22.693  25.432  1.00  0.00    -0.269 OA
BRANCH  25  28
ATOM     28  C   UNL A   1      41.659  24.486  26.689  1.00  0.00     0.039 A 
ATOM     29  C   UNL A   1      41.182  25.575  25.953  1.00  0.00     0.014 A 
ATOM     30  C   UNL A   1      42.214  24.686  27.954  1.00  0.00     0.014 A 
ATOM     31  C   UNL A   1      41.205  26.842  26.529  1.00  0.00     0.010 A 
ATOM     32  C   UNL A   1      42.123  25.912  28.572  1.00  0.00     0.010 A 
ATOM     33  C   UNL A   1      41.656  27.000  27.851  1.00  0.00    -0.014 A 
BRANCH  33  34
ATOM     34  C   UNL A   1      41.516  28.283  28.531  1.00  0.00     0.031 A 
ATOM     35  C   UNL A   1      42.614  29.232  28.230  1.00  0.00     0.074 A 
ATOM     36  C   UNL A   1      40.427  28.670  29.230  1.00  0.00     0.049 A 
ATOM     37  N   UNL A   1      43.655  29.467  28.957  1.00  0.00    -0.248 NA
ATOM     38  C   UNL A   1      42.668  29.856  26.898  1.00  0.00     0.031 C 
ATOM     39  C   UNL A   1      39.143  27.968  29.358  1.00  0.00     0.029 A 
ATOM     40  N   UNL A   1      40.210  29.823  29.927  1.00  0.00    -0.354 N 
ATOM     41  C   UNL A   1      44.324  30.503  28.316  1.00  0.00     0.074 A 
ATOM     42  C   UNL A   1      43.827  30.519  26.965  1.00  0.00     0.031 C 
ATOM     43  C   UNL A   1      38.225  28.790  29.916  1.00  0.00     0.029 A 
ATOM     44  C   UNL A   1      38.898  30.000  30.357  1.00  0.00     0.049 A 
ATOM     45  H   UNL A   1      40.923  30.477  30.110  1.00  0.00     0.167 HD
ATOM     46  C   UNL A   1      44.955  31.462  29.049  1.00  0.00     0.037 A 
ATOM     47  C   UNL A   1      38.408  31.041  31.075  1.00  0.00     0.037 A 
ATOM     48  C   UNL A   1      45.023  31.076  30.437  1.00  0.00     0.049 A 
ATOM     49  C   UNL A   1      39.545  31.607  31.835  1.00  0.00     0.074 A 
ATOM     50  C   UNL A   1      45.756  30.209  31.216  1.00  0.00     0.029 A 
ATOM     51  N   UNL A   1      43.905  31.419  31.150  1.00  0.00    -0.354 N 
ATOM     52  N   UNL A   1      40.162  30.963  32.787  1.00  0.00    -0.248 NA
ATOM     53  C   UNL A   1      40.223  32.800  31.339  1.00  0.00     0.031 C 
ATOM     54  C   UNL A   1      44.959  29.930  32.369  1.00  0.00     0.029 A 
ATOM     55  C   UNL A   1      43.777  30.659  32.281  1.00  0.00     0.049 A 
ATOM     56  H   UNL A   1      43.271  32.123  30.882  1.00  0.00     0.167 HD
ATOM     57  C   UNL A   1      41.462  31.409  32.703  1.00  0.00     0.074 A 
ATOM     58  C   UNL A   1      41.405  32.646  31.938  1.00  0.00     0.031 C 
ATOM     59  C   UNL A   1      42.503  30.569  32.960  1.00  0.00     0.037 A 
BRANCH  46  60
ATOM     60  C   UNL A   1      45.055  32.928  28.670  1.00  0.00     0.058 A 
ATOM     61  C   UNL A   1      46.335  33.515  28.559  1.00  0.00     0.135 A 
ATOM     62  C   UNL A   1      43.975  33.837  28.715  1.00  0.00     0.135 A 
ATOM     63  F   UNL A   1      47.436  32.747  28.520  1.00  0.00    -0.206 F 
ATOM     64  C   UNL A   1      46.529  34.897  28.560  1.00  0.00     0.059 A 
ATOM     65  C   UNL A   1      44.143  35.217  28.662  1.00  0.00     0.059 A 
ATOM     66  F   UNL A   1      42.713  33.444  28.915  1.00  0.00    -0.206 F 
ATOM     67  C   UNL A   1      45.425  35.741  28.623  1.00  0.00     0.060 A 
BRANCH  67  68
ATOM     68  S   UNL A   1      45.673  37.523  28.702  1.00  0.00     0.124 S 
ATOM     69  O   UNL A   1      44.318  37.995  28.958  1.00  0.00    -0.237 OA
ATOM     70  O   UNL A   1      46.616  37.645  29.810  1.00  0.00    -0.237 OA
ATOM     71  O   UNL A   1      46.218  37.842  27.386  1.00  0.00    -0.744 OA
ENDBRANCH  67  68
ENDBRANCH  46  60
BRANCH  47  72
ATOM     72  C   UNL A   1      37.087  31.713  31.065  1.00  0.00     0.058 A 
ATOM     73  C   UNL A   1      36.276  31.700  32.217  1.00  0.00     0.135 A 
ATOM     74  C   UNL A   1      36.769  32.671  30.085  1.00  0.00     0.135 A 
ATOM     75  F   UNL A   1      36.501  30.808  33.193  1.00  0.00    -0.206 F 
ATOM     76  C   UNL A   1      35.287  32.658  32.442  1.00  0.00     0.059 A 
ATOM     77  C   UNL A   1      35.777  33.634  30.284  1.00  0.00     0.059 A 
ATOM     78  F   UNL A   1      37.491  32.762  28.958  1.00  0.00    -0.206 F 
ATOM     79  C   UNL A   1      35.074  33.648  31.486  1.00  0.00     0.060 A 
BRANCH  79  80
ATOM     80  S   UNL A   1      33.976  35.027  31.895  1.00  0.00     0.124 S 
ATOM     81  O   UNL A   1      34.844  35.874  32.707  1.00  0.00    -0.237 OA
ATOM     82  O   UNL A   1      33.634  35.545  30.574  1.00  0.00    -0.237 OA
ATOM     83  O   UNL A   1      32.879  34.385  32.614  1.00  0.00    -0.744 OA
ENDBRANCH  79  80
ENDBRANCH  47  72
BRANCH  59  84
ATOM     84  C   UNL A   1      42.258  29.432  33.901  1.00  0.00     0.058 A 
ATOM     85  C   UNL A   1      41.868  28.137  33.526  1.00  0.00     0.135 A 
ATOM     86  C   UNL A   1      42.492  29.669  35.264  1.00  0.00     0.135 A 
ATOM     87  F   UNL A   1      41.683  27.818  32.236  1.00  0.00    -0.206 F 
ATOM     88  C   UNL A   1      41.696  27.126  34.475  1.00  0.00     0.059 A 
ATOM     89  C   UNL A   1      42.352  28.673  36.221  1.00  0.00     0.059 A 
ATOM     90  F   UNL A   1      42.899  30.883  35.673  1.00  0.00    -0.206 F 
ATOM     91  C   UNL A   1      41.945  27.404  35.821  1.00  0.00     0.060 A 
BRANCH  91  92
ATOM     92  S   UNL A   1      41.795  26.082  37.042  1.00  0.00     0.124 S 
ATOM     93  O   UNL A   1      40.417  26.236  37.497  1.00  0.00    -0.237 OA
ATOM     94  O   UNL A   1      42.070  24.887  36.248  1.00  0.00    -0.237 OA
ATOM     95  O   UNL A   1      42.819  26.411  38.030  1.00  0.00    -0.744 OA
ENDBRANCH  91  92
ENDBRANCH  59  84
ENDBRANCH  33  34
ENDBRANCH  25  28
ENDBRANCH   1  24
TORSDOF 14
ENDMDL
MODEL 2
REMARK VINA RESULT:     -12.9      3.063      9.564
REMARK SMILES CC(=O)n1cc2c3c(cccc31)C(=O)C[C@@H]2C(=O)NCCCNC(=O)c1ccc(-c2c3nc(c(-c4c(F)cc(S(=O)(=O)[O-])cc4F)c4ccc([nH]4)c(-c4c(F)cc(S(=O)(=O)[O-])cc4F)c4nc(c(-c5c(F)cc(S(=O)(=O)[O-])cc5F)c5ccc2[nH]5)C=C4)C=C3)cc1
REMARK SMILES IDX 22 1 21 2 20 3 19 4 17 5 18 6 16 8 4 9 5 10 12 11 6 12 7 13
REMARK SMILES IDX 11 14 8 15 10 16 15 17 9 18 13 19 14 20 2 21 1 22 3 23 23 24
REMARK SMILES IDX 24 25 25 27 26 28 27 29 91 30 28 31 90 32 29 33 30 34 31 35
REMARK SMILES IDX 84 36 32 37 89 38 83 39 85 40 33 41 88 42 82 43 81 44 34 46
REMARK SMILES IDX 68 47 47 48 67 49 48 50 51 51 66 52 86 53 49 54 50 55 65 57
REMARK SMILES IDX 87 58 52 59 35 60 36 61 45 62 37 63 38 64 44 65 46 66 39 67
REMARK SMILES IDX 40 68 41 69 42 70 43 71 69 72 70 73 79 74 71 75 72 76 78 77
REMARK SMILES IDX 80 78 73 79 74 80 75 81 76 82 77 83 53 84 54 85 63 86 55 87
REMARK SMILES IDX 56 88 62 89 64 90 57 91 58 92 59 93 60 94 61 95
REMARK H PARENT 19 7 23 26 85 45 51 56
REMARK Flexibility Score: inf
ROOT
ATOM      1  C   UNL A   1      34.349  31.896  27.634  1.00  0.00     0.118 C 
ENDROOT
BRANCH   1   2
ATOM      2  C   UNL A   1      33.531  30.621  27.550  1.00  0.00     0.042 C 
BRANCH   2   3
ATOM      3  C   UNL A   1      34.361  29.419  27.102  1.00  0.00     0.117 C 
BRANCH   3   4
ATOM      4  N   UNL A   1      34.151  29.046  25.709  1.00  0.00    -0.355 N 
ATOM      5  C   UNL A   1      33.595  27.929  25.153  1.00  0.00     0.228 C 
ATOM      6  O   UNL A   1      33.446  27.913  23.927  1.00  0.00    -0.274 OA
ATOM      7  H   UNL A   1      34.464  29.713  25.056  1.00  0.00     0.163 HD
BRANCH   5   8
ATOM      8  C   UNL A   1      33.185  26.717  25.992  1.00  0.00     0.118 C 
ATOM      9  N   UNL A   1      35.155  23.859  24.600  1.00  0.00    -0.287 N 
ATOM     10  C   UNL A   1      35.123  25.153  25.121  1.00  0.00     0.100 A 
ATOM     11  C   UNL A   1      33.861  23.331  24.702  1.00  0.00     0.057 A 
ATOM     12  C   UNL A   1      33.837  25.460  25.502  1.00  0.00    -0.008 A 
ATOM     13  C   UNL A   1      33.077  24.300  25.308  1.00  0.00     0.015 A 
ATOM     14  C   UNL A   1      33.293  22.095  24.345  1.00  0.00     0.027 A 
ATOM     15  C   UNL A   1      31.727  24.087  25.575  1.00  0.00     0.027 A 
ATOM     16  C   UNL A   1      31.933  21.878  24.643  1.00  0.00     0.003 A 
ATOM     17  C   UNL A   1      31.638  26.624  26.065  1.00  0.00     0.099 C 
ATOM     18  C   UNL A   1      31.153  22.858  25.261  1.00  0.00     0.012 A 
ATOM     19  C   UNL A   1      31.002  25.232  26.164  1.00  0.00     0.164 C 
ATOM     20  O   UNL A   1      29.880  25.060  26.635  1.00  0.00    -0.294 OA
BRANCH   9  21
ATOM     21  C   UNL A   1      36.275  23.186  24.061  1.00  0.00     0.227 C 
ATOM     22  C   UNL A   1      37.251  22.664  25.078  1.00  0.00     0.115 C 
ATOM     23  O   UNL A   1      36.369  23.001  22.863  1.00  0.00    -0.274 OA
ENDBRANCH   9  21
ENDBRANCH   5   8
ENDBRANCH   3   4
ENDBRANCH   2   3
ENDBRANCH   1   2
BRANCH   1  24
ATOM     24  N   UNL A   1      34.332  32.480  28.971  1.00  0.00    -0.352 N 
ATOM     25  C   UNL A   1      35.096  32.143  30.067  1.00  0.00     0.251 C 
ATOM     26  H   UNL A   1      33.689  33.213  29.108  1.00  0.00     0.163 HD
ATOM     27  O   UNL A   1      34.730  32.491  31.185  1.00  0.00    -0.269 OA
BRANCH  25  28
ATOM     28  C   UNL A   1      36.332  31.354  29.892  1.00  0.00     0.039 A 
ATOM     29  C   UNL A   1      37.535  31.997  29.585  1.00  0.00     0.014 A 
ATOM     30  C   UNL A   1      36.292  29.965  30.014  1.00  0.00     0.014 A 
ATOM     31  C   UNL A   1      38.697  31.238  29.476  1.00  0.00     0.010 A 
ATOM     32  C   UNL A   1      37.456  29.230  30.030  1.00  0.00     0.010 A 
ATOM     33  C   UNL A   1      38.655  29.856  29.723  1.00  0.00    -0.014 A 
BRANCH  33  34
ATOM     34  C   UNL A   1      39.888  29.080  29.793  1.00  0.00     0.031 A 
ATOM     35  C   UNL A   1      40.350  28.833  31.180  1.00  0.00     0.074 A 
ATOM     36  C   UNL A   1      40.483  28.480  28.739  1.00  0.00     0.049 A 
ATOM     37  N   UNL A   1      41.256  29.492  31.822  1.00  0.00    -0.248 NA
ATOM     38  C   UNL A   1      39.609  27.875  32.016  1.00  0.00     0.031 C 
ATOM     39  C   UNL A   1      39.981  28.376  27.363  1.00  0.00     0.029 A 
ATOM     40  N   UNL A   1      41.646  27.768  28.691  1.00  0.00    -0.354 N 
ATOM     41  C   UNL A   1      41.412  28.820  33.029  1.00  0.00     0.074 A 
ATOM     42  C   UNL A   1      40.227  28.019  33.193  1.00  0.00     0.031 C 
ATOM     43  C   UNL A   1      40.728  27.485  26.670  1.00  0.00     0.029 A 
ATOM     44  C   UNL A   1      41.867  27.104  27.487  1.00  0.00     0.049 A 
ATOM     45  H   UNL A   1      42.277  27.727  29.445  1.00  0.00     0.167 HD
ATOM     46  C   UNL A   1      42.646  28.719  33.597  1.00  0.00     0.037 A 
ATOM     47  C   UNL A   1      42.938  26.339  27.163  1.00  0.00     0.037 A 
ATOM     48  C   UNL A   1      43.586  29.584  32.926  1.00  0.00     0.049 A 
ATOM     49  C   UNL A   1      44.068  26.813  27.993  1.00  0.00     0.074 A 
ATOM     50  C   UNL A   1      43.877  30.929  32.885  1.00  0.00     0.029 A 
ATOM     51  N   UNL A   1      44.162  29.009  31.825  1.00  0.00    -0.354 N 
ATOM     52  N   UNL A   1      44.604  27.995  27.866  1.00  0.00    -0.248 NA
ATOM     53  C   UNL A   1      44.430  26.083  29.203  1.00  0.00     0.031 C 
ATOM     54  C   UNL A   1      44.532  31.162  31.636  1.00  0.00     0.029 A 
ATOM     55  C   UNL A   1      44.652  29.951  30.962  1.00  0.00     0.049 A 
ATOM     56  H   UNL A   1      44.217  28.037  31.673  1.00  0.00     0.167 HD
ATOM     57  C   UNL A   1      45.004  28.319  29.143  1.00  0.00     0.074 A 
ATOM     58  C   UNL A   1      45.043  27.061  29.874  1.00  0.00     0.031 C 
ATOM     59  C   UNL A   1      44.938  29.605  29.588  1.00  0.00     0.037 A 
BRANCH  46  60
ATOM     60  C   UNL A   1      43.154  27.522  34.379  1.00  0.00     0.058 A 
ATOM     61  C   UNL A   1      43.469  27.689  35.746  1.00  0.00     0.135 A 
ATOM     62  C   UNL A   1      43.627  26.329  33.791  1.00  0.00     0.135 A 
ATOM     63  F   UNL A   1      43.080  28.791  36.406  1.00  0.00    -0.206 F 
ATOM     64  C   UNL A   1      44.251  26.773  36.453  1.00  0.00     0.059 A 
ATOM     65  C   UNL A   1      44.362  25.377  34.491  1.00  0.00     0.059 A 
ATOM     66  F   UNL A   1      43.494  26.069  32.486  1.00  0.00    -0.206 F 
ATOM     67  C   UNL A   1      44.701  25.624  35.812  1.00  0.00     0.060 A 
BRANCH  67  68
ATOM     68  S   UNL A   1      45.774  24.478  36.695  1.00  0.00     0.124 S 
ATOM     69  O   UNL A   1      45.297  24.628  38.065  1.00  0.00    -0.237 OA
ATOM     70  O   UNL A   1      45.462  23.211  36.042  1.00  0.00    -0.237 OA
ATOM     71  O   UNL A   1      47.111  25.001  36.429  1.00  0.00    -0.744 OA
ENDBRANCH  67  68
ENDBRANCH  46  60
BRANCH  47  72
ATOM     72  C   UNL A   1      43.067  25.126  26.319  1.00  0.00     0.058 A 
ATOM     73  C   UNL A   1      44.036  25.072  25.299  1.00  0.00     0.135 A 
ATOM     74  C   UNL A   1      42.519  23.897  26.731  1.00  0.00     0.135 A 
ATOM     75  F   UNL A   1      44.597  26.200  24.838  1.00  0.00    -0.206 F 
ATOM     76  C   UNL A   1      44.524  23.865  24.799  1.00  0.00     0.059 A 
ATOM     77  C   UNL A   1      42.986  22.676  26.238  1.00  0.00     0.059 A 
ATOM     78  F   UNL A   1      41.595  23.851  27.702  1.00  0.00    -0.206 F 
ATOM     79  C   UNL A   1      44.022  22.669  25.307  1.00  0.00     0.060 A 
BRANCH  79  80
ATOM     80  S   UNL A   1      44.834  21.120  24.845  1.00  0.00     0.124 S 
ATOM     81  O   UNL A   1      44.728  21.144  23.390  1.00  0.00    -0.237 OA
ATOM     82  O   UNL A   1      46.175  21.306  25.389  1.00  0.00    -0.237 OA
ATOM     83  O   UNL A   1      44.028  20.102  25.513  1.00  0.00    -0.744 OA
ENDBRANCH  79  80
ENDBRANCH  47  72
BRANCH  59  84
ATOM     84  C   UNL A   1      45.045  30.695  28.569  1.00  0.00     0.058 A 
ATOM     85  C   UNL A   1      46.236  31.132  27.968  1.00  0.00     0.135 A 
ATOM     86  C   UNL A   1      43.848  31.289  28.142  1.00  0.00     0.135 A 
ATOM     87  F   UNL A   1      47.414  30.570  28.282  1.00  0.00    -0.206 F 
ATOM     88  C   UNL A   1      46.235  32.136  26.997  1.00  0.00     0.059 A 
ATOM     89  C   UNL A   1      43.821  32.271  27.160  1.00  0.00     0.059 A 
ATOM     90  F   UNL A   1      42.677  30.886  28.661  1.00  0.00    -0.206 F 
ATOM     91  C   UNL A   1      45.020  32.696  26.596  1.00  0.00     0.060 A 
BRANCH  91  92
ATOM     92  S   UNL A   1      45.007  33.943  25.290  1.00  0.00     0.124 S 
ATOM     93  O   UNL A   1      44.433  33.208  24.167  1.00  0.00    -0.237 OA
ATOM     94  O   UNL A   1      44.164  34.989  25.861  1.00  0.00    -0.237 OA
ATOM     95  O   UNL A   1      46.416  34.301  25.145  1.00  0.00    -0.744 OA
ENDBRANCH  91  92
ENDBRANCH  59  84
ENDBRANCH  33  34
ENDBRANCH  25  28
ENDBRANCH   1  24
TORSDOF 14
ENDMDL
MODEL 3
REMARK VINA RESULT:     -12.7      3.156      9.530
REMARK SMILES CC(=O)n1cc2c3c(cccc31)C(=O)C[C@@H]2C(=O)NCCCNC(=O)c1ccc(-c2c3nc(c(-c4c(F)cc(S(=O)(=O)[O-])cc4F)c4ccc([nH]4)c(-c4c(F)cc(S(=O)(=O)[O-])cc4F)c4nc(c(-c5c(F)cc(S(=O)(=O)[O-])cc5F)c5ccc2[nH]5)C=C4)C=C3)cc1
REMARK SMILES IDX 22 1 21 2 20 3 19 4 17 5 18 6 16 8 4 9 5 10 12 11 6 12 7 13
REMARK SMILES IDX 11 14 8 15 10 16 15 17 9 18 13 19 14 20 2 21 1 22 3 23 23 24
REMARK SMILES IDX 24 25 25 27 26 28 27 29 91 30 28 31 90 32 29 33 30 34 31 35
REMARK SMILES IDX 84 36 32 37 89 38 83 39 85 40 33 41 88 42 82 43 81 44 34 46
REMARK SMILES IDX 68 47 47 48 67 49 48 50 51 51 66 52 86 53 49 54 50 55 65 57
REMARK SMILES IDX 87 58 52 59 35 60 36 61 45 62 37 63 38 64 44 65 46 66 39 67
REMARK SMILES IDX 40 68 41 69 42 70 43 71 69 72 70 73 79 74 71 75 72 76 78 77
REMARK SMILES IDX 80 78 73 79 74 80 75 81 76 82 77 83 53 84 54 85 63 86 55 87
REMARK SMILES IDX 56 88 62 89 64 90 57 91 58 92 59 93 60 94 61 95
REMARK H PARENT 19 7 23 26 85 45 51 56
REMARK Flexibility Score: inf
ROOT
ATOM      1  C   UNL A   1      33.682  30.539  27.138  1.00  0.00     0.118 C 
ENDROOT
BRANCH   1   2
ATOM      2  C   UNL A   1      32.255  30.032  27.052  1.00  0.00     0.042 C 
BRANCH   2   3
ATOM      3  C   UNL A   1      31.907  29.489  25.667  1.00  0.00     0.117 C 
BRANCH   3   4
ATOM      4  N   UNL A   1      33.025  29.506  24.731  1.00  0.00    -0.355 N 
ATOM      5  C   UNL A   1      33.174  28.933  23.500  1.00  0.00     0.228 C 
ATOM      6  O   UNL A   1      34.202  29.195  22.868  1.00  0.00    -0.274 OA
ATOM      7  H   UNL A   1      33.807  30.019  25.039  1.00  0.00     0.163 HD
BRANCH   5   8
ATOM      8  C   UNL A   1      32.133  27.978  22.913  1.00  0.00     0.118 C 
ATOM      9  N   UNL A   1      29.194  30.134  22.081  1.00  0.00    -0.287 N 
ATOM     10  C   UNL A   1      30.562  29.879  21.977  1.00  0.00     0.100 A 
ATOM     11  C   UNL A   1      28.610  29.047  22.745  1.00  0.00     0.057 A 
ATOM     12  C   UNL A   1      30.851  28.685  22.596  1.00  0.00    -0.008 A 
ATOM     13  C   UNL A   1      29.627  28.141  23.004  1.00  0.00     0.015 A 
ATOM     14  C   UNL A   1      27.292  28.747  23.131  1.00  0.00     0.027 A 
ATOM     15  C   UNL A   1      29.380  26.929  23.645  1.00  0.00     0.027 A 
ATOM     16  C   UNL A   1      27.048  27.509  23.756  1.00  0.00     0.003 A 
ATOM     17  C   UNL A   1      31.952  26.754  23.849  1.00  0.00     0.099 C 
ATOM     18  C   UNL A   1      28.077  26.599  24.006  1.00  0.00     0.012 A 
ATOM     19  C   UNL A   1      30.569  26.094  23.914  1.00  0.00     0.164 C 
ATOM     20  O   UNL A   1      30.420  24.926  24.266  1.00  0.00    -0.294 OA
BRANCH   9  21
ATOM     21  C   UNL A   1      28.503  31.275  21.612  1.00  0.00     0.227 C 
ATOM     22  C   UNL A   1      28.642  32.499  22.475  1.00  0.00     0.115 C 
ATOM     23  O   UNL A   1      27.912  31.248  20.550  1.00  0.00    -0.274 OA
ENDBRANCH   9  21
ENDBRANCH   5   8
ENDBRANCH   3   4
ENDBRANCH   2   3
ENDBRANCH   1   2
BRANCH   1  24
ATOM     24  N   UNL A   1      33.800  31.728  27.975  1.00  0.00    -0.352 N 
ATOM     25  C   UNL A   1      34.782  32.044  28.888  1.00  0.00     0.251 C 
ATOM     26  H   UNL A   1      33.082  32.394  27.872  1.00  0.00     0.163 HD
ATOM     27  O   UNL A   1      34.560  32.902  29.737  1.00  0.00    -0.269 OA
BRANCH  25  28
ATOM     28  C   UNL A   1      36.079  31.340  28.853  1.00  0.00     0.039 A 
ATOM     29  C   UNL A   1      37.264  32.044  29.085  1.00  0.00     0.014 A 
ATOM     30  C   UNL A   1      36.121  29.975  28.567  1.00  0.00     0.014 A 
ATOM     31  C   UNL A   1      38.471  31.350  29.098  1.00  0.00     0.010 A 
ATOM     32  C   UNL A   1      37.294  29.267  28.702  1.00  0.00     0.010 A 
ATOM     33  C   UNL A   1      38.476  29.955  28.928  1.00  0.00    -0.014 A 
BRANCH  33  34
ATOM     34  C   UNL A   1      39.704  29.192  29.120  1.00  0.00     0.031 A 
ATOM     35  C   UNL A   1      40.026  28.944  30.546  1.00  0.00     0.074 A 
ATOM     36  C   UNL A   1      40.410  28.604  28.130  1.00  0.00     0.049 A 
ATOM     37  N   UNL A   1      40.854  29.609  31.279  1.00  0.00    -0.248 NA
ATOM     38  C   UNL A   1      39.215  27.974  31.298  1.00  0.00     0.031 C 
ATOM     39  C   UNL A   1      40.052  28.500  26.709  1.00  0.00     0.029 A 
ATOM     40  N   UNL A   1      41.580  27.905  28.197  1.00  0.00    -0.354 N 
ATOM     41  C   UNL A   1      40.895  28.933  32.493  1.00  0.00     0.074 A 
ATOM     42  C   UNL A   1      39.709  28.119  32.533  1.00  0.00     0.031 C 
ATOM     43  C   UNL A   1      40.875  27.621  26.093  1.00  0.00     0.029 A 
ATOM     44  C   UNL A   1      41.929  27.249  27.020  1.00  0.00     0.049 A 
ATOM     45  H   UNL A   1      42.132  27.866  29.012  1.00  0.00     0.167 HD
ATOM     46  C   UNL A   1      42.066  28.842  33.183  1.00  0.00     0.037 A 
ATOM     47  C   UNL A   1      43.037  26.497  26.803  1.00  0.00     0.037 A 
ATOM     48  C   UNL A   1      43.059  29.721  32.614  1.00  0.00     0.049 A 
ATOM     49  C   UNL A   1      44.071  26.979  27.746  1.00  0.00     0.074 A 
ATOM     50  C   UNL A   1      43.338  31.070  32.608  1.00  0.00     0.029 A 
ATOM     51  N   UNL A   1      43.751  29.157  31.576  1.00  0.00    -0.354 N 
ATOM     52  N   UNL A   1      44.604  28.168  27.678  1.00  0.00    -0.248 NA
ATOM     53  C   UNL A   1      44.316  26.248  28.984  1.00  0.00     0.031 C 
ATOM     54  C   UNL A   1      44.113  31.316  31.433  1.00  0.00     0.029 A 
ATOM     55  C   UNL A   1      44.315  30.109  30.771  1.00  0.00     0.049 A 
ATOM     56  H   UNL A   1      43.832  28.187  31.426  1.00  0.00     0.167 HD
ATOM     57  C   UNL A   1      44.868  28.490  28.991  1.00  0.00     0.074 A 
ATOM     58  C   UNL A   1      44.847  27.229  29.717  1.00  0.00     0.031 C 
ATOM     59  C   UNL A   1      44.743  29.773  29.431  1.00  0.00     0.037 A 
BRANCH  46  60
ATOM     60  C   UNL A   1      42.505  27.648  34.009  1.00  0.00     0.058 A 
ATOM     61  C   UNL A   1      42.480  27.750  35.417  1.00  0.00     0.135 A 
ATOM     62  C   UNL A   1      43.224  26.546  33.495  1.00  0.00     0.135 A 
ATOM     63  F   UNL A   1      41.836  28.764  36.016  1.00  0.00    -0.206 F 
ATOM     64  C   UNL A   1      43.172  26.865  36.246  1.00  0.00     0.059 A 
ATOM     65  C   UNL A   1      43.875  25.621  34.305  1.00  0.00     0.059 A 
ATOM     66  F   UNL A   1      43.421  26.364  32.185  1.00  0.00    -0.206 F 
ATOM     67  C   UNL A   1      43.876  25.808  35.678  1.00  0.00     0.060 A 
BRANCH  67  68
ATOM     68  S   UNL A   1      44.833  24.709  36.736  1.00  0.00     0.124 S 
ATOM     69  O   UNL A   1      44.580  23.414  36.117  1.00  0.00    -0.237 OA
ATOM     70  O   UNL A   1      46.182  25.242  36.581  1.00  0.00    -0.237 OA
ATOM     71  O   UNL A   1      44.234  24.910  38.053  1.00  0.00    -0.744 OA
ENDBRANCH  67  68
ENDBRANCH  46  60
BRANCH  47  72
ATOM     72  C   UNL A   1      43.264  25.290  25.973  1.00  0.00     0.058 A 
ATOM     73  C   UNL A   1      44.459  25.147  25.242  1.00  0.00     0.135 A 
ATOM     74  C   UNL A   1      42.507  24.121  26.174  1.00  0.00     0.135 A 
ATOM     75  F   UNL A   1      45.232  26.214  24.994  1.00  0.00    -0.206 F 
ATOM     76  C   UNL A   1      44.941  23.901  24.838  1.00  0.00     0.059 A 
ATOM     77  C   UNL A   1      42.965  22.864  25.770  1.00  0.00     0.059 A 
ATOM     78  F   UNL A   1      41.358  24.159  26.865  1.00  0.00    -0.206 F 
ATOM     79  C   UNL A   1      44.205  22.759  25.144  1.00  0.00     0.060 A 
BRANCH  79  80
ATOM     80  S   UNL A   1      44.953  21.138  24.847  1.00  0.00     0.124 S 
ATOM     81  O   UNL A   1      46.318  21.344  25.320  1.00  0.00    -0.237 OA
ATOM     82  O   UNL A   1      44.120  20.265  25.666  1.00  0.00    -0.237 OA
ATOM     83  O   UNL A   1      44.812  20.960  23.405  1.00  0.00    -0.744 OA
ENDBRANCH  79  80
ENDBRANCH  47  72
BRANCH  59  84
ATOM     84  C   UNL A   1      44.941  30.869  28.433  1.00  0.00     0.058 A 
ATOM     85  C   UNL A   1      43.986  31.299  27.498  1.00  0.00     0.135 A 
ATOM     86  C   UNL A   1      46.163  31.557  28.475  1.00  0.00     0.135 A 
ATOM     87  F   UNL A   1      42.773  30.730  27.438  1.00  0.00    -0.206 F 
ATOM     88  C   UNL A   1      44.249  32.358  26.625  1.00  0.00     0.059 A 
ATOM     89  C   UNL A   1      46.436  32.628  27.634  1.00  0.00     0.059 A 
ATOM     90  F   UNL A   1      47.099  31.206  29.372  1.00  0.00    -0.206 F 
ATOM     91  C   UNL A   1      45.476  33.019  26.705  1.00  0.00     0.060 A 
BRANCH  91  92
ATOM     92  S   UNL A   1      45.792  34.435  25.629  1.00  0.00     0.124 S 
ATOM     93  O   UNL A   1      47.225  34.319  25.376  1.00  0.00    -0.237 OA
ATOM     94  O   UNL A   1      44.923  34.163  24.487  1.00  0.00    -0.237 OA
ATOM     95  O   UNL A   1      45.394  35.580  26.444  1.00  0.00    -0.744 OA
ENDBRANCH  91  92
ENDBRANCH  59  84
ENDBRANCH  33  34
ENDBRANCH  25  28
ENDBRANCH   1  24
TORSDOF 14
ENDMDL
