MODEL 1
REMARK VINA RESULT:     -13.6      0.000      0.000
REMARK SMILES O=C(COc1cccc(NC(=O)c2ccc3c(c2)C(=O)N(c2ccccc2-c2ccccc2)C3=O)c1)NCCCNC(=O)c1ccc(-c2c3nc(c(-c4c(F)cc(S(=O)(=O)[O-])cc4F)c4ccc([nH]4)c(-c4c(F)cc(S(=O)(=O)[O-])cc4F)c4nc(c(-c5c(F)cc(S(=O)(=O)[O-])cc5F)c5ccc2[nH]5)C=C4)C=C3)cc1
REMARK SMILES IDX 1 1 2 2 37 3 3 5 4 6 5 7 6 8 36 9 7 10 9 11 8 12 10 13 11 14
REMARK SMILES IDX 12 16 13 17 14 18 18 19 15 20 17 21 16 22 19 23 34 24 20 25
REMARK SMILES IDX 21 26 35 27 22 28 23 29 27 30 24 31 26 32 25 33 28 34 29 35
REMARK SMILES IDX 33 36 30 37 32 38 31 39 38 40 39 41 40 42 41 43 42 44 43 46
REMARK SMILES IDX 44 47 45 48 109 49 46 50 108 51 47 52 48 53 49 54 102 55
REMARK SMILES IDX 50 56 107 57 101 58 103 59 51 60 106 61 100 62 99 63 52 65
REMARK SMILES IDX 86 66 65 67 85 68 66 69 69 70 84 71 104 72 67 73 68 74 83 76
REMARK SMILES IDX 105 77 70 78 53 79 54 80 63 81 55 82 56 83 62 84 64 85 57 86
REMARK SMILES IDX 58 87 59 88 60 89 61 90 87 91 88 92 97 93 89 94 90 95 96 96
REMARK SMILES IDX 98 97 91 98 92 99 93 100 94 101 95 102 71 103 72 104 81 105
REMARK SMILES IDX 73 106 74 107 80 108 82 109 75 110 76 111 77 112 78 113
REMARK SMILES IDX 79 114
REMARK H PARENT 37 4 10 15 41 45 103 64 69 75
REMARK Flexibility Score: inf
ROOT
ATOM      1  O   UNL A   1      38.548  20.152  25.137  1.00  0.00    -0.271 OA
ATOM      2  C   UNL A   1      38.451  21.261  25.649  1.00  0.00     0.257 C 
ATOM      3  N   UNL A   1      39.412  21.821  26.465  1.00  0.00    -0.353 N 
ATOM      4  H   UNL A   1      39.344  22.776  26.694  1.00  0.00     0.163 HD
ENDROOT
BRANCH   2   5
ATOM      5  C   UNL A   1      37.209  22.135  25.477  1.00  0.00     0.329 C 
BRANCH   5   6
ATOM      6  O   UNL A   1      36.468  21.889  24.285  1.00  0.00    -0.484 OA
BRANCH   6   7
ATOM      7  C   UNL A   1      35.211  21.373  24.461  1.00  0.00     0.122 A 
ATOM      8  C   UNL A   1      35.172  20.091  24.997  1.00  0.00     0.046 A 
ATOM      9  C   UNL A   1      34.028  21.975  24.000  1.00  0.00     0.072 A 
ATOM     10  C   UNL A   1      33.963  19.415  25.066  1.00  0.00     0.006 A 
ATOM     11  C   UNL A   1      32.801  21.299  24.047  1.00  0.00     0.045 A 
ATOM     12  C   UNL A   1      32.796  20.011  24.578  1.00  0.00     0.026 A 
BRANCH  11  13
ATOM     13  N   UNL A   1      31.681  21.934  23.446  1.00  0.00    -0.322 N 
ATOM     14  C   UNL A   1      31.344  23.265  23.260  1.00  0.00     0.255 C 
ATOM     15  H   UNL A   1      31.013  21.304  23.092  1.00  0.00     0.170 HD
ATOM     16  O   UNL A   1      30.214  23.608  22.929  1.00  0.00    -0.269 OA
BRANCH  14  17
ATOM     17  C   UNL A   1      32.404  24.283  23.305  1.00  0.00     0.041 A 
ATOM     18  C   UNL A   1      32.942  24.814  22.111  1.00  0.00     0.015 A 
ATOM     19  C   UNL A   1      32.637  24.867  24.547  1.00  0.00     0.028 A 
ATOM     20  C   UNL A   1      33.555  26.079  22.134  1.00  0.00     0.015 A 
ATOM     21  C   UNL A   1      33.228  26.107  24.521  1.00  0.00     0.054 A 
ATOM     22  C   UNL A   1      33.611  26.732  23.357  1.00  0.00     0.053 A 
ATOM     23  C   UNL A   1      33.234  27.086  25.584  1.00  0.00     0.266 C 
ATOM     24  C   UNL A   1      33.801  28.148  23.691  1.00  0.00     0.266 C 
ATOM     25  O   UNL A   1      33.123  26.720  26.739  1.00  0.00    -0.268 OA
ATOM     26  N   UNL A   1      33.341  28.322  24.982  1.00  0.00    -0.242 N 
ATOM     27  O   UNL A   1      34.355  28.897  22.907  1.00  0.00    -0.268 OA
BRANCH  26  28
ATOM     28  C   UNL A   1      32.954  29.543  25.637  1.00  0.00     0.060 A 
ATOM     29  C   UNL A   1      33.774  30.027  26.687  1.00  0.00     0.027 A 
ATOM     30  C   UNL A   1      31.731  30.232  25.416  1.00  0.00     0.006 A 
ATOM     31  C   UNL A   1      33.423  31.111  27.496  1.00  0.00     0.002 A 
ATOM     32  C   UNL A   1      31.417  31.356  26.228  1.00  0.00     0.011 A 
ATOM     33  C   UNL A   1      32.242  31.784  27.261  1.00  0.00     0.001 A 
BRANCH  30  34
ATOM     34  C   UNL A   1      30.647  29.815  24.513  1.00  0.00    -0.016 A 
ATOM     35  C   UNL A   1      30.464  28.464  24.180  1.00  0.00     0.009 A 
ATOM     36  C   UNL A   1      29.850  30.775  23.867  1.00  0.00     0.009 A 
ATOM     37  C   UNL A   1      29.476  28.079  23.270  1.00  0.00     0.001 A 
ATOM     38  C   UNL A   1      28.867  30.390  22.951  1.00  0.00     0.001 A 
ATOM     39  C   UNL A   1      28.675  29.042  22.660  1.00  0.00     0.000 A 
ENDBRANCH  30  34
ENDBRANCH  26  28
ENDBRANCH  14  17
ENDBRANCH  11  13
ENDBRANCH   6   7
ENDBRANCH   5   6
ENDBRANCH   2   5
BRANCH   3  40
ATOM     40  C   UNL A   1      40.519  21.056  26.998  1.00  0.00     0.117 C 
BRANCH  40  41
ATOM     41  C   UNL A   1      41.654  21.925  27.507  1.00  0.00     0.042 C 
BRANCH  41  42
ATOM     42  C   UNL A   1      41.317  23.411  27.581  1.00  0.00     0.118 C 
BRANCH  42  43
ATOM     43  N   UNL A   1      41.540  24.116  26.324  1.00  0.00    -0.352 N 
ATOM     44  C   UNL A   1      41.442  25.455  26.032  1.00  0.00     0.251 C 
ATOM     45  H   UNL A   1      41.802  23.543  25.568  1.00  0.00     0.163 HD
ATOM     46  O   UNL A   1      41.547  25.824  24.864  1.00  0.00    -0.269 OA
BRANCH  44  47
ATOM     47  C   UNL A   1      41.186  26.446  27.101  1.00  0.00     0.039 A 
ATOM     48  C   UNL A   1      40.173  26.187  28.029  1.00  0.00     0.014 A 
ATOM     49  C   UNL A   1      41.927  27.628  27.190  1.00  0.00     0.014 A 
ATOM     50  C   UNL A   1      39.958  27.072  29.089  1.00  0.00     0.010 A 
ATOM     51  C   UNL A   1      41.763  28.469  28.288  1.00  0.00     0.010 A 
ATOM     52  C   UNL A   1      40.779  28.198  29.252  1.00  0.00    -0.014 A 
BRANCH  52  53
ATOM     53  C   UNL A   1      40.638  29.097  30.428  1.00  0.00     0.031 A 
ATOM     54  C   UNL A   1      41.502  28.901  31.643  1.00  0.00     0.074 A 
ATOM     55  C   UNL A   1      39.678  30.045  30.428  1.00  0.00     0.049 A 
ATOM     56  N   UNL A   1      41.464  29.523  32.793  1.00  0.00    -0.248 NA
ATOM     57  C   UNL A   1      42.526  27.846  31.566  1.00  0.00     0.031 C 
ATOM     58  C   UNL A   1      38.744  30.304  29.332  1.00  0.00     0.029 A 
ATOM     59  N   UNL A   1      39.321  30.957  31.390  1.00  0.00    -0.354 N 
ATOM     60  C   UNL A   1      42.442  28.928  33.581  1.00  0.00     0.074 A 
ATOM     61  C   UNL A   1      43.025  27.864  32.794  1.00  0.00     0.031 C 
ATOM     62  C   UNL A   1      37.933  31.318  29.675  1.00  0.00     0.029 A 
ATOM     63  C   UNL A   1      38.263  31.757  31.026  1.00  0.00     0.049 A 
ATOM     64  H   UNL A   1      39.779  31.032  32.259  1.00  0.00     0.167 HD
ATOM     65  C   UNL A   1      42.831  29.251  34.838  1.00  0.00     0.037 A 
ATOM     66  C   UNL A   1      37.623  32.727  31.708  1.00  0.00     0.037 A 
ATOM     67  C   UNL A   1      42.268  30.331  35.608  1.00  0.00     0.049 A 
ATOM     68  C   UNL A   1      38.081  33.075  33.098  1.00  0.00     0.074 A 
ATOM     69  C   UNL A   1      42.637  30.775  36.865  1.00  0.00     0.029 A 
ATOM     70  N   UNL A   1      41.219  31.137  35.192  1.00  0.00    -0.354 N 
ATOM     71  N   UNL A   1      39.046  32.538  33.805  1.00  0.00    -0.248 NA
ATOM     72  C   UNL A   1      37.368  34.164  33.781  1.00  0.00     0.031 C 
ATOM     73  C   UNL A   1      41.788  31.826  37.226  1.00  0.00     0.029 A 
ATOM     74  C   UNL A   1      40.917  32.065  36.175  1.00  0.00     0.049 A 
ATOM     75  H   UNL A   1      40.756  31.060  34.326  1.00  0.00     0.167 HD
ATOM     76  C   UNL A   1      39.072  33.240  35.005  1.00  0.00     0.074 A 
ATOM     77  C   UNL A   1      38.033  34.246  34.925  1.00  0.00     0.031 C 
ATOM     78  C   UNL A   1      39.885  33.067  36.077  1.00  0.00     0.037 A 
BRANCH  65  79
ATOM     79  C   UNL A   1      43.926  28.429  35.459  1.00  0.00     0.058 A 
ATOM     80  C   UNL A   1      43.641  27.309  36.258  1.00  0.00     0.135 A 
ATOM     81  C   UNL A   1      45.276  28.743  35.230  1.00  0.00     0.135 A 
ATOM     82  F   UNL A   1      42.368  26.973  36.521  1.00  0.00    -0.206 F 
ATOM     83  C   UNL A   1      44.653  26.549  36.833  1.00  0.00     0.059 A 
ATOM     84  C   UNL A   1      46.306  27.980  35.774  1.00  0.00     0.059 A 
ATOM     85  F   UNL A   1      45.604  29.802  34.474  1.00  0.00    -0.206 F 
ATOM     86  C   UNL A   1      45.983  26.894  36.588  1.00  0.00     0.060 A 
BRANCH  86  87
ATOM     87  S   UNL A   1      47.287  25.899  37.343  1.00  0.00     0.124 S 
ATOM     88  O   UNL A   1      46.688  25.566  38.632  1.00  0.00    -0.237 OA
ATOM     89  O   UNL A   1      47.421  24.792  36.403  1.00  0.00    -0.237 OA
ATOM     90  O   UNL A   1      48.424  26.813  37.397  1.00  0.00    -0.744 OA
ENDBRANCH  86  87
ENDBRANCH  65  79
BRANCH  66  91
ATOM     91  C   UNL A   1      36.492  33.455  31.074  1.00  0.00     0.058 A 
ATOM     92  C   UNL A   1      36.709  34.314  29.986  1.00  0.00     0.135 A 
ATOM     93  C   UNL A   1      35.175  33.297  31.530  1.00  0.00     0.135 A 
ATOM     94  F   UNL A   1      37.954  34.502  29.519  1.00  0.00    -0.206 F 
ATOM     95  C   UNL A   1      35.664  35.002  29.382  1.00  0.00     0.059 A 
ATOM     96  C   UNL A   1      34.109  33.957  30.927  1.00  0.00     0.059 A 
ATOM     97  F   UNL A   1      34.913  32.474  32.558  1.00  0.00    -0.206 F 
ATOM     98  C   UNL A   1      34.365  34.815  29.858  1.00  0.00     0.060 A 
BRANCH  98  99
ATOM     99  S   UNL A   1      33.008  35.675  29.034  1.00  0.00     0.124 S 
ATOM    100  O   UNL A   1      32.167  36.051  30.165  1.00  0.00    -0.237 OA
ATOM    101  O   UNL A   1      33.700  36.769  28.361  1.00  0.00    -0.237 OA
ATOM    102  O   UNL A   1      32.456  34.654  28.147  1.00  0.00    -0.744 OA
ENDBRANCH  98  99
ENDBRANCH  66  91
BRANCH  78 103
ATOM    103  C   UNL A   1      39.707  34.005  37.238  1.00  0.00     0.058 A 
ATOM    104  C   UNL A   1      40.276  35.288  37.241  1.00  0.00     0.135 A 
ATOM    105  C   UNL A   1      38.915  33.634  38.336  1.00  0.00     0.135 A 
ATOM    106  F   UNL A   1      41.047  35.688  36.219  1.00  0.00    -0.206 F 
ATOM    107  C   UNL A   1      40.084  36.164  38.305  1.00  0.00     0.059 A 
ATOM    108  C   UNL A   1      38.689  34.503  39.399  1.00  0.00     0.059 A 
ATOM    109  F   UNL A   1      38.341  32.421  38.376  1.00  0.00    -0.206 F 
ATOM    110  C   UNL A   1      39.287  35.762  39.379  1.00  0.00     0.060 A 
BRANCH 110 111
ATOM    111  S   UNL A   1      39.014  36.920  40.738  1.00  0.00     0.124 S 
ATOM    112  O   UNL A   1      40.382  37.191  41.172  1.00  0.00    -0.237 OA
ATOM    113  O   UNL A   1      38.329  38.025  40.075  1.00  0.00    -0.237 OA
ATOM    114  O   UNL A   1      38.198  36.156  41.676  1.00  0.00    -0.744 OA
ENDBRANCH 110 111
ENDBRANCH  78 103
ENDBRANCH  52  53
ENDBRANCH  44  47
ENDBRANCH  42  43
ENDBRANCH  41  42
ENDBRANCH  40  41
ENDBRANCH   3  40
TORSDOF 19
ENDMDL
MODEL 2
REMARK VINA RESULT:     -13.6      1.684      7.999
REMARK SMILES O=C(COc1cccc(NC(=O)c2ccc3c(c2)C(=O)N(c2ccccc2-c2ccccc2)C3=O)c1)NCCCNC(=O)c1ccc(-c2c3nc(c(-c4c(F)cc(S(=O)(=O)[O-])cc4F)c4ccc([nH]4)c(-c4c(F)cc(S(=O)(=O)[O-])cc4F)c4nc(c(-c5c(F)cc(S(=O)(=O)[O-])cc5F)c5ccc2[nH]5)C=C4)C=C3)cc1
REMARK SMILES IDX 1 1 2 2 37 3 3 5 4 6 5 7 6 8 36 9 7 10 9 11 8 12 10 13 11 14
REMARK SMILES IDX 12 16 13 17 14 18 18 19 15 20 17 21 16 22 19 23 34 24 20 25
REMARK SMILES IDX 21 26 35 27 22 28 23 29 27 30 24 31 26 32 25 33 28 34 29 35
REMARK SMILES IDX 33 36 30 37 32 38 31 39 38 40 39 41 40 42 41 43 42 44 43 46
REMARK SMILES IDX 44 47 45 48 109 49 46 50 108 51 47 52 48 53 49 54 102 55
REMARK SMILES IDX 50 56 107 57 101 58 103 59 51 60 106 61 100 62 99 63 52 65
REMARK SMILES IDX 86 66 65 67 85 68 66 69 69 70 84 71 104 72 67 73 68 74 83 76
REMARK SMILES IDX 105 77 70 78 53 79 54 80 63 81 55 82 56 83 62 84 64 85 57 86
REMARK SMILES IDX 58 87 59 88 60 89 61 90 87 91 88 92 97 93 89 94 90 95 96 96
REMARK SMILES IDX 98 97 91 98 92 99 93 100 94 101 95 102 71 103 72 104 81 105
REMARK SMILES IDX 73 106 74 107 80 108 82 109 75 110 76 111 77 112 78 113
REMARK SMILES IDX 79 114
REMARK H PARENT 37 4 10 15 41 45 103 64 69 75
REMARK Flexibility Score: inf
ROOT
ATOM      1  O   UNL A   1      40.596  23.282  27.488  1.00  0.00    -0.271 OA
ATOM      2  C   UNL A   1      40.642  22.291  26.768  1.00  0.00     0.257 C 
ATOM      3  N   UNL A   1      41.810  21.638  26.430  1.00  0.00    -0.353 N 
ATOM      4  H   UNL A   1      41.752  20.756  25.997  1.00  0.00     0.163 HD
ENDROOT
BRANCH   2   5
ATOM      5  C   UNL A   1      39.396  21.696  26.115  1.00  0.00     0.329 C 
BRANCH   5   6
ATOM      6  O   UNL A   1      38.178  22.359  26.441  1.00  0.00    -0.484 OA
BRANCH   6   7
ATOM      7  C   UNL A   1      37.177  22.259  25.510  1.00  0.00     0.122 A 
ATOM      8  C   UNL A   1      37.014  23.378  24.701  1.00  0.00     0.046 A 
ATOM      9  C   UNL A   1      36.251  21.206  25.442  1.00  0.00     0.072 A 
ATOM     10  C   UNL A   1      35.931  23.445  23.837  1.00  0.00     0.006 A 
ATOM     11  C   UNL A   1      35.141  21.265  24.587  1.00  0.00     0.045 A 
ATOM     12  C   UNL A   1      34.998  22.404  23.798  1.00  0.00     0.026 A 
BRANCH  11  13
ATOM     13  N   UNL A   1      34.190  20.213  24.675  1.00  0.00    -0.322 N 
ATOM     14  C   UNL A   1      32.958  20.110  25.299  1.00  0.00     0.255 C 
ATOM     15  H   UNL A   1      34.460  19.396  24.197  1.00  0.00     0.170 HD
ATOM     16  O   UNL A   1      32.399  19.030  25.457  1.00  0.00    -0.269 OA
BRANCH  14  17
ATOM     17  C   UNL A   1      32.228  21.338  25.644  1.00  0.00     0.041 A 
ATOM     18  C   UNL A   1      32.278  21.861  26.956  1.00  0.00     0.015 A 
ATOM     19  C   UNL A   1      31.730  22.075  24.573  1.00  0.00     0.028 A 
ATOM     20  C   UNL A   1      32.020  23.226  27.166  1.00  0.00     0.015 A 
ATOM     21  C   UNL A   1      31.503  23.408  24.820  1.00  0.00     0.054 A 
ATOM     22  C   UNL A   1      31.706  23.988  26.049  1.00  0.00     0.053 A 
ATOM     23  C   UNL A   1      31.370  24.459  23.838  1.00  0.00     0.266 C 
ATOM     24  C   UNL A   1      31.763  25.437  25.819  1.00  0.00     0.266 C 
ATOM     25  O   UNL A   1      30.985  24.189  22.715  1.00  0.00    -0.268 OA
ATOM     26  N   UNL A   1      31.778  25.625  24.450  1.00  0.00    -0.242 N 
ATOM     27  O   UNL A   1      31.710  26.212  26.756  1.00  0.00    -0.268 OA
BRANCH  26  28
ATOM     28  C   UNL A   1      32.200  26.786  23.711  1.00  0.00     0.060 A 
ATOM     29  C   UNL A   1      33.590  27.033  23.590  1.00  0.00     0.027 A 
ATOM     30  C   UNL A   1      31.329  27.792  23.213  1.00  0.00     0.006 A 
ATOM     31  C   UNL A   1      34.116  28.201  23.033  1.00  0.00     0.002 A 
ATOM     32  C   UNL A   1      31.891  28.954  22.615  1.00  0.00     0.011 A 
ATOM     33  C   UNL A   1      33.263  29.164  22.537  1.00  0.00     0.001 A 
BRANCH  30  34
ATOM     34  C   UNL A   1      29.869  27.844  23.382  1.00  0.00    -0.016 A 
ATOM     35  C   UNL A   1      29.155  26.724  23.834  1.00  0.00     0.009 A 
ATOM     36  C   UNL A   1      29.145  28.977  22.976  1.00  0.00     0.009 A 
ATOM     37  C   UNL A   1      27.761  26.755  23.930  1.00  0.00     0.001 A 
ATOM     38  C   UNL A   1      27.750  29.005  23.064  1.00  0.00     0.001 A 
ATOM     39  C   UNL A   1      27.061  27.897  23.549  1.00  0.00     0.000 A 
ENDBRANCH  30  34
ENDBRANCH  26  28
ENDBRANCH  14  17
ENDBRANCH  11  13
ENDBRANCH   6   7
ENDBRANCH   5   6
ENDBRANCH   2   5
BRANCH   3  40
ATOM     40  C   UNL A   1      43.117  22.201  26.690  1.00  0.00     0.117 C 
BRANCH  40  41
ATOM     41  C   UNL A   1      43.540  23.228  25.656  1.00  0.00     0.042 C 
BRANCH  41  42
ATOM     42  C   UNL A   1      43.734  24.633  26.216  1.00  0.00     0.118 C 
BRANCH  42  43
ATOM     43  N   UNL A   1      43.518  25.683  25.228  1.00  0.00    -0.352 N 
ATOM     44  C   UNL A   1      43.031  26.959  25.384  1.00  0.00     0.251 C 
ATOM     45  H   UNL A   1      43.759  25.441  24.305  1.00  0.00     0.163 HD
ATOM     46  O   UNL A   1      42.805  27.641  24.388  1.00  0.00    -0.269 OA
BRANCH  44  47
ATOM     47  C   UNL A   1      42.752  27.501  26.732  1.00  0.00     0.039 A 
ATOM     48  C   UNL A   1      43.424  28.656  27.145  1.00  0.00     0.014 A 
ATOM     49  C   UNL A   1      41.844  26.879  27.594  1.00  0.00     0.014 A 
ATOM     50  C   UNL A   1      43.127  29.229  28.384  1.00  0.00     0.010 A 
ATOM     51  C   UNL A   1      41.495  27.492  28.795  1.00  0.00     0.010 A 
ATOM     52  C   UNL A   1      42.129  28.676  29.202  1.00  0.00    -0.014 A 
BRANCH  52  53
ATOM     53  C   UNL A   1      41.723  29.324  30.476  1.00  0.00     0.031 A 
ATOM     54  C   UNL A   1      40.491  30.186  30.532  1.00  0.00     0.074 A 
ATOM     55  C   UNL A   1      42.507  29.197  31.566  1.00  0.00     0.049 A 
ATOM     56  N   UNL A   1      40.028  30.903  31.524  1.00  0.00    -0.248 NA
ATOM     57  C   UNL A   1      39.688  30.275  29.302  1.00  0.00     0.031 C 
ATOM     58  C   UNL A   1      43.753  28.431  31.629  1.00  0.00     0.029 A 
ATOM     59  N   UNL A   1      42.379  29.723  32.828  1.00  0.00    -0.354 N 
ATOM     60  C   UNL A   1      38.894  31.540  31.036  1.00  0.00     0.074 A 
ATOM     61  C   UNL A   1      38.764  31.162  29.646  1.00  0.00     0.031 C 
ATOM     62  C   UNL A   1      44.264  28.521  32.867  1.00  0.00     0.029 A 
ATOM     63  C   UNL A   1      43.406  29.380  33.676  1.00  0.00     0.049 A 
ATOM     64  H   UNL A   1      41.622  30.292  33.101  1.00  0.00     0.167 HD
ATOM     65  C   UNL A   1      38.029  32.351  31.692  1.00  0.00     0.037 A 
ATOM     66  C   UNL A   1      43.637  29.726  34.958  1.00  0.00     0.037 A 
ATOM     67  C   UNL A   1      38.145  32.702  33.084  1.00  0.00     0.049 A 
ATOM     68  C   UNL A   1      42.656  30.619  35.667  1.00  0.00     0.074 A 
ATOM     69  C   UNL A   1      37.285  33.467  33.852  1.00  0.00     0.029 A 
ATOM     70  N   UNL A   1      39.183  32.310  33.916  1.00  0.00    -0.354 N 
ATOM     71  N   UNL A   1      41.558  31.167  35.205  1.00  0.00    -0.248 NA
ATOM     72  C   UNL A   1      42.942  30.937  37.074  1.00  0.00     0.031 C 
ATOM     73  C   UNL A   1      37.822  33.568  35.141  1.00  0.00     0.029 A 
ATOM     74  C   UNL A   1      38.994  32.830  35.186  1.00  0.00     0.049 A 
ATOM     75  H   UNL A   1      39.943  31.745  33.644  1.00  0.00     0.167 HD
ATOM     76  C   UNL A   1      41.008  31.873  36.270  1.00  0.00     0.074 A 
ATOM     77  C   UNL A   1      41.890  31.675  37.402  1.00  0.00     0.031 C 
ATOM     78  C   UNL A   1      39.876  32.617  36.306  1.00  0.00     0.037 A 
BRANCH  65  79
ATOM     79  C   UNL A   1      36.873  32.912  30.910  1.00  0.00     0.058 A 
ATOM     80  C   UNL A   1      37.040  33.988  30.022  1.00  0.00     0.135 A 
ATOM     81  C   UNL A   1      35.591  32.350  31.024  1.00  0.00     0.135 A 
ATOM     82  F   UNL A   1      38.241  34.572  29.885  1.00  0.00    -0.206 F 
ATOM     83  C   UNL A   1      35.971  34.507  29.299  1.00  0.00     0.059 A 
ATOM     84  C   UNL A   1      34.512  32.836  30.290  1.00  0.00     0.059 A 
ATOM     85  F   UNL A   1      35.377  31.320  31.857  1.00  0.00    -0.206 F 
ATOM     86  C   UNL A   1      34.710  33.926  29.442  1.00  0.00     0.060 A 
BRANCH  86  87
ATOM     87  S   UNL A   1      33.332  34.611  28.499  1.00  0.00     0.124 S 
ATOM     88  O   UNL A   1      32.419  35.009  29.567  1.00  0.00    -0.237 OA
ATOM     89  O   UNL A   1      33.964  35.704  27.768  1.00  0.00    -0.237 OA
ATOM     90  O   UNL A   1      32.888  33.488  27.680  1.00  0.00    -0.744 OA
ENDBRANCH  86  87
ENDBRANCH  65  79
BRANCH  66  91
ATOM     91  C   UNL A   1      44.840  29.207  35.660  1.00  0.00     0.058 A 
ATOM     92  C   UNL A   1      44.789  28.004  36.379  1.00  0.00     0.135 A 
ATOM     93  C   UNL A   1      46.064  29.891  35.614  1.00  0.00     0.135 A 
ATOM     94  F   UNL A   1      43.638  27.318  36.457  1.00  0.00    -0.206 F 
ATOM     95  C   UNL A   1      45.904  27.503  37.042  1.00  0.00     0.059 A 
ATOM     96  C   UNL A   1      47.199  29.399  36.250  1.00  0.00     0.059 A 
ATOM     97  F   UNL A   1      46.168  31.038  34.925  1.00  0.00    -0.206 F 
ATOM     98  C   UNL A   1      47.107  28.208  36.969  1.00  0.00     0.060 A 
BRANCH  98  99
ATOM     99  S   UNL A   1      48.562  27.523  37.791  1.00  0.00     0.124 S 
ATOM    100  O   UNL A   1      48.593  26.168  37.254  1.00  0.00    -0.237 OA
ATOM    101  O   UNL A   1      49.622  28.416  37.334  1.00  0.00    -0.237 OA
ATOM    102  O   UNL A   1      48.228  27.636  39.208  1.00  0.00    -0.744 OA
ENDBRANCH  98  99
ENDBRANCH  66  91
BRANCH  78 103
ATOM    103  C   UNL A   1      39.504  33.247  37.620  1.00  0.00     0.058 A 
ATOM    104  C   UNL A   1      38.511  32.697  38.445  1.00  0.00     0.135 A 
ATOM    105  C   UNL A   1      40.187  34.384  38.080  1.00  0.00     0.135 A 
ATOM    106  F   UNL A   1      37.824  31.615  38.048  1.00  0.00    -0.206 F 
ATOM    107  C   UNL A   1      38.192  33.267  39.674  1.00  0.00     0.059 A 
ATOM    108  C   UNL A   1      39.902  34.956  39.316  1.00  0.00     0.059 A 
ATOM    109  F   UNL A   1      41.152  34.942  37.332  1.00  0.00    -0.206 F 
ATOM    110  C   UNL A   1      38.894  34.396  40.100  1.00  0.00     0.060 A 
BRANCH 110 111
ATOM    111  S   UNL A   1      38.497  35.106  41.713  1.00  0.00     0.124 S 
ATOM    112  O   UNL A   1      38.765  36.522  41.485  1.00  0.00    -0.237 OA
ATOM    113  O   UNL A   1      37.093  34.745  41.878  1.00  0.00    -0.237 OA
ATOM    114  O   UNL A   1      39.422  34.429  42.617  1.00  0.00    -0.744 OA
ENDBRANCH 110 111
ENDBRANCH  78 103
ENDBRANCH  52  53
ENDBRANCH  44  47
ENDBRANCH  42  43
ENDBRANCH  41  42
ENDBRANCH  40  41
ENDBRANCH   3  40
TORSDOF 19
ENDMDL
MODEL 3
REMARK VINA RESULT:     -13.2      6.090      8.186
REMARK SMILES O=C(COc1cccc(NC(=O)c2ccc3c(c2)C(=O)N(c2ccccc2-c2ccccc2)C3=O)c1)NCCCNC(=O)c1ccc(-c2c3nc(c(-c4c(F)cc(S(=O)(=O)[O-])cc4F)c4ccc([nH]4)c(-c4c(F)cc(S(=O)(=O)[O-])cc4F)c4nc(c(-c5c(F)cc(S(=O)(=O)[O-])cc5F)c5ccc2[nH]5)C=C4)C=C3)cc1
REMARK SMILES IDX 1 1 2 2 37 3 3 5 4 6 5 7 6 8 36 9 7 10 9 11 8 12 10 13 11 14
REMARK SMILES IDX 12 16 13 17 14 18 18 19 15 20 17 21 16 22 19 23 34 24 20 25
REMARK SMILES IDX 21 26 35 27 22 28 23 29 27 30 24 31 26 32 25 33 28 34 29 35
REMARK SMILES IDX 33 36 30 37 32 38 31 39 38 40 39 41 40 42 41 43 42 44 43 46
REMARK SMILES IDX 44 47 45 48 109 49 46 50 108 51 47 52 48 53 49 54 102 55
REMARK SMILES IDX 50 56 107 57 101 58 103 59 51 60 106 61 100 62 99 63 52 65
REMARK SMILES IDX 86 66 65 67 85 68 66 69 69 70 84 71 104 72 67 73 68 74 83 76
REMARK SMILES IDX 105 77 70 78 53 79 54 80 63 81 55 82 56 83 62 84 64 85 57 86
REMARK SMILES IDX 58 87 59 88 60 89 61 90 87 91 88 92 97 93 89 94 90 95 96 96
REMARK SMILES IDX 98 97 91 98 92 99 93 100 94 101 95 102 71 103 72 104 81 105
REMARK SMILES IDX 73 106 74 107 80 108 82 109 75 110 76 111 77 112 78 113
REMARK SMILES IDX 79 114
REMARK H PARENT 37 4 10 15 41 45 103 64 69 75
REMARK Flexibility Score: inf
ROOT
ATOM      1  O   UNL A   1      38.542  20.308  25.363  1.00  0.00    -0.271 OA
ATOM      2  C   UNL A   1      38.421  21.469  25.737  1.00  0.00     0.257 C 
ATOM      3  N   UNL A   1      39.348  22.128  26.518  1.00  0.00    -0.353 N 
ATOM      4  H   UNL A   1      39.268  23.103  26.630  1.00  0.00     0.163 HD
ENDROOT
BRANCH   2   5
ATOM      5  C   UNL A   1      37.184  22.307  25.416  1.00  0.00     0.329 C 
BRANCH   5   6
ATOM      6  O   UNL A   1      36.496  21.923  24.229  1.00  0.00    -0.484 OA
BRANCH   6   7
ATOM      7  C   UNL A   1      35.237  21.412  24.409  1.00  0.00     0.122 A 
ATOM      8  C   UNL A   1      35.195  20.121  24.922  1.00  0.00     0.046 A 
ATOM      9  C   UNL A   1      34.054  22.031  23.973  1.00  0.00     0.072 A 
ATOM     10  C   UNL A   1      33.981  19.452  24.991  1.00  0.00     0.006 A 
ATOM     11  C   UNL A   1      32.822  21.363  24.021  1.00  0.00     0.045 A 
ATOM     12  C   UNL A   1      32.814  20.066  24.528  1.00  0.00     0.026 A 
BRANCH  11  13
ATOM     13  N   UNL A   1      31.700  22.017  23.444  1.00  0.00    -0.322 N 
ATOM     14  C   UNL A   1      31.348  23.351  23.328  1.00  0.00     0.255 C 
ATOM     15  H   UNL A   1      31.043  21.399  23.048  1.00  0.00     0.170 HD
ATOM     16  O   UNL A   1      30.218  23.698  23.005  1.00  0.00    -0.269 OA
BRANCH  14  17
ATOM     17  C   UNL A   1      32.394  24.378  23.441  1.00  0.00     0.041 A 
ATOM     18  C   UNL A   1      33.055  24.862  22.289  1.00  0.00     0.015 A 
ATOM     19  C   UNL A   1      32.494  25.016  24.674  1.00  0.00     0.028 A 
ATOM     20  C   UNL A   1      33.658  26.131  22.321  1.00  0.00     0.015 A 
ATOM     21  C   UNL A   1      33.081  26.259  24.657  1.00  0.00     0.054 A 
ATOM     22  C   UNL A   1      33.583  26.836  23.514  1.00  0.00     0.053 A 
ATOM     23  C   UNL A   1      32.972  27.282  25.671  1.00  0.00     0.266 C 
ATOM     24  C   UNL A   1      33.733  28.266  23.805  1.00  0.00     0.266 C 
ATOM     25  O   UNL A   1      32.740  26.964  26.823  1.00  0.00    -0.268 OA
ATOM     26  N   UNL A   1      33.138  28.492  25.032  1.00  0.00    -0.242 N 
ATOM     27  O   UNL A   1      34.365  28.985  23.052  1.00  0.00    -0.268 OA
BRANCH  26  28
ATOM     28  C   UNL A   1      32.681  29.737  25.589  1.00  0.00     0.060 A 
ATOM     29  C   UNL A   1      33.426  30.308  26.651  1.00  0.00     0.027 A 
ATOM     30  C   UNL A   1      31.454  30.372  25.260  1.00  0.00     0.006 A 
ATOM     31  C   UNL A   1      33.000  31.426  27.371  1.00  0.00     0.002 A 
ATOM     32  C   UNL A   1      31.063  31.532  25.984  1.00  0.00     0.011 A 
ATOM     33  C   UNL A   1      31.816  32.046  27.033  1.00  0.00     0.001 A 
BRANCH  30  34
ATOM     34  C   UNL A   1      30.434  29.869  24.326  1.00  0.00    -0.016 A 
ATOM     35  C   UNL A   1      29.481  30.732  23.764  1.00  0.00     0.009 A 
ATOM     36  C   UNL A   1      30.316  28.492  24.076  1.00  0.00     0.009 A 
ATOM     37  C   UNL A   1      28.474  30.240  22.930  1.00  0.00     0.001 A 
ATOM     38  C   UNL A   1      29.303  27.998  23.249  1.00  0.00     0.001 A 
ATOM     39  C   UNL A   1      28.389  28.874  22.670  1.00  0.00     0.000 A 
ENDBRANCH  30  34
ENDBRANCH  26  28
ENDBRANCH  14  17
ENDBRANCH  11  13
ENDBRANCH   6   7
ENDBRANCH   5   6
ENDBRANCH   2   5
BRANCH   3  40
ATOM     40  C   UNL A   1      40.436  21.440  27.178  1.00  0.00     0.117 C 
BRANCH  40  41
ATOM     41  C   UNL A   1      41.581  21.100  26.243  1.00  0.00     0.042 C 
BRANCH  41  42
ATOM     42  C   UNL A   1      42.307  19.804  26.590  1.00  0.00     0.118 C 
BRANCH  42  43
ATOM     43  N   UNL A   1      43.140  19.301  25.505  1.00  0.00    -0.352 N 
ATOM     44  C   UNL A   1      44.093  19.942  24.750  1.00  0.00     0.251 C 
ATOM     45  H   UNL A   1      42.999  18.353  25.279  1.00  0.00     0.163 HD
ATOM     46  O   UNL A   1      44.590  19.359  23.789  1.00  0.00    -0.269 OA
BRANCH  44  47
ATOM     47  C   UNL A   1      44.501  21.328  25.067  1.00  0.00     0.039 A 
ATOM     48  C   UNL A   1      44.176  22.347  24.166  1.00  0.00     0.014 A 
ATOM     49  C   UNL A   1      45.207  21.630  26.235  1.00  0.00     0.014 A 
ATOM     50  C   UNL A   1      44.488  23.674  24.475  1.00  0.00     0.010 A 
ATOM     51  C   UNL A   1      45.449  22.959  26.576  1.00  0.00     0.010 A 
ATOM     52  C   UNL A   1      45.088  23.996  25.702  1.00  0.00    -0.014 A 
BRANCH  52  53
ATOM     53  C   UNL A   1      45.335  25.407  26.098  1.00  0.00     0.031 A 
ATOM     54  C   UNL A   1      46.717  25.993  26.003  1.00  0.00     0.074 A 
ATOM     55  C   UNL A   1      44.327  26.139  26.615  1.00  0.00     0.049 A 
ATOM     56  N   UNL A   1      47.144  27.170  26.383  1.00  0.00    -0.248 NA
ATOM     57  C   UNL A   1      47.764  25.133  25.429  1.00  0.00     0.031 C 
ATOM     58  C   UNL A   1      42.952  25.671  26.806  1.00  0.00     0.029 A 
ATOM     59  N   UNL A   1      44.306  27.428  27.087  1.00  0.00    -0.354 N 
ATOM     60  C   UNL A   1      48.507  27.187  26.113  1.00  0.00     0.074 A 
ATOM     61  C   UNL A   1      48.845  25.885  25.578  1.00  0.00     0.031 C 
ATOM     62  C   UNL A   1      42.219  26.663  27.338  1.00  0.00     0.029 A 
ATOM     63  C   UNL A   1      43.076  27.822  27.561  1.00  0.00     0.049 A 
ATOM     64  H   UNL A   1      45.096  28.015  27.087  1.00  0.00     0.167 HD
ATOM     65  C   UNL A   1      49.392  28.199  26.276  1.00  0.00     0.037 A 
ATOM     66  C   UNL A   1      42.684  28.983  28.121  1.00  0.00     0.037 A 
ATOM     67  C   UNL A   1      49.046  29.503  26.781  1.00  0.00     0.049 A 
ATOM     68  C   UNL A   1      43.682  30.097  28.282  1.00  0.00     0.074 A 
ATOM     69  C   UNL A   1      49.858  30.613  26.926  1.00  0.00     0.029 A 
ATOM     70  N   UNL A   1      47.783  29.873  27.221  1.00  0.00    -0.354 N 
ATOM     71  N   UNL A   1      44.956  30.113  27.968  1.00  0.00    -0.248 NA
ATOM     72  C   UNL A   1      43.191  31.352  28.869  1.00  0.00     0.031 C 
ATOM     73  C   UNL A   1      49.097  31.644  27.487  1.00  0.00     0.029 A 
ATOM     74  C   UNL A   1      47.799  31.190  27.653  1.00  0.00     0.049 A 
ATOM     75  H   UNL A   1      46.992  29.286  27.227  1.00  0.00     0.167 HD
ATOM     76  C   UNL A   1      45.411  31.386  28.294  1.00  0.00     0.074 A 
ATOM     77  C   UNL A   1      44.276  32.114  28.822  1.00  0.00     0.031 C 
ATOM     78  C   UNL A   1      46.658  31.904  28.168  1.00  0.00     0.037 A 
BRANCH  65  79
ATOM     79  C   UNL A   1      50.824  27.939  25.899  1.00  0.00     0.058 A 
ATOM     80  C   UNL A   1      51.777  27.553  26.856  1.00  0.00     0.135 A 
ATOM     81  C   UNL A   1      51.243  28.045  24.563  1.00  0.00     0.135 A 
ATOM     82  F   UNL A   1      51.434  27.451  28.150  1.00  0.00    -0.206 F 
ATOM     83  C   UNL A   1      53.102  27.313  26.507  1.00  0.00     0.059 A 
ATOM     84  C   UNL A   1      52.558  27.783  24.187  1.00  0.00     0.059 A 
ATOM     85  F   UNL A   1      50.373  28.409  23.608  1.00  0.00    -0.206 F 
ATOM     86  C   UNL A   1      53.484  27.433  25.170  1.00  0.00     0.060 A 
BRANCH  86  87
ATOM     87  S   UNL A   1      55.207  27.120  24.732  1.00  0.00     0.124 S 
ATOM     88  O   UNL A   1      55.797  28.443  24.917  1.00  0.00    -0.237 OA
ATOM     89  O   UNL A   1      55.600  26.110  25.708  1.00  0.00    -0.237 OA
ATOM     90  O   UNL A   1      55.128  26.656  23.350  1.00  0.00    -0.744 OA
ENDBRANCH  86  87
ENDBRANCH  65  79
BRANCH  66  91
ATOM     91  C   UNL A   1      41.272  29.159  28.551  1.00  0.00     0.058 A 
ATOM     92  C   UNL A   1      40.933  29.183  29.912  1.00  0.00     0.135 A 
ATOM     93  C   UNL A   1      40.239  29.321  27.616  1.00  0.00     0.135 A 
ATOM     94  F   UNL A   1      41.886  29.026  30.843  1.00  0.00    -0.206 F 
ATOM     95  C   UNL A   1      39.618  29.346  30.332  1.00  0.00     0.059 A 
ATOM     96  C   UNL A   1      38.919  29.509  28.011  1.00  0.00     0.059 A 
ATOM     97  F   UNL A   1      40.515  29.322  26.302  1.00  0.00    -0.206 F 
ATOM     98  C   UNL A   1      38.617  29.512  29.373  1.00  0.00     0.060 A 
BRANCH  98  99
ATOM     99  S   UNL A   1      36.918  29.773  29.929  1.00  0.00     0.124 S 
ATOM    100  O   UNL A   1      36.909  31.210  30.179  1.00  0.00    -0.237 OA
ATOM    101  O   UNL A   1      36.144  29.319  28.779  1.00  0.00    -0.237 OA
ATOM    102  O   UNL A   1      36.822  28.925  31.114  1.00  0.00    -0.744 OA
ENDBRANCH  98  99
ENDBRANCH  66  91
BRANCH  78 103
ATOM    103  C   UNL A   1      46.855  33.338  28.575  1.00  0.00     0.058 A 
ATOM    104  C   UNL A   1      47.322  33.683  29.852  1.00  0.00     0.135 A 
ATOM    105  C   UNL A   1      46.622  34.375  27.657  1.00  0.00     0.135 A 
ATOM    106  F   UNL A   1      47.553  32.729  30.768  1.00  0.00    -0.206 F 
ATOM    107  C   UNL A   1      47.531  35.010  30.214  1.00  0.00     0.059 A 
ATOM    108  C   UNL A   1      46.848  35.707  27.989  1.00  0.00     0.059 A 
ATOM    109  F   UNL A   1      46.184  34.096  26.420  1.00  0.00    -0.206 F 
ATOM    110  C   UNL A   1      47.292  36.015  29.275  1.00  0.00     0.060 A 
BRANCH 110 111
ATOM    111  S   UNL A   1      47.602  37.731  29.743  1.00  0.00     0.124 S 
ATOM    112  O   UNL A   1      46.847  38.454  28.724  1.00  0.00    -0.237 OA
ATOM    113  O   UNL A   1      47.059  37.791  31.096  1.00  0.00    -0.237 OA
ATOM    114  O   UNL A   1      49.054  37.850  29.651  1.00  0.00    -0.744 OA
ENDBRANCH 110 111
ENDBRANCH  78 103
ENDBRANCH  52  53
ENDBRANCH  44  47
ENDBRANCH  42  43
ENDBRANCH  41  42
ENDBRANCH  40  41
ENDBRANCH   3  40
TORSDOF 19
ENDMDL
