MODEL 1
REMARK VINA RESULT:     -12.0      0.000      0.000
REMARK SMILES CC[C@@H]1CCCN(S(=O)(=O)c2cc(C(=O)NCCCNC(=O)c3ccc(-c4c5nc(c(-c6c(F)cc(S(=O)(=O)[O-])cc6F)c6ccc([nH]6)c(-c6c(F)cc(S(=O)(=O)[O-])cc6F)c6nc(c(-c7c(F)cc(S(=O)(=O)[O-])cc7F)c7ccc4[nH]7)C=C6)C=C5)cc3)ccc2F)C1
REMARK SMILES IDX 18 1 17 2 16 3 14 4 15 5 13 7 11 8 12 9 91 10 90 11 92 12
REMARK SMILES IDX 89 13 8 14 9 15 10 16 7 17 3 18 4 19 93 20 5 21 6 22 2 23
REMARK SMILES IDX 1 24 19 25 20 26 21 27 22 29 23 30 24 31 88 32 25 33 87 34
REMARK SMILES IDX 26 35 27 36 28 37 81 38 29 39 86 40 80 41 82 42 30 43 85 44
REMARK SMILES IDX 79 45 78 46 31 48 65 49 44 50 64 51 45 52 48 53 63 54 83 55
REMARK SMILES IDX 46 56 47 57 62 59 84 60 49 61 32 62 33 63 42 64 34 65 35 66
REMARK SMILES IDX 41 67 43 68 36 69 37 70 38 71 39 72 40 73 66 74 67 75 76 76
REMARK SMILES IDX 68 77 69 78 75 79 77 80 70 81 71 82 72 83 73 84 74 85 50 86
REMARK SMILES IDX 51 87 60 88 52 89 53 90 59 91 61 92 54 93 55 94 56 95 57 96
REMARK SMILES IDX 58 97
REMARK H PARENT 16 6 20 28 82 47 48 58
REMARK Flexibility Score: inf
ROOT
ATOM      1  C   UNL A   1      40.039  22.201  26.929  1.00  0.00     0.042 C 
ENDROOT
BRANCH   1   2
ATOM      2  C   UNL A   1      38.775  22.956  26.515  1.00  0.00     0.118 C 
BRANCH   2   3
ATOM      3  N   UNL A   1      38.232  22.482  25.254  1.00  0.00    -0.352 N 
ATOM      4  C   UNL A   1      36.987  22.547  24.684  1.00  0.00     0.251 C 
ATOM      5  O   UNL A   1      36.896  22.182  23.510  1.00  0.00    -0.269 OA
ATOM      6  H   UNL A   1      38.895  22.019  24.694  1.00  0.00     0.163 HD
BRANCH   4   7
ATOM      7  C   UNL A   1      35.750  23.021  25.379  1.00  0.00     0.041 A 
ATOM      8  C   UNL A   1      33.935  24.665  25.417  1.00  0.00     0.119 A 
ATOM      9  C   UNL A   1      35.162  24.214  24.905  1.00  0.00     0.038 A 
ATOM     10  C   UNL A   1      33.287  23.926  26.395  1.00  0.00     0.143 A 
ATOM     11  C   UNL A   1      33.866  22.767  26.898  1.00  0.00     0.041 A 
ATOM     12  F   UNL A   1      32.101  24.300  26.891  1.00  0.00    -0.206 F 
ATOM     13  C   UNL A   1      35.080  22.309  26.379  1.00  0.00     0.017 A 
BRANCH   8  14
ATOM     14  S   UNL A   1      33.101  26.025  24.663  1.00  0.00     0.246 S 
ATOM     15  O   UNL A   1      31.757  25.602  24.312  1.00  0.00    -0.207 OA
ATOM     16  O   UNL A   1      33.974  26.558  23.640  1.00  0.00    -0.207 OA
BRANCH  14  17
ATOM     17  N   UNL A   1      32.958  27.256  25.876  1.00  0.00    -0.197 NA
ATOM     18  C   UNL A   1      33.339  29.711  26.330  1.00  0.00     0.004 C 
ATOM     19  C   UNL A   1      31.996  29.754  27.068  1.00  0.00     0.006 C 
ATOM     20  C   UNL A   1      33.344  28.587  25.287  1.00  0.00     0.106 C 
ATOM     21  C   UNL A   1      31.605  28.397  27.624  1.00  0.00     0.017 C 
ATOM     22  C   UNL A   1      31.626  27.324  26.542  1.00  0.00     0.102 C 
BRANCH  18  23
ATOM     23  C   UNL A   1      34.561  29.735  27.277  1.00  0.00     0.001 C 
ATOM     24  C   UNL A   1      34.966  31.073  27.878  1.00  0.00     0.004 C 
ENDBRANCH  18  23
ENDBRANCH  14  17
ENDBRANCH   8  14
ENDBRANCH   4   7
ENDBRANCH   2   3
ENDBRANCH   1   2
BRANCH   1  25
ATOM     25  C   UNL A   1      41.228  23.101  27.270  1.00  0.00     0.118 C 
BRANCH  25  26
ATOM     26  N   UNL A   1      41.597  23.966  26.159  1.00  0.00    -0.352 N 
ATOM     27  C   UNL A   1      41.587  25.335  26.053  1.00  0.00     0.251 C 
ATOM     28  H   UNL A   1      41.905  23.492  25.353  1.00  0.00     0.163 HD
ATOM     29  O   UNL A   1      41.726  25.840  24.940  1.00  0.00    -0.269 OA
BRANCH  27  30
ATOM     30  C   UNL A   1      41.408  26.207  27.238  1.00  0.00     0.039 A 
ATOM     31  C   UNL A   1      40.321  25.965  28.087  1.00  0.00     0.014 A 
ATOM     32  C   UNL A   1      42.242  27.302  27.479  1.00  0.00     0.014 A 
ATOM     33  C   UNL A   1      40.101  26.786  29.197  1.00  0.00     0.010 A 
ATOM     34  C   UNL A   1      42.055  28.087  28.618  1.00  0.00     0.010 A 
ATOM     35  C   UNL A   1      40.980  27.842  29.486  1.00  0.00    -0.014 A 
BRANCH  35  36
ATOM     36  C   UNL A   1      40.787  28.700  30.684  1.00  0.00     0.031 A 
ATOM     37  C   UNL A   1      39.726  29.768  30.690  1.00  0.00     0.074 A 
ATOM     38  C   UNL A   1      41.597  28.549  31.752  1.00  0.00     0.049 A 
ATOM     39  N   UNL A   1      39.470  30.672  31.601  1.00  0.00    -0.248 NA
ATOM     40  C   UNL A   1      38.849  29.840  29.511  1.00  0.00     0.031 C 
ATOM     41  C   UNL A   1      42.675  27.564  31.860  1.00  0.00     0.029 A 
ATOM     42  N   UNL A   1      41.645  29.226  32.944  1.00  0.00    -0.354 N 
ATOM     43  C   UNL A   1      38.416  31.428  31.102  1.00  0.00     0.074 A 
ATOM     44  C   UNL A   1      38.103  30.901  29.791  1.00  0.00     0.031 C 
ATOM     45  C   UNL A   1      43.264  27.687  33.061  1.00  0.00     0.029 A 
ATOM     46  C   UNL A   1      42.632  28.782  33.792  1.00  0.00     0.049 A 
ATOM     47  H   UNL A   1      41.032  29.961  33.171  1.00  0.00     0.167 HD
ATOM     48  C   UNL A   1      37.757  32.454  31.690  1.00  0.00     0.037 A 
ATOM     49  C   UNL A   1      42.995  29.212  35.017  1.00  0.00     0.037 A 
ATOM     50  C   UNL A   1      38.049  32.956  33.007  1.00  0.00     0.049 A 
ATOM     51  C   UNL A   1      42.252  30.358  35.646  1.00  0.00     0.074 A 
ATOM     52  C   UNL A   1      37.414  33.972  33.701  1.00  0.00     0.029 A 
ATOM     53  N   UNL A   1      39.051  32.472  33.835  1.00  0.00    -0.354 N 
ATOM     54  N   UNL A   1      41.249  31.050  35.163  1.00  0.00    -0.248 NA
ATOM     55  C   UNL A   1      42.689  30.783  36.983  1.00  0.00     0.031 C 
ATOM     56  C   UNL A   1      38.049  34.120  34.939  1.00  0.00     0.029 A 
ATOM     57  C   UNL A   1      39.057  33.173  35.029  1.00  0.00     0.049 A 
ATOM     58  H   UNL A   1      39.668  31.739  33.608  1.00  0.00     0.167 HD
ATOM     59  C   UNL A   1      40.923  31.979  36.144  1.00  0.00     0.074 A 
ATOM     60  C   UNL A   1      41.828  31.755  37.253  1.00  0.00     0.031 C 
ATOM     61  C   UNL A   1      39.959  32.932  36.127  1.00  0.00     0.037 A 
BRANCH  48  62
ATOM     62  C   UNL A   1      36.636  33.100  30.925  1.00  0.00     0.058 A 
ATOM     63  C   UNL A   1      36.906  33.988  29.872  1.00  0.00     0.135 A 
ATOM     64  C   UNL A   1      35.294  32.892  31.279  1.00  0.00     0.135 A 
ATOM     65  F   UNL A   1      38.171  34.219  29.488  1.00  0.00    -0.206 F 
ATOM     66  C   UNL A   1      35.884  34.659  29.206  1.00  0.00     0.059 A 
ATOM     67  C   UNL A   1      34.255  33.535  30.614  1.00  0.00     0.059 A 
ATOM     68  F   UNL A   1      34.982  32.036  32.266  1.00  0.00    -0.206 F 
ATOM     69  C   UNL A   1      34.561  34.429  29.588  1.00  0.00     0.060 A 
BRANCH  69  70
ATOM     70  S   UNL A   1      33.243  35.283  28.698  1.00  0.00     0.124 S 
ATOM     71  O   UNL A   1      33.993  36.248  27.904  1.00  0.00    -0.237 OA
ATOM     72  O   UNL A   1      32.617  34.194  27.954  1.00  0.00    -0.237 OA
ATOM     73  O   UNL A   1      32.424  35.847  29.768  1.00  0.00    -0.744 OA
ENDBRANCH  69  70
ENDBRANCH  48  62
BRANCH  49  74
ATOM     74  C   UNL A   1      44.102  28.533  35.738  1.00  0.00     0.058 A 
ATOM     75  C   UNL A   1      45.441  28.902  35.539  1.00  0.00     0.135 A 
ATOM     76  C   UNL A   1      43.840  27.477  36.623  1.00  0.00     0.135 A 
ATOM     77  F   UNL A   1      45.745  29.900  34.694  1.00  0.00    -0.206 F 
ATOM     78  C   UNL A   1      46.483  28.234  36.172  1.00  0.00     0.059 A 
ATOM     79  C   UNL A   1      44.862  26.806  37.287  1.00  0.00     0.059 A 
ATOM     80  F   UNL A   1      42.573  27.098  36.855  1.00  0.00    -0.206 F 
ATOM     81  C   UNL A   1      46.183  27.182  37.040  1.00  0.00     0.060 A 
BRANCH  81  82
ATOM     82  S   UNL A   1      47.548  26.317  37.846  1.00  0.00     0.124 S 
ATOM     83  O   UNL A   1      48.617  26.491  36.869  1.00  0.00    -0.237 OA
ATOM     84  O   UNL A   1      47.695  27.065  39.090  1.00  0.00    -0.237 OA
ATOM     85  O   UNL A   1      47.044  24.956  37.993  1.00  0.00    -0.744 OA
ENDBRANCH  81  82
ENDBRANCH  49  74
BRANCH  61  86
ATOM     86  C   UNL A   1      39.810  33.794  37.347  1.00  0.00     0.058 A 
ATOM     87  C   UNL A   1      38.914  33.437  38.366  1.00  0.00     0.135 A 
ATOM     88  C   UNL A   1      40.492  35.014  37.468  1.00  0.00     0.135 A 
ATOM     89  F   UNL A   1      38.236  32.279  38.296  1.00  0.00    -0.206 F 
ATOM     90  C   UNL A   1      38.683  34.269  39.456  1.00  0.00     0.059 A 
ATOM     91  C   UNL A   1      40.292  35.855  38.559  1.00  0.00     0.059 A 
ATOM     92  F   UNL A   1      41.369  35.394  36.524  1.00  0.00    -0.206 F 
ATOM     93  C   UNL A   1      39.372  35.481  39.539  1.00  0.00     0.060 A 
BRANCH  93  94
ATOM     94  S   UNL A   1      39.063  36.552  40.960  1.00  0.00     0.124 S 
ATOM     95  O   UNL A   1      38.536  37.752  40.320  1.00  0.00    -0.237 OA
ATOM     96  O   UNL A   1      38.103  35.770  41.735  1.00  0.00    -0.237 OA
ATOM     97  O   UNL A   1      40.383  36.691  41.569  1.00  0.00    -0.744 OA
ENDBRANCH  93  94
ENDBRANCH  61  86
ENDBRANCH  35  36
ENDBRANCH  27  30
ENDBRANCH  25  26
ENDBRANCH   1  25
TORSDOF 16
ENDMDL
MODEL 2
REMARK VINA RESULT:     -11.9      1.236      8.254
REMARK SMILES CC[C@@H]1CCCN(S(=O)(=O)c2cc(C(=O)NCCCNC(=O)c3ccc(-c4c5nc(c(-c6c(F)cc(S(=O)(=O)[O-])cc6F)c6ccc([nH]6)c(-c6c(F)cc(S(=O)(=O)[O-])cc6F)c6nc(c(-c7c(F)cc(S(=O)(=O)[O-])cc7F)c7ccc4[nH]7)C=C6)C=C5)cc3)ccc2F)C1
REMARK SMILES IDX 18 1 17 2 16 3 14 4 15 5 13 7 11 8 12 9 91 10 90 11 92 12
REMARK SMILES IDX 89 13 8 14 9 15 10 16 7 17 3 18 4 19 93 20 5 21 6 22 2 23
REMARK SMILES IDX 1 24 19 25 20 26 21 27 22 29 23 30 24 31 88 32 25 33 87 34
REMARK SMILES IDX 26 35 27 36 28 37 81 38 29 39 86 40 80 41 82 42 30 43 85 44
REMARK SMILES IDX 79 45 78 46 31 48 65 49 44 50 64 51 45 52 48 53 63 54 83 55
REMARK SMILES IDX 46 56 47 57 62 59 84 60 49 61 32 62 33 63 42 64 34 65 35 66
REMARK SMILES IDX 41 67 43 68 36 69 37 70 38 71 39 72 40 73 66 74 67 75 76 76
REMARK SMILES IDX 68 77 69 78 75 79 77 80 70 81 71 82 72 83 73 84 74 85 50 86
REMARK SMILES IDX 51 87 60 88 52 89 53 90 59 91 61 92 54 93 55 94 56 95 57 96
REMARK SMILES IDX 58 97
REMARK H PARENT 16 6 20 28 82 47 48 58
REMARK Flexibility Score: inf
ROOT
ATOM      1  C   UNL A   1      37.423  23.607  25.389  1.00  0.00     0.042 C 
ENDROOT
BRANCH   1   2
ATOM      2  C   UNL A   1      36.758  22.258  25.668  1.00  0.00     0.118 C 
BRANCH   2   3
ATOM      3  N   UNL A   1      35.562  22.386  26.482  1.00  0.00    -0.352 N 
ATOM      4  C   UNL A   1      34.258  22.694  26.193  1.00  0.00     0.251 C 
ATOM      5  O   UNL A   1      33.441  22.559  27.107  1.00  0.00    -0.269 OA
ATOM      6  H   UNL A   1      35.721  22.217  27.439  1.00  0.00     0.163 HD
BRANCH   4   7
ATOM      7  C   UNL A   1      33.765  23.177  24.866  1.00  0.00     0.041 A 
ATOM      8  C   UNL A   1      32.965  25.088  23.559  1.00  0.00     0.119 A 
ATOM      9  C   UNL A   1      33.328  24.517  24.790  1.00  0.00     0.038 A 
ATOM     10  C   UNL A   1      33.046  24.329  22.401  1.00  0.00     0.143 A 
ATOM     11  C   UNL A   1      33.443  22.999  22.460  1.00  0.00     0.041 A 
ATOM     12  F   UNL A   1      32.742  24.840  21.202  1.00  0.00    -0.206 F 
ATOM     13  C   UNL A   1      33.818  22.434  23.682  1.00  0.00     0.017 A 
BRANCH   8  14
ATOM     14  S   UNL A   1      32.640  26.819  23.441  1.00  0.00     0.246 S 
ATOM     15  O   UNL A   1      31.307  26.999  22.896  1.00  0.00    -0.207 OA
ATOM     16  O   UNL A   1      33.773  27.429  22.780  1.00  0.00    -0.207 OA
BRANCH  14  17
ATOM     17  N   UNL A   1      32.628  27.435  25.062  1.00  0.00    -0.197 NA
ATOM     18  C   UNL A   1      33.236  29.436  26.476  1.00  0.00     0.004 C 
ATOM     19  C   UNL A   1      31.913  29.268  27.233  1.00  0.00     0.006 C 
ATOM     20  C   UNL A   1      33.123  28.856  25.061  1.00  0.00     0.106 C 
ATOM     21  C   UNL A   1      31.409  27.837  27.193  1.00  0.00     0.017 C 
ATOM     22  C   UNL A   1      31.317  27.318  25.762  1.00  0.00     0.102 C 
BRANCH  18  23
ATOM     23  C   UNL A   1      34.468  28.969  27.284  1.00  0.00     0.001 C 
ATOM     24  C   UNL A   1      35.712  29.844  27.251  1.00  0.00     0.004 C 
ENDBRANCH  18  23
ENDBRANCH  14  17
ENDBRANCH   8  14
ENDBRANCH   4   7
ENDBRANCH   2   3
ENDBRANCH   1   2
BRANCH   1  25
ATOM     25  C   UNL A   1      38.355  24.093  26.499  1.00  0.00     0.118 C 
BRANCH  25  26
ATOM     26  N   UNL A   1      39.758  23.941  26.141  1.00  0.00    -0.352 N 
ATOM     27  C   UNL A   1      40.853  24.694  26.488  1.00  0.00     0.251 C 
ATOM     28  H   UNL A   1      39.953  23.174  25.557  1.00  0.00     0.163 HD
ATOM     29  O   UNL A   1      41.909  24.510  25.884  1.00  0.00    -0.269 OA
BRANCH  27  30
ATOM     30  C   UNL A   1      40.788  25.717  27.559  1.00  0.00     0.039 A 
ATOM     31  C   UNL A   1      39.770  25.619  28.514  1.00  0.00     0.014 A 
ATOM     32  C   UNL A   1      41.660  26.809  27.588  1.00  0.00     0.014 A 
ATOM     33  C   UNL A   1      39.657  26.583  29.521  1.00  0.00     0.010 A 
ATOM     34  C   UNL A   1      41.582  27.740  28.625  1.00  0.00     0.010 A 
ATOM     35  C   UNL A   1      40.577  27.640  29.599  1.00  0.00    -0.014 A 
BRANCH  35  36
ATOM     36  C   UNL A   1      40.499  28.652  30.686  1.00  0.00     0.031 A 
ATOM     37  C   UNL A   1      41.421  28.563  31.873  1.00  0.00     0.074 A 
ATOM     38  C   UNL A   1      39.568  29.625  30.628  1.00  0.00     0.049 A 
ATOM     39  N   UNL A   1      41.440  29.292  32.959  1.00  0.00    -0.248 NA
ATOM     40  C   UNL A   1      42.443  27.504  31.843  1.00  0.00     0.031 C 
ATOM     41  C   UNL A   1      38.604  29.807  29.540  1.00  0.00     0.029 A 
ATOM     42  N   UNL A   1      39.274  30.639  31.504  1.00  0.00    -0.354 N 
ATOM     43  C   UNL A   1      42.463  28.776  33.747  1.00  0.00     0.074 A 
ATOM     44  C   UNL A   1      43.017  27.646  33.031  1.00  0.00     0.031 C 
ATOM     45  C   UNL A   1      37.841  30.880  29.804  1.00  0.00     0.029 A 
ATOM     46  C   UNL A   1      38.234  31.440  31.095  1.00  0.00     0.049 A 
ATOM     47  H   UNL A   1      39.762  30.781  32.347  1.00  0.00     0.167 HD
ATOM     48  C   UNL A   1      42.911  29.214  34.947  1.00  0.00     0.037 A 
ATOM     49  C   UNL A   1      37.654  32.499  31.693  1.00  0.00     0.037 A 
ATOM     50  C   UNL A   1      42.379  30.357  35.642  1.00  0.00     0.049 A 
ATOM     51  C   UNL A   1      38.166  32.962  33.028  1.00  0.00     0.074 A 
ATOM     52  C   UNL A   1      42.790  30.897  36.849  1.00  0.00     0.029 A 
ATOM     53  N   UNL A   1      41.331  31.143  35.188  1.00  0.00    -0.354 N 
ATOM     54  N   UNL A   1      39.142  32.469  33.750  1.00  0.00    -0.248 NA
ATOM     55  C   UNL A   1      37.497  34.124  33.632  1.00  0.00     0.031 C 
ATOM     56  C   UNL A   1      41.973  31.995  37.138  1.00  0.00     0.029 A 
ATOM     57  C   UNL A   1      41.076  32.160  36.094  1.00  0.00     0.049 A 
ATOM     58  H   UNL A   1      40.840  31.000  34.347  1.00  0.00     0.167 HD
ATOM     59  C   UNL A   1      39.218  33.270  34.883  1.00  0.00     0.074 A 
ATOM     60  C   UNL A   1      38.197  34.287  34.748  1.00  0.00     0.031 C 
ATOM     61  C   UNL A   1      40.061  33.171  35.941  1.00  0.00     0.037 A 
BRANCH  48  62
ATOM     62  C   UNL A   1      44.048  28.469  35.587  1.00  0.00     0.058 A 
ATOM     63  C   UNL A   1      45.380  28.828  35.322  1.00  0.00     0.135 A 
ATOM     64  C   UNL A   1      43.821  27.357  36.412  1.00  0.00     0.135 A 
ATOM     65  F   UNL A   1      45.653  29.887  34.544  1.00  0.00    -0.206 F 
ATOM     66  C   UNL A   1      46.446  28.099  35.839  1.00  0.00     0.059 A 
ATOM     67  C   UNL A   1      44.872  26.626  36.959  1.00  0.00     0.059 A 
ATOM     68  F   UNL A   1      42.566  26.986  36.714  1.00  0.00    -0.206 F 
ATOM     69  C   UNL A   1      46.182  26.997  36.654  1.00  0.00     0.060 A 
BRANCH  69  70
ATOM     70  S   UNL A   1      47.575  26.076  37.344  1.00  0.00     0.124 S 
ATOM     71  O   UNL A   1      48.608  27.102  37.410  1.00  0.00    -0.237 OA
ATOM     72  O   UNL A   1      47.040  25.625  38.625  1.00  0.00    -0.237 OA
ATOM     73  O   UNL A   1      47.797  25.018  36.363  1.00  0.00    -0.744 OA
ENDBRANCH  69  70
ENDBRANCH  48  62
BRANCH  49  74
ATOM     74  C   UNL A   1      36.540  33.210  31.014  1.00  0.00     0.058 A 
ATOM     75  C   UNL A   1      36.762  34.006  29.881  1.00  0.00     0.135 A 
ATOM     76  C   UNL A   1      35.230  33.125  31.509  1.00  0.00     0.135 A 
ATOM     77  F   UNL A   1      37.999  34.127  29.374  1.00  0.00    -0.206 F 
ATOM     78  C   UNL A   1      35.729  34.714  29.275  1.00  0.00     0.059 A 
ATOM     79  C   UNL A   1      34.175  33.806  30.908  1.00  0.00     0.059 A 
ATOM     80  F   UNL A   1      34.968  32.365  32.583  1.00  0.00    -0.206 F 
ATOM     81  C   UNL A   1      34.439  34.612  29.800  1.00  0.00     0.060 A 
BRANCH  81  82
ATOM     82  S   UNL A   1      33.112  35.546  29.009  1.00  0.00     0.124 S 
ATOM     83  O   UNL A   1      33.865  36.585  28.314  1.00  0.00    -0.237 OA
ATOM     84  O   UNL A   1      32.489  34.537  28.160  1.00  0.00    -0.237 OA
ATOM     85  O   UNL A   1      32.303  36.001  30.134  1.00  0.00    -0.744 OA
ENDBRANCH  81  82
ENDBRANCH  49  74
BRANCH  61  86
ATOM     86  C   UNL A   1      39.936  34.197  37.030  1.00  0.00     0.058 A 
ATOM     87  C   UNL A   1      39.163  33.933  38.170  1.00  0.00     0.135 A 
ATOM     88  C   UNL A   1      40.515  35.468  36.905  1.00  0.00     0.135 A 
ATOM     89  F   UNL A   1      38.587  32.731  38.334  1.00  0.00    -0.206 F 
ATOM     90  C   UNL A   1      38.949  34.903  39.143  1.00  0.00     0.059 A 
ATOM     91  C   UNL A   1      40.332  36.449  37.876  1.00  0.00     0.059 A 
ATOM     92  F   UNL A   1      41.274  35.764  35.837  1.00  0.00    -0.206 F 
ATOM     93  C   UNL A   1      39.532  36.162  38.982  1.00  0.00     0.060 A 
BRANCH  93  94
ATOM     94  S   UNL A   1      39.247  37.412  40.254  1.00  0.00     0.124 S 
ATOM     95  O   UNL A   1      40.610  37.787  40.614  1.00  0.00    -0.237 OA
ATOM     96  O   UNL A   1      38.478  38.421  39.532  1.00  0.00    -0.237 OA
ATOM     97  O   UNL A   1      38.504  36.685  41.280  1.00  0.00    -0.744 OA
ENDBRANCH  93  94
ENDBRANCH  61  86
ENDBRANCH  35  36
ENDBRANCH  27  30
ENDBRANCH  25  26
ENDBRANCH   1  25
TORSDOF 16
ENDMDL
MODEL 3
REMARK VINA RESULT:     -11.8      4.829     10.020
REMARK SMILES CC[C@@H]1CCCN(S(=O)(=O)c2cc(C(=O)NCCCNC(=O)c3ccc(-c4c5nc(c(-c6c(F)cc(S(=O)(=O)[O-])cc6F)c6ccc([nH]6)c(-c6c(F)cc(S(=O)(=O)[O-])cc6F)c6nc(c(-c7c(F)cc(S(=O)(=O)[O-])cc7F)c7ccc4[nH]7)C=C6)C=C5)cc3)ccc2F)C1
REMARK SMILES IDX 18 1 17 2 16 3 14 4 15 5 13 7 11 8 12 9 91 10 90 11 92 12
REMARK SMILES IDX 89 13 8 14 9 15 10 16 7 17 3 18 4 19 93 20 5 21 6 22 2 23
REMARK SMILES IDX 1 24 19 25 20 26 21 27 22 29 23 30 24 31 88 32 25 33 87 34
REMARK SMILES IDX 26 35 27 36 28 37 81 38 29 39 86 40 80 41 82 42 30 43 85 44
REMARK SMILES IDX 79 45 78 46 31 48 65 49 44 50 64 51 45 52 48 53 63 54 83 55
REMARK SMILES IDX 46 56 47 57 62 59 84 60 49 61 32 62 33 63 42 64 34 65 35 66
REMARK SMILES IDX 41 67 43 68 36 69 37 70 38 71 39 72 40 73 66 74 67 75 76 76
REMARK SMILES IDX 68 77 69 78 75 79 77 80 70 81 71 82 72 83 73 84 74 85 50 86
REMARK SMILES IDX 51 87 60 88 52 89 53 90 59 91 61 92 54 93 55 94 56 95 57 96
REMARK SMILES IDX 58 97
REMARK H PARENT 16 6 20 28 82 47 48 58
REMARK Flexibility Score: inf
ROOT
ATOM      1  C   UNL A   1      33.339  28.465  24.955  1.00  0.00     0.042 C 
ENDROOT
BRANCH   1   2
ATOM      2  C   UNL A   1      32.160  29.433  24.832  1.00  0.00     0.118 C 
BRANCH   2   3
ATOM      3  N   UNL A   1      31.459  29.298  23.568  1.00  0.00    -0.352 N 
ATOM      4  C   UNL A   1      30.775  28.266  22.979  1.00  0.00     0.251 C 
ATOM      5  O   UNL A   1      30.148  28.532  21.951  1.00  0.00    -0.269 OA
ATOM      6  H   UNL A   1      31.480  30.116  23.020  1.00  0.00     0.163 HD
BRANCH   4   7
ATOM      7  C   UNL A   1      30.739  26.860  23.489  1.00  0.00     0.041 A 
ATOM      8  C   UNL A   1      31.662  24.600  23.305  1.00  0.00     0.119 A 
ATOM      9  C   UNL A   1      31.541  25.911  22.820  1.00  0.00     0.038 A 
ATOM     10  C   UNL A   1      30.992  24.232  24.462  1.00  0.00     0.143 A 
ATOM     11  C   UNL A   1      30.171  25.142  25.116  1.00  0.00     0.041 A 
ATOM     12  F   UNL A   1      31.102  23.002  24.980  1.00  0.00    -0.206 F 
ATOM     13  C   UNL A   1      30.060  26.452  24.642  1.00  0.00     0.017 A 
BRANCH   8  14
ATOM     14  S   UNL A   1      32.841  23.492  22.597  1.00  0.00     0.246 S 
ATOM     15  O   UNL A   1      33.412  24.121  21.421  1.00  0.00    -0.207 OA
ATOM     16  O   UNL A   1      32.204  22.198  22.481  1.00  0.00    -0.207 OA
BRANCH  14  17
ATOM     17  N   UNL A   1      34.114  23.310  23.761  1.00  0.00    -0.197 NA
ATOM     18  C   UNL A   1      36.490  22.509  24.059  1.00  0.00     0.004 C 
ATOM     19  C   UNL A   1      36.766  23.740  24.930  1.00  0.00     0.006 C 
ATOM     20  C   UNL A   1      35.349  22.792  23.074  1.00  0.00     0.106 C 
ATOM     21  C   UNL A   1      35.504  24.272  25.585  1.00  0.00     0.017 C 
ATOM     22  C   UNL A   1      34.410  24.535  24.557  1.00  0.00     0.102 C 
BRANCH  18  23
ATOM     23  C   UNL A   1      36.350  21.202  24.872  1.00  0.00     0.001 C 
ATOM     24  C   UNL A   1      37.522  20.232  24.863  1.00  0.00     0.004 C 
ENDBRANCH  18  23
ENDBRANCH  14  17
ENDBRANCH   8  14
ENDBRANCH   4   7
ENDBRANCH   2   3
ENDBRANCH   1   2
BRANCH   1  25
ATOM     25  C   UNL A   1      34.107  28.572  26.272  1.00  0.00     0.118 C 
BRANCH  25  26
ATOM     26  N   UNL A   1      33.857  29.835  26.952  1.00  0.00    -0.352 N 
ATOM     27  C   UNL A   1      34.595  30.499  27.900  1.00  0.00     0.251 C 
ATOM     28  H   UNL A   1      33.023  30.286  26.687  1.00  0.00     0.163 HD
ATOM     29  O   UNL A   1      34.076  31.440  28.497  1.00  0.00    -0.269 OA
BRANCH  27  30
ATOM     30  C   UNL A   1      35.988  30.105  28.219  1.00  0.00     0.039 A 
ATOM     31  C   UNL A   1      36.958  30.210  27.217  1.00  0.00     0.014 A 
ATOM     32  C   UNL A   1      36.333  29.559  29.459  1.00  0.00     0.014 A 
ATOM     33  C   UNL A   1      38.276  29.818  27.471  1.00  0.00     0.010 A 
ATOM     34  C   UNL A   1      37.659  29.220  29.731  1.00  0.00     0.010 A 
ATOM     35  C   UNL A   1      38.644  29.341  28.739  1.00  0.00    -0.014 A 
BRANCH  35  36
ATOM     36  C   UNL A   1      40.048  28.958  29.041  1.00  0.00     0.031 A 
ATOM     37  C   UNL A   1      40.986  29.951  29.675  1.00  0.00     0.074 A 
ATOM     38  C   UNL A   1      40.494  27.731  28.705  1.00  0.00     0.049 A 
ATOM     39  N   UNL A   1      42.264  29.834  29.927  1.00  0.00    -0.248 NA
ATOM     40  C   UNL A   1      40.416  31.252  30.059  1.00  0.00     0.031 C 
ATOM     41  C   UNL A   1      39.689  26.686  28.069  1.00  0.00     0.029 A 
ATOM     42  N   UNL A   1      41.732  27.157  28.844  1.00  0.00    -0.354 N 
ATOM     43  C   UNL A   1      42.655  31.046  30.485  1.00  0.00     0.074 A 
ATOM     44  C   UNL A   1      41.487  31.899  30.500  1.00  0.00     0.031 C 
ATOM     45  C   UNL A   1      40.448  25.592  27.892  1.00  0.00     0.029 A 
ATOM     46  C   UNL A   1      41.801  25.869  28.366  1.00  0.00     0.049 A 
ATOM     47  H   UNL A   1      42.500  27.622  29.247  1.00  0.00     0.167 HD
ATOM     48  C   UNL A   1      43.872  31.407  30.958  1.00  0.00     0.037 A 
ATOM     49  C   UNL A   1      42.838  25.009  28.308  1.00  0.00     0.037 A 
ATOM     50  C   UNL A   1      45.025  30.545  30.970  1.00  0.00     0.049 A 
ATOM     51  C   UNL A   1      44.180  25.437  28.833  1.00  0.00     0.074 A 
ATOM     52  C   UNL A   1      46.293  30.812  31.459  1.00  0.00     0.029 A 
ATOM     53  N   UNL A   1      45.049  29.246  30.484  1.00  0.00    -0.354 N 
ATOM     54  N   UNL A   1      44.525  26.582  29.369  1.00  0.00    -0.248 NA
ATOM     55  C   UNL A   1      45.273  24.458  28.746  1.00  0.00     0.031 C 
ATOM     56  C   UNL A   1      47.091  29.683  31.245  1.00  0.00     0.029 A 
ATOM     57  C   UNL A   1      46.311  28.701  30.654  1.00  0.00     0.049 A 
ATOM     58  H   UNL A   1      44.283  28.781  30.077  1.00  0.00     0.167 HD
ATOM     59  C   UNL A   1      45.869  26.455  29.700  1.00  0.00     0.074 A 
ATOM     60  C   UNL A   1      46.273  25.119  29.314  1.00  0.00     0.031 C 
ATOM     61  C   UNL A   1      46.694  27.366  30.273  1.00  0.00     0.037 A 
BRANCH  48  62
ATOM     62  C   UNL A   1      44.024  32.791  31.521  1.00  0.00     0.058 A 
ATOM     63  C   UNL A   1      43.775  33.044  32.880  1.00  0.00     0.135 A 
ATOM     64  C   UNL A   1      44.352  33.883  30.702  1.00  0.00     0.135 A 
ATOM     65  F   UNL A   1      43.463  32.036  33.710  1.00  0.00    -0.206 F 
ATOM     66  C   UNL A   1      43.830  34.333  33.403  1.00  0.00     0.059 A 
ATOM     67  C   UNL A   1      44.435  35.177  31.207  1.00  0.00     0.059 A 
ATOM     68  F   UNL A   1      44.621  33.691  29.400  1.00  0.00    -0.206 F 
ATOM     69  C   UNL A   1      44.157  35.393  32.557  1.00  0.00     0.060 A 
BRANCH  69  70
ATOM     70  S   UNL A   1      44.254  37.057  33.253  1.00  0.00     0.124 S 
ATOM     71  O   UNL A   1      42.920  37.224  33.817  1.00  0.00    -0.237 OA
ATOM     72  O   UNL A   1      45.342  36.924  34.216  1.00  0.00    -0.237 OA
ATOM     73  O   UNL A   1      44.558  37.890  32.093  1.00  0.00    -0.744 OA
ENDBRANCH  69  70
ENDBRANCH  48  62
BRANCH  49  74
ATOM     74  C   UNL A   1      42.635  23.647  27.751  1.00  0.00     0.058 A 
ATOM     75  C   UNL A   1      42.461  22.534  28.587  1.00  0.00     0.135 A 
ATOM     76  C   UNL A   1      42.639  23.431  26.365  1.00  0.00     0.135 A 
ATOM     77  F   UNL A   1      42.459  22.686  29.920  1.00  0.00    -0.206 F 
ATOM     78  C   UNL A   1      42.323  21.250  28.069  1.00  0.00     0.059 A 
ATOM     79  C   UNL A   1      42.481  22.160  25.822  1.00  0.00     0.059 A 
ATOM     80  F   UNL A   1      42.789  24.469  25.527  1.00  0.00    -0.206 F 
ATOM     81  C   UNL A   1      42.340  21.073  26.685  1.00  0.00     0.060 A 
BRANCH  81  82
ATOM     82  S   UNL A   1      42.171  19.399  26.030  1.00  0.00     0.124 S 
ATOM     83  O   UNL A   1      43.010  19.469  24.838  1.00  0.00    -0.237 OA
ATOM     84  O   UNL A   1      42.689  18.586  27.125  1.00  0.00    -0.237 OA
ATOM     85  O   UNL A   1      40.738  19.276  25.785  1.00  0.00    -0.744 OA
ENDBRANCH  81  82
ENDBRANCH  49  74
BRANCH  61  86
ATOM     86  C   UNL A   1      48.112  26.950  30.542  1.00  0.00     0.058 A 
ATOM     87  C   UNL A   1      48.474  26.426  31.792  1.00  0.00     0.135 A 
ATOM     88  C   UNL A   1      49.125  27.148  29.592  1.00  0.00     0.135 A 
ATOM     89  F   UNL A   1      47.541  26.219  32.735  1.00  0.00    -0.206 F 
ATOM     90  C   UNL A   1      49.797  26.129  32.099  1.00  0.00     0.059 A 
ATOM     91  C   UNL A   1      50.453  26.840  29.869  1.00  0.00     0.059 A 
ATOM     92  F   UNL A   1      48.825  27.636  28.377  1.00  0.00    -0.206 F 
ATOM     93  C   UNL A   1      50.781  26.348  31.133  1.00  0.00     0.060 A 
BRANCH  93  94
ATOM     94  S   UNL A   1      52.496  25.957  31.545  1.00  0.00     0.124 S 
ATOM     95  O   UNL A   1      52.390  24.566  31.970  1.00  0.00    -0.237 OA
ATOM     96  O   UNL A   1      53.181  26.186  30.276  1.00  0.00    -0.237 OA
ATOM     97  O   UNL A   1      52.814  26.915  32.601  1.00  0.00    -0.744 OA
ENDBRANCH  93  94
ENDBRANCH  61  86
ENDBRANCH  35  36
ENDBRANCH  27  30
ENDBRANCH  25  26
ENDBRANCH   1  25
TORSDOF 16
ENDMDL
