MODEL 1
REMARK VINA RESULT:     -11.2      0.000      0.000
REMARK SMILES CCC[NH2+][C@]1(C(=O)NCCCNC(=O)c2ccc(-c3c4nc(c(-c5c(F)cc(S(=O)(=O)[O-])cc5F)c5ccc([nH]5)c(-c5c(F)cc(S(=O)(=O)[O-])cc5F)c5nc(c(-c6c(F)cc(S(=O)(=O)[O-])cc6F)c6ccc3[nH]6)C=C5)C=C4)cc2)CCC[C@@H]([N@@H+](C)[C@@H](C)C2CC2)C1
REMARK SMILES IDX 10 1 9 2 8 3 6 4 7 5 5 7 81 8 92 9 82 10 84 11 83 12 4 13
REMARK SMILES IDX 3 16 2 17 1 18 85 19 86 20 87 22 88 23 89 24 90 25 91 26
REMARK SMILES IDX 11 27 12 28 13 29 14 31 15 32 16 33 80 34 17 35 79 36 18 37
REMARK SMILES IDX 19 38 20 39 73 40 21 41 78 42 72 43 74 44 22 45 77 46 71 47
REMARK SMILES IDX 70 48 23 50 57 51 36 52 56 53 37 54 40 55 55 56 75 57 38 58
REMARK SMILES IDX 39 59 54 61 76 62 41 63 24 64 25 65 34 66 26 67 27 68 33 69
REMARK SMILES IDX 35 70 28 71 29 72 30 73 31 74 32 75 58 76 59 77 68 78 60 79
REMARK SMILES IDX 61 80 67 81 69 82 62 83 63 84 64 85 65 86 66 87 42 88 43 89
REMARK SMILES IDX 52 90 44 91 45 92 51 93 53 94 46 95 47 96 48 97 49 98 50 99
REMARK H PARENT 8 6 4 14 4 15 85 21 12 30 74 49 40 60
REMARK Flexibility Score: inf
ROOT
ATOM      1  C   UNL A   1      37.476  23.635  25.459  1.00  0.00     0.042 C 
ENDROOT
BRANCH   1   2
ATOM      2  C   UNL A   1      36.839  22.255  25.551  1.00  0.00     0.118 C 
BRANCH   2   3
ATOM      3  N   UNL A   1      35.850  22.213  26.608  1.00  0.00    -0.351 N 
ATOM      4  C   UNL A   1      34.523  22.480  26.704  1.00  0.00     0.281 C 
ATOM      5  O   UNL A   1      34.101  22.258  27.848  1.00  0.00    -0.268 OA
ATOM      6  H   UNL A   1      36.234  21.919  27.466  1.00  0.00     0.163 HD
BRANCH   4   7
ATOM      7  C   UNL A   1      33.560  22.787  25.474  1.00  0.00     0.181 C 
ATOM      8  C   UNL A   1      32.055  22.571  25.746  1.00  0.00     0.079 C 
ATOM      9  C   UNL A   1      33.855  24.267  25.144  1.00  0.00     0.144 C 
ATOM     10  C   UNL A   1      31.141  23.265  24.728  1.00  0.00     0.013 C 
ATOM     11  C   UNL A   1      32.861  25.092  24.332  1.00  0.00     0.190 C 
ATOM     12  C   UNL A   1      31.402  24.772  24.696  1.00  0.00     0.065 C 
BRANCH   7  13
ATOM     13  N   UNL A   1      33.816  21.891  24.297  1.00  0.00    -0.333 N 
ATOM     14  H   UNL A   1      33.130  22.128  23.581  1.00  0.00     0.347 HD
ATOM     15  H   UNL A   1      34.790  22.066  24.048  1.00  0.00     0.347 HD
BRANCH  13  16
ATOM     16  C   UNL A   1      33.744  20.448  24.510  1.00  0.00     0.261 C 
BRANCH  16  17
ATOM     17  C   UNL A   1      32.499  19.823  23.873  1.00  0.00     0.058 C 
ATOM     18  C   UNL A   1      32.454  18.308  23.991  1.00  0.00     0.010 C 
ENDBRANCH  16  17
ENDBRANCH  13  16
ENDBRANCH   7  13
BRANCH  11  19
ATOM     19  N   UNL A   1      33.268  26.533  24.265  1.00  0.00    -0.332 N 
ATOM     20  C   UNL A   1      33.070  27.029  22.888  1.00  0.00     0.333 C 
ATOM     21  H   UNL A   1      34.233  26.446  24.583  1.00  0.00     0.348 HD
BRANCH  19  22
ATOM     22  C   UNL A   1      32.795  27.562  25.233  1.00  0.00     0.184 C 
ATOM     23  C   UNL A   1      33.410  27.556  26.638  1.00  0.00     0.075 C 
BRANCH  22  24
ATOM     24  C   UNL A   1      32.504  28.997  24.797  1.00  0.00     0.047 C 
ATOM     25  C   UNL A   1      31.095  29.525  24.644  1.00  0.00     0.010 C 
ATOM     26  C   UNL A   1      32.032  30.158  25.638  1.00  0.00     0.010 C 
ENDBRANCH  22  24
ENDBRANCH  19  22
ENDBRANCH  11  19
ENDBRANCH   4   7
ENDBRANCH   2   3
ENDBRANCH   1   2
BRANCH   1  27
ATOM     27  C   UNL A   1      38.427  23.925  26.620  1.00  0.00     0.118 C 
BRANCH  27  28
ATOM     28  N   UNL A   1      39.827  23.892  26.209  1.00  0.00    -0.352 N 
ATOM     29  C   UNL A   1      40.842  24.782  26.463  1.00  0.00     0.251 C 
ATOM     30  H   UNL A   1      40.083  23.112  25.665  1.00  0.00     0.163 HD
ATOM     31  O   UNL A   1      41.889  24.703  25.831  1.00  0.00    -0.269 OA
BRANCH  29  32
ATOM     32  C   UNL A   1      40.665  25.832  27.488  1.00  0.00     0.039 A 
ATOM     33  C   UNL A   1      39.711  25.649  28.492  1.00  0.00     0.014 A 
ATOM     34  C   UNL A   1      41.426  27.002  27.449  1.00  0.00     0.014 A 
ATOM     35  C   UNL A   1      39.570  26.610  29.495  1.00  0.00     0.010 A 
ATOM     36  C   UNL A   1      41.347  27.915  28.493  1.00  0.00     0.010 A 
ATOM     37  C   UNL A   1      40.415  27.734  29.525  1.00  0.00    -0.014 A 
BRANCH  37  38
ATOM     38  C   UNL A   1      40.341  28.729  30.624  1.00  0.00     0.031 A 
ATOM     39  C   UNL A   1      41.223  28.581  31.834  1.00  0.00     0.074 A 
ATOM     40  C   UNL A   1      39.428  29.719  30.565  1.00  0.00     0.049 A 
ATOM     41  N   UNL A   1      41.247  29.294  32.931  1.00  0.00    -0.248 NA
ATOM     42  C   UNL A   1      42.186  27.467  31.824  1.00  0.00     0.031 C 
ATOM     43  C   UNL A   1      38.482  29.933  29.466  1.00  0.00     0.029 A 
ATOM     44  N   UNL A   1      39.136  30.724  31.452  1.00  0.00    -0.354 N 
ATOM     45  C   UNL A   1      42.209  28.706  33.744  1.00  0.00     0.074 A 
ATOM     46  C   UNL A   1      42.706  27.546  33.040  1.00  0.00     0.031 C 
ATOM     47  C   UNL A   1      37.733  31.015  29.734  1.00  0.00     0.029 A 
ATOM     48  C   UNL A   1      38.110  31.544  31.040  1.00  0.00     0.049 A 
ATOM     49  H   UNL A   1      39.613  30.847  32.303  1.00  0.00     0.167 HD
ATOM     50  C   UNL A   1      42.655  29.112  34.958  1.00  0.00     0.037 A 
ATOM     51  C   UNL A   1      37.534  32.598  31.649  1.00  0.00     0.037 A 
ATOM     52  C   UNL A   1      42.169  30.284  35.639  1.00  0.00     0.049 A 
ATOM     53  C   UNL A   1      38.045  33.030  32.998  1.00  0.00     0.074 A 
ATOM     54  C   UNL A   1      42.593  30.816  36.844  1.00  0.00     0.029 A 
ATOM     55  N   UNL A   1      41.149  31.104  35.177  1.00  0.00    -0.354 N 
ATOM     56  N   UNL A   1      39.002  32.501  33.723  1.00  0.00    -0.248 NA
ATOM     57  C   UNL A   1      37.406  34.204  33.607  1.00  0.00     0.031 C 
ATOM     58  C   UNL A   1      41.798  31.928  37.134  1.00  0.00     0.029 A 
ATOM     59  C   UNL A   1      40.916  32.125  36.082  1.00  0.00     0.049 A 
ATOM     60  H   UNL A   1      40.663  30.977  34.330  1.00  0.00     0.167 HD
ATOM     61  C   UNL A   1      39.101  33.297  34.859  1.00  0.00     0.074 A 
ATOM     62  C   UNL A   1      38.113  34.347  34.720  1.00  0.00     0.031 C 
ATOM     63  C   UNL A   1      39.936  33.171  35.921  1.00  0.00     0.037 A 
BRANCH  50  64
ATOM     64  C   UNL A   1      43.723  28.287  35.623  1.00  0.00     0.058 A 
ATOM     65  C   UNL A   1      45.087  28.494  35.361  1.00  0.00     0.135 A 
ATOM     66  C   UNL A   1      43.383  27.300  36.563  1.00  0.00     0.135 A 
ATOM     67  F   UNL A   1      45.471  29.414  34.461  1.00  0.00    -0.206 F 
ATOM     68  C   UNL A   1      46.073  27.733  35.981  1.00  0.00     0.059 A 
ATOM     69  C   UNL A   1      44.354  26.548  37.220  1.00  0.00     0.059 A 
ATOM     70  F   UNL A   1      42.094  27.058  36.853  1.00  0.00    -0.206 F 
ATOM     71  C   UNL A   1      45.696  26.762  36.910  1.00  0.00     0.060 A 
BRANCH  71  72
ATOM     72  S   UNL A   1      46.989  25.791  37.712  1.00  0.00     0.124 S 
ATOM     73  O   UNL A   1      47.870  26.841  38.217  1.00  0.00    -0.237 OA
ATOM     74  O   UNL A   1      46.241  25.052  38.724  1.00  0.00    -0.237 OA
ATOM     75  O   UNL A   1      47.534  24.984  36.624  1.00  0.00    -0.744 OA
ENDBRANCH  71  72
ENDBRANCH  50  64
BRANCH  51  76
ATOM     76  C   UNL A   1      36.425  33.330  30.980  1.00  0.00     0.058 A 
ATOM     77  C   UNL A   1      35.105  33.219  31.441  1.00  0.00     0.135 A 
ATOM     78  C   UNL A   1      36.662  34.169  29.880  1.00  0.00     0.135 A 
ATOM     79  F   UNL A   1      34.825  32.426  32.486  1.00  0.00    -0.206 F 
ATOM     80  C   UNL A   1      34.057  33.896  30.825  1.00  0.00     0.059 A 
ATOM     81  C   UNL A   1      35.636  34.879  29.264  1.00  0.00     0.059 A 
ATOM     82  F   UNL A   1      37.910  34.326  29.411  1.00  0.00    -0.206 F 
ATOM     83  C   UNL A   1      34.333  34.727  29.738  1.00  0.00     0.060 A 
BRANCH  83  84
ATOM     84  S   UNL A   1      32.973  35.638  28.977  1.00  0.00     0.124 S 
ATOM     85  O   UNL A   1      32.194  36.033  30.144  1.00  0.00    -0.237 OA
ATOM     86  O   UNL A   1      33.676  36.715  28.284  1.00  0.00    -0.237 OA
ATOM     87  O   UNL A   1      32.350  34.646  28.106  1.00  0.00    -0.744 OA
ENDBRANCH  83  84
ENDBRANCH  51  76
BRANCH  63  88
ATOM     88  C   UNL A   1      39.855  34.219  36.997  1.00  0.00     0.058 A 
ATOM     89  C   UNL A   1      40.474  35.471  36.859  1.00  0.00     0.135 A 
ATOM     90  C   UNL A   1      39.093  33.986  38.153  1.00  0.00     0.135 A 
ATOM     91  F   UNL A   1      41.219  35.743  35.776  1.00  0.00    -0.206 F 
ATOM     92  C   UNL A   1      40.356  36.450  37.842  1.00  0.00     0.059 A 
ATOM     93  C   UNL A   1      38.938  34.961  39.134  1.00  0.00     0.059 A 
ATOM     94  F   UNL A   1      38.473  32.809  38.330  1.00  0.00    -0.206 F 
ATOM     95  C   UNL A   1      39.583  36.186  38.974  1.00  0.00     0.060 A 
BRANCH  95  96
ATOM     96  S   UNL A   1      39.404  37.480  40.219  1.00  0.00     0.124 S 
ATOM     97  O   UNL A   1      38.604  38.469  39.505  1.00  0.00    -0.237 OA
ATOM     98  O   UNL A   1      38.725  36.778  41.303  1.00  0.00    -0.237 OA
ATOM     99  O   UNL A   1      40.782  37.873  40.502  1.00  0.00    -0.744 OA
ENDBRANCH  95  96
ENDBRANCH  63  88
ENDBRANCH  37  38
ENDBRANCH  29  32
ENDBRANCH  27  28
ENDBRANCH   1  27
TORSDOF 19
ENDMDL
MODEL 2
REMARK VINA RESULT:     -11.2      6.631     12.146
REMARK SMILES CCC[NH2+][C@]1(C(=O)NCCCNC(=O)c2ccc(-c3c4nc(c(-c5c(F)cc(S(=O)(=O)[O-])cc5F)c5ccc([nH]5)c(-c5c(F)cc(S(=O)(=O)[O-])cc5F)c5nc(c(-c6c(F)cc(S(=O)(=O)[O-])cc6F)c6ccc3[nH]6)C=C5)C=C4)cc2)CCC[C@@H]([N@@H+](C)[C@@H](C)C2CC2)C1
REMARK SMILES IDX 10 1 9 2 8 3 6 4 7 5 5 7 81 8 92 9 82 10 84 11 83 12 4 13
REMARK SMILES IDX 3 16 2 17 1 18 85 19 86 20 87 22 88 23 89 24 90 25 91 26
REMARK SMILES IDX 11 27 12 28 13 29 14 31 15 32 16 33 80 34 17 35 79 36 18 37
REMARK SMILES IDX 19 38 20 39 73 40 21 41 78 42 72 43 74 44 22 45 77 46 71 47
REMARK SMILES IDX 70 48 23 50 57 51 36 52 56 53 37 54 40 55 55 56 75 57 38 58
REMARK SMILES IDX 39 59 54 61 76 62 41 63 24 64 25 65 34 66 26 67 27 68 33 69
REMARK SMILES IDX 35 70 28 71 29 72 30 73 31 74 32 75 58 76 59 77 68 78 60 79
REMARK SMILES IDX 61 80 67 81 69 82 62 83 63 84 64 85 65 86 66 87 42 88 43 89
REMARK SMILES IDX 52 90 44 91 45 92 51 93 53 94 46 95 47 96 48 97 49 98 50 99
REMARK H PARENT 8 6 4 14 4 15 85 21 12 30 74 49 40 60
REMARK Flexibility Score: inf
ROOT
ATOM      1  C   UNL A   1      34.051  29.782  26.982  1.00  0.00     0.042 C 
ENDROOT
BRANCH   1   2
ATOM      2  C   UNL A   1      33.705  28.580  26.113  1.00  0.00     0.118 C 
BRANCH   2   3
ATOM      3  N   UNL A   1      34.115  28.800  24.742  1.00  0.00    -0.351 N 
ATOM      4  C   UNL A   1      34.007  28.113  23.577  1.00  0.00     0.281 C 
ATOM      5  O   UNL A   1      34.502  28.746  22.633  1.00  0.00    -0.268 OA
ATOM      6  H   UNL A   1      34.587  29.657  24.627  1.00  0.00     0.163 HD
BRANCH   4   7
ATOM      7  C   UNL A   1      33.139  26.795  23.369  1.00  0.00     0.181 C 
ATOM      8  C   UNL A   1      33.006  26.317  21.906  1.00  0.00     0.079 C 
ATOM      9  C   UNL A   1      33.870  25.741  24.230  1.00  0.00     0.144 C 
ATOM     10  C   UNL A   1      32.552  24.857  21.775  1.00  0.00     0.013 C 
ATOM     11  C   UNL A   1      33.645  24.251  23.986  1.00  0.00     0.190 C 
ATOM     12  C   UNL A   1      33.522  23.916  22.491  1.00  0.00     0.065 C 
BRANCH   7  13
ATOM     13  N   UNL A   1      31.708  26.966  23.793  1.00  0.00    -0.333 N 
ATOM     14  H   UNL A   1      31.233  26.081  23.621  1.00  0.00     0.347 HD
ATOM     15  H   UNL A   1      31.763  27.255  24.770  1.00  0.00     0.347 HD
BRANCH  13  16
ATOM     16  C   UNL A   1      30.926  28.014  23.143  1.00  0.00     0.261 C 
BRANCH  16  17
ATOM     17  C   UNL A   1      29.418  27.818  23.326  1.00  0.00     0.058 C 
ATOM     18  C   UNL A   1      29.047  26.448  23.866  1.00  0.00     0.010 C 
ENDBRANCH  16  17
ENDBRANCH  13  16
ENDBRANCH   7  13
BRANCH  11  19
ATOM     19  N   UNL A   1      34.566  23.413  24.819  1.00  0.00    -0.332 N 
ATOM     20  C   UNL A   1      34.324  23.700  26.248  1.00  0.00     0.333 C 
ATOM     21  H   UNL A   1      35.460  23.722  24.437  1.00  0.00     0.348 HD
BRANCH  19  22
ATOM     22  C   UNL A   1      34.729  21.943  24.632  1.00  0.00     0.184 C 
ATOM     23  C   UNL A   1      36.112  21.338  24.904  1.00  0.00     0.075 C 
BRANCH  22  24
ATOM     24  C   UNL A   1      33.638  20.958  25.046  1.00  0.00     0.047 C 
ATOM     25  C   UNL A   1      32.294  20.903  24.354  1.00  0.00     0.010 C 
ATOM     26  C   UNL A   1      33.195  19.696  24.346  1.00  0.00     0.010 C 
ENDBRANCH  22  24
ENDBRANCH  19  22
ENDBRANCH  11  19
ENDBRANCH   4   7
ENDBRANCH   2   3
ENDBRANCH   1   2
BRANCH   1  27
ATOM     27  C   UNL A   1      35.336  29.581  27.784  1.00  0.00     0.118 C 
BRANCH  27  28
ATOM     28  N   UNL A   1      35.277  30.228  29.091  1.00  0.00    -0.352 N 
ATOM     29  C   UNL A   1      36.253  30.375  30.047  1.00  0.00     0.251 C 
ATOM     30  H   UNL A   1      34.404  30.618  29.324  1.00  0.00     0.163 HD
ATOM     31  O   UNL A   1      35.946  30.736  31.176  1.00  0.00    -0.269 OA
BRANCH  29  32
ATOM     32  C   UNL A   1      37.665  30.090  29.711  1.00  0.00     0.039 A 
ATOM     33  C   UNL A   1      38.559  29.780  30.740  1.00  0.00     0.014 A 
ATOM     34  C   UNL A   1      38.109  30.145  28.389  1.00  0.00     0.014 A 
ATOM     35  C   UNL A   1      39.883  29.460  30.431  1.00  0.00     0.010 A 
ATOM     36  C   UNL A   1      39.401  29.741  28.074  1.00  0.00     0.010 A 
ATOM     37  C   UNL A   1      40.304  29.400  29.091  1.00  0.00    -0.014 A 
BRANCH  37  38
ATOM     38  C   UNL A   1      41.683  28.983  28.730  1.00  0.00     0.031 A 
ATOM     39  C   UNL A   1      42.791  30.002  28.690  1.00  0.00     0.074 A 
ATOM     40  C   UNL A   1      41.919  27.707  28.367  1.00  0.00     0.049 A 
ATOM     41  N   UNL A   1      44.036  29.853  28.318  1.00  0.00    -0.248 NA
ATOM     42  C   UNL A   1      42.447  31.376  29.093  1.00  0.00     0.031 C 
ATOM     43  C   UNL A   1      40.914  26.643  28.315  1.00  0.00     0.029 A 
ATOM     44  N   UNL A   1      43.074  27.090  27.958  1.00  0.00    -0.354 N 
ATOM     45  C   UNL A   1      44.616  31.112  28.424  1.00  0.00     0.074 A 
ATOM     46  C   UNL A   1      43.575  32.023  28.841  1.00  0.00     0.031 C 
ATOM     47  C   UNL A   1      41.500  25.500  27.923  1.00  0.00     0.029 A 
ATOM     48  C   UNL A   1      42.910  25.758  27.651  1.00  0.00     0.049 A 
ATOM     49  H   UNL A   1      43.938  27.554  27.890  1.00  0.00     0.167 HD
ATOM     50  C   UNL A   1      45.907  31.469  28.218  1.00  0.00     0.037 A 
ATOM     51  C   UNL A   1      43.794  24.851  27.194  1.00  0.00     0.037 A 
ATOM     52  C   UNL A   1      46.941  30.547  27.827  1.00  0.00     0.049 A 
ATOM     53  C   UNL A   1      45.222  25.272  26.970  1.00  0.00     0.074 A 
ATOM     54  C   UNL A   1      48.291  30.794  27.647  1.00  0.00     0.029 A 
ATOM     55  N   UNL A   1      46.741  29.201  27.552  1.00  0.00    -0.354 N 
ATOM     56  N   UNL A   1      45.768  26.452  27.140  1.00  0.00    -0.248 NA
ATOM     57  C   UNL A   1      46.155  24.238  26.502  1.00  0.00     0.031 C 
ATOM     58  C   UNL A   1      48.898  29.611  27.218  1.00  0.00     0.029 A 
ATOM     59  C   UNL A   1      47.938  28.611  27.185  1.00  0.00     0.049 A 
ATOM     60  H   UNL A   1      45.875  28.736  27.610  1.00  0.00     0.167 HD
ATOM     61  C   UNL A   1      47.114  26.296  26.830  1.00  0.00     0.074 A 
ATOM     62  C   UNL A   1      47.301  24.904  26.471  1.00  0.00     0.031 C 
ATOM     63  C   UNL A   1      48.108  27.219  26.843  1.00  0.00     0.037 A 
BRANCH  50  64
ATOM     64  C   UNL A   1      46.273  32.916  28.415  1.00  0.00     0.058 A 
ATOM     65  C   UNL A   1      46.659  33.416  29.670  1.00  0.00     0.135 A 
ATOM     66  C   UNL A   1      46.273  33.808  27.330  1.00  0.00     0.135 A 
ATOM     67  F   UNL A   1      46.664  32.613  30.746  1.00  0.00    -0.206 F 
ATOM     68  C   UNL A   1      47.001  34.752  29.848  1.00  0.00     0.059 A 
ATOM     69  C   UNL A   1      46.643  35.142  27.479  1.00  0.00     0.059 A 
ATOM     70  F   UNL A   1      45.913  33.385  26.107  1.00  0.00    -0.206 F 
ATOM     71  C   UNL A   1      46.991  35.608  28.745  1.00  0.00     0.060 A 
BRANCH  71  72
ATOM     72  S   UNL A   1      47.447  37.337  28.994  1.00  0.00     0.124 S 
ATOM     73  O   UNL A   1      47.553  37.810  27.616  1.00  0.00    -0.237 OA
ATOM     74  O   UNL A   1      46.314  37.852  29.755  1.00  0.00    -0.237 OA
ATOM     75  O   UNL A   1      48.708  37.255  29.727  1.00  0.00    -0.744 OA
ENDBRANCH  71  72
ENDBRANCH  50  64
BRANCH  51  76
ATOM     76  C   UNL A   1      43.359  23.451  26.939  1.00  0.00     0.058 A 
ATOM     77  C   UNL A   1      43.173  22.980  25.631  1.00  0.00     0.135 A 
ATOM     78  C   UNL A   1      43.138  22.550  27.993  1.00  0.00     0.135 A 
ATOM     79  F   UNL A   1      43.366  23.802  24.589  1.00  0.00    -0.206 F 
ATOM     80  C   UNL A   1      42.765  21.675  25.375  1.00  0.00     0.059 A 
ATOM     81  C   UNL A   1      42.757  21.232  27.763  1.00  0.00     0.059 A 
ATOM     82  F   UNL A   1      43.321  22.945  29.263  1.00  0.00    -0.206 F 
ATOM     83  C   UNL A   1      42.562  20.806  26.450  1.00  0.00     0.060 A 
BRANCH  83  84
ATOM     84  S   UNL A   1      42.080  19.100  26.105  1.00  0.00     0.124 S 
ATOM     85  O   UNL A   1      42.946  18.772  24.980  1.00  0.00    -0.237 OA
ATOM     86  O   UNL A   1      42.391  18.434  27.367  1.00  0.00    -0.237 OA
ATOM     87  O   UNL A   1      40.657  19.210  25.798  1.00  0.00    -0.744 OA
ENDBRANCH  83  84
ENDBRANCH  51  76
BRANCH  63  88
ATOM     88  C   UNL A   1      49.497  26.752  26.506  1.00  0.00     0.058 A 
ATOM     89  C   UNL A   1      50.356  26.219  27.480  1.00  0.00     0.135 A 
ATOM     90  C   UNL A   1      49.948  26.778  25.176  1.00  0.00     0.135 A 
ATOM     91  F   UNL A   1      49.977  26.176  28.767  1.00  0.00    -0.206 F 
ATOM     92  C   UNL A   1      51.624  25.749  27.149  1.00  0.00     0.059 A 
ATOM     93  C   UNL A   1      51.199  26.286  24.819  1.00  0.00     0.059 A 
ATOM     94  F   UNL A   1      49.162  27.268  24.204  1.00  0.00    -0.206 F 
ATOM     95  C   UNL A   1      52.034  25.783  25.816  1.00  0.00     0.060 A 
BRANCH  95  96
ATOM     96  S   UNL A   1      53.663  25.129  25.396  1.00  0.00     0.124 S 
ATOM     97  O   UNL A   1      54.459  25.568  26.537  1.00  0.00    -0.237 OA
ATOM     98  O   UNL A   1      53.412  23.694  25.312  1.00  0.00    -0.237 OA
ATOM     99  O   UNL A   1      53.974  25.780  24.126  1.00  0.00    -0.744 OA
ENDBRANCH  95  96
ENDBRANCH  63  88
ENDBRANCH  37  38
ENDBRANCH  29  32
ENDBRANCH  27  28
ENDBRANCH   1  27
TORSDOF 19
ENDMDL
MODEL 3
REMARK VINA RESULT:     -11.0      6.435      8.480
REMARK SMILES CCC[NH2+][C@]1(C(=O)NCCCNC(=O)c2ccc(-c3c4nc(c(-c5c(F)cc(S(=O)(=O)[O-])cc5F)c5ccc([nH]5)c(-c5c(F)cc(S(=O)(=O)[O-])cc5F)c5nc(c(-c6c(F)cc(S(=O)(=O)[O-])cc6F)c6ccc3[nH]6)C=C5)C=C4)cc2)CCC[C@@H]([N@@H+](C)[C@@H](C)C2CC2)C1
REMARK SMILES IDX 10 1 9 2 8 3 6 4 7 5 5 7 81 8 92 9 82 10 84 11 83 12 4 13
REMARK SMILES IDX 3 16 2 17 1 18 85 19 86 20 87 22 88 23 89 24 90 25 91 26
REMARK SMILES IDX 11 27 12 28 13 29 14 31 15 32 16 33 80 34 17 35 79 36 18 37
REMARK SMILES IDX 19 38 20 39 73 40 21 41 78 42 72 43 74 44 22 45 77 46 71 47
REMARK SMILES IDX 70 48 23 50 57 51 36 52 56 53 37 54 40 55 55 56 75 57 38 58
REMARK SMILES IDX 39 59 54 61 76 62 41 63 24 64 25 65 34 66 26 67 27 68 33 69
REMARK SMILES IDX 35 70 28 71 29 72 30 73 31 74 32 75 58 76 59 77 68 78 60 79
REMARK SMILES IDX 61 80 67 81 69 82 62 83 63 84 64 85 65 86 66 87 42 88 43 89
REMARK SMILES IDX 52 90 44 91 45 92 51 93 53 94 46 95 47 96 48 97 49 98 50 99
REMARK H PARENT 8 6 4 14 4 15 85 21 12 30 74 49 40 60
REMARK Flexibility Score: inf
ROOT
ATOM      1  C   UNL A   1      38.244  19.904  25.008  1.00  0.00     0.042 C 
ENDROOT
BRANCH   1   2
ATOM      2  C   UNL A   1      37.002  20.784  25.068  1.00  0.00     0.118 C 
BRANCH   2   3
ATOM      3  N   UNL A   1      37.056  21.822  24.060  1.00  0.00    -0.351 N 
ATOM      4  C   UNL A   1      36.205  22.777  23.606  1.00  0.00     0.281 C 
ATOM      5  O   UNL A   1      36.735  23.470  22.725  1.00  0.00    -0.268 OA
ATOM      6  H   UNL A   1      37.922  21.840  23.591  1.00  0.00     0.163 HD
BRANCH   4   7
ATOM      7  C   UNL A   1      34.809  23.150  24.273  1.00  0.00     0.181 C 
ATOM      8  C   UNL A   1      34.859  23.437  25.790  1.00  0.00     0.079 C 
ATOM      9  C   UNL A   1      34.358  24.402  23.489  1.00  0.00     0.144 C 
ATOM     10  C   UNL A   1      33.632  24.195  26.312  1.00  0.00     0.013 C 
ATOM     11  C   UNL A   1      33.303  25.341  24.069  1.00  0.00     0.190 C 
ATOM     12  C   UNL A   1      33.463  25.531  25.586  1.00  0.00     0.065 C 
BRANCH   7  13
ATOM     13  N   UNL A   1      33.803  22.040  24.178  1.00  0.00    -0.333 N 
ATOM     14  H   UNL A   1      34.319  21.161  24.185  1.00  0.00     0.347 HD
ATOM     15  H   UNL A   1      33.179  22.191  24.972  1.00  0.00     0.347 HD
BRANCH  13  16
ATOM     16  C   UNL A   1      32.919  22.018  23.016  1.00  0.00     0.261 C 
BRANCH  16  17
ATOM     17  C   UNL A   1      32.058  20.752  22.958  1.00  0.00     0.058 C 
ATOM     18  C   UNL A   1      32.600  19.613  23.804  1.00  0.00     0.010 C 
ENDBRANCH  16  17
ENDBRANCH  13  16
ENDBRANCH   7  13
BRANCH  11  19
ATOM     19  N   UNL A   1      33.132  26.566  23.223  1.00  0.00    -0.332 N 
ATOM     20  C   UNL A   1      33.353  26.211  21.806  1.00  0.00     0.333 C 
ATOM     21  H   UNL A   1      33.835  27.165  23.657  1.00  0.00     0.348 HD
BRANCH  19  22
ATOM     22  C   UNL A   1      31.955  27.474  23.327  1.00  0.00     0.184 C 
ATOM     23  C   UNL A   1      32.095  28.891  22.755  1.00  0.00     0.075 C 
BRANCH  22  24
ATOM     24  C   UNL A   1      30.531  26.966  23.119  1.00  0.00     0.047 C 
ATOM     25  C   UNL A   1      29.691  26.426  24.256  1.00  0.00     0.010 C 
ATOM     26  C   UNL A   1      29.229  27.636  23.488  1.00  0.00     0.010 C 
ENDBRANCH  22  24
ENDBRANCH  19  22
ENDBRANCH  11  19
ENDBRANCH   4   7
ENDBRANCH   2   3
ENDBRANCH   1   2
BRANCH   1  27
ATOM     27  C   UNL A   1      39.355  20.388  25.939  1.00  0.00     0.118 C 
BRANCH  27  28
ATOM     28  N   UNL A   1      40.376  19.368  26.157  1.00  0.00    -0.352 N 
ATOM     29  C   UNL A   1      41.738  19.496  26.278  1.00  0.00     0.251 C 
ATOM     30  H   UNL A   1      40.037  18.447  26.226  1.00  0.00     0.163 HD
ATOM     31  O   UNL A   1      42.448  18.499  26.217  1.00  0.00    -0.269 OA
BRANCH  29  32
ATOM     32  C   UNL A   1      42.341  20.832  26.473  1.00  0.00     0.039 A 
ATOM     33  C   UNL A   1      42.665  21.602  25.354  1.00  0.00     0.014 A 
ATOM     34  C   UNL A   1      42.602  21.316  27.757  1.00  0.00     0.014 A 
ATOM     35  C   UNL A   1      43.187  22.886  25.526  1.00  0.00     0.010 A 
ATOM     36  C   UNL A   1      43.038  22.624  27.929  1.00  0.00     0.010 A 
ATOM     37  C   UNL A   1      43.342  23.422  26.816  1.00  0.00    -0.014 A 
BRANCH  37  38
ATOM     38  C   UNL A   1      43.818  24.813  27.026  1.00  0.00     0.031 A 
ATOM     39  C   UNL A   1      45.274  25.147  26.834  1.00  0.00     0.074 A 
ATOM     40  C   UNL A   1      42.957  25.753  27.461  1.00  0.00     0.049 A 
ATOM     41  N   UNL A   1      45.896  26.276  27.050  1.00  0.00    -0.248 NA
ATOM     42  C   UNL A   1      46.150  24.060  26.366  1.00  0.00     0.031 C 
ATOM     43  C   UNL A   1      41.534  25.535  27.734  1.00  0.00     0.029 A 
ATOM     44  N   UNL A   1      43.151  27.077  27.765  1.00  0.00    -0.354 N 
ATOM     45  C   UNL A   1      47.235  26.032  26.763  1.00  0.00     0.074 A 
ATOM     46  C   UNL A   1      47.343  24.634  26.412  1.00  0.00     0.031 C 
ATOM     47  C   UNL A   1      40.980  26.689  28.140  1.00  0.00     0.029 A 
ATOM     48  C   UNL A   1      42.013  27.716  28.201  1.00  0.00     0.049 A 
ATOM     49  H   UNL A   1      44.021  27.527  27.679  1.00  0.00     0.167 HD
ATOM     50  C   UNL A   1      48.274  26.901  26.766  1.00  0.00     0.037 A 
ATOM     51  C   UNL A   1      41.827  28.985  28.613  1.00  0.00     0.037 A 
ATOM     52  C   UNL A   1      48.150  28.298  27.094  1.00  0.00     0.049 A 
ATOM     53  C   UNL A   1      42.997  29.933  28.611  1.00  0.00     0.074 A 
ATOM     54  C   UNL A   1      49.127  29.277  27.073  1.00  0.00     0.029 A 
ATOM     55  N   UNL A   1      46.976  28.914  27.505  1.00  0.00    -0.354 N 
ATOM     56  N   UNL A   1      44.243  29.700  28.272  1.00  0.00    -0.248 NA
ATOM     57  C   UNL A   1      42.736  31.314  29.037  1.00  0.00     0.031 C 
ATOM     58  C   UNL A   1      48.557  30.473  27.517  1.00  0.00     0.029 A 
ATOM     59  C   UNL A   1      47.210  30.255  27.760  1.00  0.00     0.049 A 
ATOM     60  H   UNL A   1      46.105  28.464  27.601  1.00  0.00     0.167 HD
ATOM     61  C   UNL A   1      44.907  30.914  28.414  1.00  0.00     0.074 A 
ATOM     62  C   UNL A   1      43.923  31.879  28.861  1.00  0.00     0.031 C 
ATOM     63  C   UNL A   1      46.214  31.204  28.192  1.00  0.00     0.037 A 
BRANCH  50  64
ATOM     64  C   UNL A   1      49.634  26.368  26.402  1.00  0.00     0.058 A 
ATOM     65  C   UNL A   1      50.156  26.502  25.105  1.00  0.00     0.135 A 
ATOM     66  C   UNL A   1      50.442  25.748  27.369  1.00  0.00     0.135 A 
ATOM     67  F   UNL A   1      49.423  27.073  24.136  1.00  0.00    -0.206 F 
ATOM     68  C   UNL A   1      51.415  26.013  24.772  1.00  0.00     0.059 A 
ATOM     69  C   UNL A   1      51.718  25.280  27.066  1.00  0.00     0.059 A 
ATOM     70  F   UNL A   1      49.995  25.593  28.626  1.00  0.00    -0.206 F 
ATOM     71  C   UNL A   1      52.190  25.404  25.761  1.00  0.00     0.060 A 
BRANCH  71  72
ATOM     72  S   UNL A   1      53.824  24.784  25.313  1.00  0.00     0.124 S 
ATOM     73  O   UNL A   1      53.536  23.380  25.030  1.00  0.00    -0.237 OA
ATOM     74  O   UNL A   1      54.163  25.606  24.156  1.00  0.00    -0.237 OA
ATOM     75  O   UNL A   1      54.623  25.031  26.510  1.00  0.00    -0.744 OA
ENDBRANCH  71  72
ENDBRANCH  50  64
BRANCH  51  76
ATOM     76  C   UNL A   1      40.475  29.438  29.040  1.00  0.00     0.058 A 
ATOM     77  C   UNL A   1      39.454  29.645  28.102  1.00  0.00     0.135 A 
ATOM     78  C   UNL A   1      40.171  29.656  30.393  1.00  0.00     0.135 A 
ATOM     79  F   UNL A   1      39.695  29.455  26.796  1.00  0.00    -0.206 F 
ATOM     80  C   UNL A   1      38.185  30.069  28.484  1.00  0.00     0.059 A 
ATOM     81  C   UNL A   1      38.902  30.053  30.804  1.00  0.00     0.059 A 
ATOM     82  F   UNL A   1      41.107  29.453  31.333  1.00  0.00    -0.206 F 
ATOM     83  C   UNL A   1      37.918  30.268  29.840  1.00  0.00     0.060 A 
BRANCH  83  84
ATOM     84  S   UNL A   1      36.255  30.772  30.330  1.00  0.00     0.124 S 
ATOM     85  O   UNL A   1      35.905  29.735  31.293  1.00  0.00    -0.237 OA
ATOM     86  O   UNL A   1      36.489  32.103  30.882  1.00  0.00    -0.237 OA
ATOM     87  O   UNL A   1      35.512  30.746  29.073  1.00  0.00    -0.744 OA
ENDBRANCH  83  84
ENDBRANCH  51  76
BRANCH  63  88
ATOM     88  C   UNL A   1      46.650  32.631  28.381  1.00  0.00     0.058 A 
ATOM     89  C   UNL A   1      46.578  33.572  27.343  1.00  0.00     0.135 A 
ATOM     90  C   UNL A   1      47.087  33.075  29.640  1.00  0.00     0.135 A 
ATOM     91  F   UNL A   1      46.173  33.199  26.118  1.00  0.00    -0.206 F 
ATOM     92  C   UNL A   1      46.943  34.900  27.541  1.00  0.00     0.059 A 
ATOM     93  C   UNL A   1      47.429  34.404  29.868  1.00  0.00     0.059 A 
ATOM     94  F   UNL A   1      47.166  32.218  30.671  1.00  0.00    -0.206 F 
ATOM     95  C   UNL A   1      47.364  35.307  28.808  1.00  0.00     0.060 A 
BRANCH  95  96
ATOM     96  S   UNL A   1      47.794  37.042  29.061  1.00  0.00     0.124 S 
ATOM     97  O   UNL A   1      46.618  37.536  29.769  1.00  0.00    -0.237 OA
ATOM     98  O   UNL A   1      49.017  36.948  29.852  1.00  0.00    -0.237 OA
ATOM     99  O   UNL A   1      47.970  37.550  27.703  1.00  0.00    -0.744 OA
ENDBRANCH  95  96
ENDBRANCH  63  88
ENDBRANCH  37  38
ENDBRANCH  29  32
ENDBRANCH  27  28
ENDBRANCH   1  27
TORSDOF 19
ENDMDL
