MODEL 1
REMARK VINA RESULT:     -12.8      0.000      0.000
REMARK SMILES Cc1ccccc1CCNc1ccc(C(=O)NCCCNC(=O)c2ccc(-c3c4nc(c(-c5c(F)cc(S(=O)(=O)[O-])cc5F)c5ccc([nH]5)c(-c5c(F)cc(S(=O)(=O)[O-])cc5F)c5nc(c(-c6c(F)cc(S(=O)(=O)[O-])cc6F)c6ccc3[nH]6)C=C5)C=C4)cc2)cc1N
REMARK SMILES IDX 18 1 17 2 15 3 16 4 14 6 11 7 12 8 91 9 13 10 90 11 10 12
REMARK SMILES IDX 9 14 8 15 7 16 1 17 2 18 3 19 4 20 6 21 5 22 92 23 19 26
REMARK SMILES IDX 20 27 21 28 22 29 23 31 24 32 25 33 89 34 26 35 88 36 27 37
REMARK SMILES IDX 28 38 29 39 82 40 30 41 87 42 81 43 83 44 31 45 86 46 80 47
REMARK SMILES IDX 79 48 32 50 66 51 45 52 65 53 46 54 49 55 64 56 84 57 47 58
REMARK SMILES IDX 48 59 63 61 85 62 50 63 33 64 34 65 43 66 35 67 36 68 42 69
REMARK SMILES IDX 44 70 37 71 38 72 39 73 40 74 41 75 67 76 68 77 77 78 69 79
REMARK SMILES IDX 70 80 76 81 78 82 71 83 72 84 73 85 74 86 75 87 51 88 52 89
REMARK SMILES IDX 61 90 53 91 54 92 60 93 62 94 55 95 56 96 57 97 58 98 59 99
REMARK H PARENT 17 5 10 13 92 24 92 25 21 30 83 49 49 60
REMARK Flexibility Score: inf
ROOT
ATOM      1  C   UNL A   1      34.776  31.799  28.005  1.00  0.00     0.118 C 
ENDROOT
BRANCH   1   2
ATOM      2  N   UNL A   1      33.428  32.084  27.545  1.00  0.00    -0.352 N 
ATOM      3  C   UNL A   1      32.496  31.341  26.871  1.00  0.00     0.251 C 
ATOM      4  O   UNL A   1      31.406  31.874  26.646  1.00  0.00    -0.269 OA
ATOM      5  H   UNL A   1      33.124  32.995  27.763  1.00  0.00     0.163 HD
BRANCH   3   6
ATOM      6  C   UNL A   1      32.709  29.934  26.398  1.00  0.00     0.041 A 
ATOM      7  C   UNL A   1      32.886  27.270  25.437  1.00  0.00     0.057 A 
ATOM      8  C   UNL A   1      33.818  27.767  26.336  1.00  0.00     0.029 A 
ATOM      9  C   UNL A   1      31.866  28.129  24.979  1.00  0.00     0.056 A 
ATOM     10  C   UNL A   1      33.714  29.068  26.825  1.00  0.00     0.016 A 
ATOM     11  C   UNL A   1      31.809  29.451  25.436  1.00  0.00     0.041 A 
BRANCH   7  12
ATOM     12  N   UNL A   1      32.968  25.963  24.982  1.00  0.00    -0.383 N 
ATOM     13  H   UNL A   1      32.140  25.474  24.771  1.00  0.00     0.160 HD
BRANCH  12  14
ATOM     14  C   UNL A   1      34.252  25.295  24.807  1.00  0.00     0.117 C 
BRANCH  14  15
ATOM     15  C   UNL A   1      34.471  24.256  25.920  1.00  0.00     0.057 C 
BRANCH  15  16
ATOM     16  C   UNL A   1      35.483  23.196  25.529  1.00  0.00    -0.043 A 
ATOM     17  C   UNL A   1      33.761  21.582  24.501  1.00  0.00     0.044 C 
ATOM     18  C   UNL A   1      35.146  21.959  24.950  1.00  0.00    -0.048 A 
ATOM     19  C   UNL A   1      36.168  21.016  24.722  1.00  0.00     0.004 A 
ATOM     20  C   UNL A   1      37.493  21.278  25.071  1.00  0.00     0.000 A 
ATOM     21  C   UNL A   1      36.836  23.455  25.824  1.00  0.00     0.004 A 
ATOM     22  C   UNL A   1      37.829  22.505  25.619  1.00  0.00     0.000 A 
ENDBRANCH  15  16
ENDBRANCH  14  15
ENDBRANCH  12  14
ENDBRANCH   7  12
BRANCH   9  23
ATOM     23  N   UNL A   1      30.971  27.700  23.994  1.00  0.00    -0.397 N 
ATOM     24  H   UNL A   1      30.058  28.066  23.966  1.00  0.00     0.156 HD
ATOM     25  H   UNL A   1      31.254  27.031  23.329  1.00  0.00     0.156 HD
ENDBRANCH   9  23
ENDBRANCH   3   6
ENDBRANCH   1   2
BRANCH   1  26
ATOM     26  C   UNL A   1      35.584  33.086  28.212  1.00  0.00     0.042 C 
BRANCH  26  27
ATOM     27  C   UNL A   1      37.035  32.801  28.513  1.00  0.00     0.118 C 
BRANCH  27  28
ATOM     28  N   UNL A   1      37.185  31.926  29.668  1.00  0.00    -0.352 N 
ATOM     29  C   UNL A   1      38.049  30.869  29.515  1.00  0.00     0.251 C 
ATOM     30  H   UNL A   1      36.696  32.083  30.508  1.00  0.00     0.163 HD
ATOM     31  O   UNL A   1      39.260  31.080  29.524  1.00  0.00    -0.269 OA
BRANCH  29  32
ATOM     32  C   UNL A   1      37.475  29.573  28.981  1.00  0.00     0.039 A 
ATOM     33  C   UNL A   1      37.483  28.615  30.001  1.00  0.00     0.014 A 
ATOM     34  C   UNL A   1      38.103  29.255  27.776  1.00  0.00     0.014 A 
ATOM     35  C   UNL A   1      38.620  27.835  30.122  1.00  0.00     0.010 A 
ATOM     36  C   UNL A   1      39.279  28.551  27.890  1.00  0.00     0.010 A 
ATOM     37  C   UNL A   1      39.578  27.955  29.119  1.00  0.00    -0.014 A 
BRANCH  37  38
ATOM     38  C   UNL A   1      40.941  27.502  29.279  1.00  0.00     0.031 A 
ATOM     39  C   UNL A   1      41.218  26.120  28.877  1.00  0.00     0.074 A 
ATOM     40  C   UNL A   1      41.870  28.362  29.749  1.00  0.00     0.049 A 
ATOM     41  N   UNL A   1      42.240  25.426  29.224  1.00  0.00    -0.248 NA
ATOM     42  C   UNL A   1      40.241  25.364  28.096  1.00  0.00     0.031 C 
ATOM     43  C   UNL A   1      43.315  28.177  29.789  1.00  0.00     0.029 A 
ATOM     44  N   UNL A   1      41.651  29.509  30.526  1.00  0.00    -0.354 N 
ATOM     45  C   UNL A   1      42.198  24.247  28.508  1.00  0.00     0.074 A 
ATOM     46  C   UNL A   1      40.883  24.211  27.930  1.00  0.00     0.031 C 
ATOM     47  C   UNL A   1      43.811  28.946  30.774  1.00  0.00     0.029 A 
ATOM     48  C   UNL A   1      42.671  29.510  31.487  1.00  0.00     0.049 A 
ATOM     49  H   UNL A   1      40.934  30.174  30.417  1.00  0.00     0.167 HD
ATOM     50  C   UNL A   1      43.350  23.532  28.377  1.00  0.00     0.037 A 
ATOM     51  C   UNL A   1      42.438  29.336  32.822  1.00  0.00     0.037 A 
ATOM     52  C   UNL A   1      44.337  24.030  29.343  1.00  0.00     0.049 A 
ATOM     53  C   UNL A   1      43.139  28.089  33.343  1.00  0.00     0.074 A 
ATOM     54  C   UNL A   1      45.368  24.951  29.237  1.00  0.00     0.029 A 
ATOM     55  N   UNL A   1      44.068  23.901  30.707  1.00  0.00    -0.354 N 
ATOM     56  N   UNL A   1      43.436  27.045  32.611  1.00  0.00    -0.248 NA
ATOM     57  C   UNL A   1      43.606  27.957  34.720  1.00  0.00     0.031 C 
ATOM     58  C   UNL A   1      45.608  25.483  30.536  1.00  0.00     0.029 A 
ATOM     59  C   UNL A   1      44.764  24.851  31.436  1.00  0.00     0.049 A 
ATOM     60  H   UNL A   1      43.465  23.228  31.097  1.00  0.00     0.167 HD
ATOM     61  C   UNL A   1      44.131  26.135  33.370  1.00  0.00     0.074 A 
ATOM     62  C   UNL A   1      44.209  26.755  34.682  1.00  0.00     0.031 C 
ATOM     63  C   UNL A   1      44.612  24.949  32.884  1.00  0.00     0.037 A 
BRANCH  50  64
ATOM     64  C   UNL A   1      43.664  22.647  27.175  1.00  0.00     0.058 A 
ATOM     65  C   UNL A   1      43.022  21.397  27.027  1.00  0.00     0.135 A 
ATOM     66  C   UNL A   1      44.653  22.896  26.197  1.00  0.00     0.135 A 
ATOM     67  F   UNL A   1      42.018  21.031  27.835  1.00  0.00    -0.206 F 
ATOM     68  C   UNL A   1      43.387  20.455  26.054  1.00  0.00     0.059 A 
ATOM     69  C   UNL A   1      45.061  21.960  25.242  1.00  0.00     0.059 A 
ATOM     70  F   UNL A   1      45.262  24.075  26.072  1.00  0.00    -0.206 F 
ATOM     71  C   UNL A   1      44.427  20.736  25.179  1.00  0.00     0.060 A 
BRANCH  71  72
ATOM     72  S   UNL A   1      44.920  19.516  23.947  1.00  0.00     0.124 S 
ATOM     73  O   UNL A   1      44.109  18.361  24.318  1.00  0.00    -0.237 OA
ATOM     74  O   UNL A   1      44.553  20.178  22.699  1.00  0.00    -0.237 OA
ATOM     75  O   UNL A   1      46.355  19.363  24.170  1.00  0.00    -0.744 OA
ENDBRANCH  71  72
ENDBRANCH  50  64
BRANCH  51  76
ATOM     76  C   UNL A   1      41.139  29.889  33.317  1.00  0.00     0.058 A 
ATOM     77  C   UNL A   1      41.037  31.282  33.519  1.00  0.00     0.135 A 
ATOM     78  C   UNL A   1      39.936  29.173  33.245  1.00  0.00     0.135 A 
ATOM     79  F   UNL A   1      42.153  32.024  33.620  1.00  0.00    -0.206 F 
ATOM     80  C   UNL A   1      39.810  31.950  33.518  1.00  0.00     0.059 A 
ATOM     81  C   UNL A   1      38.693  29.823  33.244  1.00  0.00     0.059 A 
ATOM     82  F   UNL A   1      39.954  27.846  33.050  1.00  0.00    -0.206 F 
ATOM     83  C   UNL A   1      38.641  31.217  33.331  1.00  0.00     0.060 A 
BRANCH  83  84
ATOM     84  S   UNL A   1      37.092  32.110  32.980  1.00  0.00     0.124 S 
ATOM     85  O   UNL A   1      37.564  33.206  32.140  1.00  0.00    -0.237 OA
ATOM     86  O   UNL A   1      36.255  31.124  32.295  1.00  0.00    -0.237 OA
ATOM     87  O   UNL A   1      36.614  32.504  34.304  1.00  0.00    -0.744 OA
ENDBRANCH  83  84
ENDBRANCH  51  76
BRANCH  63  88
ATOM     88  C   UNL A   1      45.087  23.795  33.745  1.00  0.00     0.058 A 
ATOM     89  C   UNL A   1      46.394  23.694  34.255  1.00  0.00     0.135 A 
ATOM     90  C   UNL A   1      44.175  22.822  34.221  1.00  0.00     0.135 A 
ATOM     91  F   UNL A   1      47.324  24.623  33.988  1.00  0.00    -0.206 F 
ATOM     92  C   UNL A   1      46.791  22.659  35.104  1.00  0.00     0.059 A 
ATOM     93  C   UNL A   1      44.534  21.819  35.119  1.00  0.00     0.059 A 
ATOM     94  F   UNL A   1      42.887  22.823  33.843  1.00  0.00    -0.206 F 
ATOM     95  C   UNL A   1      45.854  21.724  35.529  1.00  0.00     0.060 A 
BRANCH  95  96
ATOM     96  S   UNL A   1      46.353  20.418  36.664  1.00  0.00     0.124 S 
ATOM     97  O   UNL A   1      45.602  19.281  36.146  1.00  0.00    -0.237 OA
ATOM     98  O   UNL A   1      47.799  20.359  36.476  1.00  0.00    -0.237 OA
ATOM     99  O   UNL A   1      45.921  20.923  37.966  1.00  0.00    -0.744 OA
ENDBRANCH  95  96
ENDBRANCH  63  88
ENDBRANCH  37  38
ENDBRANCH  29  32
ENDBRANCH  27  28
ENDBRANCH  26  27
ENDBRANCH   1  26
TORSDOF 18
ENDMDL
MODEL 2
REMARK VINA RESULT:     -12.5      4.908     11.971
REMARK SMILES Cc1ccccc1CCNc1ccc(C(=O)NCCCNC(=O)c2ccc(-c3c4nc(c(-c5c(F)cc(S(=O)(=O)[O-])cc5F)c5ccc([nH]5)c(-c5c(F)cc(S(=O)(=O)[O-])cc5F)c5nc(c(-c6c(F)cc(S(=O)(=O)[O-])cc6F)c6ccc3[nH]6)C=C5)C=C4)cc2)cc1N
REMARK SMILES IDX 18 1 17 2 15 3 16 4 14 6 11 7 12 8 91 9 13 10 90 11 10 12
REMARK SMILES IDX 9 14 8 15 7 16 1 17 2 18 3 19 4 20 6 21 5 22 92 23 19 26
REMARK SMILES IDX 20 27 21 28 22 29 23 31 24 32 25 33 89 34 26 35 88 36 27 37
REMARK SMILES IDX 28 38 29 39 82 40 30 41 87 42 81 43 83 44 31 45 86 46 80 47
REMARK SMILES IDX 79 48 32 50 66 51 45 52 65 53 46 54 49 55 64 56 84 57 47 58
REMARK SMILES IDX 48 59 63 61 85 62 50 63 33 64 34 65 43 66 35 67 36 68 42 69
REMARK SMILES IDX 44 70 37 71 38 72 39 73 40 74 41 75 67 76 68 77 77 78 69 79
REMARK SMILES IDX 70 80 76 81 78 82 71 83 72 84 73 85 74 86 75 87 51 88 52 89
REMARK SMILES IDX 61 90 53 91 54 92 60 93 62 94 55 95 56 96 57 97 58 98 59 99
REMARK H PARENT 17 5 10 13 92 24 92 25 21 30 83 49 49 60
REMARK Flexibility Score: inf
ROOT
ATOM      1  C   UNL A   1      43.216  22.491  25.864  1.00  0.00     0.118 C 
ENDROOT
BRANCH   1   2
ATOM      2  N   UNL A   1      43.030  21.331  26.717  1.00  0.00    -0.352 N 
ATOM      3  C   UNL A   1      41.953  20.525  26.975  1.00  0.00     0.251 C 
ATOM      4  O   UNL A   1      42.128  19.580  27.749  1.00  0.00    -0.269 OA
ATOM      5  H   UNL A   1      43.842  21.072  27.210  1.00  0.00     0.163 HD
BRANCH   3   6
ATOM      6  C   UNL A   1      40.590  20.710  26.378  1.00  0.00     0.041 A 
ATOM      7  C   UNL A   1      37.990  21.256  25.380  1.00  0.00     0.057 A 
ATOM      8  C   UNL A   1      38.540  19.986  25.281  1.00  0.00     0.029 A 
ATOM      9  C   UNL A   1      38.766  22.284  25.954  1.00  0.00     0.056 A 
ATOM     10  C   UNL A   1      39.807  19.715  25.795  1.00  0.00     0.016 A 
ATOM     11  C   UNL A   1      40.060  22.009  26.413  1.00  0.00     0.041 A 
BRANCH   7  12
ATOM     12  N   UNL A   1      36.714  21.514  24.904  1.00  0.00    -0.383 N 
ATOM     13  H   UNL A   1      36.605  22.038  24.078  1.00  0.00     0.160 HD
BRANCH  12  14
ATOM     14  C   UNL A   1      35.528  21.025  25.597  1.00  0.00     0.117 C 
BRANCH  14  15
ATOM     15  C   UNL A   1      34.287  21.164  24.698  1.00  0.00     0.057 C 
BRANCH  15  16
ATOM     16  C   UNL A   1      33.822  19.829  24.147  1.00  0.00    -0.043 A 
ATOM     17  C   UNL A   1      32.000  20.818  22.619  1.00  0.00     0.044 C 
ATOM     18  C   UNL A   1      32.741  19.676  23.259  1.00  0.00    -0.048 A 
ATOM     19  C   UNL A   1      32.342  18.375  22.895  1.00  0.00     0.004 A 
ATOM     20  C   UNL A   1      32.984  17.246  23.406  1.00  0.00     0.000 A 
ATOM     21  C   UNL A   1      34.486  18.676  24.607  1.00  0.00     0.004 A 
ATOM     22  C   UNL A   1      34.064  17.398  24.261  1.00  0.00     0.000 A 
ENDBRANCH  15  16
ENDBRANCH  14  15
ENDBRANCH  12  14
ENDBRANCH   7  12
BRANCH   9  23
ATOM     23  N   UNL A   1      38.291  23.599  25.976  1.00  0.00    -0.397 N 
ATOM     24  H   UNL A   1      37.418  23.813  25.576  1.00  0.00     0.156 HD
ATOM     25  H   UNL A   1      38.831  24.310  26.390  1.00  0.00     0.156 HD
ENDBRANCH   9  23
ENDBRANCH   3   6
ENDBRANCH   1   2
BRANCH   1  26
ATOM     26  C   UNL A   1      43.616  23.729  26.675  1.00  0.00     0.042 C 
BRANCH  26  27
ATOM     27  C   UNL A   1      42.994  24.990  26.127  1.00  0.00     0.118 C 
BRANCH  27  28
ATOM     28  N   UNL A   1      42.576  25.892  27.193  1.00  0.00    -0.352 N 
ATOM     29  C   UNL A   1      41.578  25.429  28.016  1.00  0.00     0.251 C 
ATOM     30  H   UNL A   1      42.986  26.778  27.317  1.00  0.00     0.163 HD
ATOM     31  O   UNL A   1      41.843  24.569  28.854  1.00  0.00    -0.269 OA
BRANCH  29  32
ATOM     32  C   UNL A   1      40.149  25.725  27.611  1.00  0.00     0.039 A 
ATOM     33  C   UNL A   1      40.141  26.810  26.726  1.00  0.00     0.014 A 
ATOM     34  C   UNL A   1      39.354  25.806  28.755  1.00  0.00     0.014 A 
ATOM     35  C   UNL A   1      40.040  28.074  27.280  1.00  0.00     0.010 A 
ATOM     36  C   UNL A   1      39.315  27.039  29.362  1.00  0.00     0.010 A 
ATOM     37  C   UNL A   1      39.786  28.145  28.647  1.00  0.00    -0.014 A 
BRANCH  37  38
ATOM     38  C   UNL A   1      40.010  29.342  29.424  1.00  0.00     0.031 A 
ATOM     39  C   UNL A   1      39.013  30.407  29.281  1.00  0.00     0.074 A 
ATOM     40  C   UNL A   1      41.082  29.404  30.245  1.00  0.00     0.049 A 
ATOM     41  N   UNL A   1      39.175  31.637  29.606  1.00  0.00    -0.248 NA
ATOM     42  C   UNL A   1      37.735  30.143  28.623  1.00  0.00     0.031 C 
ATOM     43  C   UNL A   1      41.374  30.415  31.254  1.00  0.00     0.029 A 
ATOM     44  N   UNL A   1      42.269  28.664  30.150  1.00  0.00    -0.354 N 
ATOM     45  C   UNL A   1      37.954  32.265  29.459  1.00  0.00     0.074 A 
ATOM     46  C   UNL A   1      37.142  31.329  28.732  1.00  0.00     0.031 C 
ATOM     47  C   UNL A   1      42.704  30.446  31.447  1.00  0.00     0.029 A 
ATOM     48  C   UNL A   1      43.298  29.569  30.444  1.00  0.00     0.049 A 
ATOM     49  H   UNL A   1      42.360  27.710  29.925  1.00  0.00     0.167 HD
ATOM     50  C   UNL A   1      37.751  33.441  30.117  1.00  0.00     0.037 A 
ATOM     51  C   UNL A   1      44.224  29.972  29.524  1.00  0.00     0.037 A 
ATOM     52  C   UNL A   1      39.042  33.959  30.585  1.00  0.00     0.049 A 
ATOM     53  C   UNL A   1      44.148  31.475  29.294  1.00  0.00     0.074 A 
ATOM     54  C   UNL A   1      39.707  33.858  31.797  1.00  0.00     0.029 A 
ATOM     55  N   UNL A   1      40.006  34.316  29.640  1.00  0.00    -0.354 N 
ATOM     56  N   UNL A   1      43.071  32.199  29.468  1.00  0.00    -0.248 NA
ATOM     57  C   UNL A   1      45.304  32.278  28.903  1.00  0.00     0.031 C 
ATOM     58  C   UNL A   1      41.099  34.009  31.542  1.00  0.00     0.029 A 
ATOM     59  C   UNL A   1      41.277  34.253  30.188  1.00  0.00     0.049 A 
ATOM     60  H   UNL A   1      39.810  34.576  28.712  1.00  0.00     0.167 HD
ATOM     61  C   UNL A   1      43.368  33.522  29.249  1.00  0.00     0.074 A 
ATOM     62  C   UNL A   1      44.778  33.516  28.897  1.00  0.00     0.031 C 
ATOM     63  C   UNL A   1      42.459  34.538  29.382  1.00  0.00     0.037 A 
BRANCH  50  64
ATOM     64  C   UNL A   1      36.384  33.911  30.605  1.00  0.00     0.058 A 
ATOM     65  C   UNL A   1      35.417  34.364  29.680  1.00  0.00     0.135 A 
ATOM     66  C   UNL A   1      35.989  34.056  31.954  1.00  0.00     0.135 A 
ATOM     67  F   UNL A   1      35.609  34.244  28.359  1.00  0.00    -0.206 F 
ATOM     68  C   UNL A   1      34.215  34.977  30.060  1.00  0.00     0.059 A 
ATOM     69  C   UNL A   1      34.815  34.696  32.360  1.00  0.00     0.059 A 
ATOM     70  F   UNL A   1      36.692  33.551  32.968  1.00  0.00    -0.206 F 
ATOM     71  C   UNL A   1      33.932  35.162  31.407  1.00  0.00     0.060 A 
BRANCH  71  72
ATOM     72  S   UNL A   1      32.403  35.976  31.901  1.00  0.00     0.124 S 
ATOM     73  O   UNL A   1      32.894  37.090  32.706  1.00  0.00    -0.237 OA
ATOM     74  O   UNL A   1      31.816  36.330  30.613  1.00  0.00    -0.237 OA
ATOM     75  O   UNL A   1      31.688  34.942  32.646  1.00  0.00    -0.744 OA
ENDBRANCH  71  72
ENDBRANCH  50  64
BRANCH  51  76
ATOM     76  C   UNL A   1      44.597  28.942  28.506  1.00  0.00     0.058 A 
ATOM     77  C   UNL A   1      44.076  29.071  27.201  1.00  0.00     0.135 A 
ATOM     78  C   UNL A   1      45.693  28.083  28.665  1.00  0.00     0.135 A 
ATOM     79  F   UNL A   1      43.011  29.860  26.983  1.00  0.00    -0.206 F 
ATOM     80  C   UNL A   1      44.689  28.485  26.090  1.00  0.00     0.059 A 
ATOM     81  C   UNL A   1      46.322  27.482  27.564  1.00  0.00     0.059 A 
ATOM     82  F   UNL A   1      46.244  27.913  29.876  1.00  0.00    -0.206 F 
ATOM     83  C   UNL A   1      45.844  27.729  26.274  1.00  0.00     0.060 A 
BRANCH  83  84
ATOM     84  S   UNL A   1      46.831  27.265  24.815  1.00  0.00     0.124 S 
ATOM     85  O   UNL A   1      46.423  28.276  23.846  1.00  0.00    -0.237 OA
ATOM     86  O   UNL A   1      48.218  27.372  25.270  1.00  0.00    -0.237 OA
ATOM     87  O   UNL A   1      46.388  25.905  24.517  1.00  0.00    -0.744 OA
ENDBRANCH  83  84
ENDBRANCH  51  76
BRANCH  63  88
ATOM     88  C   UNL A   1      42.652  35.942  28.846  1.00  0.00     0.058 A 
ATOM     89  C   UNL A   1      42.047  36.413  27.666  1.00  0.00     0.135 A 
ATOM     90  C   UNL A   1      43.337  36.921  29.607  1.00  0.00     0.135 A 
ATOM     91  F   UNL A   1      41.263  35.624  26.919  1.00  0.00    -0.206 F 
ATOM     92  C   UNL A   1      42.183  37.732  27.227  1.00  0.00     0.059 A 
ATOM     93  C   UNL A   1      43.429  38.256  29.221  1.00  0.00     0.059 A 
ATOM     94  F   UNL A   1      43.929  36.616  30.772  1.00  0.00    -0.206 F 
ATOM     95  C   UNL A   1      42.877  38.647  28.011  1.00  0.00     0.060 A 
BRANCH  95  96
ATOM     96  S   UNL A   1      43.009  40.360  27.471  1.00  0.00     0.124 S 
ATOM     97  O   UNL A   1      44.059  40.266  26.464  1.00  0.00    -0.237 OA
ATOM     98  O   UNL A   1      41.671  40.644  26.964  1.00  0.00    -0.237 OA
ATOM     99  O   UNL A   1      43.368  41.070  28.698  1.00  0.00    -0.744 OA
ENDBRANCH  95  96
ENDBRANCH  63  88
ENDBRANCH  37  38
ENDBRANCH  29  32
ENDBRANCH  27  28
ENDBRANCH  26  27
ENDBRANCH   1  26
TORSDOF 18
ENDMDL
MODEL 3
REMARK VINA RESULT:     -12.4      4.790     11.977
REMARK SMILES Cc1ccccc1CCNc1ccc(C(=O)NCCCNC(=O)c2ccc(-c3c4nc(c(-c5c(F)cc(S(=O)(=O)[O-])cc5F)c5ccc([nH]5)c(-c5c(F)cc(S(=O)(=O)[O-])cc5F)c5nc(c(-c6c(F)cc(S(=O)(=O)[O-])cc6F)c6ccc3[nH]6)C=C5)C=C4)cc2)cc1N
REMARK SMILES IDX 18 1 17 2 15 3 16 4 14 6 11 7 12 8 91 9 13 10 90 11 10 12
REMARK SMILES IDX 9 14 8 15 7 16 1 17 2 18 3 19 4 20 6 21 5 22 92 23 19 26
REMARK SMILES IDX 20 27 21 28 22 29 23 31 24 32 25 33 89 34 26 35 88 36 27 37
REMARK SMILES IDX 28 38 29 39 82 40 30 41 87 42 81 43 83 44 31 45 86 46 80 47
REMARK SMILES IDX 79 48 32 50 66 51 45 52 65 53 46 54 49 55 64 56 84 57 47 58
REMARK SMILES IDX 48 59 63 61 85 62 50 63 33 64 34 65 43 66 35 67 36 68 42 69
REMARK SMILES IDX 44 70 37 71 38 72 39 73 40 74 41 75 67 76 68 77 77 78 69 79
REMARK SMILES IDX 70 80 76 81 78 82 71 83 72 84 73 85 74 86 75 87 51 88 52 89
REMARK SMILES IDX 61 90 53 91 54 92 60 93 62 94 55 95 56 96 57 97 58 98 59 99
REMARK H PARENT 17 5 10 13 92 24 92 25 21 30 83 49 49 60
REMARK Flexibility Score: inf
ROOT
ATOM      1  C   UNL A   1      43.430  22.444  25.905  1.00  0.00     0.118 C 
ENDROOT
BRANCH   1   2
ATOM      2  N   UNL A   1      43.090  21.245  26.650  1.00  0.00    -0.352 N 
ATOM      3  C   UNL A   1      41.898  20.654  26.975  1.00  0.00     0.251 C 
ATOM      4  O   UNL A   1      41.948  19.599  27.612  1.00  0.00    -0.269 OA
ATOM      5  H   UNL A   1      43.877  20.759  26.990  1.00  0.00     0.163 HD
BRANCH   3   6
ATOM      6  C   UNL A   1      40.550  21.197  26.605  1.00  0.00     0.041 A 
ATOM      7  C   UNL A   1      37.993  22.064  25.732  1.00  0.00     0.057 A 
ATOM      8  C   UNL A   1      38.795  22.882  26.516  1.00  0.00     0.029 A 
ATOM      9  C   UNL A   1      38.460  20.774  25.407  1.00  0.00     0.056 A 
ATOM     10  C   UNL A   1      40.060  22.462  26.922  1.00  0.00     0.016 A 
ATOM     11  C   UNL A   1      39.709  20.346  25.872  1.00  0.00     0.041 A 
BRANCH   7  12
ATOM     12  N   UNL A   1      36.752  22.499  25.296  1.00  0.00    -0.383 N 
ATOM     13  H   UNL A   1      36.647  22.798  24.364  1.00  0.00     0.160 HD
BRANCH  12  14
ATOM     14  C   UNL A   1      35.596  22.522  26.184  1.00  0.00     0.117 C 
BRANCH  14  15
ATOM     15  C   UNL A   1      34.301  22.705  25.373  1.00  0.00     0.057 C 
BRANCH  15  16
ATOM     16  C   UNL A   1      33.595  24.007  25.699  1.00  0.00    -0.043 A 
ATOM     17  C   UNL A   1      31.368  22.912  26.384  1.00  0.00     0.044 C 
ATOM     18  C   UNL A   1      32.246  24.097  26.090  1.00  0.00    -0.048 A 
ATOM     19  C   UNL A   1      31.676  25.372  26.270  1.00  0.00     0.004 A 
ATOM     20  C   UNL A   1      32.413  26.537  26.056  1.00  0.00     0.000 A 
ATOM     21  C   UNL A   1      34.331  25.197  25.540  1.00  0.00     0.004 A 
ATOM     22  C   UNL A   1      33.748  26.449  25.695  1.00  0.00     0.000 A 
ENDBRANCH  15  16
ENDBRANCH  14  15
ENDBRANCH  12  14
ENDBRANCH   7  12
BRANCH   9  23
ATOM     23  N   UNL A   1      37.640  19.881  24.710  1.00  0.00    -0.397 N 
ATOM     24  H   UNL A   1      37.307  19.069  25.155  1.00  0.00     0.156 HD
ATOM     25  H   UNL A   1      37.397  20.065  23.774  1.00  0.00     0.156 HD
ENDBRANCH   9  23
ENDBRANCH   3   6
ENDBRANCH   1   2
BRANCH   1  26
ATOM     26  C   UNL A   1      43.534  23.668  26.822  1.00  0.00     0.042 C 
BRANCH  26  27
ATOM     27  C   UNL A   1      43.050  24.927  26.146  1.00  0.00     0.118 C 
BRANCH  27  28
ATOM     28  N   UNL A   1      42.678  25.950  27.115  1.00  0.00    -0.352 N 
ATOM     29  C   UNL A   1      41.699  25.601  28.013  1.00  0.00     0.251 C 
ATOM     30  H   UNL A   1      43.104  26.837  27.125  1.00  0.00     0.163 HD
ATOM     31  O   UNL A   1      41.977  24.836  28.934  1.00  0.00    -0.269 OA
BRANCH  29  32
ATOM     32  C   UNL A   1      40.263  25.875  27.618  1.00  0.00     0.039 A 
ATOM     33  C   UNL A   1      40.232  26.959  26.732  1.00  0.00     0.014 A 
ATOM     34  C   UNL A   1      39.475  25.945  28.767  1.00  0.00     0.014 A 
ATOM     35  C   UNL A   1      40.116  28.221  27.287  1.00  0.00     0.010 A 
ATOM     36  C   UNL A   1      39.421  27.177  29.374  1.00  0.00     0.010 A 
ATOM     37  C   UNL A   1      39.870  28.290  28.655  1.00  0.00    -0.014 A 
BRANCH  37  38
ATOM     38  C   UNL A   1      40.083  29.491  29.430  1.00  0.00     0.031 A 
ATOM     39  C   UNL A   1      39.071  30.543  29.288  1.00  0.00     0.074 A 
ATOM     40  C   UNL A   1      41.155  29.568  30.247  1.00  0.00     0.049 A 
ATOM     41  N   UNL A   1      39.218  31.776  29.611  1.00  0.00    -0.248 NA
ATOM     42  C   UNL A   1      37.795  30.262  28.635  1.00  0.00     0.031 C 
ATOM     43  C   UNL A   1      41.438  30.583  31.253  1.00  0.00     0.029 A 
ATOM     44  N   UNL A   1      42.352  28.843  30.149  1.00  0.00    -0.354 N 
ATOM     45  C   UNL A   1      37.990  32.388  29.467  1.00  0.00     0.074 A 
ATOM     46  C   UNL A   1      37.187  31.441  28.744  1.00  0.00     0.031 C 
ATOM     47  C   UNL A   1      42.768  30.632  31.442  1.00  0.00     0.029 A 
ATOM     48  C   UNL A   1      43.370  29.761  30.438  1.00  0.00     0.049 A 
ATOM     49  H   UNL A   1      42.454  27.890  29.925  1.00  0.00     0.167 HD
ATOM     50  C   UNL A   1      37.773  33.562  30.123  1.00  0.00     0.037 A 
ATOM     51  C   UNL A   1      44.288  30.174  29.515  1.00  0.00     0.037 A 
ATOM     52  C   UNL A   1      39.060  34.097  30.587  1.00  0.00     0.049 A 
ATOM     53  C   UNL A   1      44.193  31.676  29.282  1.00  0.00     0.074 A 
ATOM     54  C   UNL A   1      39.730  34.007  31.797  1.00  0.00     0.029 A 
ATOM     55  N   UNL A   1      40.016  34.465  29.638  1.00  0.00    -0.354 N 
ATOM     56  N   UNL A   1      43.107  32.387  29.459  1.00  0.00    -0.248 NA
ATOM     57  C   UNL A   1      45.337  32.493  28.887  1.00  0.00     0.031 C 
ATOM     58  C   UNL A   1      41.119  34.174  31.537  1.00  0.00     0.029 A 
ATOM     59  C   UNL A   1      41.289  34.418  30.182  1.00  0.00     0.049 A 
ATOM     60  H   UNL A   1      39.814  34.721  28.710  1.00  0.00     0.167 HD
ATOM     61  C   UNL A   1      43.387  33.713  29.237  1.00  0.00     0.074 A 
ATOM     62  C   UNL A   1      44.796  33.724  28.881  1.00  0.00     0.031 C 
ATOM     63  C   UNL A   1      42.465  34.717  29.372  1.00  0.00     0.037 A 
BRANCH  50  64
ATOM     64  C   UNL A   1      36.403  34.016  30.615  1.00  0.00     0.058 A 
ATOM     65  C   UNL A   1      35.413  34.414  29.689  1.00  0.00     0.135 A 
ATOM     66  C   UNL A   1      36.023  34.197  31.964  1.00  0.00     0.135 A 
ATOM     67  F   UNL A   1      35.589  34.253  28.371  1.00  0.00    -0.206 F 
ATOM     68  C   UNL A   1      34.200  35.010  30.067  1.00  0.00     0.059 A 
ATOM     69  C   UNL A   1      34.839  34.822  32.365  1.00  0.00     0.059 A 
ATOM     70  F   UNL A   1      36.752  33.744  32.984  1.00  0.00    -0.206 F 
ATOM     71  C   UNL A   1      33.932  35.234  31.410  1.00  0.00     0.060 A 
BRANCH  71  72
ATOM     72  S   UNL A   1      32.390  36.028  31.899  1.00  0.00     0.124 S 
ATOM     73  O   UNL A   1      31.837  36.441  30.613  1.00  0.00    -0.237 OA
ATOM     74  O   UNL A   1      31.689  34.941  32.575  1.00  0.00    -0.237 OA
ATOM     75  O   UNL A   1      32.826  37.120  32.765  1.00  0.00    -0.744 OA
ENDBRANCH  71  72
ENDBRANCH  50  64
BRANCH  51  76
ATOM     76  C   UNL A   1      44.670  29.147  28.497  1.00  0.00     0.058 A 
ATOM     77  C   UNL A   1      44.123  29.253  27.201  1.00  0.00     0.135 A 
ATOM     78  C   UNL A   1      45.792  28.320  28.642  1.00  0.00     0.135 A 
ATOM     79  F   UNL A   1      43.033  30.011  26.997  1.00  0.00    -0.206 F 
ATOM     80  C   UNL A   1      44.732  28.676  26.083  1.00  0.00     0.059 A 
ATOM     81  C   UNL A   1      46.418  27.729  27.534  1.00  0.00     0.059 A 
ATOM     82  F   UNL A   1      46.369  28.173  29.844  1.00  0.00    -0.206 F 
ATOM     83  C   UNL A   1      45.910  27.953  26.251  1.00  0.00     0.060 A 
BRANCH  83  84
ATOM     84  S   UNL A   1      46.883  27.505  24.778  1.00  0.00     0.124 S 
ATOM     85  O   UNL A   1      46.464  28.527  23.823  1.00  0.00    -0.237 OA
ATOM     86  O   UNL A   1      48.274  27.608  25.220  1.00  0.00    -0.237 OA
ATOM     87  O   UNL A   1      46.438  26.148  24.470  1.00  0.00    -0.744 OA
ENDBRANCH  83  84
ENDBRANCH  51  76
BRANCH  63  88
ATOM     88  C   UNL A   1      42.639  36.123  28.833  1.00  0.00     0.058 A 
ATOM     89  C   UNL A   1      43.306  37.146  29.532  1.00  0.00     0.135 A 
ATOM     90  C   UNL A   1      42.271  36.440  27.503  1.00  0.00     0.135 A 
ATOM     91  F   UNL A   1      43.822  36.938  30.752  1.00  0.00    -0.206 F 
ATOM     92  C   UNL A   1      43.516  38.414  28.987  1.00  0.00     0.059 A 
ATOM     93  C   UNL A   1      42.529  37.678  26.917  1.00  0.00     0.059 A 
ATOM     94  F   UNL A   1      41.660  35.545  26.712  1.00  0.00    -0.206 F 
ATOM     95  C   UNL A   1      43.122  38.672  27.679  1.00  0.00     0.060 A 
BRANCH  95  96
ATOM     96  S   UNL A   1      43.438  40.292  26.958  1.00  0.00     0.124 S 
ATOM     97  O   UNL A   1      43.775  41.075  28.141  1.00  0.00    -0.237 OA
ATOM     98  O   UNL A   1      44.541  40.029  26.040  1.00  0.00    -0.237 OA
ATOM     99  O   UNL A   1      42.168  40.626  26.316  1.00  0.00    -0.744 OA
ENDBRANCH  95  96
ENDBRANCH  63  88
ENDBRANCH  37  38
ENDBRANCH  29  32
ENDBRANCH  27  28
ENDBRANCH  26  27
ENDBRANCH   1  26
TORSDOF 18
ENDMDL
