MODEL 1
REMARK VINA RESULT:     -13.6      0.000      0.000
REMARK SMILES O=C(NCCCNC(=O)c1ccc(-c2c3nc(c(-c4c(F)cc(S(=O)(=O)[O-])cc4F)c4ccc([nH]4)c(-c4c(F)cc(S(=O)(=O)[O-])cc4F)c4nc(c(-c5c(F)cc(S(=O)(=O)[O-])cc5F)c5ccc2[nH]5)C=C4)C=C3)cc1)C1=Cc2cc(S(F)(F)(F)(F)F)ccc2O[C@@H]1C(F)(F)F
REMARK SMILES IDX 6 1 5 2 4 3 3 4 1 5 2 6 76 8 77 9 91 10 78 11 90 12 79 13
REMARK SMILES IDX 89 14 80 15 88 16 87 17 92 18 93 19 94 20 95 21 81 22 82 23
REMARK SMILES IDX 83 24 84 25 85 26 86 27 7 28 8 29 9 31 10 32 11 33 75 34
REMARK SMILES IDX 12 35 74 36 13 37 14 38 15 39 68 40 16 41 73 42 67 43 69 44
REMARK SMILES IDX 17 45 72 46 66 47 65 48 18 50 52 51 31 52 51 53 32 54 35 55
REMARK SMILES IDX 50 56 70 57 33 58 34 59 49 61 71 62 36 63 19 64 20 65 29 66
REMARK SMILES IDX 21 67 22 68 28 69 30 70 23 71 24 72 25 73 26 74 27 75 53 76
REMARK SMILES IDX 54 77 63 78 55 79 56 80 62 81 64 82 57 83 58 84 59 85 60 86
REMARK SMILES IDX 61 87 37 88 38 89 47 90 39 91 40 92 46 93 48 94 41 95 42 96
REMARK SMILES IDX 43 97 44 98 45 99
REMARK H PARENT 3 7 7 30 69 49 35 60
REMARK Flexibility Score: inf
ROOT
ATOM      1  C   UNL A   1      39.678  23.796  26.993  1.00  0.00     0.118 C 
ENDROOT
BRANCH   1   2
ATOM      2  C   UNL A   1      38.618  22.903  26.367  1.00  0.00     0.042 C 
BRANCH   2   3
ATOM      3  C   UNL A   1      37.430  23.751  25.940  1.00  0.00     0.118 C 
BRANCH   3   4
ATOM      4  N   UNL A   1      37.259  23.657  24.483  1.00  0.00    -0.352 N 
ATOM      5  O   UNL A   1      35.976  22.829  22.663  1.00  0.00    -0.270 OA
ATOM      6  C   UNL A   1      36.124  22.910  23.923  1.00  0.00     0.251 C 
ATOM      7  H   UNL A   1      37.906  24.093  23.883  1.00  0.00     0.163 HD
BRANCH   6   8
ATOM      8  C   UNL A   1      35.126  22.236  24.851  1.00  0.00     0.067 C 
ATOM      9  C   UNL A   1      34.122  22.961  25.412  1.00  0.00     0.025 C 
ATOM     10  C   UNL A   1      35.251  20.751  25.150  1.00  0.00     0.314 C 
ATOM     11  C   UNL A   1      33.997  24.446  25.112  1.00  0.00     0.019 A 
ATOM     12  O   UNL A   1      34.650  24.068  22.859  1.00  0.00    -0.475 OA
ATOM     13  C   UNL A   1      33.628  25.278  26.157  1.00  0.00     0.036 A 
ATOM     14  C   UNL A   1      34.116  24.907  23.873  1.00  0.00     0.128 A 
ATOM     15  C   UNL A   1      33.121  26.532  25.739  1.00  0.00     0.107 A 
ATOM     16  C   UNL A   1      33.728  26.188  23.563  1.00  0.00     0.048 A 
ATOM     17  C   UNL A   1      33.297  27.047  24.535  1.00  0.00     0.028 A 
BRANCH  10  18
ATOM     18  C   UNL A   1      33.987  20.036  24.702  1.00  0.00     0.429 C 
ATOM     19  F   UNL A   1      33.128  19.977  25.716  1.00  0.00    -0.167 F 
ATOM     20  F   UNL A   1      33.436  20.702  23.691  1.00  0.00    -0.167 F 
ATOM     21  F   UNL A   1      34.292  18.802  24.308  1.00  0.00    -0.167 F 
ENDBRANCH  10  18
BRANCH  15  22
ATOM     22  S   UNL A   1      32.166  27.496  26.935  1.00  0.00     0.310 S 
ATOM     23  F   UNL A   1      31.879  28.641  25.876  1.00  0.00    -0.094 F 
ATOM     24  F   UNL A   1      33.484  28.271  27.314  1.00  0.00    -0.094 F 
ATOM     25  F   UNL A   1      31.348  28.328  27.963  1.00  0.00    -0.094 F 
ATOM     26  F   UNL A   1      30.832  26.807  26.444  1.00  0.00    -0.094 F 
ATOM     27  F   UNL A   1      32.962  26.725  25.809  1.00  0.00    -0.094 F 
ENDBRANCH  15  22
ENDBRANCH   6   8
ENDBRANCH   3   4
ENDBRANCH   2   3
ENDBRANCH   1   2
BRANCH   1  28
ATOM     28  N   UNL A   1      40.659  24.185  25.969  1.00  0.00    -0.352 N 
ATOM     29  C   UNL A   1      41.321  25.494  26.044  1.00  0.00     0.251 C 
ATOM     30  H   UNL A   1      40.871  23.567  25.232  1.00  0.00     0.163 HD
ATOM     31  O   UNL A   1      42.168  25.831  25.159  1.00  0.00    -0.269 OA
BRANCH  29  32
ATOM     32  C   UNL A   1      40.992  26.448  27.183  1.00  0.00     0.039 A 
ATOM     33  C   UNL A   1      41.758  27.588  27.359  1.00  0.00     0.014 A 
ATOM     34  C   UNL A   1      40.080  26.085  28.077  1.00  0.00     0.014 A 
ATOM     35  C   UNL A   1      41.687  28.130  28.665  1.00  0.00     0.010 A 
ATOM     36  C   UNL A   1      39.976  26.745  29.277  1.00  0.00     0.010 A 
ATOM     37  C   UNL A   1      40.743  27.844  29.543  1.00  0.00    -0.014 A 
BRANCH  37  38
ATOM     38  C   UNL A   1      40.522  28.695  30.784  1.00  0.00     0.031 A 
ATOM     39  C   UNL A   1      41.395  28.485  31.853  1.00  0.00     0.074 A 
ATOM     40  C   UNL A   1      39.579  29.707  30.742  1.00  0.00     0.049 A 
ATOM     41  N   UNL A   1      41.504  29.208  32.968  1.00  0.00    -0.248 NA
ATOM     42  C   UNL A   1      42.374  27.390  31.914  1.00  0.00     0.031 C 
ATOM     43  C   UNL A   1      38.700  29.930  29.664  1.00  0.00     0.029 A 
ATOM     44  N   UNL A   1      39.318  30.659  31.702  1.00  0.00    -0.354 N 
ATOM     45  C   UNL A   1      42.465  28.711  33.748  1.00  0.00     0.074 A 
ATOM     46  C   UNL A   1      43.035  27.530  33.084  1.00  0.00     0.031 C 
ATOM     47  C   UNL A   1      37.913  30.994  29.975  1.00  0.00     0.029 A 
ATOM     48  C   UNL A   1      38.288  31.455  31.251  1.00  0.00     0.049 A 
ATOM     49  H   UNL A   1      39.788  30.756  32.563  1.00  0.00     0.167 HD
ATOM     50  C   UNL A   1      42.891  29.196  34.986  1.00  0.00     0.037 A 
ATOM     51  C   UNL A   1      37.693  32.524  31.903  1.00  0.00     0.037 A 
ATOM     52  C   UNL A   1      42.325  30.291  35.617  1.00  0.00     0.049 A 
ATOM     53  C   UNL A   1      38.079  32.973  33.167  1.00  0.00     0.074 A 
ATOM     54  C   UNL A   1      42.748  30.798  36.862  1.00  0.00     0.029 A 
ATOM     55  N   UNL A   1      41.278  31.071  35.178  1.00  0.00    -0.354 N 
ATOM     56  N   UNL A   1      39.067  32.500  33.929  1.00  0.00    -0.248 NA
ATOM     57  C   UNL A   1      37.435  34.084  33.881  1.00  0.00     0.031 C 
ATOM     58  C   UNL A   1      41.960  31.863  37.173  1.00  0.00     0.029 A 
ATOM     59  C   UNL A   1      41.033  32.038  36.128  1.00  0.00     0.049 A 
ATOM     60  H   UNL A   1      40.790  30.957  34.331  1.00  0.00     0.167 HD
ATOM     61  C   UNL A   1      39.148  33.198  35.063  1.00  0.00     0.074 A 
ATOM     62  C   UNL A   1      38.095  34.223  35.052  1.00  0.00     0.031 C 
ATOM     63  C   UNL A   1      40.060  33.025  36.106  1.00  0.00     0.037 A 
BRANCH  50  64
ATOM     64  C   UNL A   1      44.040  28.482  35.680  1.00  0.00     0.058 A 
ATOM     65  C   UNL A   1      45.353  28.840  35.420  1.00  0.00     0.135 A 
ATOM     66  C   UNL A   1      43.749  27.489  36.511  1.00  0.00     0.135 A 
ATOM     67  F   UNL A   1      45.689  29.971  34.805  1.00  0.00    -0.206 F 
ATOM     68  C   UNL A   1      46.304  27.894  35.869  1.00  0.00     0.059 A 
ATOM     69  C   UNL A   1      44.742  26.687  37.019  1.00  0.00     0.059 A 
ATOM     70  F   UNL A   1      42.483  27.268  36.855  1.00  0.00    -0.206 F 
ATOM     71  C   UNL A   1      46.058  26.947  36.756  1.00  0.00     0.060 A 
BRANCH  71  72
ATOM     72  S   UNL A   1      47.392  26.043  37.580  1.00  0.00     0.124 S 
ATOM     73  O   UNL A   1      46.986  25.736  39.024  1.00  0.00    -0.237 OA
ATOM     74  O   UNL A   1      47.656  24.733  36.835  1.00  0.00    -0.237 OA
ATOM     75  O   UNL A   1      48.813  26.995  37.579  1.00  0.00    -0.744 OA
ENDBRANCH  71  72
ENDBRANCH  50  64
BRANCH  51  76
ATOM     76  C   UNL A   1      36.555  33.248  31.201  1.00  0.00     0.058 A 
ATOM     77  C   UNL A   1      35.240  33.026  31.574  1.00  0.00     0.135 A 
ATOM     78  C   UNL A   1      36.863  34.117  30.244  1.00  0.00     0.135 A 
ATOM     79  F   UNL A   1      34.901  32.369  32.679  1.00  0.00    -0.206 F 
ATOM     80  C   UNL A   1      34.290  33.563  30.673  1.00  0.00     0.059 A 
ATOM     81  C   UNL A   1      35.877  34.706  29.492  1.00  0.00     0.059 A 
ATOM     82  F   UNL A   1      38.138  34.417  30.013  1.00  0.00    -0.206 F 
ATOM     83  C   UNL A   1      34.556  34.487  29.767  1.00  0.00     0.060 A 
BRANCH  83  84
ATOM     84  S   UNL A   1      33.241  35.412  28.935  1.00  0.00     0.124 S 
ATOM     85  O   UNL A   1      33.862  36.501  28.056  1.00  0.00    -0.237 OA
ATOM     86  O   UNL A   1      32.418  34.460  28.065  1.00  0.00    -0.237 OA
ATOM     87  O   UNL A   1      32.225  36.136  30.106  1.00  0.00    -0.744 OA
ENDBRANCH  83  84
ENDBRANCH  51  76
BRANCH  63  88
ATOM     88  C   UNL A   1      39.982  33.977  37.288  1.00  0.00     0.058 A 
ATOM     89  C   UNL A   1      39.163  33.670  38.363  1.00  0.00     0.135 A 
ATOM     90  C   UNL A   1      40.607  35.145  37.210  1.00  0.00     0.135 A 
ATOM     91  F   UNL A   1      38.724  32.440  38.614  1.00  0.00    -0.206 F 
ATOM     92  C   UNL A   1      38.837  34.786  39.171  1.00  0.00     0.059 A 
ATOM     93  C   UNL A   1      40.340  36.143  38.114  1.00  0.00     0.059 A 
ATOM     94  F   UNL A   1      41.501  35.350  36.246  1.00  0.00    -0.206 F 
ATOM     95  C   UNL A   1      39.495  35.930  39.168  1.00  0.00     0.060 A 
BRANCH  95  96
ATOM     96  S   UNL A   1      39.290  37.152  40.489  1.00  0.00     0.124 S 
ATOM     97  O   UNL A   1      40.631  37.838  40.760  1.00  0.00    -0.237 OA
ATOM     98  O   UNL A   1      38.259  38.198  40.059  1.00  0.00    -0.237 OA
ATOM     99  O   UNL A   1      38.750  36.370  41.910  1.00  0.00    -0.744 OA
ENDBRANCH  95  96
ENDBRANCH  63  88
ENDBRANCH  37  38
ENDBRANCH  29  32
ENDBRANCH   1  28
TORSDOF 15
ENDMDL
MODEL 2
REMARK VINA RESULT:     -13.3      6.436     11.378
REMARK SMILES O=C(NCCCNC(=O)c1ccc(-c2c3nc(c(-c4c(F)cc(S(=O)(=O)[O-])cc4F)c4ccc([nH]4)c(-c4c(F)cc(S(=O)(=O)[O-])cc4F)c4nc(c(-c5c(F)cc(S(=O)(=O)[O-])cc5F)c5ccc2[nH]5)C=C4)C=C3)cc1)C1=Cc2cc(S(F)(F)(F)(F)F)ccc2O[C@@H]1C(F)(F)F
REMARK SMILES IDX 6 1 5 2 4 3 3 4 1 5 2 6 76 8 77 9 91 10 78 11 90 12 79 13
REMARK SMILES IDX 89 14 80 15 88 16 87 17 92 18 93 19 94 20 95 21 81 22 82 23
REMARK SMILES IDX 83 24 84 25 85 26 86 27 7 28 8 29 9 31 10 32 11 33 75 34
REMARK SMILES IDX 12 35 74 36 13 37 14 38 15 39 68 40 16 41 73 42 67 43 69 44
REMARK SMILES IDX 17 45 72 46 66 47 65 48 18 50 52 51 31 52 51 53 32 54 35 55
REMARK SMILES IDX 50 56 70 57 33 58 34 59 49 61 71 62 36 63 19 64 20 65 29 66
REMARK SMILES IDX 21 67 22 68 28 69 30 70 23 71 24 72 25 73 26 74 27 75 53 76
REMARK SMILES IDX 54 77 63 78 55 79 56 80 62 81 64 82 57 83 58 84 59 85 60 86
REMARK SMILES IDX 61 87 37 88 38 89 47 90 39 91 40 92 46 93 48 94 41 95 42 96
REMARK SMILES IDX 43 97 44 98 45 99
REMARK H PARENT 3 7 7 30 69 49 35 60
REMARK Flexibility Score: inf
ROOT
ATOM      1  C   UNL A   1      35.604  29.684  28.369  1.00  0.00     0.118 C 
ENDROOT
BRANCH   1   2
ATOM      2  C   UNL A   1      34.712  29.975  27.172  1.00  0.00     0.042 C 
BRANCH   2   3
ATOM      3  C   UNL A   1      34.227  28.665  26.572  1.00  0.00     0.118 C 
BRANCH   3   4
ATOM      4  N   UNL A   1      33.062  28.182  27.327  1.00  0.00    -0.352 N 
ATOM      5  O   UNL A   1      30.829  27.372  27.269  1.00  0.00    -0.270 OA
ATOM      6  C   UNL A   1      31.836  27.790  26.616  1.00  0.00     0.251 C 
ATOM      7  H   UNL A   1      33.102  28.122  28.308  1.00  0.00     0.163 HD
BRANCH   6   8
ATOM      8  C   UNL A   1      31.773  27.885  25.100  1.00  0.00     0.067 C 
ATOM      9  C   UNL A   1      32.391  26.946  24.334  1.00  0.00     0.025 C 
ATOM     10  C   UNL A   1      31.021  29.029  24.440  1.00  0.00     0.314 C 
ATOM     11  C   UNL A   1      33.143  25.801  24.994  1.00  0.00     0.019 A 
ATOM     12  O   UNL A   1      31.489  25.665  26.694  1.00  0.00    -0.475 OA
ATOM     13  C   UNL A   1      34.333  25.399  24.408  1.00  0.00     0.036 A 
ATOM     14  C   UNL A   1      32.619  25.136  26.016  1.00  0.00     0.128 A 
ATOM     15  C   UNL A   1      34.749  24.101  24.790  1.00  0.00     0.107 A 
ATOM     16  C   UNL A   1      33.160  23.940  26.423  1.00  0.00     0.048 A 
ATOM     17  C   UNL A   1      34.301  23.452  25.849  1.00  0.00     0.028 A 
BRANCH  10  18
ATOM     18  C   UNL A   1      29.904  28.469  23.576  1.00  0.00     0.429 C 
ATOM     19  F   UNL A   1      28.915  29.355  23.500  1.00  0.00    -0.167 F 
ATOM     20  F   UNL A   1      30.371  28.219  22.355  1.00  0.00    -0.167 F 
ATOM     21  F   UNL A   1      29.449  27.341  24.116  1.00  0.00    -0.167 F 
ENDBRANCH  10  18
BRANCH  15  22
ATOM     22  S   UNL A   1      35.981  23.274  23.756  1.00  0.00     0.310 S 
ATOM     23  F   UNL A   1      35.859  21.925  24.581  1.00  0.00    -0.094 F 
ATOM     24  F   UNL A   1      37.093  23.720  24.779  1.00  0.00    -0.094 F 
ATOM     25  F   UNL A   1      37.043  22.562  22.870  1.00  0.00    -0.094 F 
ATOM     26  F   UNL A   1      34.839  22.718  22.817  1.00  0.00    -0.094 F 
ATOM     27  F   UNL A   1      34.881  23.895  24.705  1.00  0.00    -0.094 F 
ENDBRANCH  15  22
ENDBRANCH   6   8
ENDBRANCH   3   4
ENDBRANCH   2   3
ENDBRANCH   1   2
BRANCH   1  28
ATOM     28  N   UNL A   1      35.223  30.557  29.489  1.00  0.00    -0.352 N 
ATOM     29  C   UNL A   1      36.261  31.171  30.329  1.00  0.00     0.251 C 
ATOM     30  H   UNL A   1      34.271  30.730  29.676  1.00  0.00     0.163 HD
ATOM     31  O   UNL A   1      35.931  31.925  31.296  1.00  0.00    -0.269 OA
BRANCH  29  32
ATOM     32  C   UNL A   1      37.729  30.903  30.039  1.00  0.00     0.039 A 
ATOM     33  C   UNL A   1      38.187  30.957  28.733  1.00  0.00     0.014 A 
ATOM     34  C   UNL A   1      38.506  30.466  31.024  1.00  0.00     0.014 A 
ATOM     35  C   UNL A   1      39.396  30.252  28.519  1.00  0.00     0.010 A 
ATOM     36  C   UNL A   1      39.733  29.912  30.753  1.00  0.00     0.010 A 
ATOM     37  C   UNL A   1      40.223  29.879  29.478  1.00  0.00    -0.014 A 
BRANCH  37  38
ATOM     38  C   UNL A   1      41.646  29.436  29.178  1.00  0.00     0.031 A 
ATOM     39  C   UNL A   1      41.823  28.103  28.802  1.00  0.00     0.074 A 
ATOM     40  C   UNL A   1      42.653  30.386  29.157  1.00  0.00     0.049 A 
ATOM     41  N   UNL A   1      42.935  27.529  28.339  1.00  0.00    -0.248 NA
ATOM     42  C   UNL A   1      40.765  27.084  28.857  1.00  0.00     0.031 C 
ATOM     43  C   UNL A   1      42.480  31.734  29.526  1.00  0.00     0.029 A 
ATOM     44  N   UNL A   1      43.969  30.216  28.786  1.00  0.00    -0.354 N 
ATOM     45  C   UNL A   1      42.711  26.242  28.068  1.00  0.00     0.074 A 
ATOM     46  C   UNL A   1      41.312  25.935  28.403  1.00  0.00     0.031 C 
ATOM     47  C   UNL A   1      43.677  32.364  29.392  1.00  0.00     0.029 A 
ATOM     48  C   UNL A   1      44.617  31.422  28.935  1.00  0.00     0.049 A 
ATOM     49  H   UNL A   1      44.375  29.377  28.469  1.00  0.00     0.167 HD
ATOM     50  C   UNL A   1      43.616  25.311  27.553  1.00  0.00     0.037 A 
ATOM     51  C   UNL A   1      45.953  31.702  28.694  1.00  0.00     0.037 A 
ATOM     52  C   UNL A   1      44.940  25.604  27.271  1.00  0.00     0.049 A 
ATOM     53  C   UNL A   1      46.873  30.757  28.235  1.00  0.00     0.074 A 
ATOM     54  C   UNL A   1      45.863  24.680  26.745  1.00  0.00     0.029 A 
ATOM     55  N   UNL A   1      45.595  26.803  27.444  1.00  0.00    -0.354 N 
ATOM     56  N   UNL A   1      46.638  29.481  27.926  1.00  0.00    -0.248 NA
ATOM     57  C   UNL A   1      48.297  31.035  28.006  1.00  0.00     0.031 C 
ATOM     58  C   UNL A   1      47.061  25.311  26.610  1.00  0.00     0.029 A 
ATOM     59  C   UNL A   1      46.905  26.638  27.052  1.00  0.00     0.049 A 
ATOM     60  H   UNL A   1      45.195  27.634  27.788  1.00  0.00     0.167 HD
ATOM     61  C   UNL A   1      47.761  28.896  27.503  1.00  0.00     0.074 A 
ATOM     62  C   UNL A   1      48.846  29.886  27.555  1.00  0.00     0.031 C 
ATOM     63  C   UNL A   1      47.923  27.578  27.071  1.00  0.00     0.037 A 
BRANCH  50  64
ATOM     64  C   UNL A   1      43.120  23.900  27.287  1.00  0.00     0.058 A 
ATOM     65  C   UNL A   1      43.030  22.977  28.316  1.00  0.00     0.135 A 
ATOM     66  C   UNL A   1      42.808  23.571  26.039  1.00  0.00     0.135 A 
ATOM     67  F   UNL A   1      43.085  23.316  29.602  1.00  0.00    -0.206 F 
ATOM     68  C   UNL A   1      42.877  21.641  27.876  1.00  0.00     0.059 A 
ATOM     69  C   UNL A   1      42.536  22.266  25.705  1.00  0.00     0.059 A 
ATOM     70  F   UNL A   1      42.758  24.514  25.103  1.00  0.00    -0.206 F 
ATOM     71  C   UNL A   1      42.490  21.291  26.663  1.00  0.00     0.060 A 
BRANCH  71  72
ATOM     72  S   UNL A   1      41.928  19.612  26.289  1.00  0.00     0.124 S 
ATOM     73  O   UNL A   1      42.599  19.124  25.002  1.00  0.00    -0.237 OA
ATOM     74  O   UNL A   1      42.299  18.680  27.443  1.00  0.00    -0.237 OA
ATOM     75  O   UNL A   1      40.230  19.612  26.080  1.00  0.00    -0.744 OA
ENDBRANCH  71  72
ENDBRANCH  50  64
BRANCH  51  76
ATOM     76  C   UNL A   1      46.444  33.119  28.944  1.00  0.00     0.058 A 
ATOM     77  C   UNL A   1      46.973  33.477  30.173  1.00  0.00     0.135 A 
ATOM     78  C   UNL A   1      46.378  33.989  27.942  1.00  0.00     0.135 A 
ATOM     79  F   UNL A   1      47.291  32.590  31.111  1.00  0.00    -0.206 F 
ATOM     80  C   UNL A   1      47.144  34.871  30.339  1.00  0.00     0.059 A 
ATOM     81  C   UNL A   1      46.690  35.311  28.143  1.00  0.00     0.059 A 
ATOM     82  F   UNL A   1      46.006  33.576  26.734  1.00  0.00    -0.206 F 
ATOM     83  C   UNL A   1      47.163  35.747  29.350  1.00  0.00     0.060 A 
BRANCH  83  84
ATOM     84  S   UNL A   1      47.781  37.433  29.581  1.00  0.00     0.124 S 
ATOM     85  O   UNL A   1      48.113  37.656  31.058  1.00  0.00    -0.237 OA
ATOM     86  O   UNL A   1      49.042  37.634  28.737  1.00  0.00    -0.237 OA
ATOM     87  O   UNL A   1      46.583  38.551  29.090  1.00  0.00    -0.744 OA
ENDBRANCH  83  84
ENDBRANCH  51  76
BRANCH  63  88
ATOM     88  C   UNL A   1      49.301  27.149  26.592  1.00  0.00     0.058 A 
ATOM     89  C   UNL A   1      49.588  27.150  25.237  1.00  0.00     0.135 A 
ATOM     90  C   UNL A   1      50.161  26.662  27.478  1.00  0.00     0.135 A 
ATOM     91  F   UNL A   1      48.884  27.845  24.347  1.00  0.00    -0.206 F 
ATOM     92  C   UNL A   1      50.698  26.345  24.885  1.00  0.00     0.059 A 
ATOM     93  C   UNL A   1      51.294  26.006  27.064  1.00  0.00     0.059 A 
ATOM     94  F   UNL A   1      49.923  26.811  28.778  1.00  0.00    -0.206 F 
ATOM     95  C   UNL A   1      51.611  25.917  25.737  1.00  0.00     0.060 A 
BRANCH  95  96
ATOM     96  S   UNL A   1      53.197  25.248  25.177  1.00  0.00     0.124 S 
ATOM     97  O   UNL A   1      53.180  23.723  25.302  1.00  0.00    -0.237 OA
ATOM     98  O   UNL A   1      53.428  25.638  23.715  1.00  0.00    -0.237 OA
ATOM     99  O   UNL A   1      54.457  25.885  26.142  1.00  0.00    -0.744 OA
ENDBRANCH  95  96
ENDBRANCH  63  88
ENDBRANCH  37  38
ENDBRANCH  29  32
ENDBRANCH   1  28
TORSDOF 15
ENDMDL
MODEL 3
REMARK VINA RESULT:     -13.3      6.639     12.056
REMARK SMILES O=C(NCCCNC(=O)c1ccc(-c2c3nc(c(-c4c(F)cc(S(=O)(=O)[O-])cc4F)c4ccc([nH]4)c(-c4c(F)cc(S(=O)(=O)[O-])cc4F)c4nc(c(-c5c(F)cc(S(=O)(=O)[O-])cc5F)c5ccc2[nH]5)C=C4)C=C3)cc1)C1=Cc2cc(S(F)(F)(F)(F)F)ccc2O[C@@H]1C(F)(F)F
REMARK SMILES IDX 6 1 5 2 4 3 3 4 1 5 2 6 76 8 77 9 91 10 78 11 90 12 79 13
REMARK SMILES IDX 89 14 80 15 88 16 87 17 92 18 93 19 94 20 95 21 81 22 82 23
REMARK SMILES IDX 83 24 84 25 85 26 86 27 7 28 8 29 9 31 10 32 11 33 75 34
REMARK SMILES IDX 12 35 74 36 13 37 14 38 15 39 68 40 16 41 73 42 67 43 69 44
REMARK SMILES IDX 17 45 72 46 66 47 65 48 18 50 52 51 31 52 51 53 32 54 35 55
REMARK SMILES IDX 50 56 70 57 33 58 34 59 49 61 71 62 36 63 19 64 20 65 29 66
REMARK SMILES IDX 21 67 22 68 28 69 30 70 23 71 24 72 25 73 26 74 27 75 53 76
REMARK SMILES IDX 54 77 63 78 55 79 56 80 62 81 64 82 57 83 58 84 59 85 60 86
REMARK SMILES IDX 61 87 37 88 38 89 47 90 39 91 40 92 46 93 48 94 41 95 42 96
REMARK SMILES IDX 43 97 44 98 45 99
REMARK H PARENT 3 7 7 30 69 49 35 60
REMARK Flexibility Score: inf
ROOT
ATOM      1  C   UNL A   1      35.862  29.519  28.438  1.00  0.00     0.118 C 
ENDROOT
BRANCH   1   2
ATOM      2  C   UNL A   1      34.785  29.981  27.469  1.00  0.00     0.042 C 
BRANCH   2   3
ATOM      3  C   UNL A   1      34.222  28.779  26.727  1.00  0.00     0.118 C 
BRANCH   3   4
ATOM      4  N   UNL A   1      33.049  28.264  27.448  1.00  0.00    -0.352 N 
ATOM      5  O   UNL A   1      30.843  27.392  27.325  1.00  0.00    -0.270 OA
ATOM      6  C   UNL A   1      31.857  27.837  26.702  1.00  0.00     0.251 C 
ATOM      7  H   UNL A   1      33.062  28.206  28.431  1.00  0.00     0.163 HD
BRANCH   6   8
ATOM      8  C   UNL A   1      31.837  27.928  25.184  1.00  0.00     0.067 C 
ATOM      9  C   UNL A   1      32.459  26.977  24.438  1.00  0.00     0.025 C 
ATOM     10  C   UNL A   1      31.122  29.083  24.501  1.00  0.00     0.314 C 
ATOM     11  C   UNL A   1      33.173  25.822  25.121  1.00  0.00     0.019 A 
ATOM     12  O   UNL A   1      31.472  25.719  26.776  1.00  0.00    -0.475 OA
ATOM     13  C   UNL A   1      34.371  25.398  24.568  1.00  0.00     0.036 A 
ATOM     14  C   UNL A   1      32.610  25.168  26.130  1.00  0.00     0.128 A 
ATOM     15  C   UNL A   1      34.755  24.094  24.965  1.00  0.00     0.107 A 
ATOM     16  C   UNL A   1      33.120  23.965  26.555  1.00  0.00     0.048 A 
ATOM     17  C   UNL A   1      34.267  23.456  26.013  1.00  0.00     0.028 A 
BRANCH  10  18
ATOM     18  C   UNL A   1      30.020  28.539  23.608  1.00  0.00     0.429 C 
ATOM     19  F   UNL A   1      29.047  29.441  23.504  1.00  0.00    -0.167 F 
ATOM     20  F   UNL A   1      30.515  28.280  22.401  1.00  0.00    -0.167 F 
ATOM     21  F   UNL A   1      29.532  27.421  24.138  1.00  0.00    -0.167 F 
ENDBRANCH  10  18
BRANCH  15  22
ATOM     22  S   UNL A   1      36.001  23.243  23.966  1.00  0.00     0.310 S 
ATOM     23  F   UNL A   1      35.876  21.918  24.830  1.00  0.00    -0.094 F 
ATOM     24  F   UNL A   1      37.101  23.723  24.987  1.00  0.00    -0.094 F 
ATOM     25  F   UNL A   1      37.074  22.511  23.112  1.00  0.00    -0.094 F 
ATOM     26  F   UNL A   1      34.870  22.655  23.034  1.00  0.00    -0.094 F 
ATOM     27  F   UNL A   1      34.888  23.886  24.887  1.00  0.00    -0.094 F 
ENDBRANCH  15  22
ENDBRANCH   6   8
ENDBRANCH   3   4
ENDBRANCH   2   3
ENDBRANCH   1   2
BRANCH   1  28
ATOM     28  N   UNL A   1      35.634  30.136  29.753  1.00  0.00    -0.352 N 
ATOM     29  C   UNL A   1      36.777  30.560  30.574  1.00  0.00     0.251 C 
ATOM     30  H   UNL A   1      34.715  30.265  30.084  1.00  0.00     0.163 HD
ATOM     31  O   UNL A   1      36.581  31.092  31.711  1.00  0.00    -0.269 OA
BRANCH  29  32
ATOM     32  C   UNL A   1      38.195  30.360  30.063  1.00  0.00     0.039 A 
ATOM     33  C   UNL A   1      38.473  30.579  28.723  1.00  0.00     0.014 A 
ATOM     34  C   UNL A   1      39.099  29.828  30.876  1.00  0.00     0.014 A 
ATOM     35  C   UNL A   1      39.647  29.930  28.269  1.00  0.00     0.010 A 
ATOM     36  C   UNL A   1      40.283  29.337  30.381  1.00  0.00     0.010 A 
ATOM     37  C   UNL A   1      40.598  29.465  29.058  1.00  0.00    -0.014 A 
BRANCH  37  38
ATOM     38  C   UNL A   1      41.970  29.092  28.521  1.00  0.00     0.031 A 
ATOM     39  C   UNL A   1      42.948  30.089  28.549  1.00  0.00     0.074 A 
ATOM     40  C   UNL A   1      42.217  27.777  28.169  1.00  0.00     0.049 A 
ATOM     41  N   UNL A   1      44.250  29.959  28.289  1.00  0.00    -0.248 NA
ATOM     42  C   UNL A   1      42.681  31.494  28.889  1.00  0.00     0.031 C 
ATOM     43  C   UNL A   1      41.239  26.763  28.146  1.00  0.00     0.029 A 
ATOM     44  N   UNL A   1      43.415  27.214  27.787  1.00  0.00    -0.354 N 
ATOM     45  C   UNL A   1      44.869  31.132  28.440  1.00  0.00     0.074 A 
ATOM     46  C   UNL A   1      43.867  32.138  28.822  1.00  0.00     0.031 C 
ATOM     47  C   UNL A   1      41.836  25.610  27.745  1.00  0.00     0.029 A 
ATOM     48  C   UNL A   1      43.197  25.882  27.512  1.00  0.00     0.049 A 
ATOM     49  H   UNL A   1      44.279  27.683  27.723  1.00  0.00     0.167 HD
ATOM     50  C   UNL A   1      46.229  31.402  28.275  1.00  0.00     0.037 A 
ATOM     51  C   UNL A   1      44.120  24.943  27.079  1.00  0.00     0.037 A 
ATOM     52  C   UNL A   1      47.158  30.453  27.884  1.00  0.00     0.049 A 
ATOM     53  C   UNL A   1      45.469  25.226  26.857  1.00  0.00     0.074 A 
ATOM     54  C   UNL A   1      48.534  30.707  27.721  1.00  0.00     0.029 A 
ATOM     55  N   UNL A   1      46.935  29.127  27.584  1.00  0.00    -0.354 N 
ATOM     56  N   UNL A   1      46.095  26.389  27.046  1.00  0.00    -0.248 NA
ATOM     57  C   UNL A   1      46.448  24.247  26.367  1.00  0.00     0.031 C 
ATOM     58  C   UNL A   1      49.131  29.552  27.320  1.00  0.00     0.029 A 
ATOM     59  C   UNL A   1      48.137  28.559  27.225  1.00  0.00     0.049 A 
ATOM     60  H   UNL A   1      46.067  28.665  27.621  1.00  0.00     0.167 HD
ATOM     61  C   UNL A   1      47.389  26.269  26.746  1.00  0.00     0.074 A 
ATOM     62  C   UNL A   1      47.634  24.891  26.298  1.00  0.00     0.031 C 
ATOM     63  C   UNL A   1      48.377  27.252  26.831  1.00  0.00     0.037 A 
BRANCH  50  64
ATOM     64  C   UNL A   1      46.716  32.817  28.541  1.00  0.00     0.058 A 
ATOM     65  C   UNL A   1      47.122  33.198  29.810  1.00  0.00     0.135 A 
ATOM     66  C   UNL A   1      46.709  33.681  27.533  1.00  0.00     0.135 A 
ATOM     67  F   UNL A   1      47.385  32.326  30.780  1.00  0.00    -0.206 F 
ATOM     68  C   UNL A   1      47.229  34.598  29.981  1.00  0.00     0.059 A 
ATOM     69  C   UNL A   1      46.957  35.014  27.751  1.00  0.00     0.059 A 
ATOM     70  F   UNL A   1      46.461  33.250  26.299  1.00  0.00    -0.206 F 
ATOM     71  C   UNL A   1      47.306  35.470  28.993  1.00  0.00     0.060 A 
BRANCH  71  72
ATOM     72  S   UNL A   1      47.843  37.176  29.266  1.00  0.00     0.124 S 
ATOM     73  O   UNL A   1      48.944  37.201  30.329  1.00  0.00    -0.237 OA
ATOM     74  O   UNL A   1      48.384  37.757  27.958  1.00  0.00    -0.237 OA
ATOM     75  O   UNL A   1      46.516  38.114  29.800  1.00  0.00    -0.744 OA
ENDBRANCH  71  72
ENDBRANCH  50  64
BRANCH  51  76
ATOM     76  C   UNL A   1      43.635  23.524  26.829  1.00  0.00     0.058 A 
ATOM     77  C   UNL A   1      43.349  23.090  25.546  1.00  0.00     0.135 A 
ATOM     78  C   UNL A   1      43.523  22.709  27.873  1.00  0.00     0.135 A 
ATOM     79  F   UNL A   1      43.683  23.776  24.457  1.00  0.00    -0.206 F 
ATOM     80  C   UNL A   1      42.670  21.850  25.497  1.00  0.00     0.059 A 
ATOM     81  C   UNL A   1      42.973  21.459  27.728  1.00  0.00     0.059 A 
ATOM     82  F   UNL A   1      43.947  23.109  29.069  1.00  0.00    -0.206 F 
ATOM     83  C   UNL A   1      42.613  20.987  26.496  1.00  0.00     0.060 A 
BRANCH  83  84
ATOM     84  S   UNL A   1      42.089  19.272  26.247  1.00  0.00     0.124 S 
ATOM     85  O   UNL A   1      42.933  18.637  25.141  1.00  0.00    -0.237 OA
ATOM     86  O   UNL A   1      42.275  18.488  27.547  1.00  0.00    -0.237 OA
ATOM     87  O   UNL A   1      40.440  19.241  25.794  1.00  0.00    -0.744 OA
ENDBRANCH  83  84
ENDBRANCH  51  76
BRANCH  63  88
ATOM     88  C   UNL A   1      49.802  26.864  26.471  1.00  0.00     0.058 A 
ATOM     89  C   UNL A   1      50.255  27.041  25.173  1.00  0.00     0.135 A 
ATOM     90  C   UNL A   1      50.546  26.248  27.381  1.00  0.00     0.135 A 
ATOM     91  F   UNL A   1      49.668  27.861  24.305  1.00  0.00    -0.206 F 
ATOM     92  C   UNL A   1      51.398  26.269  24.855  1.00  0.00     0.059 A 
ATOM     93  C   UNL A   1      51.720  25.632  27.025  1.00  0.00     0.059 A 
ATOM     94  F   UNL A   1      50.150  26.228  28.651  1.00  0.00    -0.206 F 
ATOM     95  C   UNL A   1      52.198  25.714  25.746  1.00  0.00     0.060 A 
BRANCH  95  96
ATOM     96  S   UNL A   1      53.840  25.097  25.300  1.00  0.00     0.124 S 
ATOM     97  O   UNL A   1      54.794  25.285  26.481  1.00  0.00    -0.237 OA
ATOM     98  O   UNL A   1      53.747  23.609  24.951  1.00  0.00    -0.237 OA
ATOM     99  O   UNL A   1      54.427  25.963  23.948  1.00  0.00    -0.744 OA
ENDBRANCH  95  96
ENDBRANCH  63  88
ENDBRANCH  37  38
ENDBRANCH  29  32
ENDBRANCH   1  28
TORSDOF 15
ENDMDL
