MODEL 1
REMARK VINA RESULT:     -11.2      0.000      0.000
REMARK SMILES O=C(NCCCNC(=O)c1cn2ccnc2s1)c1ccc(-c2c3nc(c(-c4c(F)cc(S(=O)(=O)[O-])cc4F)c4ccc([nH]4)c(-c4c(F)cc(S(=O)(=O)[O-])cc4F)c4nc(c(-c5c(F)cc(S(=O)(=O)[O-])cc5F)c5ccc2[nH]5)C=C4)C=C3)cc1
REMARK SMILES IDX 1 1 2 2 3 3 18 5 19 6 83 7 20 8 82 9 21 10 22 11 23 12 76 13
REMARK SMILES IDX 24 14 81 15 75 16 77 17 25 18 80 19 74 20 73 21 26 23 60 24
REMARK SMILES IDX 39 25 59 26 40 27 43 28 58 29 78 30 41 31 42 32 57 34 79 35
REMARK SMILES IDX 44 36 27 37 28 38 37 39 29 40 30 41 36 42 38 43 31 44 32 45
REMARK SMILES IDX 33 46 34 47 35 48 61 49 62 50 71 51 63 52 64 53 70 54 72 55
REMARK SMILES IDX 65 56 66 57 67 58 68 59 69 60 45 61 46 62 55 63 47 64 48 65
REMARK SMILES IDX 54 66 56 67 49 68 50 69 51 70 52 71 53 72 4 73 5 74 6 75
REMARK SMILES IDX 7 76 8 77 9 79 10 80 11 81 17 82 12 83 16 84 13 85 15 86
REMARK SMILES IDX 14 87
REMARK H PARENT 3 4 77 22 43 33 7 78
REMARK Flexibility Score: inf
ROOT
ATOM      1  O   UNL A   1      41.137  25.704  25.016  1.00  0.00    -0.269 OA
ATOM      2  C   UNL A   1      41.522  25.380  26.138  1.00  0.00     0.251 C 
ATOM      3  N   UNL A   1      42.147  24.168  26.307  1.00  0.00    -0.352 N 
ATOM      4  H   UNL A   1      42.388  23.709  25.470  1.00  0.00     0.163 HD
ENDROOT
BRANCH   2   5
ATOM      5  C   UNL A   1      41.291  26.280  27.290  1.00  0.00     0.039 A 
ATOM      6  C   UNL A   1      42.101  27.396  27.501  1.00  0.00     0.014 A 
ATOM      7  C   UNL A   1      40.225  26.023  28.158  1.00  0.00     0.014 A 
ATOM      8  C   UNL A   1      41.957  28.149  28.661  1.00  0.00     0.010 A 
ATOM      9  C   UNL A   1      40.015  26.846  29.271  1.00  0.00     0.010 A 
ATOM     10  C   UNL A   1      40.902  27.896  29.550  1.00  0.00    -0.014 A 
BRANCH  10  11
ATOM     11  C   UNL A   1      40.719  28.789  30.724  1.00  0.00     0.031 A 
ATOM     12  C   UNL A   1      41.614  28.688  31.930  1.00  0.00     0.074 A 
ATOM     13  C   UNL A   1      39.753  29.728  30.675  1.00  0.00     0.049 A 
ATOM     14  N   UNL A   1      41.606  29.412  33.021  1.00  0.00    -0.248 NA
ATOM     15  C   UNL A   1      42.642  27.636  31.918  1.00  0.00     0.031 C 
ATOM     16  C   UNL A   1      38.812  29.908  29.565  1.00  0.00     0.029 A 
ATOM     17  N   UNL A   1      39.412  30.717  31.560  1.00  0.00    -0.354 N 
ATOM     18  C   UNL A   1      42.612  28.896  33.831  1.00  0.00     0.074 A 
ATOM     19  C   UNL A   1      43.193  27.779  33.116  1.00  0.00     0.031 C 
ATOM     20  C   UNL A   1      38.038  30.974  29.812  1.00  0.00     0.029 A 
ATOM     21  C   UNL A   1      38.379  31.514  31.122  1.00  0.00     0.049 A 
ATOM     22  H   UNL A   1      39.862  30.845  32.426  1.00  0.00     0.167 HD
ATOM     23  C   UNL A   1      43.016  29.322  35.053  1.00  0.00     0.037 A 
ATOM     24  C   UNL A   1      37.762  32.554  31.713  1.00  0.00     0.037 A 
ATOM     25  C   UNL A   1      42.442  30.447  35.749  1.00  0.00     0.049 A 
ATOM     26  C   UNL A   1      38.226  32.999  33.069  1.00  0.00     0.074 A 
ATOM     27  C   UNL A   1      42.804  30.977  36.975  1.00  0.00     0.029 A 
ATOM     28  N   UNL A   1      41.383  31.214  35.282  1.00  0.00    -0.354 N 
ATOM     29  N   UNL A   1      39.198  32.516  33.806  1.00  0.00    -0.248 NA
ATOM     30  C   UNL A   1      37.510  34.128  33.675  1.00  0.00     0.031 C 
ATOM     31  C   UNL A   1      41.940  32.037  37.268  1.00  0.00     0.029 A 
ATOM     32  C   UNL A   1      41.068  32.199  36.204  1.00  0.00     0.049 A 
ATOM     33  H   UNL A   1      40.924  31.078  34.421  1.00  0.00     0.167 HD
ATOM     34  C   UNL A   1      39.218  33.289  34.959  1.00  0.00     0.074 A 
ATOM     35  C   UNL A   1      38.176  34.285  34.812  1.00  0.00     0.031 C 
ATOM     36  C   UNL A   1      40.025  33.182  36.043  1.00  0.00     0.037 A 
BRANCH  23  37
ATOM     37  C   UNL A   1      44.123  28.561  35.731  1.00  0.00     0.058 A 
ATOM     38  C   UNL A   1      45.473  28.899  35.548  1.00  0.00     0.135 A 
ATOM     39  C   UNL A   1      43.828  27.509  36.614  1.00  0.00     0.135 A 
ATOM     40  F   UNL A   1      45.814  29.885  34.704  1.00  0.00    -0.206 F 
ATOM     41  C   UNL A   1      46.492  28.207  36.198  1.00  0.00     0.059 A 
ATOM     42  C   UNL A   1      44.828  26.820  37.294  1.00  0.00     0.059 A 
ATOM     43  F   UNL A   1      42.553  27.144  36.828  1.00  0.00    -0.206 F 
ATOM     44  C   UNL A   1      46.158  27.167  37.068  1.00  0.00     0.060 A 
BRANCH  44  45
ATOM     45  S   UNL A   1      47.490  26.282  37.906  1.00  0.00     0.124 S 
ATOM     46  O   UNL A   1      46.807  25.793  39.100  1.00  0.00    -0.237 OA
ATOM     47  O   UNL A   1      47.857  25.266  36.926  1.00  0.00    -0.237 OA
ATOM     48  O   UNL A   1      48.495  27.316  38.138  1.00  0.00    -0.744 OA
ENDBRANCH  44  45
ENDBRANCH  23  37
BRANCH  24  49
ATOM     49  C   UNL A   1      36.638  33.232  31.018  1.00  0.00     0.058 A 
ATOM     50  C   UNL A   1      35.312  33.050  31.433  1.00  0.00     0.135 A 
ATOM     51  C   UNL A   1      36.875  34.109  29.947  1.00  0.00     0.135 A 
ATOM     52  F   UNL A   1      35.036  32.220  32.450  1.00  0.00    -0.206 F 
ATOM     53  C   UNL A   1      34.257  33.703  30.805  1.00  0.00     0.059 A 
ATOM     54  C   UNL A   1      35.841  34.794  29.321  1.00  0.00     0.059 A 
ATOM     55  F   UNL A   1      38.130  34.332  29.526  1.00  0.00    -0.206 F 
ATOM     56  C   UNL A   1      34.533  34.577  29.750  1.00  0.00     0.060 A 
BRANCH  56  57
ATOM     57  S   UNL A   1      33.165  35.466  28.979  1.00  0.00     0.124 S 
ATOM     58  O   UNL A   1      33.872  36.501  28.233  1.00  0.00    -0.237 OA
ATOM     59  O   UNL A   1      32.530  34.423  28.179  1.00  0.00    -0.237 OA
ATOM     60  O   UNL A   1      32.383  35.933  30.120  1.00  0.00    -0.744 OA
ENDBRANCH  56  57
ENDBRANCH  24  49
BRANCH  36  61
ATOM     61  C   UNL A   1      39.826  34.183  37.146  1.00  0.00     0.058 A 
ATOM     62  C   UNL A   1      40.394  35.465  37.088  1.00  0.00     0.135 A 
ATOM     63  C   UNL A   1      39.032  33.865  38.259  1.00  0.00     0.135 A 
ATOM     64  F   UNL A   1      41.169  35.815  36.048  1.00  0.00    -0.206 F 
ATOM     65  C   UNL A   1      40.204  36.390  38.109  1.00  0.00     0.059 A 
ATOM     66  C   UNL A   1      38.807  34.784  39.280  1.00  0.00     0.059 A 
ATOM     67  F   UNL A   1      38.460  32.656  38.359  1.00  0.00    -0.206 F 
ATOM     68  C   UNL A   1      39.410  36.039  39.202  1.00  0.00     0.060 A 
BRANCH  68  69
ATOM     69  S   UNL A   1      39.150  37.255  40.511  1.00  0.00     0.124 S 
ATOM     70  O   UNL A   1      40.503  37.765  40.710  1.00  0.00    -0.237 OA
ATOM     71  O   UNL A   1      38.207  38.183  39.894  1.00  0.00    -0.237 OA
ATOM     72  O   UNL A   1      38.610  36.460  41.609  1.00  0.00    -0.744 OA
ENDBRANCH  68  69
ENDBRANCH  36  61
ENDBRANCH  10  11
ENDBRANCH   2   5
BRANCH   3  73
ATOM     73  C   UNL A   1      42.513  23.451  27.523  1.00  0.00     0.118 C 
BRANCH  73  74
ATOM     74  C   UNL A   1      41.354  22.651  28.104  1.00  0.00     0.042 C 
BRANCH  74  75
ATOM     75  C   UNL A   1      41.647  21.166  28.258  1.00  0.00     0.118 C 
BRANCH  75  76
ATOM     76  N   UNL A   1      40.850  20.345  27.357  1.00  0.00    -0.351 N 
ATOM     77  C   UNL A   1      41.203  19.683  26.217  1.00  0.00     0.263 C 
ATOM     78  H   UNL A   1      39.903  20.254  27.611  1.00  0.00     0.163 HD
ATOM     79  O   UNL A   1      40.331  19.163  25.525  1.00  0.00    -0.268 OA
BRANCH  77  80
ATOM     80  C   UNL A   1      42.631  19.593  25.852  1.00  0.00     0.112 A 
ATOM     81  C   UNL A   1      43.403  20.599  25.404  1.00  0.00     0.118 A 
ATOM     82  S   UNL A   1      43.501  18.068  26.063  1.00  0.00    -0.091 S 
ATOM     83  N   UNL A   1      44.676  20.159  25.149  1.00  0.00    -0.297 N 
ATOM     84  C   UNL A   1      44.920  18.849  25.437  1.00  0.00     0.194 A 
ATOM     85  C   UNL A   1      45.821  20.684  24.636  1.00  0.00     0.114 A 
ATOM     86  N   UNL A   1      46.139  18.476  25.165  1.00  0.00    -0.227 NA
ATOM     87  C   UNL A   1      46.713  19.624  24.648  1.00  0.00     0.133 A 
ENDBRANCH  77  80
ENDBRANCH  75  76
ENDBRANCH  74  75
ENDBRANCH  73  74
ENDBRANCH   3  73
TORSDOF 13
ENDMDL
MODEL 2
REMARK VINA RESULT:     -11.1      0.255      1.546
REMARK SMILES O=C(NCCCNC(=O)c1cn2ccnc2s1)c1ccc(-c2c3nc(c(-c4c(F)cc(S(=O)(=O)[O-])cc4F)c4ccc([nH]4)c(-c4c(F)cc(S(=O)(=O)[O-])cc4F)c4nc(c(-c5c(F)cc(S(=O)(=O)[O-])cc5F)c5ccc2[nH]5)C=C4)C=C3)cc1
REMARK SMILES IDX 1 1 2 2 3 3 18 5 19 6 83 7 20 8 82 9 21 10 22 11 23 12 76 13
REMARK SMILES IDX 24 14 81 15 75 16 77 17 25 18 80 19 74 20 73 21 26 23 60 24
REMARK SMILES IDX 39 25 59 26 40 27 43 28 58 29 78 30 41 31 42 32 57 34 79 35
REMARK SMILES IDX 44 36 27 37 28 38 37 39 29 40 30 41 36 42 38 43 31 44 32 45
REMARK SMILES IDX 33 46 34 47 35 48 61 49 62 50 71 51 63 52 64 53 70 54 72 55
REMARK SMILES IDX 65 56 66 57 67 58 68 59 69 60 45 61 46 62 55 63 47 64 48 65
REMARK SMILES IDX 54 66 56 67 49 68 50 69 51 70 52 71 53 72 4 73 5 74 6 75
REMARK SMILES IDX 7 76 8 77 9 79 10 80 11 81 17 82 12 83 16 84 13 85 15 86
REMARK SMILES IDX 14 87
REMARK H PARENT 3 4 77 22 43 33 7 78
REMARK Flexibility Score: inf
ROOT
ATOM      1  O   UNL A   1      41.148  25.759  25.006  1.00  0.00    -0.269 OA
ATOM      2  C   UNL A   1      41.543  25.433  26.124  1.00  0.00     0.251 C 
ATOM      3  N   UNL A   1      42.181  24.226  26.282  1.00  0.00    -0.352 N 
ATOM      4  H   UNL A   1      42.421  23.774  25.441  1.00  0.00     0.163 HD
ENDROOT
BRANCH   2   5
ATOM      5  C   UNL A   1      41.310  26.323  27.282  1.00  0.00     0.039 A 
ATOM      6  C   UNL A   1      42.140  27.418  27.522  1.00  0.00     0.014 A 
ATOM      7  C   UNL A   1      40.221  26.081  28.126  1.00  0.00     0.014 A 
ATOM      8  C   UNL A   1      41.990  28.161  28.688  1.00  0.00     0.010 A 
ATOM      9  C   UNL A   1      40.008  26.895  29.245  1.00  0.00     0.010 A 
ATOM     10  C   UNL A   1      40.913  27.921  29.554  1.00  0.00    -0.014 A 
BRANCH  10  11
ATOM     11  C   UNL A   1      40.727  28.804  30.735  1.00  0.00     0.031 A 
ATOM     12  C   UNL A   1      41.612  28.686  31.946  1.00  0.00     0.074 A 
ATOM     13  C   UNL A   1      39.767  29.750  30.687  1.00  0.00     0.049 A 
ATOM     14  N   UNL A   1      41.602  29.400  33.044  1.00  0.00    -0.248 NA
ATOM     15  C   UNL A   1      42.634  27.628  31.931  1.00  0.00     0.031 C 
ATOM     16  C   UNL A   1      38.835  29.947  29.573  1.00  0.00     0.029 A 
ATOM     17  N   UNL A   1      39.426  30.732  31.580  1.00  0.00    -0.354 N 
ATOM     18  C   UNL A   1      42.598  28.870  33.856  1.00  0.00     0.074 A 
ATOM     19  C   UNL A   1      43.177  27.756  33.135  1.00  0.00     0.031 C 
ATOM     20  C   UNL A   1      38.066  31.015  29.824  1.00  0.00     0.029 A 
ATOM     21  C   UNL A   1      38.402  31.540  31.142  1.00  0.00     0.049 A 
ATOM     22  H   UNL A   1      39.871  30.850  32.450  1.00  0.00     0.167 HD
ATOM     23  C   UNL A   1      42.996  29.282  35.085  1.00  0.00     0.037 A 
ATOM     24  C   UNL A   1      37.787  32.578  31.738  1.00  0.00     0.037 A 
ATOM     25  C   UNL A   1      42.424  30.404  35.787  1.00  0.00     0.049 A 
ATOM     26  C   UNL A   1      38.244  33.008  33.101  1.00  0.00     0.074 A 
ATOM     27  C   UNL A   1      42.781  30.920  37.020  1.00  0.00     0.029 A 
ATOM     28  N   UNL A   1      41.374  31.182  35.320  1.00  0.00    -0.354 N 
ATOM     29  N   UNL A   1      39.207  32.511  33.840  1.00  0.00    -0.248 NA
ATOM     30  C   UNL A   1      37.531  34.136  33.713  1.00  0.00     0.031 C 
ATOM     31  C   UNL A   1      41.922  31.983  37.318  1.00  0.00     0.029 A 
ATOM     32  C   UNL A   1      41.059  32.160  36.249  1.00  0.00     0.049 A 
ATOM     33  H   UNL A   1      40.920  31.058  34.455  1.00  0.00     0.167 HD
ATOM     34  C   UNL A   1      39.224  33.274  35.001  1.00  0.00     0.074 A 
ATOM     35  C   UNL A   1      38.189  34.278  34.857  1.00  0.00     0.031 C 
ATOM     36  C   UNL A   1      40.023  33.152  36.090  1.00  0.00     0.037 A 
BRANCH  23  37
ATOM     37  C   UNL A   1      44.094  28.507  35.763  1.00  0.00     0.058 A 
ATOM     38  C   UNL A   1      45.448  28.829  35.581  1.00  0.00     0.135 A 
ATOM     39  C   UNL A   1      43.785  27.459  36.646  1.00  0.00     0.135 A 
ATOM     40  F   UNL A   1      45.801  29.811  34.738  1.00  0.00    -0.206 F 
ATOM     41  C   UNL A   1      46.458  28.125  36.232  1.00  0.00     0.059 A 
ATOM     42  C   UNL A   1      44.776  26.758  37.326  1.00  0.00     0.059 A 
ATOM     43  F   UNL A   1      42.506  27.109  36.858  1.00  0.00    -0.206 F 
ATOM     44  C   UNL A   1      46.111  27.089  37.102  1.00  0.00     0.060 A 
BRANCH  44  45
ATOM     45  S   UNL A   1      47.432  26.188  37.940  1.00  0.00     0.124 S 
ATOM     46  O   UNL A   1      48.595  26.572  37.146  1.00  0.00    -0.237 OA
ATOM     47  O   UNL A   1      47.378  26.736  39.291  1.00  0.00    -0.237 OA
ATOM     48  O   UNL A   1      47.023  24.791  37.817  1.00  0.00    -0.744 OA
ENDBRANCH  44  45
ENDBRANCH  23  37
BRANCH  24  49
ATOM     49  C   UNL A   1      36.672  33.271  31.042  1.00  0.00     0.058 A 
ATOM     50  C   UNL A   1      36.911  34.113  29.948  1.00  0.00     0.135 A 
ATOM     51  C   UNL A   1      35.340  33.071  31.437  1.00  0.00     0.135 A 
ATOM     52  F   UNL A   1      38.168  34.337  29.536  1.00  0.00    -0.206 F 
ATOM     53  C   UNL A   1      35.870  34.743  29.274  1.00  0.00     0.059 A 
ATOM     54  C   UNL A   1      34.281  33.667  30.762  1.00  0.00     0.059 A 
ATOM     55  F   UNL A   1      35.057  32.257  32.467  1.00  0.00    -0.206 F 
ATOM     56  C   UNL A   1      34.557  34.510  29.687  1.00  0.00     0.060 A 
BRANCH  56  57
ATOM     57  S   UNL A   1      33.207  35.284  28.771  1.00  0.00     0.124 S 
ATOM     58  O   UNL A   1      32.390  35.822  29.853  1.00  0.00    -0.237 OA
ATOM     59  O   UNL A   1      33.912  36.266  27.953  1.00  0.00    -0.237 OA
ATOM     60  O   UNL A   1      32.623  34.169  28.032  1.00  0.00    -0.744 OA
ENDBRANCH  56  57
ENDBRANCH  24  49
BRANCH  36  61
ATOM     61  C   UNL A   1      39.822  34.143  37.201  1.00  0.00     0.058 A 
ATOM     62  C   UNL A   1      39.008  33.854  38.307  1.00  0.00     0.135 A 
ATOM     63  C   UNL A   1      40.475  35.386  37.171  1.00  0.00     0.135 A 
ATOM     64  F   UNL A   1      38.355  32.683  38.378  1.00  0.00    -0.206 F 
ATOM     65  C   UNL A   1      38.826  34.773  39.334  1.00  0.00     0.059 A 
ATOM     66  C   UNL A   1      40.328  36.310  38.201  1.00  0.00     0.059 A 
ATOM     67  F   UNL A   1      41.270  35.708  36.140  1.00  0.00    -0.206 F 
ATOM     68  C   UNL A   1      39.490  36.000  39.272  1.00  0.00     0.060 A 
BRANCH  68  69
ATOM     69  S   UNL A   1      39.267  37.177  40.622  1.00  0.00     0.124 S 
ATOM     70  O   UNL A   1      38.309  38.111  40.041  1.00  0.00    -0.237 OA
ATOM     71  O   UNL A   1      38.755  36.330  41.695  1.00  0.00    -0.237 OA
ATOM     72  O   UNL A   1      40.610  37.706  40.836  1.00  0.00    -0.744 OA
ENDBRANCH  68  69
ENDBRANCH  36  61
ENDBRANCH  10  11
ENDBRANCH   2   5
BRANCH   3  73
ATOM     73  C   UNL A   1      42.560  23.506  27.492  1.00  0.00     0.118 C 
BRANCH  73  74
ATOM     74  C   UNL A   1      41.401  22.728  28.101  1.00  0.00     0.042 C 
BRANCH  74  75
ATOM     75  C   UNL A   1      41.678  21.241  28.271  1.00  0.00     0.118 C 
BRANCH  75  76
ATOM     76  N   UNL A   1      40.862  20.419  27.387  1.00  0.00    -0.351 N 
ATOM     77  C   UNL A   1      41.198  19.735  26.254  1.00  0.00     0.263 C 
ATOM     78  H   UNL A   1      39.916  20.345  27.649  1.00  0.00     0.163 HD
ATOM     79  O   UNL A   1      40.313  19.218  25.576  1.00  0.00    -0.268 OA
BRANCH  77  80
ATOM     80  C   UNL A   1      42.622  19.619  25.881  1.00  0.00     0.112 A 
ATOM     81  C   UNL A   1      43.407  20.609  25.421  1.00  0.00     0.118 A 
ATOM     82  S   UNL A   1      43.468  18.081  26.096  1.00  0.00    -0.091 S 
ATOM     83  N   UNL A   1      44.671  20.147  25.161  1.00  0.00    -0.297 N 
ATOM     84  C   UNL A   1      44.895  18.835  25.455  1.00  0.00     0.194 A 
ATOM     85  C   UNL A   1      45.821  20.650  24.637  1.00  0.00     0.114 A 
ATOM     86  N   UNL A   1      46.106  18.440  25.178  1.00  0.00    -0.227 NA
ATOM     87  C   UNL A   1      46.695  19.575  24.650  1.00  0.00     0.133 A 
ENDBRANCH  77  80
ENDBRANCH  75  76
ENDBRANCH  74  75
ENDBRANCH  73  74
ENDBRANCH   3  73
TORSDOF 13
ENDMDL
MODEL 3
REMARK VINA RESULT:     -11.0      1.188      1.942
REMARK SMILES O=C(NCCCNC(=O)c1cn2ccnc2s1)c1ccc(-c2c3nc(c(-c4c(F)cc(S(=O)(=O)[O-])cc4F)c4ccc([nH]4)c(-c4c(F)cc(S(=O)(=O)[O-])cc4F)c4nc(c(-c5c(F)cc(S(=O)(=O)[O-])cc5F)c5ccc2[nH]5)C=C4)C=C3)cc1
REMARK SMILES IDX 1 1 2 2 3 3 18 5 19 6 83 7 20 8 82 9 21 10 22 11 23 12 76 13
REMARK SMILES IDX 24 14 81 15 75 16 77 17 25 18 80 19 74 20 73 21 26 23 60 24
REMARK SMILES IDX 39 25 59 26 40 27 43 28 58 29 78 30 41 31 42 32 57 34 79 35
REMARK SMILES IDX 44 36 27 37 28 38 37 39 29 40 30 41 36 42 38 43 31 44 32 45
REMARK SMILES IDX 33 46 34 47 35 48 61 49 62 50 71 51 63 52 64 53 70 54 72 55
REMARK SMILES IDX 65 56 66 57 67 58 68 59 69 60 45 61 46 62 55 63 47 64 48 65
REMARK SMILES IDX 54 66 56 67 49 68 50 69 51 70 52 71 53 72 4 73 5 74 6 75
REMARK SMILES IDX 7 76 8 77 9 79 10 80 11 81 17 82 12 83 16 84 13 85 15 86
REMARK SMILES IDX 14 87
REMARK H PARENT 3 4 77 22 43 33 7 78
REMARK Flexibility Score: inf
ROOT
ATOM      1  O   UNL A   1      41.297  25.620  25.046  1.00  0.00    -0.269 OA
ATOM      2  C   UNL A   1      41.100  25.181  26.177  1.00  0.00     0.251 C 
ATOM      3  N   UNL A   1      41.034  23.821  26.365  1.00  0.00    -0.352 N 
ATOM      4  H   UNL A   1      41.315  23.284  25.589  1.00  0.00     0.163 HD
ENDROOT
BRANCH   2   5
ATOM      5  C   UNL A   1      40.915  26.111  27.313  1.00  0.00     0.039 A 
ATOM      6  C   UNL A   1      41.752  27.216  27.477  1.00  0.00     0.014 A 
ATOM      7  C   UNL A   1      39.866  25.897  28.212  1.00  0.00     0.014 A 
ATOM      8  C   UNL A   1      41.651  27.998  28.621  1.00  0.00     0.010 A 
ATOM      9  C   UNL A   1      39.699  26.750  29.309  1.00  0.00     0.010 A 
ATOM     10  C   UNL A   1      40.613  27.788  29.542  1.00  0.00    -0.014 A 
BRANCH  10  11
ATOM     11  C   UNL A   1      40.477  28.712  30.698  1.00  0.00     0.031 A 
ATOM     12  C   UNL A   1      41.393  28.615  31.888  1.00  0.00     0.074 A 
ATOM     13  C   UNL A   1      39.534  29.674  30.646  1.00  0.00     0.049 A 
ATOM     14  N   UNL A   1      41.426  29.364  32.962  1.00  0.00    -0.248 NA
ATOM     15  C   UNL A   1      42.394  27.537  31.881  1.00  0.00     0.031 C 
ATOM     16  C   UNL A   1      38.576  29.854  29.551  1.00  0.00     0.029 A 
ATOM     17  N   UNL A   1      39.236  30.692  31.514  1.00  0.00    -0.354 N 
ATOM     18  C   UNL A   1      42.434  28.840  33.764  1.00  0.00     0.074 A 
ATOM     19  C   UNL A   1      42.972  27.693  33.065  1.00  0.00     0.031 C 
ATOM     20  C   UNL A   1      37.835  30.945  29.788  1.00  0.00     0.029 A 
ATOM     21  C   UNL A   1      38.216  31.505  31.078  1.00  0.00     0.049 A 
ATOM     22  H   UNL A   1      39.707  30.828  32.368  1.00  0.00     0.167 HD
ATOM     23  C   UNL A   1      42.873  29.283  34.968  1.00  0.00     0.037 A 
ATOM     24  C   UNL A   1      37.638  32.574  31.657  1.00  0.00     0.037 A 
ATOM     25  C   UNL A   1      42.342  30.438  35.648  1.00  0.00     0.049 A 
ATOM     26  C   UNL A   1      38.140  33.038  32.992  1.00  0.00     0.074 A 
ATOM     27  C   UNL A   1      42.743  30.987  36.854  1.00  0.00     0.029 A 
ATOM     28  N   UNL A   1      41.295  31.222  35.184  1.00  0.00    -0.354 N 
ATOM     29  N   UNL A   1      39.114  32.546  33.721  1.00  0.00    -0.248 NA
ATOM     30  C   UNL A   1      37.466  34.199  33.586  1.00  0.00     0.031 C 
ATOM     31  C   UNL A   1      41.912  32.075  37.140  1.00  0.00     0.029 A 
ATOM     32  C   UNL A   1      41.023  32.235  36.089  1.00  0.00     0.049 A 
ATOM     33  H   UNL A   1      40.815  31.079  34.336  1.00  0.00     0.167 HD
ATOM     34  C   UNL A   1      39.177  33.345  34.856  1.00  0.00     0.074 A 
ATOM     35  C   UNL A   1      38.158  34.364  34.706  1.00  0.00     0.031 C 
ATOM     36  C   UNL A   1      40.003  33.242  35.926  1.00  0.00     0.037 A 
BRANCH  23  37
ATOM     37  C   UNL A   1      43.974  28.509  35.642  1.00  0.00     0.058 A 
ATOM     38  C   UNL A   1      45.329  28.796  35.411  1.00  0.00     0.135 A 
ATOM     39  C   UNL A   1      43.670  27.498  36.568  1.00  0.00     0.135 A 
ATOM     40  F   UNL A   1      45.677  29.742  34.525  1.00  0.00    -0.206 F 
ATOM     41  C   UNL A   1      46.342  28.093  36.057  1.00  0.00     0.059 A 
ATOM     42  C   UNL A   1      44.666  26.799  37.244  1.00  0.00     0.059 A 
ATOM     43  F   UNL A   1      42.391  27.182  36.828  1.00  0.00    -0.206 F 
ATOM     44  C   UNL A   1      46.000  27.095  36.971  1.00  0.00     0.060 A 
BRANCH  44  45
ATOM     45  S   UNL A   1      47.326  26.194  37.803  1.00  0.00     0.124 S 
ATOM     46  O   UNL A   1      48.484  27.025  37.486  1.00  0.00    -0.237 OA
ATOM     47  O   UNL A   1      46.894  26.216  39.196  1.00  0.00    -0.237 OA
ATOM     48  O   UNL A   1      47.301  24.883  37.162  1.00  0.00    -0.744 OA
ENDBRANCH  44  45
ENDBRANCH  23  37
BRANCH  24  49
ATOM     49  C   UNL A   1      36.518  33.266  30.968  1.00  0.00     0.058 A 
ATOM     50  C   UNL A   1      35.202  33.163  31.439  1.00  0.00     0.135 A 
ATOM     51  C   UNL A   1      36.751  34.075  29.845  1.00  0.00     0.135 A 
ATOM     52  F   UNL A   1      34.930  32.398  32.507  1.00  0.00    -0.206 F 
ATOM     53  C   UNL A   1      34.152  33.830  30.816  1.00  0.00     0.059 A 
ATOM     54  C   UNL A   1      35.724  34.773  29.222  1.00  0.00     0.059 A 
ATOM     55  F   UNL A   1      37.998  34.222  29.367  1.00  0.00    -0.206 F 
ATOM     56  C   UNL A   1      34.425  34.636  29.708  1.00  0.00     0.060 A 
BRANCH  56  57
ATOM     57  S   UNL A   1      33.067  35.545  28.941  1.00  0.00     0.124 S 
ATOM     58  O   UNL A   1      32.429  34.502  28.146  1.00  0.00    -0.237 OA
ATOM     59  O   UNL A   1      32.315  36.016  30.101  1.00  0.00    -0.237 OA
ATOM     60  O   UNL A   1      33.750  36.589  28.182  1.00  0.00    -0.744 OA
ENDBRANCH  56  57
ENDBRANCH  24  49
BRANCH  36  61
ATOM     61  C   UNL A   1      39.851  34.272  37.009  1.00  0.00     0.058 A 
ATOM     62  C   UNL A   1      40.456  35.535  36.913  1.00  0.00     0.135 A 
ATOM     63  C   UNL A   1      39.066  34.003  38.141  1.00  0.00     0.135 A 
ATOM     64  F   UNL A   1      41.224  35.838  35.854  1.00  0.00    -0.206 F 
ATOM     65  C   UNL A   1      40.311  36.487  37.916  1.00  0.00     0.059 A 
ATOM     66  C   UNL A   1      38.886  34.950  39.144  1.00  0.00     0.059 A 
ATOM     67  F   UNL A   1      38.460  32.814  38.277  1.00  0.00    -0.206 F 
ATOM     68  C   UNL A   1      39.524  36.185  39.028  1.00  0.00     0.060 A 
BRANCH  68  69
ATOM     69  S   UNL A   1      39.322  37.437  40.314  1.00  0.00     0.124 S 
ATOM     70  O   UNL A   1      38.489  38.423  39.634  1.00  0.00    -0.237 OA
ATOM     71  O   UNL A   1      38.670  36.686  41.383  1.00  0.00    -0.237 OA
ATOM     72  O   UNL A   1      40.691  37.857  40.596  1.00  0.00    -0.744 OA
ENDBRANCH  68  69
ENDBRANCH  36  61
ENDBRANCH  10  11
ENDBRANCH   2   5
BRANCH   3  73
ATOM     73  C   UNL A   1      40.617  23.044  27.527  1.00  0.00     0.118 C 
BRANCH  73  74
ATOM     74  C   UNL A   1      41.079  21.594  27.461  1.00  0.00     0.042 C 
BRANCH  74  75
ATOM     75  C   UNL A   1      41.169  21.039  26.046  1.00  0.00     0.118 C 
BRANCH  75  76
ATOM     76  N   UNL A   1      42.344  20.201  25.852  1.00  0.00    -0.351 N 
ATOM     77  C   UNL A   1      43.640  20.539  25.588  1.00  0.00     0.263 C 
ATOM     78  H   UNL A   1      42.176  19.233  25.922  1.00  0.00     0.163 HD
ATOM     79  O   UNL A   1      44.451  19.658  25.316  1.00  0.00    -0.268 OA
BRANCH  77  80
ATOM     80  C   UNL A   1      44.038  21.960  25.655  1.00  0.00     0.112 A 
ATOM     81  C   UNL A   1      44.402  22.633  26.760  1.00  0.00     0.118 A 
ATOM     82  S   UNL A   1      44.141  22.918  24.172  1.00  0.00    -0.091 S 
ATOM     83  N   UNL A   1      44.695  23.938  26.461  1.00  0.00    -0.297 N 
ATOM     84  C   UNL A   1      44.614  24.277  25.143  1.00  0.00     0.194 A 
ATOM     85  C   UNL A   1      45.036  25.060  27.151  1.00  0.00     0.114 A 
ATOM     86  N   UNL A   1      44.888  25.530  24.912  1.00  0.00    -0.227 NA
ATOM     87  C   UNL A   1      45.144  26.036  26.173  1.00  0.00     0.133 A 
ENDBRANCH  77  80
ENDBRANCH  75  76
ENDBRANCH  74  75
ENDBRANCH  73  74
ENDBRANCH   3  73
TORSDOF 13
ENDMDL
