MODEL 1
REMARK VINA RESULT:     -12.4      0.000      0.000
REMARK SMILES O=C(CNC(=O)c1cccs1)N[C@@H]1C=C[C@H](C(=O)NCCCNC(=O)c2ccc(-c3c4nc(c(-c5c(F)cc(S(=O)(=O)[O-])cc5F)c5ccc([nH]5)c(-c5c(F)cc(S(=O)(=O)[O-])cc5F)c5nc(c(-c6c(F)cc(S(=O)(=O)[O-])cc6F)c6ccc3[nH]6)C=C5)C=C4)cc2)C1
REMARK SMILES IDX 20 1 19 2 17 3 18 4 16 6 13 7 14 8 92 9 15 10 12 11 1 12
REMARK SMILES IDX 2 13 3 15 4 16 5 17 6 19 7 20 8 21 11 22 9 23 10 24 21 25
REMARK SMILES IDX 22 26 23 27 24 28 25 30 26 31 27 32 91 33 28 34 90 35 29 36
REMARK SMILES IDX 30 37 31 38 84 39 32 40 89 41 83 42 85 43 33 44 88 45 82 46
REMARK SMILES IDX 81 47 34 49 68 50 47 51 67 52 48 53 51 54 66 55 86 56 49 57
REMARK SMILES IDX 50 58 65 60 87 61 52 62 35 63 36 64 45 65 37 66 38 67 44 68
REMARK SMILES IDX 46 69 39 70 40 71 41 72 42 73 43 74 69 75 70 76 79 77 71 78
REMARK SMILES IDX 72 79 78 80 80 81 73 82 74 83 75 84 76 85 77 86 53 87 54 88
REMARK SMILES IDX 63 89 55 90 56 91 62 92 64 93 57 94 58 95 59 96 60 97 61 98
REMARK H PARENT 19 5 12 14 4 18 23 29 85 48 51 59
REMARK Flexibility Score: inf
ROOT
ATOM      1  C   UNL A   1      33.332  30.677  27.286  1.00  0.00     0.117 C 
ENDROOT
BRANCH   1   2
ATOM      2  N   UNL A   1      33.856  29.873  26.196  1.00  0.00    -0.356 N 
ATOM      3  C   UNL A   1      33.222  28.949  25.412  1.00  0.00     0.227 C 
ATOM      4  O   UNL A   1      33.875  28.382  24.537  1.00  0.00    -0.274 OA
ATOM      5  H   UNL A   1      34.809  30.013  25.992  1.00  0.00     0.163 HD
BRANCH   3   6
ATOM      6  C   UNL A   1      31.741  28.666  25.666  1.00  0.00     0.103 C 
ATOM      7  C   UNL A   1      30.903  26.481  26.460  1.00  0.00     0.106 C 
ATOM      8  C   UNL A   1      30.647  26.689  25.007  1.00  0.00    -0.006 C 
ATOM      9  C   UNL A   1      31.543  27.801  26.920  1.00  0.00     0.047 C 
ATOM     10  C   UNL A   1      31.110  27.862  24.570  1.00  0.00    -0.016 C 
BRANCH   7  11
ATOM     11  N   UNL A   1      31.786  25.347  26.584  1.00  0.00    -0.348 N 
ATOM     12  O   UNL A   1      30.111  23.856  27.070  1.00  0.00    -0.273 OA
ATOM     13  C   UNL A   1      31.296  24.083  26.837  1.00  0.00     0.239 C 
ATOM     14  H   UNL A   1      32.756  25.477  26.486  1.00  0.00     0.164 HD
BRANCH  13  15
ATOM     15  C   UNL A   1      32.358  22.996  27.004  1.00  0.00     0.216 C 
BRANCH  15  16
ATOM     16  N   UNL A   1      32.004  21.743  26.352  1.00  0.00    -0.342 N 
ATOM     17  C   UNL A   1      32.591  21.110  25.285  1.00  0.00     0.261 C 
ATOM     18  H   UNL A   1      31.224  21.280  26.734  1.00  0.00     0.164 HD
ATOM     19  O   UNL A   1      32.034  20.095  24.863  1.00  0.00    -0.268 OA
BRANCH  17  20
ATOM     20  C   UNL A   1      33.797  21.666  24.711  1.00  0.00     0.092 A 
ATOM     21  C   UNL A   1      33.954  22.658  23.760  1.00  0.00     0.025 A 
ATOM     22  S   UNL A   1      35.312  21.084  25.262  1.00  0.00    -0.139 S 
ATOM     23  C   UNL A   1      35.322  22.886  23.436  1.00  0.00     0.012 A 
ATOM     24  C   UNL A   1      36.167  22.094  24.179  1.00  0.00     0.065 A 
ENDBRANCH  17  20
ENDBRANCH  15  16
ENDBRANCH  13  15
ENDBRANCH   7  11
ENDBRANCH   3   6
ENDBRANCH   1   2
BRANCH   1  25
ATOM     25  C   UNL A   1      34.290  31.786  27.708  1.00  0.00     0.042 C 
BRANCH  25  26
ATOM     26  C   UNL A   1      35.621  31.294  28.272  1.00  0.00     0.118 C 
BRANCH  26  27
ATOM     27  N   UNL A   1      35.540  30.926  29.678  1.00  0.00    -0.352 N 
ATOM     28  C   UNL A   1      36.449  30.288  30.487  1.00  0.00     0.251 C 
ATOM     29  H   UNL A   1      34.697  31.175  30.122  1.00  0.00     0.163 HD
ATOM     30  O   UNL A   1      36.100  29.940  31.612  1.00  0.00    -0.269 OA
BRANCH  28  31
ATOM     31  C   UNL A   1      37.823  29.994  30.016  1.00  0.00     0.039 A 
ATOM     32  C   UNL A   1      38.815  29.742  30.969  1.00  0.00     0.014 A 
ATOM     33  C   UNL A   1      38.154  30.001  28.659  1.00  0.00     0.014 A 
ATOM     34  C   UNL A   1      40.116  29.438  30.560  1.00  0.00     0.010 A 
ATOM     35  C   UNL A   1      39.432  29.624  28.248  1.00  0.00     0.010 A 
ATOM     36  C   UNL A   1      40.429  29.341  29.194  1.00  0.00    -0.014 A 
BRANCH  36  37
ATOM     37  C   UNL A   1      41.788  28.932  28.751  1.00  0.00     0.031 A 
ATOM     38  C   UNL A   1      42.912  29.932  28.694  1.00  0.00     0.074 A 
ATOM     39  C   UNL A   1      41.998  27.664  28.346  1.00  0.00     0.049 A 
ATOM     40  N   UNL A   1      44.153  29.758  28.318  1.00  0.00    -0.248 NA
ATOM     41  C   UNL A   1      42.593  31.315  29.083  1.00  0.00     0.031 C 
ATOM     42  C   UNL A   1      40.977  26.616  28.288  1.00  0.00     0.029 A 
ATOM     43  N   UNL A   1      43.137  27.041  27.898  1.00  0.00    -0.354 N 
ATOM     44  C   UNL A   1      44.758  31.006  28.411  1.00  0.00     0.074 A 
ATOM     45  C   UNL A   1      43.734  31.938  28.829  1.00  0.00     0.031 C 
ATOM     46  C   UNL A   1      41.539  25.475  27.858  1.00  0.00     0.029 A 
ATOM     47  C   UNL A   1      42.952  25.716  27.583  1.00  0.00     0.049 A 
ATOM     48  H   UNL A   1      44.003  27.500  27.812  1.00  0.00     0.167 HD
ATOM     49  C   UNL A   1      46.053  31.340  28.189  1.00  0.00     0.037 A 
ATOM     50  C   UNL A   1      43.822  24.793  27.125  1.00  0.00     0.037 A 
ATOM     51  C   UNL A   1      47.075  30.403  27.801  1.00  0.00     0.049 A 
ATOM     52  C   UNL A   1      45.261  25.176  26.923  1.00  0.00     0.074 A 
ATOM     53  C   UNL A   1      48.428  30.630  27.622  1.00  0.00     0.029 A 
ATOM     54  N   UNL A   1      46.856  29.061  27.528  1.00  0.00    -0.354 N 
ATOM     55  N   UNL A   1      45.832  26.345  27.093  1.00  0.00    -0.248 NA
ATOM     56  C   UNL A   1      46.177  24.115  26.483  1.00  0.00     0.031 C 
ATOM     57  C   UNL A   1      49.022  29.433  27.203  1.00  0.00     0.029 A 
ATOM     58  C   UNL A   1      48.047  28.450  27.165  1.00  0.00     0.049 A 
ATOM     59  H   UNL A   1      45.984  28.607  27.584  1.00  0.00     0.167 HD
ATOM     60  C   UNL A   1      47.179  26.155  26.804  1.00  0.00     0.074 A 
ATOM     61  C   UNL A   1      47.337  24.756  26.459  1.00  0.00     0.031 C 
ATOM     62  C   UNL A   1      48.192  27.055  26.827  1.00  0.00     0.037 A 
BRANCH  49  63
ATOM     63  C   UNL A   1      46.436  32.785  28.368  1.00  0.00     0.058 A 
ATOM     64  C   UNL A   1      46.354  33.707  27.311  1.00  0.00     0.135 A 
ATOM     65  C   UNL A   1      46.873  33.259  29.615  1.00  0.00     0.135 A 
ATOM     66  F   UNL A   1      45.954  33.305  26.094  1.00  0.00    -0.206 F 
ATOM     67  C   UNL A   1      46.728  35.036  27.473  1.00  0.00     0.059 A 
ATOM     68  C   UNL A   1      47.225  34.593  29.809  1.00  0.00     0.059 A 
ATOM     69  F   UNL A   1      46.967  32.424  30.662  1.00  0.00    -0.206 F 
ATOM     70  C   UNL A   1      47.168  35.469  28.725  1.00  0.00     0.060 A 
BRANCH  70  71
ATOM     71  S   UNL A   1      47.665  37.193  28.917  1.00  0.00     0.124 S 
ATOM     72  O   UNL A   1      46.968  37.823  27.801  1.00  0.00    -0.237 OA
ATOM     73  O   UNL A   1      47.157  37.521  30.246  1.00  0.00    -0.237 OA
ATOM     74  O   UNL A   1      49.119  37.142  28.802  1.00  0.00    -0.744 OA
ENDBRANCH  70  71
ENDBRANCH  49  63
BRANCH  50  75
ATOM     75  C   UNL A   1      43.352  23.406  26.872  1.00  0.00     0.058 A 
ATOM     76  C   UNL A   1      43.285  22.895  25.568  1.00  0.00     0.135 A 
ATOM     77  C   UNL A   1      43.004  22.552  27.929  1.00  0.00     0.135 A 
ATOM     78  F   UNL A   1      43.604  23.676  24.525  1.00  0.00    -0.206 F 
ATOM     79  C   UNL A   1      42.887  21.585  25.319  1.00  0.00     0.059 A 
ATOM     80  C   UNL A   1      42.625  21.232  27.708  1.00  0.00     0.059 A 
ATOM     81  F   UNL A   1      43.070  22.990  29.197  1.00  0.00    -0.206 F 
ATOM     82  C   UNL A   1      42.564  20.759  26.397  1.00  0.00     0.060 A 
BRANCH  82  83
ATOM     83  S   UNL A   1      42.125  19.038  26.069  1.00  0.00     0.124 S 
ATOM     84  O   UNL A   1      40.682  19.134  25.886  1.00  0.00    -0.237 OA
ATOM     85  O   UNL A   1      42.905  18.746  24.870  1.00  0.00    -0.237 OA
ATOM     86  O   UNL A   1      42.564  18.346  27.277  1.00  0.00    -0.744 OA
ENDBRANCH  82  83
ENDBRANCH  50  75
BRANCH  62  87
ATOM     87  C   UNL A   1      49.571  26.556  26.500  1.00  0.00     0.058 A 
ATOM     88  C   UNL A   1      50.406  25.998  27.481  1.00  0.00     0.135 A 
ATOM     89  C   UNL A   1      50.044  26.592  25.178  1.00  0.00     0.135 A 
ATOM     90  F   UNL A   1      50.003  25.945  28.759  1.00  0.00    -0.206 F 
ATOM     91  C   UNL A   1      51.672  25.514  27.167  1.00  0.00     0.059 A 
ATOM     92  C   UNL A   1      51.297  26.091  24.837  1.00  0.00     0.059 A 
ATOM     93  F   UNL A   1      49.281  27.106  24.200  1.00  0.00    -0.206 F 
ATOM     94  C   UNL A   1      52.108  25.565  25.841  1.00  0.00     0.060 A 
BRANCH  94  95
ATOM     95  S   UNL A   1      53.741  24.906  25.439  1.00  0.00     0.124 S 
ATOM     96  O   UNL A   1      54.136  25.761  24.324  1.00  0.00    -0.237 OA
ATOM     97  O   UNL A   1      54.476  25.108  26.683  1.00  0.00    -0.237 OA
ATOM     98  O   UNL A   1      53.470  23.513  25.098  1.00  0.00    -0.744 OA
ENDBRANCH  94  95
ENDBRANCH  62  87
ENDBRANCH  36  37
ENDBRANCH  28  31
ENDBRANCH  26  27
ENDBRANCH  25  26
ENDBRANCH   1  25
TORSDOF 17
ENDMDL
MODEL 2
REMARK VINA RESULT:     -12.2      6.713     12.317
REMARK SMILES O=C(CNC(=O)c1cccs1)N[C@@H]1C=C[C@H](C(=O)NCCCNC(=O)c2ccc(-c3c4nc(c(-c5c(F)cc(S(=O)(=O)[O-])cc5F)c5ccc([nH]5)c(-c5c(F)cc(S(=O)(=O)[O-])cc5F)c5nc(c(-c6c(F)cc(S(=O)(=O)[O-])cc6F)c6ccc3[nH]6)C=C5)C=C4)cc2)C1
REMARK SMILES IDX 20 1 19 2 17 3 18 4 16 6 13 7 14 8 92 9 15 10 12 11 1 12
REMARK SMILES IDX 2 13 3 15 4 16 5 17 6 19 7 20 8 21 11 22 9 23 10 24 21 25
REMARK SMILES IDX 22 26 23 27 24 28 25 30 26 31 27 32 91 33 28 34 90 35 29 36
REMARK SMILES IDX 30 37 31 38 84 39 32 40 89 41 83 42 85 43 33 44 88 45 82 46
REMARK SMILES IDX 81 47 34 49 68 50 47 51 67 52 48 53 51 54 66 55 86 56 49 57
REMARK SMILES IDX 50 58 65 60 87 61 52 62 35 63 36 64 45 65 37 66 38 67 44 68
REMARK SMILES IDX 46 69 39 70 40 71 41 72 42 73 43 74 69 75 70 76 79 77 71 78
REMARK SMILES IDX 72 79 78 80 80 81 73 82 74 83 75 84 76 85 77 86 53 87 54 88
REMARK SMILES IDX 63 89 55 90 56 91 62 92 64 93 57 94 58 95 59 96 60 97 61 98
REMARK H PARENT 19 5 12 14 4 18 23 29 85 48 51 59
REMARK Flexibility Score: inf
ROOT
ATOM      1  C   UNL A   1      37.010  22.638  25.971  1.00  0.00     0.117 C 
ENDROOT
BRANCH   1   2
ATOM      2  N   UNL A   1      35.646  22.857  26.420  1.00  0.00    -0.356 N 
ATOM      3  C   UNL A   1      34.467  22.648  25.759  1.00  0.00     0.227 C 
ATOM      4  O   UNL A   1      33.417  22.909  26.345  1.00  0.00    -0.274 OA
ATOM      5  H   UNL A   1      35.557  23.209  27.335  1.00  0.00     0.163 HD
BRANCH   3   6
ATOM      6  C   UNL A   1      34.514  22.110  24.329  1.00  0.00     0.103 C 
ATOM      7  C   UNL A   1      33.464  23.268  22.416  1.00  0.00     0.106 C 
ATOM      8  C   UNL A   1      32.670  22.090  22.867  1.00  0.00    -0.006 C 
ATOM      9  C   UNL A   1      34.714  23.242  23.309  1.00  0.00     0.047 C 
ATOM     10  C   UNL A   1      33.227  21.469  23.909  1.00  0.00    -0.016 C 
BRANCH   7  11
ATOM     11  N   UNL A   1      32.646  24.440  22.614  1.00  0.00    -0.348 N 
ATOM     12  O   UNL A   1      33.181  25.388  20.594  1.00  0.00    -0.273 OA
ATOM     13  C   UNL A   1      32.531  25.406  21.638  1.00  0.00     0.239 C 
ATOM     14  H   UNL A   1      32.161  24.552  23.463  1.00  0.00     0.164 HD
BRANCH  13  15
ATOM     15  C   UNL A   1      31.680  26.618  22.019  1.00  0.00     0.216 C 
BRANCH  15  16
ATOM     16  N   UNL A   1      31.756  26.948  23.435  1.00  0.00    -0.342 N 
ATOM     17  C   UNL A   1      30.907  27.700  24.209  1.00  0.00     0.261 C 
ATOM     18  H   UNL A   1      32.533  26.576  23.910  1.00  0.00     0.164 HD
ATOM     19  O   UNL A   1      31.251  27.907  25.374  1.00  0.00    -0.268 OA
BRANCH  17  20
ATOM     20  C   UNL A   1      29.688  28.215  23.624  1.00  0.00     0.092 A 
ATOM     21  C   UNL A   1      28.422  27.661  23.575  1.00  0.00     0.025 A 
ATOM     22  S   UNL A   1      29.723  29.762  22.887  1.00  0.00    -0.139 S 
ATOM     23  C   UNL A   1      27.498  28.482  22.866  1.00  0.00     0.012 A 
ATOM     24  C   UNL A   1      28.077  29.654  22.435  1.00  0.00     0.065 A 
ENDBRANCH  17  20
ENDBRANCH  15  16
ENDBRANCH  13  15
ENDBRANCH   7  11
ENDBRANCH   3   6
ENDBRANCH   1   2
BRANCH   1  25
ATOM     25  C   UNL A   1      37.880  23.882  26.118  1.00  0.00     0.042 C 
BRANCH  25  26
ATOM     26  C   UNL A   1      39.227  23.637  26.793  1.00  0.00     0.118 C 
BRANCH  26  27
ATOM     27  N   UNL A   1      40.353  24.117  26.004  1.00  0.00    -0.352 N 
ATOM     28  C   UNL A   1      41.139  25.233  26.159  1.00  0.00     0.251 C 
ATOM     29  H   UNL A   1      40.589  23.550  25.234  1.00  0.00     0.163 HD
ATOM     30  O   UNL A   1      41.940  25.522  25.274  1.00  0.00    -0.269 OA
BRANCH  28  31
ATOM     31  C   UNL A   1      41.018  26.097  27.357  1.00  0.00     0.039 A 
ATOM     32  C   UNL A   1      41.891  27.182  27.487  1.00  0.00     0.014 A 
ATOM     33  C   UNL A   1      40.088  25.834  28.365  1.00  0.00     0.014 A 
ATOM     34  C   UNL A   1      41.789  28.032  28.592  1.00  0.00     0.010 A 
ATOM     35  C   UNL A   1      39.936  26.725  29.427  1.00  0.00     0.010 A 
ATOM     36  C   UNL A   1      40.787  27.832  29.555  1.00  0.00    -0.014 A 
BRANCH  36  37
ATOM     37  C   UNL A   1      40.616  28.783  30.685  1.00  0.00     0.031 A 
ATOM     38  C   UNL A   1      41.461  28.663  31.925  1.00  0.00     0.074 A 
ATOM     39  C   UNL A   1      39.656  29.727  30.616  1.00  0.00     0.049 A 
ATOM     40  N   UNL A   1      41.438  29.390  33.013  1.00  0.00    -0.248 NA
ATOM     41  C   UNL A   1      42.439  27.564  31.961  1.00  0.00     0.031 C 
ATOM     42  C   UNL A   1      38.726  29.905  29.499  1.00  0.00     0.029 A 
ATOM     43  N   UNL A   1      39.298  30.710  31.505  1.00  0.00    -0.354 N 
ATOM     44  C   UNL A   1      42.383  28.832  33.865  1.00  0.00     0.074 A 
ATOM     45  C   UNL A   1      42.926  27.674  33.188  1.00  0.00     0.031 C 
ATOM     46  C   UNL A   1      37.923  30.949  29.757  1.00  0.00     0.029 A 
ATOM     47  C   UNL A   1      38.259  31.497  31.067  1.00  0.00     0.049 A 
ATOM     48  H   UNL A   1      39.742  30.838  32.374  1.00  0.00     0.167 HD
ATOM     49  C   UNL A   1      42.780  29.258  35.089  1.00  0.00     0.037 A 
ATOM     50  C   UNL A   1      37.647  32.546  31.652  1.00  0.00     0.037 A 
ATOM     51  C   UNL A   1      42.257  30.429  35.746  1.00  0.00     0.049 A 
ATOM     52  C   UNL A   1      38.128  33.025  32.992  1.00  0.00     0.074 A 
ATOM     53  C   UNL A   1      42.644  30.982  36.954  1.00  0.00     0.029 A 
ATOM     54  N   UNL A   1      41.233  31.223  35.253  1.00  0.00    -0.354 N 
ATOM     55  N   UNL A   1      39.079  32.532  33.749  1.00  0.00    -0.248 NA
ATOM     56  C   UNL A   1      37.465  34.210  33.553  1.00  0.00     0.031 C 
ATOM     57  C   UNL A   1      41.827  32.090  37.210  1.00  0.00     0.029 A 
ATOM     58  C   UNL A   1      40.962  32.253  36.140  1.00  0.00     0.049 A 
ATOM     59  H   UNL A   1      40.766  31.078  34.398  1.00  0.00     0.167 HD
ATOM     60  C   UNL A   1      39.146  33.360  34.863  1.00  0.00     0.074 A 
ATOM     61  C   UNL A   1      38.146  34.392  34.676  1.00  0.00     0.031 C 
ATOM     62  C   UNL A   1      39.965  33.276  35.941  1.00  0.00     0.037 A 
BRANCH  49  63
ATOM     63  C   UNL A   1      43.836  28.452  35.795  1.00  0.00     0.058 A 
ATOM     64  C   UNL A   1      43.504  27.400  36.665  1.00  0.00     0.135 A 
ATOM     65  C   UNL A   1      45.199  28.720  35.586  1.00  0.00     0.135 A 
ATOM     66  F   UNL A   1      42.217  27.107  36.911  1.00  0.00    -0.206 F 
ATOM     67  C   UNL A   1      44.482  26.670  37.332  1.00  0.00     0.059 A 
ATOM     68  C   UNL A   1      46.196  27.984  36.221  1.00  0.00     0.059 A 
ATOM     69  F   UNL A   1      45.574  29.711  34.762  1.00  0.00    -0.206 F 
ATOM     70  C   UNL A   1      45.826  26.973  37.108  1.00  0.00     0.060 A 
BRANCH  70  71
ATOM     71  S   UNL A   1      47.084  26.028  37.992  1.00  0.00     0.124 S 
ATOM     72  O   UNL A   1      48.185  26.043  37.034  1.00  0.00    -0.237 OA
ATOM     73  O   UNL A   1      47.284  26.823  39.200  1.00  0.00    -0.237 OA
ATOM     74  O   UNL A   1      46.450  24.730  38.200  1.00  0.00    -0.744 OA
ENDBRANCH  70  71
ENDBRANCH  49  63
BRANCH  50  75
ATOM     75  C   UNL A   1      36.539  33.236  30.940  1.00  0.00     0.058 A 
ATOM     76  C   UNL A   1      35.217  33.137  31.399  1.00  0.00     0.135 A 
ATOM     77  C   UNL A   1      36.784  34.040  29.817  1.00  0.00     0.135 A 
ATOM     78  F   UNL A   1      34.933  32.376  32.466  1.00  0.00    -0.206 F 
ATOM     79  C   UNL A   1      34.176  33.810  30.768  1.00  0.00     0.059 A 
ATOM     80  C   UNL A   1      35.764  34.740  29.183  1.00  0.00     0.059 A 
ATOM     81  F   UNL A   1      38.036  34.181  29.352  1.00  0.00    -0.206 F 
ATOM     82  C   UNL A   1      34.461  34.615  29.664  1.00  0.00     0.060 A 
BRANCH  82  83
ATOM     83  S   UNL A   1      33.115  35.547  28.900  1.00  0.00     0.124 S 
ATOM     84  O   UNL A   1      33.841  36.628  28.245  1.00  0.00    -0.237 OA
ATOM     85  O   UNL A   1      32.514  34.552  28.017  1.00  0.00    -0.237 OA
ATOM     86  O   UNL A   1      32.292  35.939  30.041  1.00  0.00    -0.744 OA
ENDBRANCH  82  83
ENDBRANCH  50  75
BRANCH  62  87
ATOM     87  C   UNL A   1      39.839  34.343  36.991  1.00  0.00     0.058 A 
ATOM     88  C   UNL A   1      40.554  35.548  36.908  1.00  0.00     0.135 A 
ATOM     89  C   UNL A   1      38.955  34.178  38.070  1.00  0.00     0.135 A 
ATOM     90  F   UNL A   1      41.416  35.754  35.901  1.00  0.00    -0.206 F 
ATOM     91  C   UNL A   1      40.414  36.543  37.871  1.00  0.00     0.059 A 
ATOM     92  C   UNL A   1      38.780  35.169  39.030  1.00  0.00     0.059 A 
ATOM     93  F   UNL A   1      38.240  33.047  38.190  1.00  0.00    -0.206 F 
ATOM     94  C   UNL A   1      39.524  36.344  38.929  1.00  0.00     0.060 A 
BRANCH  94  95
ATOM     95  S   UNL A   1      39.327  37.653  40.156  1.00  0.00     0.124 S 
ATOM     96  O   UNL A   1      38.190  38.393  39.617  1.00  0.00    -0.237 OA
ATOM     97  O   UNL A   1      39.070  36.901  41.380  1.00  0.00    -0.237 OA
ATOM     98  O   UNL A   1      40.608  38.352  40.115  1.00  0.00    -0.744 OA
ENDBRANCH  94  95
ENDBRANCH  62  87
ENDBRANCH  36  37
ENDBRANCH  28  31
ENDBRANCH  26  27
ENDBRANCH  25  26
ENDBRANCH   1  25
TORSDOF 17
ENDMDL
MODEL 3
REMARK VINA RESULT:     -12.2      6.518     12.076
REMARK SMILES O=C(CNC(=O)c1cccs1)N[C@@H]1C=C[C@H](C(=O)NCCCNC(=O)c2ccc(-c3c4nc(c(-c5c(F)cc(S(=O)(=O)[O-])cc5F)c5ccc([nH]5)c(-c5c(F)cc(S(=O)(=O)[O-])cc5F)c5nc(c(-c6c(F)cc(S(=O)(=O)[O-])cc6F)c6ccc3[nH]6)C=C5)C=C4)cc2)C1
REMARK SMILES IDX 20 1 19 2 17 3 18 4 16 6 13 7 14 8 92 9 15 10 12 11 1 12
REMARK SMILES IDX 2 13 3 15 4 16 5 17 6 19 7 20 8 21 11 22 9 23 10 24 21 25
REMARK SMILES IDX 22 26 23 27 24 28 25 30 26 31 27 32 91 33 28 34 90 35 29 36
REMARK SMILES IDX 30 37 31 38 84 39 32 40 89 41 83 42 85 43 33 44 88 45 82 46
REMARK SMILES IDX 81 47 34 49 68 50 47 51 67 52 48 53 51 54 66 55 86 56 49 57
REMARK SMILES IDX 50 58 65 60 87 61 52 62 35 63 36 64 45 65 37 66 38 67 44 68
REMARK SMILES IDX 46 69 39 70 40 71 41 72 42 73 43 74 69 75 70 76 79 77 71 78
REMARK SMILES IDX 72 79 78 80 80 81 73 82 74 83 75 84 76 85 77 86 53 87 54 88
REMARK SMILES IDX 63 89 55 90 56 91 62 92 64 93 57 94 58 95 59 96 60 97 61 98
REMARK H PARENT 19 5 12 14 4 18 23 29 85 48 51 59
REMARK Flexibility Score: inf
ROOT
ATOM      1  C   UNL A   1      39.670  21.424  26.130  1.00  0.00     0.117 C 
ENDROOT
BRANCH   1   2
ATOM      2  N   UNL A   1      38.910  22.625  26.430  1.00  0.00    -0.356 N 
ATOM      3  C   UNL A   1      37.759  23.093  25.857  1.00  0.00     0.227 C 
ATOM      4  O   UNL A   1      37.287  24.149  26.277  1.00  0.00    -0.274 OA
ATOM      5  H   UNL A   1      39.277  23.186  27.150  1.00  0.00     0.163 HD
BRANCH   3   6
ATOM      6  C   UNL A   1      37.124  22.286  24.724  1.00  0.00     0.103 C 
ATOM      7  C   UNL A   1      35.062  22.988  23.560  1.00  0.00     0.106 C 
ATOM      8  C   UNL A   1      34.814  21.883  24.528  1.00  0.00    -0.006 C 
ATOM      9  C   UNL A   1      36.582  23.203  23.617  1.00  0.00     0.047 C 
ATOM     10  C   UNL A   1      35.923  21.509  25.170  1.00  0.00    -0.016 C 
BRANCH   7  11
ATOM     11  N   UNL A   1      34.307  24.133  24.009  1.00  0.00    -0.348 N 
ATOM     12  O   UNL A   1      33.883  24.921  21.896  1.00  0.00    -0.273 OA
ATOM     13  C   UNL A   1      33.722  25.001  23.113  1.00  0.00     0.239 C 
ATOM     14  H   UNL A   1      34.207  24.296  24.974  1.00  0.00     0.164 HD
BRANCH  13  15
ATOM     15  C   UNL A   1      33.010  26.200  23.739  1.00  0.00     0.216 C 
BRANCH  15  16
ATOM     16  N   UNL A   1      32.103  25.828  24.817  1.00  0.00    -0.342 N 
ATOM     17  C   UNL A   1      31.942  26.385  26.061  1.00  0.00     0.261 C 
ATOM     18  H   UNL A   1      31.516  25.062  24.623  1.00  0.00     0.164 HD
ATOM     19  O   UNL A   1      31.162  25.818  26.829  1.00  0.00    -0.268 OA
BRANCH  17  20
ATOM     20  C   UNL A   1      32.693  27.571  26.407  1.00  0.00     0.092 A 
ATOM     21  C   UNL A   1      34.059  27.757  26.520  1.00  0.00     0.025 A 
ATOM     22  S   UNL A   1      31.838  29.026  26.707  1.00  0.00    -0.139 S 
ATOM     23  C   UNL A   1      34.394  29.082  26.924  1.00  0.00     0.012 A 
ATOM     24  C   UNL A   1      33.279  29.875  27.064  1.00  0.00     0.065 A 
ENDBRANCH  17  20
ENDBRANCH  15  16
ENDBRANCH  13  15
ENDBRANCH   7  11
ENDBRANCH   3   6
ENDBRANCH   1   2
BRANCH   1  25
ATOM     25  C   UNL A   1      41.155  21.579  26.444  1.00  0.00     0.042 C 
BRANCH  25  26
ATOM     26  C   UNL A   1      41.554  22.961  26.957  1.00  0.00     0.118 C 
BRANCH  26  27
ATOM     27  N   UNL A   1      41.998  23.853  25.897  1.00  0.00    -0.352 N 
ATOM     28  C   UNL A   1      42.090  25.224  25.863  1.00  0.00     0.251 C 
ATOM     29  H   UNL A   1      42.279  23.402  25.068  1.00  0.00     0.163 HD
ATOM     30  O   UNL A   1      42.346  25.776  24.797  1.00  0.00    -0.269 OA
BRANCH  28  31
ATOM     31  C   UNL A   1      41.860  26.038  27.080  1.00  0.00     0.039 A 
ATOM     32  C   UNL A   1      42.765  27.062  27.377  1.00  0.00     0.014 A 
ATOM     33  C   UNL A   1      40.795  25.783  27.948  1.00  0.00     0.014 A 
ATOM     34  C   UNL A   1      42.566  27.866  28.503  1.00  0.00     0.010 A 
ATOM     35  C   UNL A   1      40.554  26.632  29.028  1.00  0.00     0.010 A 
ATOM     36  C   UNL A   1      41.438  27.681  29.320  1.00  0.00    -0.014 A 
BRANCH  36  37
ATOM     37  C   UNL A   1      41.173  28.587  30.468  1.00  0.00     0.031 A 
ATOM     38  C   UNL A   1      41.990  28.491  31.729  1.00  0.00     0.074 A 
ATOM     39  C   UNL A   1      40.153  29.466  30.396  1.00  0.00     0.049 A 
ATOM     40  N   UNL A   1      41.889  29.185  32.833  1.00  0.00    -0.248 NA
ATOM     41  C   UNL A   1      43.040  27.460  31.765  1.00  0.00     0.031 C 
ATOM     42  C   UNL A   1      39.244  29.611  29.258  1.00  0.00     0.029 A 
ATOM     43  N   UNL A   1      39.705  30.398  31.299  1.00  0.00    -0.354 N 
ATOM     44  C   UNL A   1      42.847  28.670  33.698  1.00  0.00     0.074 A 
ATOM     45  C   UNL A   1      43.485  27.570  33.008  1.00  0.00     0.031 C 
ATOM     46  C   UNL A   1      38.364  30.592  29.519  1.00  0.00     0.029 A 
ATOM     47  C   UNL A   1      38.628  31.125  30.851  1.00  0.00     0.049 A 
ATOM     48  H   UNL A   1      40.116  30.532  32.183  1.00  0.00     0.167 HD
ATOM     49  C   UNL A   1      43.181  29.089  34.943  1.00  0.00     0.037 A 
ATOM     50  C   UNL A   1      37.930  32.115  31.444  1.00  0.00     0.037 A 
ATOM     51  C   UNL A   1      42.562  30.203  35.614  1.00  0.00     0.049 A 
ATOM     52  C   UNL A   1      38.341  32.589  32.809  1.00  0.00     0.074 A 
ATOM     53  C   UNL A   1      42.878  30.749  36.846  1.00  0.00     0.029 A 
ATOM     54  N   UNL A   1      41.500  30.940  35.112  1.00  0.00    -0.354 N 
ATOM     55  N   UNL A   1      39.303  32.140  33.580  1.00  0.00    -0.248 NA
ATOM     56  C   UNL A   1      37.584  33.711  33.380  1.00  0.00     0.031 C 
ATOM     57  C   UNL A   1      41.981  31.791  37.106  1.00  0.00     0.029 A 
ATOM     58  C   UNL A   1      41.136  31.925  36.016  1.00  0.00     0.049 A 
ATOM     59  H   UNL A   1      41.067  30.786  34.241  1.00  0.00     0.167 HD
ATOM     60  C   UNL A   1      39.284  32.941  34.716  1.00  0.00     0.074 A 
ATOM     61  C   UNL A   1      38.221  33.907  34.527  1.00  0.00     0.031 C 
ATOM     62  C   UNL A   1      40.077  32.883  35.814  1.00  0.00     0.037 A 
BRANCH  49  63
ATOM     63  C   UNL A   1      44.271  28.336  35.658  1.00  0.00     0.058 A 
ATOM     64  C   UNL A   1      43.984  27.276  36.534  1.00  0.00     0.135 A 
ATOM     65  C   UNL A   1      45.620  28.666  35.453  1.00  0.00     0.135 A 
ATOM     66  F   UNL A   1      42.710  26.925  36.776  1.00  0.00    -0.206 F 
ATOM     67  C   UNL A   1      44.991  26.596  37.209  1.00  0.00     0.059 A 
ATOM     68  C   UNL A   1      46.647  27.981  36.097  1.00  0.00     0.059 A 
ATOM     69  F   UNL A   1      45.953  29.669  34.624  1.00  0.00    -0.206 F 
ATOM     70  C   UNL A   1      46.320  26.960  36.988  1.00  0.00     0.060 A 
BRANCH  70  71
ATOM     71  S   UNL A   1      47.617  26.079  37.884  1.00  0.00     0.124 S 
ATOM     72  O   UNL A   1      47.887  24.963  36.982  1.00  0.00    -0.237 OA
ATOM     73  O   UNL A   1      48.672  27.084  37.980  1.00  0.00    -0.237 OA
ATOM     74  O   UNL A   1      46.978  25.726  39.147  1.00  0.00    -0.744 OA
ENDBRANCH  70  71
ENDBRANCH  49  63
BRANCH  50  75
ATOM     75  C   UNL A   1      36.797  32.747  30.719  1.00  0.00     0.058 A 
ATOM     76  C   UNL A   1      35.475  32.343  30.956  1.00  0.00     0.135 A 
ATOM     77  C   UNL A   1      37.009  33.795  29.810  1.00  0.00     0.135 A 
ATOM     78  F   UNL A   1      35.223  31.342  31.813  1.00  0.00    -0.206 F 
ATOM     79  C   UNL A   1      34.401  32.953  30.316  1.00  0.00     0.059 A 
ATOM     80  C   UNL A   1      35.951  34.435  29.174  1.00  0.00     0.059 A 
ATOM     81  F   UNL A   1      38.255  34.229  29.563  1.00  0.00    -0.206 F 
ATOM     82  C   UNL A   1      34.649  34.004  29.430  1.00  0.00     0.060 A 
BRANCH  82  83
ATOM     83  S   UNL A   1      33.244  34.842  28.665  1.00  0.00     0.124 S 
ATOM     84  O   UNL A   1      32.417  35.148  29.826  1.00  0.00    -0.237 OA
ATOM     85  O   UNL A   1      33.883  35.982  28.016  1.00  0.00    -0.237 OA
ATOM     86  O   UNL A   1      32.709  33.833  27.756  1.00  0.00    -0.744 OA
ENDBRANCH  82  83
ENDBRANCH  50  75
BRANCH  62  87
ATOM     87  C   UNL A   1      39.851  33.911  36.887  1.00  0.00     0.058 A 
ATOM     88  C   UNL A   1      39.100  33.624  38.038  1.00  0.00     0.135 A 
ATOM     89  C   UNL A   1      40.432  35.185  36.784  1.00  0.00     0.135 A 
ATOM     90  F   UNL A   1      38.518  32.423  38.182  1.00  0.00    -0.206 F 
ATOM     91  C   UNL A   1      38.915  34.572  39.040  1.00  0.00     0.059 A 
ATOM     92  C   UNL A   1      40.282  36.140  37.785  1.00  0.00     0.059 A 
ATOM     93  F   UNL A   1      41.168  35.507  35.708  1.00  0.00    -0.206 F 
ATOM     94  C   UNL A   1      39.511  35.827  38.904  1.00  0.00     0.060 A 
BRANCH  94  95
ATOM     95  S   UNL A   1      39.289  37.040  40.223  1.00  0.00     0.124 S 
ATOM     96  O   UNL A   1      38.419  36.316  41.144  1.00  0.00    -0.237 OA
ATOM     97  O   UNL A   1      40.657  37.257  40.683  1.00  0.00    -0.237 OA
ATOM     98  O   UNL A   1      38.677  38.176  39.541  1.00  0.00    -0.744 OA
ENDBRANCH  94  95
ENDBRANCH  62  87
ENDBRANCH  36  37
ENDBRANCH  28  31
ENDBRANCH  26  27
ENDBRANCH  25  26
ENDBRANCH   1  25
TORSDOF 17
ENDMDL
