MODEL 1
REMARK VINA RESULT:     -12.9      0.000      0.000
REMARK SMILES CC(=O)Nc1cccc(-c2ccc(F)c(C(=O)NCCCNC(=O)c3ccc(-c4c5nc(c(-c6c(F)cc(S(=O)(=O)[O-])cc6F)c6ccc([nH]6)c(-c6c(F)cc(S(=O)(=O)[O-])cc6F)c6nc(c(-c7c(F)cc(S(=O)(=O)[O-])cc7F)c7ccc4[nH]7)C=C6)C=C5)cc3)c2)c1
REMARK SMILES IDX 20 1 19 2 18 3 16 4 17 5 15 7 10 8 11 9 91 10 12 11 13 12
REMARK SMILES IDX 14 13 9 14 5 15 6 16 92 17 7 18 8 19 4 20 1 21 2 22 3 23
REMARK SMILES IDX 21 25 22 26 23 27 24 29 25 30 26 31 90 32 27 33 89 34 28 35
REMARK SMILES IDX 29 36 30 37 83 38 31 39 88 40 82 41 84 42 32 43 87 44 81 45
REMARK SMILES IDX 80 46 33 48 67 49 46 50 66 51 47 52 50 53 65 54 85 55 48 56
REMARK SMILES IDX 49 57 64 59 86 60 51 61 34 62 35 63 44 64 36 65 37 66 43 67
REMARK SMILES IDX 45 68 38 69 39 70 40 71 41 72 42 73 68 74 69 75 78 76 70 77
REMARK SMILES IDX 71 78 77 79 79 80 72 81 73 82 74 83 75 84 76 85 52 86 53 87
REMARK SMILES IDX 62 88 54 89 55 90 61 91 63 92 56 93 57 94 58 95 59 96 60 97
REMARK H PARENT 18 6 4 24 22 28 84 47 50 58
REMARK Flexibility Score: inf
ROOT
ATOM      1  C   UNL A   1      33.791  28.028  25.903  1.00  0.00     0.042 C 
ENDROOT
BRANCH   1   2
ATOM      2  C   UNL A   1      33.207  29.060  24.937  1.00  0.00     0.118 C 
BRANCH   2   3
ATOM      3  N   UNL A   1      33.759  28.914  23.599  1.00  0.00    -0.352 N 
ATOM      4  C   UNL A   1      33.762  27.930  22.641  1.00  0.00     0.254 C 
ATOM      5  O   UNL A   1      34.319  28.233  21.585  1.00  0.00    -0.269 OA
ATOM      6  H   UNL A   1      34.249  29.717  23.309  1.00  0.00     0.163 HD
BRANCH   4   7
ATOM      7  C   UNL A   1      33.142  26.580  22.788  1.00  0.00     0.076 A 
ATOM      8  C   UNL A   1      33.240  24.164  23.270  1.00  0.00    -0.017 A 
ATOM      9  C   UNL A   1      31.858  24.067  23.101  1.00  0.00     0.012 A 
ATOM     10  C   UNL A   1      33.861  25.414  23.058  1.00  0.00     0.025 A 
ATOM     11  C   UNL A   1      31.122  25.204  22.765  1.00  0.00     0.041 A 
ATOM     12  C   UNL A   1      31.757  26.443  22.629  1.00  0.00     0.135 A 
ATOM     13  F   UNL A   1      30.974  27.492  22.335  1.00  0.00    -0.206 F 
BRANCH   8  14
ATOM     14  C   UNL A   1      34.088  23.022  23.637  1.00  0.00    -0.016 A 
ATOM     15  C   UNL A   1      34.289  20.868  24.787  1.00  0.00     0.041 A 
ATOM     16  C   UNL A   1      35.678  21.021  24.780  1.00  0.00     0.026 A 
ATOM     17  C   UNL A   1      33.506  21.870  24.211  1.00  0.00     0.034 A 
ATOM     18  C   UNL A   1      36.273  22.117  24.152  1.00  0.00     0.003 A 
ATOM     19  C   UNL A   1      35.483  23.111  23.577  1.00  0.00     0.009 A 
BRANCH  15  20
ATOM     20  N   UNL A   1      33.767  19.760  25.475  1.00  0.00    -0.326 N 
ATOM     21  C   UNL A   1      32.547  18.554  23.666  1.00  0.00     0.114 C 
ATOM     22  C   UNL A   1      32.891  18.780  25.112  1.00  0.00     0.221 C 
ATOM     23  O   UNL A   1      32.433  18.035  25.982  1.00  0.00    -0.275 OA
ATOM     24  H   UNL A   1      34.098  19.675  26.399  1.00  0.00     0.169 HD
ENDBRANCH  15  20
ENDBRANCH   8  14
ENDBRANCH   4   7
ENDBRANCH   2   3
ENDBRANCH   1   2
BRANCH   1  25
ATOM     25  C   UNL A   1      33.492  28.355  27.367  1.00  0.00     0.118 C 
BRANCH  25  26
ATOM     26  N   UNL A   1      33.452  29.796  27.605  1.00  0.00    -0.352 N 
ATOM     27  C   UNL A   1      34.388  30.628  28.172  1.00  0.00     0.251 C 
ATOM     28  H   UNL A   1      32.624  30.243  27.312  1.00  0.00     0.163 HD
ATOM     29  O   UNL A   1      34.070  31.761  28.510  1.00  0.00    -0.269 OA
BRANCH  27  30
ATOM     30  C   UNL A   1      35.772  30.152  28.371  1.00  0.00     0.039 A 
ATOM     31  C   UNL A   1      36.670  30.173  27.300  1.00  0.00     0.014 A 
ATOM     32  C   UNL A   1      36.172  29.664  29.616  1.00  0.00     0.014 A 
ATOM     33  C   UNL A   1      37.994  29.771  27.499  1.00  0.00     0.010 A 
ATOM     34  C   UNL A   1      37.505  29.341  29.832  1.00  0.00     0.010 A 
ATOM     35  C   UNL A   1      38.429  29.388  28.777  1.00  0.00    -0.014 A 
BRANCH  35  36
ATOM     36  C   UNL A   1      39.834  28.999  29.060  1.00  0.00     0.031 A 
ATOM     37  C   UNL A   1      40.792  30.039  29.574  1.00  0.00     0.074 A 
ATOM     38  C   UNL A   1      40.270  27.764  28.744  1.00  0.00     0.049 A 
ATOM     39  N   UNL A   1      42.094  29.994  29.664  1.00  0.00    -0.248 NA
ATOM     40  C   UNL A   1      40.203  31.319  30.006  1.00  0.00     0.031 C 
ATOM     41  C   UNL A   1      39.440  26.676  28.222  1.00  0.00     0.029 A 
ATOM     42  N   UNL A   1      41.531  27.222  28.792  1.00  0.00    -0.354 N 
ATOM     43  C   UNL A   1      42.483  31.244  30.135  1.00  0.00     0.074 A 
ATOM     44  C   UNL A   1      41.284  32.041  30.262  1.00  0.00     0.031 C 
ATOM     45  C   UNL A   1      40.211  25.598  28.005  1.00  0.00     0.029 A 
ATOM     46  C   UNL A   1      41.596  25.931  28.319  1.00  0.00     0.049 A 
ATOM     47  H   UNL A   1      42.314  27.711  29.132  1.00  0.00     0.167 HD
ATOM     48  C   UNL A   1      43.725  31.677  30.454  1.00  0.00     0.037 A 
ATOM     49  C   UNL A   1      42.657  25.120  28.138  1.00  0.00     0.037 A 
ATOM     50  C   UNL A   1      44.905  30.859  30.357  1.00  0.00     0.049 A 
ATOM     51  C   UNL A   1      44.032  25.631  28.485  1.00  0.00     0.074 A 
ATOM     52  C   UNL A   1      46.210  31.189  30.677  1.00  0.00     0.029 A 
ATOM     53  N   UNL A   1      44.919  29.543  29.919  1.00  0.00    -0.354 N 
ATOM     54  N   UNL A   1      44.382  26.810  28.942  1.00  0.00    -0.248 NA
ATOM     55  C   UNL A   1      45.156  24.705  28.292  1.00  0.00     0.031 C 
ATOM     56  C   UNL A   1      47.018  30.082  30.406  1.00  0.00     0.029 A 
ATOM     57  C   UNL A   1      46.210  29.046  29.963  1.00  0.00     0.049 A 
ATOM     58  H   UNL A   1      44.129  29.037  29.622  1.00  0.00     0.167 HD
ATOM     59  C   UNL A   1      45.757  26.748  29.139  1.00  0.00     0.074 A 
ATOM     60  C   UNL A   1      46.178  25.421  28.743  1.00  0.00     0.031 C 
ATOM     61  C   UNL A   1      46.596  27.703  29.609  1.00  0.00     0.037 A 
BRANCH  48  62
ATOM     62  C   UNL A   1      43.869  33.087  30.952  1.00  0.00     0.058 A 
ATOM     63  C   UNL A   1      43.751  33.399  32.316  1.00  0.00     0.135 A 
ATOM     64  C   UNL A   1      44.168  34.135  30.066  1.00  0.00     0.135 A 
ATOM     65  F   UNL A   1      43.449  32.439  33.205  1.00  0.00    -0.206 F 
ATOM     66  C   UNL A   1      43.900  34.701  32.781  1.00  0.00     0.059 A 
ATOM     67  C   UNL A   1      44.350  35.440  30.513  1.00  0.00     0.059 A 
ATOM     68  F   UNL A   1      44.290  33.895  28.750  1.00  0.00    -0.206 F 
ATOM     69  C   UNL A   1      44.202  35.715  31.872  1.00  0.00     0.060 A 
BRANCH  69  70
ATOM     70  S   UNL A   1      44.407  37.396  32.496  1.00  0.00     0.124 S 
ATOM     71  O   UNL A   1      44.198  38.184  31.284  1.00  0.00    -0.237 OA
ATOM     72  O   UNL A   1      43.352  37.487  33.499  1.00  0.00    -0.237 OA
ATOM     73  O   UNL A   1      45.769  37.401  33.020  1.00  0.00    -0.744 OA
ENDBRANCH  69  70
ENDBRANCH  48  62
BRANCH  49  74
ATOM     74  C   UNL A   1      42.469  23.739  27.619  1.00  0.00     0.058 A 
ATOM     75  C   UNL A   1      42.405  22.646  28.498  1.00  0.00     0.135 A 
ATOM     76  C   UNL A   1      42.366  23.476  26.245  1.00  0.00     0.135 A 
ATOM     77  F   UNL A   1      42.502  22.845  29.822  1.00  0.00    -0.206 F 
ATOM     78  C   UNL A   1      42.276  21.341  28.034  1.00  0.00     0.059 A 
ATOM     79  C   UNL A   1      42.209  22.182  25.757  1.00  0.00     0.059 A 
ATOM     80  F   UNL A   1      42.401  24.486  25.362  1.00  0.00    -0.206 F 
ATOM     81  C   UNL A   1      42.183  21.120  26.659  1.00  0.00     0.060 A 
BRANCH  81  82
ATOM     82  S   UNL A   1      41.998  19.423  26.065  1.00  0.00     0.124 S 
ATOM     83  O   UNL A   1      42.872  19.426  24.898  1.00  0.00    -0.237 OA
ATOM     84  O   UNL A   1      42.462  18.645  27.210  1.00  0.00    -0.237 OA
ATOM     85  O   UNL A   1      40.569  19.320  25.785  1.00  0.00    -0.744 OA
ENDBRANCH  81  82
ENDBRANCH  49  74
BRANCH  61  86
ATOM     86  C   UNL A   1      48.038  27.334  29.811  1.00  0.00     0.058 A 
ATOM     87  C   UNL A   1      49.005  27.544  28.817  1.00  0.00     0.135 A 
ATOM     88  C   UNL A   1      48.469  26.856  31.060  1.00  0.00     0.135 A 
ATOM     89  F   UNL A   1      48.642  27.990  27.605  1.00  0.00    -0.206 F 
ATOM     90  C   UNL A   1      50.352  27.291  29.055  1.00  0.00     0.059 A 
ATOM     91  C   UNL A   1      49.813  26.621  31.328  1.00  0.00     0.059 A 
ATOM     92  F   UNL A   1      47.581  26.646  32.046  1.00  0.00    -0.206 F 
ATOM     93  C   UNL A   1      50.747  26.841  30.317  1.00  0.00     0.060 A 
BRANCH  93  94
ATOM     94  S   UNL A   1      52.506  26.593  30.635  1.00  0.00     0.124 S 
ATOM     95  O   UNL A   1      53.022  26.372  29.288  1.00  0.00    -0.237 OA
ATOM     96  O   UNL A   1      52.890  27.854  31.263  1.00  0.00    -0.237 OA
ATOM     97  O   UNL A   1      52.532  25.428  31.516  1.00  0.00    -0.744 OA
ENDBRANCH  93  94
ENDBRANCH  61  86
ENDBRANCH  35  36
ENDBRANCH  27  30
ENDBRANCH  25  26
ENDBRANCH   1  25
TORSDOF 15
ENDMDL
MODEL 2
REMARK VINA RESULT:     -12.4      3.885      6.555
REMARK SMILES CC(=O)Nc1cccc(-c2ccc(F)c(C(=O)NCCCNC(=O)c3ccc(-c4c5nc(c(-c6c(F)cc(S(=O)(=O)[O-])cc6F)c6ccc([nH]6)c(-c6c(F)cc(S(=O)(=O)[O-])cc6F)c6nc(c(-c7c(F)cc(S(=O)(=O)[O-])cc7F)c7ccc4[nH]7)C=C6)C=C5)cc3)c2)c1
REMARK SMILES IDX 20 1 19 2 18 3 16 4 17 5 15 7 10 8 11 9 91 10 12 11 13 12
REMARK SMILES IDX 14 13 9 14 5 15 6 16 92 17 7 18 8 19 4 20 1 21 2 22 3 23
REMARK SMILES IDX 21 25 22 26 23 27 24 29 25 30 26 31 90 32 27 33 89 34 28 35
REMARK SMILES IDX 29 36 30 37 83 38 31 39 88 40 82 41 84 42 32 43 87 44 81 45
REMARK SMILES IDX 80 46 33 48 67 49 46 50 66 51 47 52 50 53 65 54 85 55 48 56
REMARK SMILES IDX 49 57 64 59 86 60 51 61 34 62 35 63 44 64 36 65 37 66 43 67
REMARK SMILES IDX 45 68 38 69 39 70 40 71 41 72 42 73 68 74 69 75 78 76 70 77
REMARK SMILES IDX 71 78 77 79 79 80 72 81 73 82 74 83 75 84 76 85 52 86 53 87
REMARK SMILES IDX 62 88 54 89 55 90 61 91 63 92 56 93 57 94 58 95 59 96 60 97
REMARK H PARENT 18 6 4 24 22 28 84 47 50 58
REMARK Flexibility Score: inf
ROOT
ATOM      1  C   UNL A   1      34.622  32.760  30.751  1.00  0.00     0.042 C 
ENDROOT
BRANCH   1   2
ATOM      2  C   UNL A   1      34.832  34.132  31.393  1.00  0.00     0.118 C 
BRANCH   2   3
ATOM      3  N   UNL A   1      36.206  34.588  31.246  1.00  0.00    -0.352 N 
ATOM      4  C   UNL A   1      37.413  34.262  31.814  1.00  0.00     0.254 C 
ATOM      5  O   UNL A   1      38.384  34.870  31.360  1.00  0.00    -0.269 OA
ATOM      6  H   UNL A   1      36.291  35.304  30.576  1.00  0.00     0.163 HD
BRANCH   4   7
ATOM      7  C   UNL A   1      37.617  33.246  32.889  1.00  0.00     0.076 A 
ATOM      8  C   UNL A   1      38.317  31.027  33.703  1.00  0.00    -0.017 A 
ATOM      9  C   UNL A   1      38.022  31.406  35.013  1.00  0.00     0.012 A 
ATOM     10  C   UNL A   1      38.058  31.942  32.659  1.00  0.00     0.025 A 
ATOM     11  C   UNL A   1      37.516  32.682  35.265  1.00  0.00     0.041 A 
ATOM     12  C   UNL A   1      37.335  33.591  34.218  1.00  0.00     0.135 A 
ATOM     13  F   UNL A   1      36.873  34.806  34.548  1.00  0.00    -0.206 F 
BRANCH   8  14
ATOM     14  C   UNL A   1      38.865  29.710  33.350  1.00  0.00    -0.016 A 
ATOM     15  C   UNL A   1      40.813  28.382  32.684  1.00  0.00     0.041 A 
ATOM     16  C   UNL A   1      39.947  27.381  32.236  1.00  0.00     0.026 A 
ATOM     17  C   UNL A   1      40.263  29.537  33.241  1.00  0.00     0.034 A 
ATOM     18  C   UNL A   1      38.566  27.504  32.402  1.00  0.00     0.003 A 
ATOM     19  C   UNL A   1      38.027  28.660  32.962  1.00  0.00     0.009 A 
BRANCH  15  20
ATOM     20  N   UNL A   1      42.185  28.202  32.442  1.00  0.00    -0.326 N 
ATOM     21  C   UNL A   1      43.070  27.810  34.741  1.00  0.00     0.114 C 
ATOM     22  C   UNL A   1      43.260  28.087  33.275  1.00  0.00     0.221 C 
ATOM     23  O   UNL A   1      44.395  28.147  32.797  1.00  0.00    -0.275 OA
ATOM     24  H   UNL A   1      42.416  28.150  31.486  1.00  0.00     0.169 HD
ENDBRANCH  15  20
ENDBRANCH   8  14
ENDBRANCH   4   7
ENDBRANCH   2   3
ENDBRANCH   1   2
BRANCH   1  25
ATOM     25  C   UNL A   1      34.788  32.788  29.231  1.00  0.00     0.118 C 
BRANCH  25  26
ATOM     26  N   UNL A   1      34.027  31.724  28.581  1.00  0.00    -0.352 N 
ATOM     27  C   UNL A   1      34.455  30.556  27.996  1.00  0.00     0.251 C 
ATOM     28  H   UNL A   1      33.052  31.866  28.559  1.00  0.00     0.163 HD
ATOM     29  O   UNL A   1      33.690  29.915  27.287  1.00  0.00    -0.269 OA
BRANCH  27  30
ATOM     30  C   UNL A   1      35.834  30.080  28.226  1.00  0.00     0.039 A 
ATOM     31  C   UNL A   1      36.760  30.113  27.180  1.00  0.00     0.014 A 
ATOM     32  C   UNL A   1      36.202  29.579  29.476  1.00  0.00     0.014 A 
ATOM     33  C   UNL A   1      38.078  29.710  27.409  1.00  0.00     0.010 A 
ATOM     34  C   UNL A   1      37.529  29.256  29.724  1.00  0.00     0.010 A 
ATOM     35  C   UNL A   1      38.480  29.315  28.694  1.00  0.00    -0.014 A 
BRANCH  35  36
ATOM     36  C   UNL A   1      39.877  28.924  29.009  1.00  0.00     0.031 A 
ATOM     37  C   UNL A   1      40.821  29.961  29.556  1.00  0.00     0.074 A 
ATOM     38  C   UNL A   1      40.322  27.692  28.695  1.00  0.00     0.049 A 
ATOM     39  N   UNL A   1      42.121  29.915  29.679  1.00  0.00    -0.248 NA
ATOM     40  C   UNL A   1      40.221  31.237  29.983  1.00  0.00     0.031 C 
ATOM     41  C   UNL A   1      39.507  26.607  28.143  1.00  0.00     0.029 A 
ATOM     42  N   UNL A   1      41.582  27.150  28.771  1.00  0.00    -0.354 N 
ATOM     43  C   UNL A   1      42.497  31.161  30.169  1.00  0.00     0.074 A 
ATOM     44  C   UNL A   1      41.295  31.958  30.271  1.00  0.00     0.031 C 
ATOM     45  C   UNL A   1      40.284  25.532  27.938  1.00  0.00     0.029 A 
ATOM     46  C   UNL A   1      41.660  25.863  28.290  1.00  0.00     0.049 A 
ATOM     47  H   UNL A   1      42.356  27.637  29.135  1.00  0.00     0.167 HD
ATOM     48  C   UNL A   1      43.730  31.593  30.523  1.00  0.00     0.037 A 
ATOM     49  C   UNL A   1      42.726  25.054  28.130  1.00  0.00     0.037 A 
ATOM     50  C   UNL A   1      44.913  30.777  30.449  1.00  0.00     0.049 A 
ATOM     51  C   UNL A   1      44.091  25.563  28.515  1.00  0.00     0.074 A 
ATOM     52  C   UNL A   1      46.209  31.105  30.805  1.00  0.00     0.029 A 
ATOM     53  N   UNL A   1      44.939  29.464  30.002  1.00  0.00    -0.354 N 
ATOM     54  N   UNL A   1      44.428  26.738  28.990  1.00  0.00    -0.248 NA
ATOM     55  C   UNL A   1      45.221  24.639  28.344  1.00  0.00     0.031 C 
ATOM     56  C   UNL A   1      47.024  30.000  30.546  1.00  0.00     0.029 A 
ATOM     57  C   UNL A   1      46.229  28.967  30.075  1.00  0.00     0.049 A 
ATOM     58  H   UNL A   1      44.157  28.959  29.681  1.00  0.00     0.167 HD
ATOM     59  C   UNL A   1      45.798  26.676  29.222  1.00  0.00     0.074 A 
ATOM     60  C   UNL A   1      46.230  25.352  28.826  1.00  0.00     0.031 C 
ATOM     61  C   UNL A   1      46.625  27.628  29.721  1.00  0.00     0.037 A 
BRANCH  48  62
ATOM     62  C   UNL A   1      43.860  32.999  31.035  1.00  0.00     0.058 A 
ATOM     63  C   UNL A   1      43.850  33.283  32.411  1.00  0.00     0.135 A 
ATOM     64  C   UNL A   1      44.039  34.073  30.148  1.00  0.00     0.135 A 
ATOM     65  F   UNL A   1      43.665  32.296  33.303  1.00  0.00    -0.206 F 
ATOM     66  C   UNL A   1      43.986  34.582  32.887  1.00  0.00     0.059 A 
ATOM     67  C   UNL A   1      44.207  35.378  30.604  1.00  0.00     0.059 A 
ATOM     68  F   UNL A   1      44.055  33.861  28.823  1.00  0.00    -0.206 F 
ATOM     69  C   UNL A   1      44.166  35.623  31.976  1.00  0.00     0.060 A 
BRANCH  69  70
ATOM     70  S   UNL A   1      44.358  37.300  32.615  1.00  0.00     0.124 S 
ATOM     71  O   UNL A   1      43.246  37.381  33.558  1.00  0.00    -0.237 OA
ATOM     72  O   UNL A   1      45.690  37.257  33.209  1.00  0.00    -0.237 OA
ATOM     73  O   UNL A   1      44.232  38.134  31.424  1.00  0.00    -0.744 OA
ENDBRANCH  69  70
ENDBRANCH  48  62
BRANCH  49  74
ATOM     74  C   UNL A   1      42.552  23.677  27.596  1.00  0.00     0.058 A 
ATOM     75  C   UNL A   1      42.408  22.584  28.465  1.00  0.00     0.135 A 
ATOM     76  C   UNL A   1      42.542  23.417  26.217  1.00  0.00     0.135 A 
ATOM     77  F   UNL A   1      42.415  22.779  29.792  1.00  0.00    -0.206 F 
ATOM     78  C   UNL A   1      42.291  21.282  27.989  1.00  0.00     0.059 A 
ATOM     79  C   UNL A   1      42.398  22.127  25.716  1.00  0.00     0.059 A 
ATOM     80  F   UNL A   1      42.656  24.428  25.341  1.00  0.00    -0.206 F 
ATOM     81  C   UNL A   1      42.291  21.064  26.611  1.00  0.00     0.060 A 
BRANCH  81  82
ATOM     82  S   UNL A   1      42.121  19.371  26.002  1.00  0.00     0.124 S 
ATOM     83  O   UNL A   1      42.586  18.600  27.149  1.00  0.00    -0.237 OA
ATOM     84  O   UNL A   1      40.692  19.291  25.714  1.00  0.00    -0.237 OA
ATOM     85  O   UNL A   1      42.991  19.348  24.829  1.00  0.00    -0.744 OA
ENDBRANCH  81  82
ENDBRANCH  49  74
BRANCH  61  86
ATOM     86  C   UNL A   1      48.061  27.257  29.956  1.00  0.00     0.058 A 
ATOM     87  C   UNL A   1      49.061  27.517  29.007  1.00  0.00     0.135 A 
ATOM     88  C   UNL A   1      48.451  26.726  31.197  1.00  0.00     0.135 A 
ATOM     89  F   UNL A   1      48.737  28.016  27.805  1.00  0.00    -0.206 F 
ATOM     90  C   UNL A   1      50.401  27.261  29.281  1.00  0.00     0.059 A 
ATOM     91  C   UNL A   1      49.787  26.486  31.501  1.00  0.00     0.059 A 
ATOM     92  F   UNL A   1      47.531  26.467  32.141  1.00  0.00    -0.206 F 
ATOM     93  C   UNL A   1      50.754  26.757  30.535  1.00  0.00     0.060 A 
BRANCH  93  94
ATOM     94  S   UNL A   1      52.503  26.504  30.903  1.00  0.00     0.124 S 
ATOM     95  O   UNL A   1      52.844  27.747  31.587  1.00  0.00    -0.237 OA
ATOM     96  O   UNL A   1      52.474  25.307  31.739  1.00  0.00    -0.237 OA
ATOM     97  O   UNL A   1      53.106  26.327  29.585  1.00  0.00    -0.744 OA
ENDBRANCH  93  94
ENDBRANCH  61  86
ENDBRANCH  35  36
ENDBRANCH  27  30
ENDBRANCH  25  26
ENDBRANCH   1  25
TORSDOF 15
ENDMDL
MODEL 3
REMARK VINA RESULT:     -12.3      1.440      2.130
REMARK SMILES CC(=O)Nc1cccc(-c2ccc(F)c(C(=O)NCCCNC(=O)c3ccc(-c4c5nc(c(-c6c(F)cc(S(=O)(=O)[O-])cc6F)c6ccc([nH]6)c(-c6c(F)cc(S(=O)(=O)[O-])cc6F)c6nc(c(-c7c(F)cc(S(=O)(=O)[O-])cc7F)c7ccc4[nH]7)C=C6)C=C5)cc3)c2)c1
REMARK SMILES IDX 20 1 19 2 18 3 16 4 17 5 15 7 10 8 11 9 91 10 12 11 13 12
REMARK SMILES IDX 14 13 9 14 5 15 6 16 92 17 7 18 8 19 4 20 1 21 2 22 3 23
REMARK SMILES IDX 21 25 22 26 23 27 24 29 25 30 26 31 90 32 27 33 89 34 28 35
REMARK SMILES IDX 29 36 30 37 83 38 31 39 88 40 82 41 84 42 32 43 87 44 81 45
REMARK SMILES IDX 80 46 33 48 67 49 46 50 66 51 47 52 50 53 65 54 85 55 48 56
REMARK SMILES IDX 49 57 64 59 86 60 51 61 34 62 35 63 44 64 36 65 37 66 43 67
REMARK SMILES IDX 45 68 38 69 39 70 40 71 41 72 42 73 68 74 69 75 78 76 70 77
REMARK SMILES IDX 71 78 77 79 79 80 72 81 73 82 74 83 75 84 76 85 52 86 53 87
REMARK SMILES IDX 62 88 54 89 55 90 61 91 63 92 56 93 57 94 58 95 59 96 60 97
REMARK H PARENT 18 6 4 24 22 28 84 47 50 58
REMARK Flexibility Score: inf
ROOT
ATOM      1  C   UNL A   1      33.639  28.379  25.124  1.00  0.00     0.042 C 
ENDROOT
BRANCH   1   2
ATOM      2  C   UNL A   1      33.155  27.035  24.577  1.00  0.00     0.118 C 
BRANCH   2   3
ATOM      3  N   UNL A   1      32.411  26.286  25.578  1.00  0.00    -0.352 N 
ATOM      4  C   UNL A   1      32.466  25.014  26.093  1.00  0.00     0.254 C 
ATOM      5  O   UNL A   1      31.660  24.782  26.996  1.00  0.00    -0.269 OA
ATOM      6  H   UNL A   1      31.692  26.822  25.984  1.00  0.00     0.163 HD
BRANCH   4   7
ATOM      7  C   UNL A   1      33.415  23.947  25.659  1.00  0.00     0.076 A 
ATOM      8  C   UNL A   1      33.938  21.709  24.765  1.00  0.00    -0.017 A 
ATOM      9  C   UNL A   1      35.301  22.005  24.801  1.00  0.00     0.012 A 
ATOM     10  C   UNL A   1      33.023  22.672  25.245  1.00  0.00     0.025 A 
ATOM     11  C   UNL A   1      35.725  23.247  25.273  1.00  0.00     0.041 A 
ATOM     12  C   UNL A   1      34.792  24.207  25.678  1.00  0.00     0.135 A 
ATOM     13  F   UNL A   1      35.280  25.387  26.089  1.00  0.00    -0.206 F 
BRANCH   8  14
ATOM     14  C   UNL A   1      33.403  20.433  24.271  1.00  0.00    -0.016 A 
ATOM     15  C   UNL A   1      33.705  18.016  24.012  1.00  0.00     0.041 A 
ATOM     16  C   UNL A   1      32.734  18.026  23.007  1.00  0.00     0.026 A 
ATOM     17  C   UNL A   1      34.029  19.220  24.638  1.00  0.00     0.034 A 
ATOM     18  C   UNL A   1      32.054  19.202  22.683  1.00  0.00     0.003 A 
ATOM     19  C   UNL A   1      32.382  20.400  23.316  1.00  0.00     0.009 A 
BRANCH  15  20
ATOM     20  N   UNL A   1      34.373  16.802  24.249  1.00  0.00    -0.326 N 
ATOM     21  C   UNL A   1      32.748  15.593  25.704  1.00  0.00     0.114 C 
ATOM     22  C   UNL A   1      34.105  15.750  25.076  1.00  0.00     0.221 C 
ATOM     23  O   UNL A   1      34.973  14.891  25.248  1.00  0.00    -0.275 OA
ATOM     24  H   UNL A   1      35.193  16.690  23.715  1.00  0.00     0.169 HD
ENDBRANCH  15  20
ENDBRANCH   8  14
ENDBRANCH   4   7
ENDBRANCH   2   3
ENDBRANCH   1   2
BRANCH   1  25
ATOM     25  C   UNL A   1      33.668  28.419  26.652  1.00  0.00     0.118 C 
BRANCH  25  26
ATOM     26  N   UNL A   1      33.543  29.781  27.163  1.00  0.00    -0.352 N 
ATOM     27  C   UNL A   1      34.385  30.507  27.972  1.00  0.00     0.251 C 
ATOM     28  H   UNL A   1      32.726  30.256  26.883  1.00  0.00     0.163 HD
ATOM     29  O   UNL A   1      33.987  31.542  28.491  1.00  0.00    -0.269 OA
BRANCH  27  30
ATOM     30  C   UNL A   1      35.765  30.036  28.209  1.00  0.00     0.039 A 
ATOM     31  C   UNL A   1      36.694  30.068  27.165  1.00  0.00     0.014 A 
ATOM     32  C   UNL A   1      36.130  29.542  29.462  1.00  0.00     0.014 A 
ATOM     33  C   UNL A   1      38.013  29.670  27.401  1.00  0.00     0.010 A 
ATOM     34  C   UNL A   1      37.457  29.224  29.716  1.00  0.00     0.010 A 
ATOM     35  C   UNL A   1      38.412  29.282  28.689  1.00  0.00    -0.014 A 
BRANCH  35  36
ATOM     36  C   UNL A   1      39.809  28.898  29.012  1.00  0.00     0.031 A 
ATOM     37  C   UNL A   1      40.745  29.938  29.565  1.00  0.00     0.074 A 
ATOM     38  C   UNL A   1      40.262  27.667  28.698  1.00  0.00     0.049 A 
ATOM     39  N   UNL A   1      42.044  29.898  29.694  1.00  0.00    -0.248 NA
ATOM     40  C   UNL A   1      40.137  31.211  29.990  1.00  0.00     0.031 C 
ATOM     41  C   UNL A   1      39.454  26.580  28.140  1.00  0.00     0.029 A 
ATOM     42  N   UNL A   1      41.523  27.132  28.780  1.00  0.00    -0.354 N 
ATOM     43  C   UNL A   1      42.412  31.145  30.189  1.00  0.00     0.074 A 
ATOM     44  C   UNL A   1      41.206  31.936  30.285  1.00  0.00     0.031 C 
ATOM     45  C   UNL A   1      40.237  25.508  27.937  1.00  0.00     0.029 A 
ATOM     46  C   UNL A   1      41.610  25.846  28.298  1.00  0.00     0.049 A 
ATOM     47  H   UNL A   1      42.293  27.621  29.148  1.00  0.00     0.167 HD
ATOM     48  C   UNL A   1      43.642  31.582  30.550  1.00  0.00     0.037 A 
ATOM     49  C   UNL A   1      42.681  25.042  28.142  1.00  0.00     0.037 A 
ATOM     50  C   UNL A   1      44.829  30.772  30.481  1.00  0.00     0.049 A 
ATOM     51  C   UNL A   1      44.042  25.557  28.535  1.00  0.00     0.074 A 
ATOM     52  C   UNL A   1      46.121  31.105  30.844  1.00  0.00     0.029 A 
ATOM     53  N   UNL A   1      44.863  29.459  30.032  1.00  0.00    -0.354 N 
ATOM     54  N   UNL A   1      44.370  26.733  29.013  1.00  0.00    -0.248 NA
ATOM     55  C   UNL A   1      45.176  24.638  28.369  1.00  0.00     0.031 C 
ATOM     56  C   UNL A   1      46.943  30.005  30.588  1.00  0.00     0.029 A 
ATOM     57  C   UNL A   1      46.155  28.969  30.111  1.00  0.00     0.049 A 
ATOM     58  H   UNL A   1      44.085  28.952  29.706  1.00  0.00     0.167 HD
ATOM     59  C   UNL A   1      45.740  26.677  29.252  1.00  0.00     0.074 A 
ATOM     60  C   UNL A   1      46.179  25.355  28.857  1.00  0.00     0.031 C 
ATOM     61  C   UNL A   1      46.559  27.632  29.757  1.00  0.00     0.037 A 
BRANCH  48  62
ATOM     62  C   UNL A   1      43.762  32.988  31.064  1.00  0.00     0.058 A 
ATOM     63  C   UNL A   1      43.649  33.280  32.434  1.00  0.00     0.135 A 
ATOM     64  C   UNL A   1      44.035  34.053  30.190  1.00  0.00     0.135 A 
ATOM     65  F   UNL A   1      43.372  32.304  33.312  1.00  0.00    -0.206 F 
ATOM     66  C   UNL A   1      43.776  34.579  32.914  1.00  0.00     0.059 A 
ATOM     67  C   UNL A   1      44.196  35.356  30.652  1.00  0.00     0.059 A 
ATOM     68  F   UNL A   1      44.151  33.832  28.870  1.00  0.00    -0.206 F 
ATOM     69  C   UNL A   1      44.052  35.610  32.015  1.00  0.00     0.060 A 
BRANCH  69  70
ATOM     70  S   UNL A   1      44.230  37.287  32.660  1.00  0.00     0.124 S 
ATOM     71  O   UNL A   1      43.189  37.317  33.683  1.00  0.00    -0.237 OA
ATOM     72  O   UNL A   1      45.603  37.286  33.154  1.00  0.00    -0.237 OA
ATOM     73  O   UNL A   1      43.987  38.128  31.493  1.00  0.00    -0.744 OA
ENDBRANCH  69  70
ENDBRANCH  48  62
BRANCH  49  74
ATOM     74  C   UNL A   1      42.516  23.664  27.605  1.00  0.00     0.058 A 
ATOM     75  C   UNL A   1      42.428  22.564  28.471  1.00  0.00     0.135 A 
ATOM     76  C   UNL A   1      42.460  23.414  26.226  1.00  0.00     0.135 A 
ATOM     77  F   UNL A   1      42.479  22.751  29.799  1.00  0.00    -0.206 F 
ATOM     78  C   UNL A   1      42.320  21.263  27.991  1.00  0.00     0.059 A 
ATOM     79  C   UNL A   1      42.325  22.124  25.721  1.00  0.00     0.059 A 
ATOM     80  F   UNL A   1      42.520  24.432  25.353  1.00  0.00    -0.206 F 
ATOM     81  C   UNL A   1      42.274  21.053  26.612  1.00  0.00     0.060 A 
BRANCH  81  82
ATOM     82  S   UNL A   1      42.117  19.361  25.998  1.00  0.00     0.124 S 
ATOM     83  O   UNL A   1      40.691  19.291  25.698  1.00  0.00    -0.237 OA
ATOM     84  O   UNL A   1      43.013  19.368  24.846  1.00  0.00    -0.237 OA
ATOM     85  O   UNL A   1      42.565  18.551  27.127  1.00  0.00    -0.744 OA
ENDBRANCH  81  82
ENDBRANCH  49  74
BRANCH  61  86
ATOM     86  C   UNL A   1      47.996  27.267  30.000  1.00  0.00     0.058 A 
ATOM     87  C   UNL A   1      49.005  27.572  29.075  1.00  0.00     0.135 A 
ATOM     88  C   UNL A   1      48.374  26.696  31.226  1.00  0.00     0.135 A 
ATOM     89  F   UNL A   1      48.694  28.110  27.886  1.00  0.00    -0.206 F 
ATOM     90  C   UNL A   1      50.344  27.320  29.358  1.00  0.00     0.059 A 
ATOM     91  C   UNL A   1      49.708  26.459  31.540  1.00  0.00     0.059 A 
ATOM     92  F   UNL A   1      47.444  26.394  32.147  1.00  0.00    -0.206 F 
ATOM     93  C   UNL A   1      50.686  26.774  30.598  1.00  0.00     0.060 A 
BRANCH  93  94
ATOM     94  S   UNL A   1      52.432  26.526  30.982  1.00  0.00     0.124 S 
ATOM     95  O   UNL A   1      52.996  26.295  29.656  1.00  0.00    -0.237 OA
ATOM     96  O   UNL A   1      52.794  27.791  31.614  1.00  0.00    -0.237 OA
ATOM     97  O   UNL A   1      52.424  25.368  31.871  1.00  0.00    -0.744 OA
ENDBRANCH  93  94
ENDBRANCH  61  86
ENDBRANCH  35  36
ENDBRANCH  27  30
ENDBRANCH  25  26
ENDBRANCH   1  25
TORSDOF 15
ENDMDL
