MODEL 1
REMARK VINA RESULT:     -12.6      0.000      0.000
REMARK SMILES COc1ccc(-c2csc(NC(=O)[C@H](CC(=O)NCCCNC(=O)c3ccc(-c4c5nc(c(-c6c(F)cc(S(=O)(=O)[O-])cc6F)c6ccc([nH]6)c(-c6c(F)cc(S(=O)(=O)[O-])cc6F)c6nc(c(-c7c(F)cc(S(=O)(=O)[O-])cc7F)c7ccc4[nH]7)C=C6)C=C5)cc3)[NH+]3CCCCC3)n2)cc1
REMARK SMILES IDX 19 1 18 2 16 3 17 4 15 6 14 7 12 8 11 9 13 11 10 12 7 13
REMARK SMILES IDX 8 14 97 15 9 16 6 17 3 18 4 19 99 20 5 21 98 22 2 23 1 24
REMARK SMILES IDX 91 25 92 26 96 27 93 29 95 30 94 31 20 32 21 33 22 34 23 35
REMARK SMILES IDX 24 37 25 38 26 39 90 40 27 41 89 42 28 43 29 44 30 45 83 46
REMARK SMILES IDX 31 47 88 48 82 49 84 50 32 51 87 52 81 53 80 54 33 56 67 57
REMARK SMILES IDX 46 58 66 59 47 60 50 61 65 62 85 63 48 64 49 65 64 67 86 68
REMARK SMILES IDX 51 69 34 70 35 71 44 72 36 73 37 74 43 75 45 76 38 77 39 78
REMARK SMILES IDX 40 79 41 80 42 81 68 82 69 83 78 84 70 85 71 86 77 87 79 88
REMARK SMILES IDX 72 89 73 90 74 91 75 92 76 93 52 94 53 95 62 96 54 97 55 98
REMARK SMILES IDX 61 99 63 100 56 101 57 102 58 103 59 104 60 105
REMARK H PARENT 18 5 11 10 91 28 22 36 84 55 50 66
REMARK Flexibility Score: inf
ROOT
ATOM      1  C   UNL A   1      37.924  21.472  25.612  1.00  0.00     0.117 C 
ENDROOT
BRANCH   1   2
ATOM      2  N   UNL A   1      37.602  21.861  24.248  1.00  0.00    -0.356 N 
ATOM      3  C   UNL A   1      36.474  22.425  23.718  1.00  0.00     0.226 C 
ATOM      4  O   UNL A   1      36.588  23.008  22.637  1.00  0.00    -0.275 OA
ATOM      5  H   UNL A   1      38.319  21.690  23.594  1.00  0.00     0.163 HD
BRANCH   3   6
ATOM      6  C   UNL A   1      35.143  22.388  24.440  1.00  0.00     0.175 C 
BRANCH   6   7
ATOM      7  C   UNL A   1      33.847  22.698  23.644  1.00  0.00     0.284 C 
BRANCH   7   8
ATOM      8  C   UNL A   1      32.607  21.915  24.198  1.00  0.00     0.285 C 
ATOM      9  N   UNL A   1      31.427  22.529  24.528  1.00  0.00    -0.297 N 
ATOM     10  H   UNL A   1      30.623  21.964  24.473  1.00  0.00     0.172 HD
ATOM     11  O   UNL A   1      32.628  20.675  24.184  1.00  0.00    -0.268 OA
BRANCH   9  12
ATOM     12  C   UNL A   1      31.216  23.821  24.925  1.00  0.00     0.190 A 
ATOM     13  C   UNL A   1      30.679  25.940  24.879  1.00  0.00     0.084 A 
ATOM     14  C   UNL A   1      31.096  25.858  26.192  1.00  0.00     0.097 A 
ATOM     15  N   UNL A   1      30.671  24.750  24.171  1.00  0.00    -0.220 NA
ATOM     16  S   UNL A   1      31.410  24.238  26.570  1.00  0.00    -0.105 S 
BRANCH  13  17
ATOM     17  C   UNL A   1      30.133  27.188  24.401  1.00  0.00     0.001 A 
ATOM     18  C   UNL A   1      29.508  29.534  23.035  1.00  0.00     0.118 A 
ATOM     19  C   UNL A   1      28.684  28.411  22.907  1.00  0.00     0.047 A 
ATOM     20  C   UNL A   1      30.592  29.509  23.910  1.00  0.00     0.047 A 
ATOM     21  C   UNL A   1      29.000  27.227  23.582  1.00  0.00     0.014 A 
ATOM     22  C   UNL A   1      30.902  28.339  24.594  1.00  0.00     0.014 A 
BRANCH  18  23
ATOM     23  O   UNL A   1      29.168  30.634  22.297  1.00  0.00    -0.497 OA
ATOM     24  C   UNL A   1      28.002  30.451  21.494  1.00  0.00     0.278 C 
ENDBRANCH  18  23
ENDBRANCH  13  17
ENDBRANCH   9  12
ENDBRANCH   7   8
BRANCH   7  25
ATOM     25  N   UNL A   1      33.480  24.066  23.199  1.00  0.00    -0.324 N 
ATOM     26  C   UNL A   1      34.317  25.153  23.662  1.00  0.00     0.262 C 
ATOM     27  C   UNL A   1      33.252  24.174  21.749  1.00  0.00     0.262 C 
ATOM     28  H   UNL A   1      32.591  24.194  23.684  1.00  0.00     0.348 HD
ATOM     29  C   UNL A   1      33.673  26.515  23.409  1.00  0.00     0.062 C 
ATOM     30  C   UNL A   1      32.539  25.488  21.416  1.00  0.00     0.062 C 
ATOM     31  C   UNL A   1      33.283  26.706  21.955  1.00  0.00     0.012 C 
ENDBRANCH   7  25
ENDBRANCH   6   7
ENDBRANCH   3   6
ENDBRANCH   1   2
BRANCH   1  32
ATOM     32  C   UNL A   1      39.398  21.573  26.052  1.00  0.00     0.042 C 
BRANCH  32  33
ATOM     33  C   UNL A   1      39.789  22.709  27.009  1.00  0.00     0.118 C 
BRANCH  33  34
ATOM     34  N   UNL A   1      40.991  23.366  26.515  1.00  0.00    -0.352 N 
ATOM     35  C   UNL A   1      41.386  24.675  26.453  1.00  0.00     0.251 C 
ATOM     36  H   UNL A   1      41.658  22.739  26.150  1.00  0.00     0.163 HD
ATOM     37  O   UNL A   1      42.187  24.965  25.561  1.00  0.00    -0.269 OA
BRANCH  35  38
ATOM     38  C   UNL A   1      40.972  25.738  27.411  1.00  0.00     0.039 A 
ATOM     39  C   UNL A   1      41.871  26.798  27.609  1.00  0.00     0.014 A 
ATOM     40  C   UNL A   1      39.869  25.632  28.265  1.00  0.00     0.014 A 
ATOM     41  C   UNL A   1      41.697  27.710  28.657  1.00  0.00     0.010 A 
ATOM     42  C   UNL A   1      39.673  26.576  29.296  1.00  0.00     0.010 A 
ATOM     43  C   UNL A   1      40.599  27.611  29.524  1.00  0.00    -0.014 A 
BRANCH  43  44
ATOM     44  C   UNL A   1      40.459  28.577  30.659  1.00  0.00     0.031 A 
ATOM     45  C   UNL A   1      41.344  28.495  31.881  1.00  0.00     0.074 A 
ATOM     46  C   UNL A   1      39.551  29.572  30.585  1.00  0.00     0.049 A 
ATOM     47  N   UNL A   1      41.378  29.276  32.935  1.00  0.00    -0.248 NA
ATOM     48  C   UNL A   1      42.311  27.391  31.928  1.00  0.00     0.031 C 
ATOM     49  C   UNL A   1      38.627  29.785  29.471  1.00  0.00     0.029 A 
ATOM     50  N   UNL A   1      39.258  30.594  31.458  1.00  0.00    -0.354 N 
ATOM     51  C   UNL A   1      42.359  28.755  33.774  1.00  0.00     0.074 A 
ATOM     52  C   UNL A   1      42.870  27.568  33.118  1.00  0.00     0.031 C 
ATOM     53  C   UNL A   1      37.885  30.876  29.718  1.00  0.00     0.029 A 
ATOM     54  C   UNL A   1      38.247  31.420  31.025  1.00  0.00     0.049 A 
ATOM     55  H   UNL A   1      39.728  30.723  32.314  1.00  0.00     0.167 HD
ATOM     56  C   UNL A   1      42.801  29.222  34.970  1.00  0.00     0.037 A 
ATOM     57  C   UNL A   1      37.663  32.488  31.607  1.00  0.00     0.037 A 
ATOM     58  C   UNL A   1      42.304  30.409  35.623  1.00  0.00     0.049 A 
ATOM     59  C   UNL A   1      38.146  32.971  32.949  1.00  0.00     0.074 A 
ATOM     60  C   UNL A   1      42.735  30.982  36.810  1.00  0.00     0.029 A 
ATOM     61  N   UNL A   1      41.259  31.198  35.162  1.00  0.00    -0.354 N 
ATOM     62  N   UNL A   1      39.112  32.496  33.697  1.00  0.00    -0.248 NA
ATOM     63  C   UNL A   1      37.463  34.140  33.522  1.00  0.00     0.031 C 
ATOM     64  C   UNL A   1      41.914  32.079  37.096  1.00  0.00     0.029 A 
ATOM     65  C   UNL A   1      41.012  32.231  36.057  1.00  0.00     0.049 A 
ATOM     66  H   UNL A   1      40.768  31.048  34.324  1.00  0.00     0.167 HD
ATOM     67  C   UNL A   1      39.167  33.319  34.818  1.00  0.00     0.074 A 
ATOM     68  C   UNL A   1      38.147  34.332  34.643  1.00  0.00     0.031 C 
ATOM     69  C   UNL A   1      39.993  33.240  35.890  1.00  0.00     0.037 A 
BRANCH  56  70
ATOM     70  C   UNL A   1      43.874  28.431  35.677  1.00  0.00     0.058 A 
ATOM     71  C   UNL A   1      45.240  28.654  35.442  1.00  0.00     0.135 A 
ATOM     72  C   UNL A   1      43.529  27.461  36.634  1.00  0.00     0.135 A 
ATOM     73  F   UNL A   1      45.631  29.565  34.537  1.00  0.00    -0.206 F 
ATOM     74  C   UNL A   1      46.223  27.913  36.094  1.00  0.00     0.059 A 
ATOM     75  C   UNL A   1      44.495  26.732  37.321  1.00  0.00     0.059 A 
ATOM     76  F   UNL A   1      42.239  27.211  36.908  1.00  0.00    -0.206 F 
ATOM     77  C   UNL A   1      45.839  26.950  37.029  1.00  0.00     0.060 A 
BRANCH  77  78
ATOM     78  S   UNL A   1      47.124  25.976  37.842  1.00  0.00     0.124 S 
ATOM     79  O   UNL A   1      47.387  24.948  36.840  1.00  0.00    -0.237 OA
ATOM     80  O   UNL A   1      48.185  26.957  38.038  1.00  0.00    -0.237 OA
ATOM     81  O   UNL A   1      46.474  25.508  39.063  1.00  0.00    -0.744 OA
ENDBRANCH  77  78
ENDBRANCH  56  70
BRANCH  57  82
ATOM     82  C   UNL A   1      36.543  33.177  30.910  1.00  0.00     0.058 A 
ATOM     83  C   UNL A   1      35.216  33.025  31.336  1.00  0.00     0.135 A 
ATOM     84  C   UNL A   1      36.787  34.032  29.822  1.00  0.00     0.135 A 
ATOM     85  F   UNL A   1      34.930  32.208  32.361  1.00  0.00    -0.206 F 
ATOM     86  C   UNL A   1      34.169  33.695  30.712  1.00  0.00     0.059 A 
ATOM     87  C   UNL A   1      35.760  34.734  29.199  1.00  0.00     0.059 A 
ATOM     88  F   UNL A   1      38.041  34.219  29.383  1.00  0.00    -0.206 F 
ATOM     89  C   UNL A   1      34.454  34.556  29.649  1.00  0.00     0.060 A 
BRANCH  89  90
ATOM     90  S   UNL A   1      33.100  35.489  28.902  1.00  0.00     0.124 S 
ATOM     91  O   UNL A   1      33.814  36.600  28.282  1.00  0.00    -0.237 OA
ATOM     92  O   UNL A   1      32.524  34.508  27.986  1.00  0.00    -0.237 OA
ATOM     93  O   UNL A   1      32.261  35.836  30.043  1.00  0.00    -0.744 OA
ENDBRANCH  89  90
ENDBRANCH  57  82
BRANCH  69  94
ATOM     94  C   UNL A   1      39.856  34.294  36.960  1.00  0.00     0.058 A 
ATOM     95  C   UNL A   1      40.465  35.554  36.845  1.00  0.00     0.135 A 
ATOM     96  C   UNL A   1      39.066  34.056  38.098  1.00  0.00     0.135 A 
ATOM     97  F   UNL A   1      41.238  35.836  35.785  1.00  0.00    -0.206 F 
ATOM     98  C   UNL A   1      40.315  36.530  37.827  1.00  0.00     0.059 A 
ATOM     99  C   UNL A   1      38.877  35.028  39.078  1.00  0.00     0.059 A 
ATOM    100  F   UNL A   1      38.451  32.873  38.260  1.00  0.00    -0.206 F 
ATOM    101  C   UNL A   1      39.517  36.258  38.940  1.00  0.00     0.060 A 
BRANCH 101 102
ATOM    102  S   UNL A   1      39.305  37.545  40.190  1.00  0.00     0.124 S 
ATOM    103  O   UNL A   1      40.645  38.118  40.254  1.00  0.00    -0.237 OA
ATOM    104  O   UNL A   1      38.279  38.395  39.594  1.00  0.00    -0.237 OA
ATOM    105  O   UNL A   1      38.883  36.803  41.375  1.00  0.00    -0.744 OA
ENDBRANCH 101 102
ENDBRANCH  69  94
ENDBRANCH  43  44
ENDBRANCH  35  38
ENDBRANCH  33  34
ENDBRANCH  32  33
ENDBRANCH   1  32
TORSDOF 19
ENDMDL
MODEL 2
REMARK VINA RESULT:     -12.3      6.359     12.050
REMARK SMILES COc1ccc(-c2csc(NC(=O)[C@H](CC(=O)NCCCNC(=O)c3ccc(-c4c5nc(c(-c6c(F)cc(S(=O)(=O)[O-])cc6F)c6ccc([nH]6)c(-c6c(F)cc(S(=O)(=O)[O-])cc6F)c6nc(c(-c7c(F)cc(S(=O)(=O)[O-])cc7F)c7ccc4[nH]7)C=C6)C=C5)cc3)[NH+]3CCCCC3)n2)cc1
REMARK SMILES IDX 19 1 18 2 16 3 17 4 15 6 14 7 12 8 11 9 13 11 10 12 7 13
REMARK SMILES IDX 8 14 97 15 9 16 6 17 3 18 4 19 99 20 5 21 98 22 2 23 1 24
REMARK SMILES IDX 91 25 92 26 96 27 93 29 95 30 94 31 20 32 21 33 22 34 23 35
REMARK SMILES IDX 24 37 25 38 26 39 90 40 27 41 89 42 28 43 29 44 30 45 83 46
REMARK SMILES IDX 31 47 88 48 82 49 84 50 32 51 87 52 81 53 80 54 33 56 67 57
REMARK SMILES IDX 46 58 66 59 47 60 50 61 65 62 85 63 48 64 49 65 64 67 86 68
REMARK SMILES IDX 51 69 34 70 35 71 44 72 36 73 37 74 43 75 45 76 38 77 39 78
REMARK SMILES IDX 40 79 41 80 42 81 68 82 69 83 78 84 70 85 71 86 77 87 79 88
REMARK SMILES IDX 72 89 73 90 74 91 75 92 76 93 52 94 53 95 62 96 54 97 55 98
REMARK SMILES IDX 61 99 63 100 56 101 57 102 58 103 59 104 60 105
REMARK H PARENT 18 5 11 10 91 28 22 36 84 55 50 66
REMARK Flexibility Score: inf
ROOT
ATOM      1  C   UNL A   1      32.905  30.100  27.078  1.00  0.00     0.117 C 
ENDROOT
BRANCH   1   2
ATOM      2  N   UNL A   1      31.874  29.083  27.201  1.00  0.00    -0.356 N 
ATOM      3  C   UNL A   1      31.509  28.068  26.359  1.00  0.00     0.226 C 
ATOM      4  O   UNL A   1      30.886  27.123  26.849  1.00  0.00    -0.275 OA
ATOM      5  H   UNL A   1      31.348  29.132  28.032  1.00  0.00     0.163 HD
BRANCH   3   6
ATOM      6  C   UNL A   1      31.890  28.066  24.893  1.00  0.00     0.175 C 
BRANCH   6   7
ATOM      7  C   UNL A   1      30.768  27.980  23.825  1.00  0.00     0.284 C 
BRANCH   7   8
ATOM      8  C   UNL A   1      29.940  26.653  23.937  1.00  0.00     0.285 C 
ATOM      9  N   UNL A   1      30.519  25.432  24.164  1.00  0.00    -0.297 N 
ATOM     10  H   UNL A   1      29.947  24.765  24.607  1.00  0.00     0.172 HD
ATOM     11  O   UNL A   1      28.703  26.724  23.988  1.00  0.00    -0.268 OA
BRANCH   9  12
ATOM     12  C   UNL A   1      31.786  25.016  23.858  1.00  0.00     0.190 A 
ATOM     13  C   UNL A   1      33.800  24.187  24.061  1.00  0.00     0.084 A 
ATOM     14  C   UNL A   1      33.848  24.530  22.725  1.00  0.00     0.097 A 
ATOM     15  N   UNL A   1      32.585  24.392  24.695  1.00  0.00    -0.220 NA
ATOM     16  S   UNL A   1      32.313  25.047  22.234  1.00  0.00    -0.105 S 
BRANCH  13  17
ATOM     17  C   UNL A   1      34.928  23.500  24.642  1.00  0.00     0.001 A 
ATOM     18  C   UNL A   1      37.428  22.482  25.333  1.00  0.00     0.118 A 
ATOM     19  C   UNL A   1      36.834  23.471  26.123  1.00  0.00     0.047 A 
ATOM     20  C   UNL A   1      36.735  21.943  24.250  1.00  0.00     0.047 A 
ATOM     21  C   UNL A   1      35.584  23.994  25.774  1.00  0.00     0.014 A 
ATOM     22  C   UNL A   1      35.486  22.449  23.907  1.00  0.00     0.014 A 
BRANCH  18  23
ATOM     23  O   UNL A   1      38.676  22.064  25.703  1.00  0.00    -0.497 OA
ATOM     24  C   UNL A   1      39.346  22.965  26.586  1.00  0.00     0.278 C 
ENDBRANCH  18  23
ENDBRANCH  13  17
ENDBRANCH   9  12
ENDBRANCH   7   8
BRANCH   7  25
ATOM     25  N   UNL A   1      29.908  29.135  23.460  1.00  0.00    -0.324 N 
ATOM     26  C   UNL A   1      30.167  30.385  24.142  1.00  0.00     0.262 C 
ATOM     27  C   UNL A   1      29.797  29.354  22.009  1.00  0.00     0.262 C 
ATOM     28  H   UNL A   1      29.005  28.822  23.817  1.00  0.00     0.348 HD
ATOM     29  C   UNL A   1      29.042  31.395  23.925  1.00  0.00     0.062 C 
ATOM     30  C   UNL A   1      28.637  30.304  21.698  1.00  0.00     0.062 C 
ATOM     31  C   UNL A   1      28.750  31.624  22.453  1.00  0.00     0.012 C 
ENDBRANCH   7  25
ENDBRANCH   6   7
ENDBRANCH   3   6
ENDBRANCH   1   2
BRANCH   1  32
ATOM     32  C   UNL A   1      34.320  29.743  27.575  1.00  0.00     0.042 C 
BRANCH  32  33
ATOM     33  C   UNL A   1      35.238  30.889  28.024  1.00  0.00     0.118 C 
BRANCH  33  34
ATOM     34  N   UNL A   1      35.381  30.855  29.473  1.00  0.00    -0.352 N 
ATOM     35  C   UNL A   1      36.341  30.350  30.308  1.00  0.00     0.251 C 
ATOM     36  H   UNL A   1      34.634  31.285  29.950  1.00  0.00     0.163 HD
ATOM     37  O   UNL A   1      35.968  30.024  31.438  1.00  0.00    -0.269 OA
BRANCH  35  38
ATOM     38  C   UNL A   1      37.788  30.230  29.974  1.00  0.00     0.039 A 
ATOM     39  C   UNL A   1      38.114  30.095  28.615  1.00  0.00     0.014 A 
ATOM     40  C   UNL A   1      38.794  30.029  30.924  1.00  0.00     0.014 A 
ATOM     41  C   UNL A   1      39.405  29.730  28.213  1.00  0.00     0.010 A 
ATOM     42  C   UNL A   1      40.105  29.700  30.516  1.00  0.00     0.010 A 
ATOM     43  C   UNL A   1      40.421  29.519  29.157  1.00  0.00    -0.014 A 
BRANCH  43  44
ATOM     44  C   UNL A   1      41.782  29.093  28.700  1.00  0.00     0.031 A 
ATOM     45  C   UNL A   1      42.938  30.064  28.647  1.00  0.00     0.074 A 
ATOM     46  C   UNL A   1      42.004  27.806  28.360  1.00  0.00     0.049 A 
ATOM     47  N   UNL A   1      44.188  29.849  28.311  1.00  0.00    -0.248 NA
ATOM     48  C   UNL A   1      42.653  31.458  29.013  1.00  0.00     0.031 C 
ATOM     49  C   UNL A   1      40.991  26.751  28.362  1.00  0.00     0.029 A 
ATOM     50  N   UNL A   1      43.151  27.164  27.954  1.00  0.00    -0.354 N 
ATOM     51  C   UNL A   1      44.836  31.077  28.415  1.00  0.00     0.074 A 
ATOM     52  C   UNL A   1      43.828  32.040  28.811  1.00  0.00     0.031 C 
ATOM     53  C   UNL A   1      41.563  25.593  27.995  1.00  0.00     0.029 A 
ATOM     54  C   UNL A   1      42.973  25.826  27.690  1.00  0.00     0.049 A 
ATOM     55  H   UNL A   1      44.019  27.620  27.861  1.00  0.00     0.167 HD
ATOM     56  C   UNL A   1      46.145  31.376  28.210  1.00  0.00     0.037 A 
ATOM     57  C   UNL A   1      43.833  24.888  27.244  1.00  0.00     0.037 A 
ATOM     58  C   UNL A   1      47.156  30.420  27.826  1.00  0.00     0.049 A 
ATOM     59  C   UNL A   1      45.274  25.247  26.992  1.00  0.00     0.074 A 
ATOM     60  C   UNL A   1      48.515  30.630  27.652  1.00  0.00     0.029 A 
ATOM     61  N   UNL A   1      46.925  29.082  27.541  1.00  0.00    -0.354 N 
ATOM     62  N   UNL A   1      45.875  26.401  27.150  1.00  0.00    -0.248 NA
ATOM     63  C   UNL A   1      46.154  24.173  26.507  1.00  0.00     0.031 C 
ATOM     64  C   UNL A   1      49.094  29.437  27.203  1.00  0.00     0.029 A 
ATOM     65  C   UNL A   1      48.108  28.465  27.160  1.00  0.00     0.049 A 
ATOM     66  H   UNL A   1      46.050  28.636  27.601  1.00  0.00     0.167 HD
ATOM     67  C   UNL A   1      47.207  26.188  26.805  1.00  0.00     0.074 A 
ATOM     68  C   UNL A   1      47.326  24.791  26.444  1.00  0.00     0.031 C 
ATOM     69  C   UNL A   1      48.233  27.074  26.794  1.00  0.00     0.037 A 
BRANCH  56  70
ATOM     70  C   UNL A   1      46.568  32.815  28.376  1.00  0.00     0.058 A 
ATOM     71  C   UNL A   1      46.567  33.720  27.304  1.00  0.00     0.135 A 
ATOM     72  C   UNL A   1      46.943  33.304  29.640  1.00  0.00     0.135 A 
ATOM     73  F   UNL A   1      46.222  33.311  26.072  1.00  0.00    -0.206 F 
ATOM     74  C   UNL A   1      46.967  35.044  27.467  1.00  0.00     0.059 A 
ATOM     75  C   UNL A   1      47.315  34.632  29.832  1.00  0.00     0.059 A 
ATOM     76  F   UNL A   1      46.953  32.487  30.705  1.00  0.00    -0.206 F 
ATOM     77  C   UNL A   1      47.344  35.489  28.735  1.00  0.00     0.060 A 
BRANCH  77  78
ATOM     78  S   UNL A   1      47.891  37.200  28.923  1.00  0.00     0.124 S 
ATOM     79  O   UNL A   1      49.308  37.090  28.593  1.00  0.00    -0.237 OA
ATOM     80  O   UNL A   1      47.065  37.903  27.947  1.00  0.00    -0.237 OA
ATOM     81  O   UNL A   1      47.595  37.500  30.322  1.00  0.00    -0.744 OA
ENDBRANCH  77  78
ENDBRANCH  56  70
BRANCH  57  82
ATOM     82  C   UNL A   1      43.343  23.503  27.005  1.00  0.00     0.058 A 
ATOM     83  C   UNL A   1      43.035  23.052  25.714  1.00  0.00     0.135 A 
ATOM     84  C   UNL A   1      43.208  22.593  28.066  1.00  0.00     0.135 A 
ATOM     85  F   UNL A   1      43.133  23.887  24.669  1.00  0.00    -0.206 F 
ATOM     86  C   UNL A   1      42.611  21.747  25.480  1.00  0.00     0.059 A 
ATOM     87  C   UNL A   1      42.813  21.276  27.855  1.00  0.00     0.059 A 
ATOM     88  F   UNL A   1      43.501  22.972  29.320  1.00  0.00    -0.206 F 
ATOM     89  C   UNL A   1      42.514  20.863  26.558  1.00  0.00     0.060 A 
BRANCH  89  90
ATOM     90  S   UNL A   1      42.049  19.149  26.234  1.00  0.00     0.124 S 
ATOM     91  O   UNL A   1      42.209  18.545  27.553  1.00  0.00    -0.237 OA
ATOM     92  O   UNL A   1      40.674  19.291  25.759  1.00  0.00    -0.237 OA
ATOM     93  O   UNL A   1      43.011  18.725  25.223  1.00  0.00    -0.744 OA
ENDBRANCH  89  90
ENDBRANCH  57  82
BRANCH  69  94
ATOM     94  C   UNL A   1      49.597  26.562  26.404  1.00  0.00     0.058 A 
ATOM     95  C   UNL A   1      50.076  26.651  25.087  1.00  0.00     0.135 A 
ATOM     96  C   UNL A   1      50.457  26.015  27.372  1.00  0.00     0.135 A 
ATOM     97  F   UNL A   1      49.297  27.157  24.118  1.00  0.00    -0.206 F 
ATOM     98  C   UNL A   1      51.346  26.197  24.739  1.00  0.00     0.059 A 
ATOM     99  C   UNL A   1      51.741  25.581  27.053  1.00  0.00     0.059 A 
ATOM    100  F   UNL A   1      50.058  25.911  28.650  1.00  0.00    -0.206 F 
ATOM    101  C   UNL A   1      52.172  25.665  25.730  1.00  0.00     0.060 A 
BRANCH 101 102
ATOM    102  S   UNL A   1      53.829  25.108  25.271  1.00  0.00     0.124 S 
ATOM    103  O   UNL A   1      53.747  23.678  25.546  1.00  0.00    -0.237 OA
ATOM    104  O   UNL A   1      53.904  25.480  23.862  1.00  0.00    -0.237 OA
ATOM    105  O   UNL A   1      54.703  25.869  26.160  1.00  0.00    -0.744 OA
ENDBRANCH 101 102
ENDBRANCH  69  94
ENDBRANCH  43  44
ENDBRANCH  35  38
ENDBRANCH  33  34
ENDBRANCH  32  33
ENDBRANCH   1  32
TORSDOF 19
ENDMDL
MODEL 3
REMARK VINA RESULT:     -12.3      1.086      2.069
REMARK SMILES COc1ccc(-c2csc(NC(=O)[C@H](CC(=O)NCCCNC(=O)c3ccc(-c4c5nc(c(-c6c(F)cc(S(=O)(=O)[O-])cc6F)c6ccc([nH]6)c(-c6c(F)cc(S(=O)(=O)[O-])cc6F)c6nc(c(-c7c(F)cc(S(=O)(=O)[O-])cc7F)c7ccc4[nH]7)C=C6)C=C5)cc3)[NH+]3CCCCC3)n2)cc1
REMARK SMILES IDX 19 1 18 2 16 3 17 4 15 6 14 7 12 8 11 9 13 11 10 12 7 13
REMARK SMILES IDX 8 14 97 15 9 16 6 17 3 18 4 19 99 20 5 21 98 22 2 23 1 24
REMARK SMILES IDX 91 25 92 26 96 27 93 29 95 30 94 31 20 32 21 33 22 34 23 35
REMARK SMILES IDX 24 37 25 38 26 39 90 40 27 41 89 42 28 43 29 44 30 45 83 46
REMARK SMILES IDX 31 47 88 48 82 49 84 50 32 51 87 52 81 53 80 54 33 56 67 57
REMARK SMILES IDX 46 58 66 59 47 60 50 61 65 62 85 63 48 64 49 65 64 67 86 68
REMARK SMILES IDX 51 69 34 70 35 71 44 72 36 73 37 74 43 75 45 76 38 77 39 78
REMARK SMILES IDX 40 79 41 80 42 81 68 82 69 83 78 84 70 85 71 86 77 87 79 88
REMARK SMILES IDX 72 89 73 90 74 91 75 92 76 93 52 94 53 95 62 96 54 97 55 98
REMARK SMILES IDX 61 99 63 100 56 101 57 102 58 103 59 104 60 105
REMARK H PARENT 18 5 11 10 91 28 22 36 84 55 50 66
REMARK Flexibility Score: inf
ROOT
ATOM      1  C   UNL A   1      38.213  21.891  25.767  1.00  0.00     0.117 C 
ENDROOT
BRANCH   1   2
ATOM      2  N   UNL A   1      37.686  22.107  24.429  1.00  0.00    -0.356 N 
ATOM      3  C   UNL A   1      36.698  22.937  23.976  1.00  0.00     0.226 C 
ATOM      4  O   UNL A   1      36.703  23.221  22.776  1.00  0.00    -0.275 OA
ATOM      5  H   UNL A   1      38.114  21.562  23.729  1.00  0.00     0.163 HD
BRANCH   3   6
ATOM      6  C   UNL A   1      35.661  23.532  24.907  1.00  0.00     0.175 C 
BRANCH   6   7
ATOM      7  C   UNL A   1      34.534  22.619  25.459  1.00  0.00     0.284 C 
BRANCH   7   8
ATOM      8  C   UNL A   1      33.909  23.179  26.783  1.00  0.00     0.285 C 
ATOM      9  N   UNL A   1      32.995  24.199  26.800  1.00  0.00    -0.297 N 
ATOM     10  H   UNL A   1      32.382  24.210  27.570  1.00  0.00     0.172 HD
ATOM     11  O   UNL A   1      34.117  22.573  27.845  1.00  0.00    -0.268 OA
BRANCH   9  12
ATOM     12  C   UNL A   1      32.819  25.206  25.890  1.00  0.00     0.190 A 
ATOM     13  C   UNL A   1      31.874  26.566  24.462  1.00  0.00     0.084 A 
ATOM     14  C   UNL A   1      33.168  27.040  24.378  1.00  0.00     0.097 A 
ATOM     15  N   UNL A   1      31.656  25.563  25.392  1.00  0.00    -0.220 NA
ATOM     16  S   UNL A   1      34.115  26.266  25.548  1.00  0.00    -0.105 S 
BRANCH  13  17
ATOM     17  C   UNL A   1      30.837  27.245  23.722  1.00  0.00     0.001 A 
ATOM     18  C   UNL A   1      28.682  28.781  22.851  1.00  0.00     0.118 A 
ATOM     19  C   UNL A   1      29.990  29.221  22.626  1.00  0.00     0.047 A 
ATOM     20  C   UNL A   1      28.455  27.535  23.434  1.00  0.00     0.047 A 
ATOM     21  C   UNL A   1      31.075  28.459  23.071  1.00  0.00     0.014 A 
ATOM     22  C   UNL A   1      29.531  26.767  23.867  1.00  0.00     0.014 A 
BRANCH  18  23
ATOM     23  O   UNL A   1      27.674  29.608  22.441  1.00  0.00    -0.497 OA
ATOM     24  C   UNL A   1      27.989  30.362  21.270  1.00  0.00     0.278 C 
ENDBRANCH  18  23
ENDBRANCH  13  17
ENDBRANCH   9  12
ENDBRANCH   7   8
BRANCH   7  25
ATOM     25  N   UNL A   1      33.509  21.986  24.591  1.00  0.00    -0.324 N 
ATOM     26  C   UNL A   1      33.280  22.593  23.297  1.00  0.00     0.262 C 
ATOM     27  C   UNL A   1      33.668  20.529  24.455  1.00  0.00     0.262 C 
ATOM     28  H   UNL A   1      32.660  22.177  25.125  1.00  0.00     0.348 HD
ATOM     29  C   UNL A   1      32.009  22.062  22.636  1.00  0.00     0.062 C 
ATOM     30  C   UNL A   1      32.400  19.906  23.863  1.00  0.00     0.062 C 
ATOM     31  C   UNL A   1      32.000  20.548  22.539  1.00  0.00     0.012 C 
ENDBRANCH   7  25
ENDBRANCH   6   7
ENDBRANCH   3   6
ENDBRANCH   1   2
BRANCH   1  32
ATOM     32  C   UNL A   1      38.938  23.071  26.445  1.00  0.00     0.042 C 
BRANCH  32  33
ATOM     33  C   UNL A   1      40.437  22.920  26.745  1.00  0.00     0.118 C 
BRANCH  33  34
ATOM     34  N   UNL A   1      41.187  23.895  25.964  1.00  0.00    -0.352 N 
ATOM     35  C   UNL A   1      41.393  25.242  26.096  1.00  0.00     0.251 C 
ATOM     36  H   UNL A   1      41.639  23.505  25.180  1.00  0.00     0.163 HD
ATOM     37  O   UNL A   1      41.630  25.864  25.057  1.00  0.00    -0.269 OA
BRANCH  35  38
ATOM     38  C   UNL A   1      41.414  25.980  27.389  1.00  0.00     0.039 A 
ATOM     39  C   UNL A   1      40.229  25.973  28.142  1.00  0.00     0.014 A 
ATOM     40  C   UNL A   1      42.446  26.840  27.780  1.00  0.00     0.014 A 
ATOM     41  C   UNL A   1      40.061  26.829  29.237  1.00  0.00     0.010 A 
ATOM     42  C   UNL A   1      42.291  27.673  28.909  1.00  0.00     0.010 A 
ATOM     43  C   UNL A   1      41.086  27.700  29.635  1.00  0.00    -0.014 A 
BRANCH  43  44
ATOM     44  C   UNL A   1      40.864  28.631  30.787  1.00  0.00     0.031 A 
ATOM     45  C   UNL A   1      41.717  28.564  32.033  1.00  0.00     0.074 A 
ATOM     46  C   UNL A   1      39.910  29.580  30.709  1.00  0.00     0.049 A 
ATOM     47  N   UNL A   1      41.681  29.319  33.105  1.00  0.00    -0.248 NA
ATOM     48  C   UNL A   1      42.738  27.508  32.084  1.00  0.00     0.031 C 
ATOM     49  C   UNL A   1      39.009  29.773  29.573  1.00  0.00     0.029 A 
ATOM     50  N   UNL A   1      39.540  30.565  31.596  1.00  0.00    -0.354 N 
ATOM     51  C   UNL A   1      42.662  28.828  33.961  1.00  0.00     0.074 A 
ATOM     52  C   UNL A   1      43.253  27.685  33.295  1.00  0.00     0.031 C 
ATOM     53  C   UNL A   1      38.206  30.819  29.822  1.00  0.00     0.029 A 
ATOM     54  C   UNL A   1      38.502  31.350  31.151  1.00  0.00     0.049 A 
ATOM     55  H   UNL A   1      39.978  30.696  32.468  1.00  0.00     0.167 HD
ATOM     56  C   UNL A   1      43.046  29.287  35.180  1.00  0.00     0.037 A 
ATOM     57  C   UNL A   1      37.848  32.372  31.739  1.00  0.00     0.037 A 
ATOM     58  C   UNL A   1      42.470  30.433  35.845  1.00  0.00     0.049 A 
ATOM     59  C   UNL A   1      38.267  32.846  33.105  1.00  0.00     0.074 A 
ATOM     60  C   UNL A   1      42.837  30.998  37.056  1.00  0.00     0.029 A 
ATOM     61  N   UNL A   1      41.401  31.179  35.371  1.00  0.00    -0.354 N 
ATOM     62  N   UNL A   1      39.233  32.402  33.871  1.00  0.00    -0.248 NA
ATOM     63  C   UNL A   1      37.508  33.966  33.684  1.00  0.00     0.031 C 
ATOM     64  C   UNL A   1      41.953  32.044  37.343  1.00  0.00     0.029 A 
ATOM     65  C   UNL A   1      41.075  32.176  36.280  1.00  0.00     0.049 A 
ATOM     66  H   UNL A   1      40.941  31.025  34.515  1.00  0.00     0.167 HD
ATOM     67  C   UNL A   1      39.214  33.200  35.012  1.00  0.00     0.074 A 
ATOM     68  C   UNL A   1      38.149  34.164  34.829  1.00  0.00     0.031 C 
ATOM     69  C   UNL A   1      40.012  33.137  36.107  1.00  0.00     0.037 A 
BRANCH  56  70
ATOM     70  C   UNL A   1      44.137  28.535  35.901  1.00  0.00     0.058 A 
ATOM     71  C   UNL A   1      43.858  27.473  36.775  1.00  0.00     0.135 A 
ATOM     72  C   UNL A   1      45.487  28.858  35.681  1.00  0.00     0.135 A 
ATOM     73  F   UNL A   1      42.587  27.120  37.027  1.00  0.00    -0.206 F 
ATOM     74  C   UNL A   1      44.872  26.790  37.440  1.00  0.00     0.059 A 
ATOM     75  C   UNL A   1      46.519  28.167  36.310  1.00  0.00     0.059 A 
ATOM     76  F   UNL A   1      45.817  29.858  34.847  1.00  0.00    -0.206 F 
ATOM     77  C   UNL A   1      46.201  27.148  37.205  1.00  0.00     0.060 A 
BRANCH  77  78
ATOM     78  S   UNL A   1      47.503  26.274  38.100  1.00  0.00     0.124 S 
ATOM     79  O   UNL A   1      48.678  26.612  37.304  1.00  0.00    -0.237 OA
ATOM     80  O   UNL A   1      47.437  26.883  39.424  1.00  0.00    -0.237 OA
ATOM     81  O   UNL A   1      47.082  24.877  38.034  1.00  0.00    -0.744 OA
ENDBRANCH  77  78
ENDBRANCH  56  70
BRANCH  57  82
ATOM     82  C   UNL A   1      36.714  33.021  31.025  1.00  0.00     0.058 A 
ATOM     83  C   UNL A   1      35.385  32.779  31.397  1.00  0.00     0.135 A 
ATOM     84  C   UNL A   1      36.946  33.925  29.976  1.00  0.00     0.135 A 
ATOM     85  F   UNL A   1      35.110  31.912  32.383  1.00  0.00    -0.206 F 
ATOM     86  C   UNL A   1      34.323  33.410  30.757  1.00  0.00     0.059 A 
ATOM     87  C   UNL A   1      35.903  34.590  29.339  1.00  0.00     0.059 A 
ATOM     88  F   UNL A   1      38.202  34.199  29.589  1.00  0.00    -0.206 F 
ATOM     89  C   UNL A   1      34.594  34.323  29.735  1.00  0.00     0.060 A 
BRANCH  89  90
ATOM     90  S   UNL A   1      33.215  35.203  28.970  1.00  0.00     0.124 S 
ATOM     91  O   UNL A   1      33.884  36.378  28.419  1.00  0.00    -0.237 OA
ATOM     92  O   UNL A   1      32.734  34.227  27.996  1.00  0.00    -0.237 OA
ATOM     93  O   UNL A   1      32.315  35.455  30.089  1.00  0.00    -0.744 OA
ENDBRANCH  89  90
ENDBRANCH  57  82
BRANCH  69  94
ATOM     94  C   UNL A   1      39.791  34.156  37.196  1.00  0.00     0.058 A 
ATOM     95  C   UNL A   1      39.117  33.839  38.386  1.00  0.00     0.135 A 
ATOM     96  C   UNL A   1      40.300  35.459  37.066  1.00  0.00     0.135 A 
ATOM     97  F   UNL A   1      38.601  32.612  38.563  1.00  0.00    -0.206 F 
ATOM     98  C   UNL A   1      38.937  34.779  39.397  1.00  0.00     0.059 A 
ATOM     99  C   UNL A   1      40.158  36.408  38.076  1.00  0.00     0.059 A 
ATOM    100  F   UNL A   1      40.961  35.820  35.954  1.00  0.00    -0.206 F 
ATOM    101  C   UNL A   1      39.463  36.062  39.233  1.00  0.00     0.060 A 
BRANCH 101 102
ATOM    102  S   UNL A   1      39.250  37.264  40.566  1.00  0.00     0.124 S 
ATOM    103  O   UNL A   1      40.619  37.722  40.773  1.00  0.00    -0.237 OA
ATOM    104  O   UNL A   1      38.339  38.235  39.968  1.00  0.00    -0.237 OA
ATOM    105  O   UNL A   1      38.683  36.469  41.653  1.00  0.00    -0.744 OA
ENDBRANCH 101 102
ENDBRANCH  69  94
ENDBRANCH  43  44
ENDBRANCH  35  38
ENDBRANCH  33  34
ENDBRANCH  32  33
ENDBRANCH   1  32
TORSDOF 19
ENDMDL
