MODEL 1
REMARK VINA RESULT:     -12.2      0.000      0.000
REMARK SMILES O=C(NCCCNC(=O)c1cccc(Nc2ccc([N+](=O)[O-])cc2)c1)c1ccc(-c2c3nc(c(-c4c(F)cc(S(=O)(=O)[O-])cc4F)c4ccc([nH]4)c(-c4c(F)cc(S(=O)(=O)[O-])cc4F)c4nc(c(-c5c(F)cc(S(=O)(=O)[O-])cc5F)c5ccc2[nH]5)C=C4)C=C3)cc1
REMARK SMILES IDX 5 1 4 2 3 3 1 4 2 5 26 7 27 8 91 9 28 10 90 11 29 12 30 13
REMARK SMILES IDX 31 14 84 15 32 16 89 17 83 18 85 19 33 20 88 21 82 22 81 23
REMARK SMILES IDX 34 25 68 26 47 27 67 28 48 29 51 30 66 31 86 32 49 33 50 34
REMARK SMILES IDX 65 36 87 37 52 38 35 39 36 40 45 41 37 42 38 43 44 44 46 45
REMARK SMILES IDX 39 46 40 47 41 48 42 49 43 50 69 51 70 52 79 53 71 54 72 55
REMARK SMILES IDX 78 56 80 57 73 58 74 59 75 60 76 61 77 62 53 63 54 64 63 65
REMARK SMILES IDX 55 66 56 67 62 68 64 69 57 70 58 71 59 72 60 73 61 74 6 75
REMARK SMILES IDX 7 76 8 77 9 79 10 80 11 81 25 82 12 83 14 84 13 85 15 86
REMARK SMILES IDX 16 88 17 89 24 90 18 91 23 92 19 93 20 94 21 95 22 96
REMARK H PARENT 3 6 85 24 51 35 7 78 15 87
REMARK Flexibility Score: inf
ROOT
ATOM      1  C   UNL A   1      38.234  19.925  25.031  1.00  0.00     0.042 C 
ENDROOT
BRANCH   1   2
ATOM      2  C   UNL A   1      39.275  20.255  26.087  1.00  0.00     0.118 C 
BRANCH   2   3
ATOM      3  N   UNL A   1      40.379  19.302  26.105  1.00  0.00    -0.352 N 
ATOM      4  O   UNL A   1      42.507  18.584  25.970  1.00  0.00    -0.269 OA
ATOM      5  C   UNL A   1      41.734  19.519  26.162  1.00  0.00     0.251 C 
ATOM      6  H   UNL A   1      40.110  18.355  26.073  1.00  0.00     0.163 HD
BRANCH   5   7
ATOM      7  C   UNL A   1      42.256  20.876  26.432  1.00  0.00     0.039 A 
ATOM      8  C   UNL A   1      42.462  21.775  25.386  1.00  0.00     0.014 A 
ATOM      9  C   UNL A   1      42.531  21.262  27.747  1.00  0.00     0.014 A 
ATOM     10  C   UNL A   1      43.103  22.982  25.626  1.00  0.00     0.010 A 
ATOM     11  C   UNL A   1      43.067  22.528  28.001  1.00  0.00     0.010 A 
ATOM     12  C   UNL A   1      43.383  23.388  26.939  1.00  0.00    -0.014 A 
BRANCH  12  13
ATOM     13  C   UNL A   1      43.918  24.755  27.166  1.00  0.00     0.031 A 
ATOM     14  C   UNL A   1      45.354  25.095  26.882  1.00  0.00     0.074 A 
ATOM     15  C   UNL A   1      43.066  25.704  27.606  1.00  0.00     0.049 A 
ATOM     16  N   UNL A   1      45.966  26.242  27.020  1.00  0.00    -0.248 NA
ATOM     17  C   UNL A   1      46.220  24.011  26.390  1.00  0.00     0.031 C 
ATOM     18  C   UNL A   1      41.652  25.482  27.928  1.00  0.00     0.029 A 
ATOM     19  N   UNL A   1      43.249  27.041  27.844  1.00  0.00    -0.354 N 
ATOM     20  C   UNL A   1      47.289  26.020  26.652  1.00  0.00     0.074 A 
ATOM     21  C   UNL A   1      47.397  24.619  26.303  1.00  0.00     0.031 C 
ATOM     22  C   UNL A   1      41.087  26.646  28.273  1.00  0.00     0.029 A 
ATOM     23  C   UNL A   1      42.110  27.683  28.273  1.00  0.00     0.049 A 
ATOM     24  H   UNL A   1      44.111  27.499  27.719  1.00  0.00     0.167 HD
ATOM     25  C   UNL A   1      48.311  26.907  26.608  1.00  0.00     0.037 A 
ATOM     26  C   UNL A   1      41.914  28.958  28.655  1.00  0.00     0.037 A 
ATOM     27  C   UNL A   1      48.183  28.305  26.940  1.00  0.00     0.049 A 
ATOM     28  C   UNL A   1      43.073  29.911  28.616  1.00  0.00     0.074 A 
ATOM     29  C   UNL A   1      49.151  29.293  26.885  1.00  0.00     0.029 A 
ATOM     30  N   UNL A   1      47.020  28.913  27.393  1.00  0.00    -0.354 N 
ATOM     31  N   UNL A   1      44.307  29.688  28.228  1.00  0.00    -0.248 NA
ATOM     32  C   UNL A   1      42.819  31.283  29.068  1.00  0.00     0.031 C 
ATOM     33  C   UNL A   1      48.588  30.485  27.353  1.00  0.00     0.029 A 
ATOM     34  C   UNL A   1      47.255  30.255  27.647  1.00  0.00     0.049 A 
ATOM     35  H   UNL A   1      46.157  28.456  27.517  1.00  0.00     0.167 HD
ATOM     36  C   UNL A   1      44.971  30.899  28.373  1.00  0.00     0.074 A 
ATOM     37  C   UNL A   1      43.997  31.854  28.861  1.00  0.00     0.031 C 
ATOM     38  C   UNL A   1      46.272  31.192  28.128  1.00  0.00     0.037 A 
BRANCH  25  39
ATOM     39  C   UNL A   1      49.671  26.408  26.199  1.00  0.00     0.058 A 
ATOM     40  C   UNL A   1      50.177  26.610  24.905  1.00  0.00     0.135 A 
ATOM     41  C   UNL A   1      50.516  25.799  27.142  1.00  0.00     0.135 A 
ATOM     42  F   UNL A   1      49.409  27.173  23.959  1.00  0.00    -0.206 F 
ATOM     43  C   UNL A   1      51.467  26.219  24.559  1.00  0.00     0.059 A 
ATOM     44  C   UNL A   1      51.818  25.422  26.825  1.00  0.00     0.059 A 
ATOM     45  F   UNL A   1      50.083  25.580  28.394  1.00  0.00    -0.206 F 
ATOM     46  C   UNL A   1      52.283  25.632  25.528  1.00  0.00     0.060 A 
BRANCH  46  47
ATOM     47  S   UNL A   1      53.966  25.164  25.070  1.00  0.00     0.124 S 
ATOM     48  O   UNL A   1      54.122  25.852  23.792  1.00  0.00    -0.237 OA
ATOM     49  O   UNL A   1      54.750  25.702  26.177  1.00  0.00    -0.237 OA
ATOM     50  O   UNL A   1      53.908  23.708  24.995  1.00  0.00    -0.744 OA
ENDBRANCH  46  47
ENDBRANCH  25  39
BRANCH  26  51
ATOM     51  C   UNL A   1      40.576  29.392  29.135  1.00  0.00     0.058 A 
ATOM     52  C   UNL A   1      40.327  29.608  30.498  1.00  0.00     0.135 A 
ATOM     53  C   UNL A   1      39.518  29.604  28.236  1.00  0.00     0.135 A 
ATOM     54  F   UNL A   1      41.304  29.418  31.397  1.00  0.00    -0.206 F 
ATOM     55  C   UNL A   1      39.070  29.990  30.956  1.00  0.00     0.059 A 
ATOM     56  C   UNL A   1      38.263  30.018  28.665  1.00  0.00     0.059 A 
ATOM     57  F   UNL A   1      39.710  29.434  26.919  1.00  0.00    -0.206 F 
ATOM     58  C   UNL A   1      38.044  30.190  30.030  1.00  0.00     0.060 A 
BRANCH  58  59
ATOM     59  S   UNL A   1      36.420  30.702  30.631  1.00  0.00     0.124 S 
ATOM     60  O   UNL A   1      35.651  30.742  29.394  1.00  0.00    -0.237 OA
ATOM     61  O   UNL A   1      36.084  29.628  31.560  1.00  0.00    -0.237 OA
ATOM     62  O   UNL A   1      36.687  31.997  31.252  1.00  0.00    -0.744 OA
ENDBRANCH  58  59
ENDBRANCH  26  51
BRANCH  38  63
ATOM     63  C   UNL A   1      46.706  32.614  28.351  1.00  0.00     0.058 A 
ATOM     64  C   UNL A   1      47.276  33.029  29.565  1.00  0.00     0.135 A 
ATOM     65  C   UNL A   1      46.581  33.564  27.325  1.00  0.00     0.135 A 
ATOM     66  F   UNL A   1      47.408  32.162  30.581  1.00  0.00    -0.206 F 
ATOM     67  C   UNL A   1      47.683  34.345  29.763  1.00  0.00     0.059 A 
ATOM     68  C   UNL A   1      47.008  34.877  27.491  1.00  0.00     0.059 A 
ATOM     69  F   UNL A   1      46.050  33.217  26.142  1.00  0.00    -0.206 F 
ATOM     70  C   UNL A   1      47.546  35.261  28.719  1.00  0.00     0.060 A 
BRANCH  70  71
ATOM     71  S   UNL A   1      48.104  36.957  28.979  1.00  0.00     0.124 S 
ATOM     72  O   UNL A   1      48.887  37.198  27.772  1.00  0.00    -0.237 OA
ATOM     73  O   UNL A   1      46.845  37.689  29.077  1.00  0.00    -0.237 OA
ATOM     74  O   UNL A   1      48.872  36.875  30.219  1.00  0.00    -0.744 OA
ENDBRANCH  70  71
ENDBRANCH  38  63
ENDBRANCH  12  13
ENDBRANCH   5   7
ENDBRANCH   2   3
ENDBRANCH   1   2
BRANCH   1  75
ATOM     75  C   UNL A   1      37.400  21.121  24.609  1.00  0.00     0.118 C 
BRANCH  75  76
ATOM     76  N   UNL A   1      36.893  21.875  25.750  1.00  0.00    -0.352 N 
ATOM     77  C   UNL A   1      35.754  22.633  25.858  1.00  0.00     0.251 C 
ATOM     78  H   UNL A   1      37.449  21.835  26.560  1.00  0.00     0.163 HD
ATOM     79  O   UNL A   1      35.577  23.356  26.834  1.00  0.00    -0.269 OA
BRANCH  77  80
ATOM     80  C   UNL A   1      34.739  22.579  24.791  1.00  0.00     0.041 A 
ATOM     81  C   UNL A   1      34.682  23.610  23.856  1.00  0.00     0.014 A 
ATOM     82  C   UNL A   1      33.848  21.502  24.723  1.00  0.00     0.039 A 
ATOM     83  C   UNL A   1      33.773  23.523  22.807  1.00  0.00     0.003 A 
ATOM     84  C   UNL A   1      32.958  21.383  23.655  1.00  0.00     0.039 A 
ATOM     85  C   UNL A   1      32.936  22.407  22.699  1.00  0.00     0.026 A 
BRANCH  84  86
ATOM     86  N   UNL A   1      32.176  20.218  23.557  1.00  0.00    -0.356 N 
ATOM     87  H   UNL A   1      31.284  20.342  23.160  1.00  0.00     0.167 HD
BRANCH  86  88
ATOM     88  C   UNL A   1      32.485  18.908  23.944  1.00  0.00     0.039 A 
ATOM     89  C   UNL A   1      33.111  18.063  23.020  1.00  0.00     0.033 A 
ATOM     90  C   UNL A   1      32.304  18.461  25.260  1.00  0.00     0.033 A 
ATOM     91  C   UNL A   1      33.604  16.818  23.413  1.00  0.00     0.088 A 
ATOM     92  C   UNL A   1      32.778  17.211  25.666  1.00  0.00     0.088 A 
ATOM     93  C   UNL A   1      33.451  16.405  24.741  1.00  0.00     0.269 A 
BRANCH  93  94
ATOM     94  N   UNL A   1      34.043  15.135  25.176  1.00  0.00     0.062 N 
ATOM     95  O   UNL A   1      35.272  15.098  25.337  1.00  0.00    -0.258 OA
ATOM     96  O   UNL A   1      33.281  14.178  25.373  1.00  0.00    -0.258 OA
ENDBRANCH  93  94
ENDBRANCH  86  88
ENDBRANCH  84  86
ENDBRANCH  77  80
ENDBRANCH  75  76
ENDBRANCH   1  75
TORSDOF 16
ENDMDL
MODEL 2
REMARK VINA RESULT:     -12.2      3.432      7.712
REMARK SMILES O=C(NCCCNC(=O)c1cccc(Nc2ccc([N+](=O)[O-])cc2)c1)c1ccc(-c2c3nc(c(-c4c(F)cc(S(=O)(=O)[O-])cc4F)c4ccc([nH]4)c(-c4c(F)cc(S(=O)(=O)[O-])cc4F)c4nc(c(-c5c(F)cc(S(=O)(=O)[O-])cc5F)c5ccc2[nH]5)C=C4)C=C3)cc1
REMARK SMILES IDX 5 1 4 2 3 3 1 4 2 5 26 7 27 8 91 9 28 10 90 11 29 12 30 13
REMARK SMILES IDX 31 14 84 15 32 16 89 17 83 18 85 19 33 20 88 21 82 22 81 23
REMARK SMILES IDX 34 25 68 26 47 27 67 28 48 29 51 30 66 31 86 32 49 33 50 34
REMARK SMILES IDX 65 36 87 37 52 38 35 39 36 40 45 41 37 42 38 43 44 44 46 45
REMARK SMILES IDX 39 46 40 47 41 48 42 49 43 50 69 51 70 52 79 53 71 54 72 55
REMARK SMILES IDX 78 56 80 57 73 58 74 59 75 60 76 61 77 62 53 63 54 64 63 65
REMARK SMILES IDX 55 66 56 67 62 68 64 69 57 70 58 71 59 72 60 73 61 74 6 75
REMARK SMILES IDX 7 76 8 77 9 79 10 80 11 81 25 82 12 83 14 84 13 85 15 86
REMARK SMILES IDX 16 88 17 89 24 90 18 91 23 92 19 93 20 94 21 95 22 96
REMARK H PARENT 3 6 85 24 51 35 7 78 15 87
REMARK Flexibility Score: inf
ROOT
ATOM      1  C   UNL A   1      32.905  27.588  25.982  1.00  0.00     0.042 C 
ENDROOT
BRANCH   1   2
ATOM      2  C   UNL A   1      34.019  28.147  26.850  1.00  0.00     0.118 C 
BRANCH   2   3
ATOM      3  N   UNL A   1      33.747  29.504  27.308  1.00  0.00    -0.352 N 
ATOM      4  O   UNL A   1      34.036  31.394  28.495  1.00  0.00    -0.269 OA
ATOM      5  C   UNL A   1      34.527  30.362  28.046  1.00  0.00     0.251 C 
ATOM      6  H   UNL A   1      32.867  29.862  27.047  1.00  0.00     0.163 HD
BRANCH   5   7
ATOM      7  C   UNL A   1      35.943  30.031  28.313  1.00  0.00     0.039 A 
ATOM      8  C   UNL A   1      36.910  30.212  27.324  1.00  0.00     0.014 A 
ATOM      9  C   UNL A   1      36.315  29.546  29.570  1.00  0.00     0.014 A 
ATOM     10  C   UNL A   1      38.202  29.747  27.525  1.00  0.00     0.010 A 
ATOM     11  C   UNL A   1      37.645  29.189  29.812  1.00  0.00     0.010 A 
ATOM     12  C   UNL A   1      38.594  29.261  28.781  1.00  0.00    -0.014 A 
BRANCH  12  13
ATOM     13  C   UNL A   1      40.024  28.929  29.004  1.00  0.00     0.031 A 
ATOM     14  C   UNL A   1      40.593  27.595  28.607  1.00  0.00     0.074 A 
ATOM     15  C   UNL A   1      40.818  29.875  29.547  1.00  0.00     0.049 A 
ATOM     16  N   UNL A   1      41.820  27.160  28.727  1.00  0.00    -0.248 NA
ATOM     17  C   UNL A   1      39.669  26.619  28.007  1.00  0.00     0.031 C 
ATOM     18  C   UNL A   1      40.369  31.201  29.984  1.00  0.00     0.029 A 
ATOM     19  N   UNL A   1      42.163  29.883  29.811  1.00  0.00    -0.354 N 
ATOM     20  C   UNL A   1      41.818  25.858  28.239  1.00  0.00     0.074 A 
ATOM     21  C   UNL A   1      40.458  25.564  27.838  1.00  0.00     0.031 C 
ATOM     22  C   UNL A   1      41.422  31.908  30.414  1.00  0.00     0.029 A 
ATOM     23  C   UNL A   1      42.608  31.064  30.358  1.00  0.00     0.049 A 
ATOM     24  H   UNL A   1      42.754  29.117  29.625  1.00  0.00     0.167 HD
ATOM     25  C   UNL A   1      42.856  24.995  28.134  1.00  0.00     0.037 A 
ATOM     26  C   UNL A   1      43.828  31.421  30.796  1.00  0.00     0.037 A 
ATOM     27  C   UNL A   1      44.209  25.310  28.521  1.00  0.00     0.049 A 
ATOM     28  C   UNL A   1      44.954  30.434  30.686  1.00  0.00     0.074 A 
ATOM     29  C   UNL A   1      45.340  24.517  28.413  1.00  0.00     0.029 A 
ATOM     30  N   UNL A   1      44.617  26.508  29.093  1.00  0.00    -0.354 N 
ATOM     31  N   UNL A   1      44.936  29.221  30.186  1.00  0.00    -0.248 NA
ATOM     32  C   UNL A   1      46.260  30.858  31.203  1.00  0.00     0.031 C 
ATOM     33  C   UNL A   1      46.418  25.215  28.967  1.00  0.00     0.029 A 
ATOM     34  C   UNL A   1      45.975  26.464  29.368  1.00  0.00     0.049 A 
ATOM     35  H   UNL A   1      44.027  27.274  29.276  1.00  0.00     0.167 HD
ATOM     36  C   UNL A   1      46.235  28.744  30.310  1.00  0.00     0.074 A 
ATOM     37  C   UNL A   1      47.014  29.807  30.912  1.00  0.00     0.031 C 
ATOM     38  C   UNL A   1      46.735  27.533  29.963  1.00  0.00     0.037 A 
BRANCH  25  39
ATOM     39  C   UNL A   1      42.587  23.617  27.593  1.00  0.00     0.058 A 
ATOM     40  C   UNL A   1      42.582  23.350  26.214  1.00  0.00     0.135 A 
ATOM     41  C   UNL A   1      42.420  22.531  28.469  1.00  0.00     0.135 A 
ATOM     42  F   UNL A   1      42.722  24.351  25.332  1.00  0.00    -0.206 F 
ATOM     43  C   UNL A   1      42.415  22.058  25.725  1.00  0.00     0.059 A 
ATOM     44  C   UNL A   1      42.275  21.228  28.002  1.00  0.00     0.059 A 
ATOM     45  F   UNL A   1      42.414  22.730  29.797  1.00  0.00    -0.206 F 
ATOM     46  C   UNL A   1      42.268  21.002  26.627  1.00  0.00     0.060 A 
BRANCH  46  47
ATOM     47  S   UNL A   1      42.089  19.328  25.973  1.00  0.00     0.124 S 
ATOM     48  O   UNL A   1      42.573  18.525  27.091  1.00  0.00    -0.237 OA
ATOM     49  O   UNL A   1      40.655  19.249  25.711  1.00  0.00    -0.237 OA
ATOM     50  O   UNL A   1      42.941  19.331  24.788  1.00  0.00    -0.744 OA
ENDBRANCH  46  47
ENDBRANCH  25  39
BRANCH  26  51
ATOM     51  C   UNL A   1      44.036  32.762  31.404  1.00  0.00     0.058 A 
ATOM     52  C   UNL A   1      44.421  33.863  30.624  1.00  0.00     0.135 A 
ATOM     53  C   UNL A   1      43.851  32.969  32.781  1.00  0.00     0.135 A 
ATOM     54  F   UNL A   1      44.611  33.716  29.305  1.00  0.00    -0.206 F 
ATOM     55  C   UNL A   1      44.642  35.113  31.192  1.00  0.00     0.059 A 
ATOM     56  C   UNL A   1      44.034  34.216  33.365  1.00  0.00     0.059 A 
ATOM     57  F   UNL A   1      43.462  31.953  33.567  1.00  0.00    -0.206 F 
ATOM     58  C   UNL A   1      44.447  35.278  32.564  1.00  0.00     0.060 A 
BRANCH  58  59
ATOM     59  S   UNL A   1      44.719  36.909  33.290  1.00  0.00     0.124 S 
ATOM     60  O   UNL A   1      44.194  36.720  34.636  1.00  0.00    -0.237 OA
ATOM     61  O   UNL A   1      46.168  37.055  33.182  1.00  0.00    -0.237 OA
ATOM     62  O   UNL A   1      43.943  37.793  32.426  1.00  0.00    -0.744 OA
ENDBRANCH  58  59
ENDBRANCH  26  51
BRANCH  38  63
ATOM     63  C   UNL A   1      48.204  27.308  30.193  1.00  0.00     0.058 A 
ATOM     64  C   UNL A   1      48.685  26.728  31.377  1.00  0.00     0.135 A 
ATOM     65  C   UNL A   1      49.138  27.646  29.200  1.00  0.00     0.135 A 
ATOM     66  F   UNL A   1      47.834  26.396  32.361  1.00  0.00    -0.206 F 
ATOM     67  C   UNL A   1      50.044  26.516  31.581  1.00  0.00     0.059 A 
ATOM     68  C   UNL A   1      50.499  27.416  29.370  1.00  0.00     0.059 A 
ATOM     69  F   UNL A   1      48.730  28.197  28.046  1.00  0.00    -0.206 F 
ATOM     70  C   UNL A   1      50.943  26.862  30.570  1.00  0.00     0.060 A 
BRANCH  70  71
ATOM     71  S   UNL A   1      52.702  26.555  30.836  1.00  0.00     0.124 S 
ATOM     72  O   UNL A   1      53.133  27.813  31.434  1.00  0.00    -0.237 OA
ATOM     73  O   UNL A   1      52.686  25.400  31.729  1.00  0.00    -0.237 OA
ATOM     74  O   UNL A   1      53.207  26.292  29.491  1.00  0.00    -0.744 OA
ENDBRANCH  70  71
ENDBRANCH  38  63
ENDBRANCH  12  13
ENDBRANCH   5   7
ENDBRANCH   2   3
ENDBRANCH   1   2
BRANCH   1  75
ATOM     75  C   UNL A   1      33.243  26.249  25.352  1.00  0.00     0.118 C 
BRANCH  75  76
ATOM     76  N   UNL A   1      33.244  26.304  23.895  1.00  0.00    -0.352 N 
ATOM     77  C   UNL A   1      33.705  25.385  22.987  1.00  0.00     0.251 C 
ATOM     78  H   UNL A   1      32.858  27.121  23.505  1.00  0.00     0.163 HD
ATOM     79  O   UNL A   1      33.801  25.677  21.799  1.00  0.00    -0.269 OA
BRANCH  77  80
ATOM     80  C   UNL A   1      34.092  24.039  23.446  1.00  0.00     0.041 A 
ATOM     81  C   UNL A   1      35.347  23.852  24.020  1.00  0.00     0.014 A 
ATOM     82  C   UNL A   1      33.203  22.967  23.304  1.00  0.00     0.039 A 
ATOM     83  C   UNL A   1      35.684  22.597  24.519  1.00  0.00     0.003 A 
ATOM     84  C   UNL A   1      33.512  21.714  23.834  1.00  0.00     0.039 A 
ATOM     85  C   UNL A   1      34.763  21.547  24.444  1.00  0.00     0.026 A 
BRANCH  84  86
ATOM     86  N   UNL A   1      32.535  20.703  23.786  1.00  0.00    -0.356 N 
ATOM     87  H   UNL A   1      31.649  20.989  23.469  1.00  0.00     0.167 HD
BRANCH  86  88
ATOM     88  C   UNL A   1      32.645  19.347  24.126  1.00  0.00     0.039 A 
ATOM     89  C   UNL A   1      32.980  18.429  23.123  1.00  0.00     0.033 A 
ATOM     90  C   UNL A   1      32.556  18.906  25.452  1.00  0.00     0.033 A 
ATOM     91  C   UNL A   1      33.281  17.104  23.444  1.00  0.00     0.088 A 
ATOM     92  C   UNL A   1      32.840  17.580  25.788  1.00  0.00     0.088 A 
ATOM     93  C   UNL A   1      33.228  16.690  24.780  1.00  0.00     0.269 A 
BRANCH  93  94
ATOM     94  N   UNL A   1      33.627  15.321  25.129  1.00  0.00     0.062 N 
ATOM     95  O   UNL A   1      32.728  14.482  25.288  1.00  0.00    -0.258 OA
ATOM     96  O   UNL A   1      34.839  15.079  25.228  1.00  0.00    -0.258 OA
ENDBRANCH  93  94
ENDBRANCH  86  88
ENDBRANCH  84  86
ENDBRANCH  77  80
ENDBRANCH  75  76
ENDBRANCH   1  75
TORSDOF 16
ENDMDL
MODEL 3
REMARK VINA RESULT:     -12.1      6.359      8.608
REMARK SMILES O=C(NCCCNC(=O)c1cccc(Nc2ccc([N+](=O)[O-])cc2)c1)c1ccc(-c2c3nc(c(-c4c(F)cc(S(=O)(=O)[O-])cc4F)c4ccc([nH]4)c(-c4c(F)cc(S(=O)(=O)[O-])cc4F)c4nc(c(-c5c(F)cc(S(=O)(=O)[O-])cc5F)c5ccc2[nH]5)C=C4)C=C3)cc1
REMARK SMILES IDX 5 1 4 2 3 3 1 4 2 5 26 7 27 8 91 9 28 10 90 11 29 12 30 13
REMARK SMILES IDX 31 14 84 15 32 16 89 17 83 18 85 19 33 20 88 21 82 22 81 23
REMARK SMILES IDX 34 25 68 26 47 27 67 28 48 29 51 30 66 31 86 32 49 33 50 34
REMARK SMILES IDX 65 36 87 37 52 38 35 39 36 40 45 41 37 42 38 43 44 44 46 45
REMARK SMILES IDX 39 46 40 47 41 48 42 49 43 50 69 51 70 52 79 53 71 54 72 55
REMARK SMILES IDX 78 56 80 57 73 58 74 59 75 60 76 61 77 62 53 63 54 64 63 65
REMARK SMILES IDX 55 66 56 67 62 68 64 69 57 70 58 71 59 72 60 73 61 74 6 75
REMARK SMILES IDX 7 76 8 77 9 79 10 80 11 81 25 82 12 83 14 84 13 85 15 86
REMARK SMILES IDX 16 88 17 89 24 90 18 91 23 92 19 93 20 94 21 95 22 96
REMARK H PARENT 3 6 85 24 51 35 7 78 15 87
REMARK Flexibility Score: inf
ROOT
ATOM      1  C   UNL A   1      38.829  22.540  26.409  1.00  0.00     0.042 C 
ENDROOT
BRANCH   1   2
ATOM      2  C   UNL A   1      39.898  23.399  27.061  1.00  0.00     0.118 C 
BRANCH   2   3
ATOM      3  N   UNL A   1      40.759  24.060  26.087  1.00  0.00    -0.352 N 
ATOM      4  O   UNL A   1      41.789  25.767  25.044  1.00  0.00    -0.269 OA
ATOM      5  C   UNL A   1      41.234  25.349  26.056  1.00  0.00     0.251 C 
ATOM      6  H   UNL A   1      41.046  23.493  25.335  1.00  0.00     0.163 HD
BRANCH   5   7
ATOM      7  C   UNL A   1      41.056  26.232  27.230  1.00  0.00     0.039 A 
ATOM      8  C   UNL A   1      41.797  27.408  27.348  1.00  0.00     0.014 A 
ATOM      9  C   UNL A   1      40.130  25.889  28.218  1.00  0.00     0.014 A 
ATOM     10  C   UNL A   1      41.746  28.143  28.524  1.00  0.00     0.010 A 
ATOM     11  C   UNL A   1      39.992  26.698  29.351  1.00  0.00     0.010 A 
ATOM     12  C   UNL A   1      40.820  27.816  29.525  1.00  0.00    -0.014 A 
BRANCH  12  13
ATOM     13  C   UNL A   1      40.681  28.723  30.693  1.00  0.00     0.031 A 
ATOM     14  C   UNL A   1      41.574  28.598  31.897  1.00  0.00     0.074 A 
ATOM     15  C   UNL A   1      39.747  29.695  30.635  1.00  0.00     0.049 A 
ATOM     16  N   UNL A   1      41.583  29.318  32.988  1.00  0.00    -0.248 NA
ATOM     17  C   UNL A   1      42.580  27.523  31.882  1.00  0.00     0.031 C 
ATOM     18  C   UNL A   1      38.815  29.900  29.521  1.00  0.00     0.029 A 
ATOM     19  N   UNL A   1      39.432  30.698  31.513  1.00  0.00    -0.354 N 
ATOM     20  C   UNL A   1      42.575  28.778  33.799  1.00  0.00     0.074 A 
ATOM     21  C   UNL A   1      43.136  27.654  33.080  1.00  0.00     0.031 C 
ATOM     22  C   UNL A   1      38.070  30.987  29.760  1.00  0.00     0.029 A 
ATOM     23  C   UNL A   1      38.413  31.512  31.074  1.00  0.00     0.049 A 
ATOM     24  H   UNL A   1      39.892  30.826  32.375  1.00  0.00     0.167 HD
ATOM     25  C   UNL A   1      42.979  29.191  35.024  1.00  0.00     0.037 A 
ATOM     26  C   UNL A   1      37.800  32.548  31.673  1.00  0.00     0.037 A 
ATOM     27  C   UNL A   1      42.422  30.326  35.718  1.00  0.00     0.049 A 
ATOM     28  C   UNL A   1      38.256  32.966  33.041  1.00  0.00     0.074 A 
ATOM     29  C   UNL A   1      42.794  30.848  36.945  1.00  0.00     0.029 A 
ATOM     30  N   UNL A   1      41.377  31.111  35.252  1.00  0.00    -0.354 N 
ATOM     31  N   UNL A   1      39.222  32.465  33.773  1.00  0.00    -0.248 NA
ATOM     32  C   UNL A   1      37.539  34.083  33.667  1.00  0.00     0.031 C 
ATOM     33  C   UNL A   1      41.940  31.915  37.244  1.00  0.00     0.029 A 
ATOM     34  C   UNL A   1      41.073  32.094  36.180  1.00  0.00     0.049 A 
ATOM     35  H   UNL A   1      40.918  30.985  34.390  1.00  0.00     0.167 HD
ATOM     36  C   UNL A   1      39.241  33.219  34.940  1.00  0.00     0.074 A 
ATOM     37  C   UNL A   1      38.205  34.222  34.804  1.00  0.00     0.031 C 
ATOM     38  C   UNL A   1      40.041  33.089  36.026  1.00  0.00     0.037 A 
BRANCH  25  39
ATOM     39  C   UNL A   1      44.067  28.413  35.715  1.00  0.00     0.058 A 
ATOM     40  C   UNL A   1      45.424  28.731  35.552  1.00  0.00     0.135 A 
ATOM     41  C   UNL A   1      43.740  27.392  36.624  1.00  0.00     0.135 A 
ATOM     42  F   UNL A   1      45.795  29.688  34.686  1.00  0.00    -0.206 F 
ATOM     43  C   UNL A   1      46.419  28.062  36.259  1.00  0.00     0.059 A 
ATOM     44  C   UNL A   1      44.716  26.725  37.359  1.00  0.00     0.059 A 
ATOM     45  F   UNL A   1      42.458  27.045  36.817  1.00  0.00    -0.206 F 
ATOM     46  C   UNL A   1      46.054  27.064  37.165  1.00  0.00     0.060 A 
BRANCH  46  47
ATOM     47  S   UNL A   1      47.356  26.231  38.100  1.00  0.00     0.124 S 
ATOM     48  O   UNL A   1      46.971  26.538  39.474  1.00  0.00    -0.237 OA
ATOM     49  O   UNL A   1      47.189  24.840  37.692  1.00  0.00    -0.237 OA
ATOM     50  O   UNL A   1      48.578  26.877  37.632  1.00  0.00    -0.744 OA
ENDBRANCH  46  47
ENDBRANCH  25  39
BRANCH  26  51
ATOM     51  C   UNL A   1      36.671  33.237  30.994  1.00  0.00     0.058 A 
ATOM     52  C   UNL A   1      35.341  32.999  31.370  1.00  0.00     0.135 A 
ATOM     53  C   UNL A   1      36.902  34.154  29.955  1.00  0.00     0.135 A 
ATOM     54  F   UNL A   1      35.068  32.132  32.357  1.00  0.00    -0.206 F 
ATOM     55  C   UNL A   1      34.280  33.621  30.721  1.00  0.00     0.059 A 
ATOM     56  C   UNL A   1      35.861  34.813  29.314  1.00  0.00     0.059 A 
ATOM     57  F   UNL A   1      38.158  34.434  29.573  1.00  0.00    -0.206 F 
ATOM     58  C   UNL A   1      34.551  34.525  29.693  1.00  0.00     0.060 A 
BRANCH  58  59
ATOM     59  S   UNL A   1      33.168  35.342  28.867  1.00  0.00     0.124 S 
ATOM     60  O   UNL A   1      32.551  34.226  28.161  1.00  0.00    -0.237 OA
ATOM     61  O   UNL A   1      32.413  35.881  29.994  1.00  0.00    -0.237 OA
ATOM     62  O   UNL A   1      33.823  36.340  28.027  1.00  0.00    -0.744 OA
ENDBRANCH  58  59
ENDBRANCH  26  51
BRANCH  38  63
ATOM     63  C   UNL A   1      39.849  34.080  37.140  1.00  0.00     0.058 A 
ATOM     64  C   UNL A   1      40.434  35.356  37.102  1.00  0.00     0.135 A 
ATOM     65  C   UNL A   1      39.040  33.761  38.242  1.00  0.00     0.135 A 
ATOM     66  F   UNL A   1      41.224  35.706  36.075  1.00  0.00    -0.206 F 
ATOM     67  C   UNL A   1      40.247  36.271  38.132  1.00  0.00     0.059 A 
ATOM     68  C   UNL A   1      38.814  34.671  39.269  1.00  0.00     0.059 A 
ATOM     69  F   UNL A   1      38.450  32.558  38.324  1.00  0.00    -0.206 F 
ATOM     70  C   UNL A   1      39.433  35.919  39.211  1.00  0.00     0.060 A 
BRANCH  70  71
ATOM     71  S   UNL A   1      39.175  37.127  40.527  1.00  0.00     0.124 S 
ATOM     72  O   UNL A   1      38.379  38.141  39.844  1.00  0.00    -0.237 OA
ATOM     73  O   UNL A   1      38.473  36.343  41.538  1.00  0.00    -0.237 OA
ATOM     74  O   UNL A   1      40.532  37.532  40.887  1.00  0.00    -0.744 OA
ENDBRANCH  70  71
ENDBRANCH  38  63
ENDBRANCH  12  13
ENDBRANCH   5   7
ENDBRANCH   2   3
ENDBRANCH   1   2
BRANCH   1  75
ATOM     75  C   UNL A   1      37.647  23.338  25.887  1.00  0.00     0.118 C 
BRANCH  75  76
ATOM     76  N   UNL A   1      37.551  23.301  24.433  1.00  0.00    -0.352 N 
ATOM     77  C   UNL A   1      36.438  23.263  23.632  1.00  0.00     0.251 C 
ATOM     78  H   UNL A   1      38.411  23.305  23.955  1.00  0.00     0.163 HD
ATOM     79  O   UNL A   1      36.542  23.044  22.429  1.00  0.00    -0.269 OA
BRANCH  77  80
ATOM     80  C   UNL A   1      35.106  23.484  24.225  1.00  0.00     0.041 A 
ATOM     81  C   UNL A   1      34.734  24.773  24.598  1.00  0.00     0.014 A 
ATOM     82  C   UNL A   1      34.232  22.406  24.408  1.00  0.00     0.039 A 
ATOM     83  C   UNL A   1      33.451  24.992  25.090  1.00  0.00     0.003 A 
ATOM     84  C   UNL A   1      32.930  22.617  24.864  1.00  0.00     0.039 A 
ATOM     85  C   UNL A   1      32.554  23.925  25.199  1.00  0.00     0.026 A 
BRANCH  84  86
ATOM     86  N   UNL A   1      32.046  21.524  24.905  1.00  0.00    -0.356 N 
ATOM     87  H   UNL A   1      31.111  21.747  25.120  1.00  0.00     0.167 HD
BRANCH  86  88
ATOM     88  C   UNL A   1      32.306  20.165  24.684  1.00  0.00     0.039 A 
ATOM     89  C   UNL A   1      32.264  19.677  23.373  1.00  0.00     0.033 A 
ATOM     90  C   UNL A   1      32.728  19.314  25.714  1.00  0.00     0.033 A 
ATOM     91  C   UNL A   1      32.693  18.381  23.081  1.00  0.00     0.088 A 
ATOM     92  C   UNL A   1      33.147  18.010  25.441  1.00  0.00     0.088 A 
ATOM     93  C   UNL A   1      33.152  17.559  24.117  1.00  0.00     0.269 A 
BRANCH  93  94
ATOM     94  N   UNL A   1      33.684  16.228  23.801  1.00  0.00     0.062 N 
ATOM     95  O   UNL A   1      34.242  16.077  22.704  1.00  0.00    -0.258 OA
ATOM     96  O   UNL A   1      33.560  15.337  24.654  1.00  0.00    -0.258 OA
ENDBRANCH  93  94
ENDBRANCH  86  88
ENDBRANCH  84  86
ENDBRANCH  77  80
ENDBRANCH  75  76
ENDBRANCH   1  75
TORSDOF 16
ENDMDL
