MODEL 1
REMARK VINA RESULT:      -9.0      0.000      0.000
REMARK SMILES Cc1c(CC(=O)NCCCNC(=O)c2ccc(-c3c4nc(c(-c5c(F)cc(S(=O)(=O)[O-])cc5F)c5ccc([nH]5)c(-c5c(F)cc(S(=O)(=O)[O-])cc5F)c5nc(c(-c6c(F)cc(S(=O)(=O)[O-])cc6F)c6ccc3[nH]6)C=C5)C=C4)cc2)cc(-c2ccc(S(C)(=O)=O)cc2)n1-c1ccccc1
REMARK SMILES IDX 9 1 8 2 7 3 5 4 6 5 4 7 3 8 1 9 2 10 92 11 80 12 81 13 93 14
REMARK SMILES IDX 94 15 98 16 95 17 97 18 96 19 82 20 83 21 91 22 84 23 90 24
REMARK SMILES IDX 85 25 86 26 87 27 88 28 89 29 10 30 11 31 12 32 13 34 14 35
REMARK SMILES IDX 15 36 79 37 16 38 78 39 17 40 18 41 19 42 72 43 20 44 77 45
REMARK SMILES IDX 71 46 73 47 21 48 76 49 70 50 69 51 22 53 56 54 35 55 55 56
REMARK SMILES IDX 36 57 39 58 54 59 74 60 37 61 38 62 53 64 75 65 40 66 23 67
REMARK SMILES IDX 24 68 33 69 25 70 26 71 32 72 34 73 27 74 28 75 29 76 30 77
REMARK SMILES IDX 31 78 57 79 58 80 67 81 59 82 60 83 66 84 68 85 61 86 62 87
REMARK SMILES IDX 63 88 64 89 65 90 41 91 42 92 51 93 43 94 44 95 50 96 52 97
REMARK SMILES IDX 45 98 46 99 47 100 48 101 49 102
REMARK H PARENT 7 6 11 33 73 52 39 63
REMARK Flexibility Score: inf
ROOT
ATOM      1  C   UNL A   1      46.272  34.842  32.361  1.00  0.00     0.042 C 
ENDROOT
BRANCH   1   2
ATOM      2  C   UNL A   1      44.888  34.807  33.032  1.00  0.00     0.117 C 
BRANCH   2   3
ATOM      3  N   UNL A   1      44.813  33.944  34.197  1.00  0.00    -0.356 N 
ATOM      4  C   UNL A   1      43.810  33.144  34.658  1.00  0.00     0.224 C 
ATOM      5  O   UNL A   1      44.004  32.528  35.711  1.00  0.00    -0.275 OA
ATOM      6  H   UNL A   1      45.628  33.934  34.749  1.00  0.00     0.163 HD
BRANCH   4   7
ATOM      7  C   UNL A   1      42.523  32.951  33.876  1.00  0.00     0.137 C 
BRANCH   7   8
ATOM      8  C   UNL A   1      42.232  31.533  33.498  1.00  0.00    -0.017 A 
ATOM      9  C   UNL A   1      40.330  31.868  31.772  1.00  0.00     0.065 C 
ATOM     10  C   UNL A   1      41.312  31.065  32.566  1.00  0.00     0.024 A 
ATOM     11  N   UNL A   1      41.404  29.676  32.520  1.00  0.00    -0.314 N 
ATOM     12  C   UNL A   1      42.849  30.394  34.073  1.00  0.00     0.033 A 
ATOM     13  C   UNL A   1      42.373  29.262  33.436  1.00  0.00     0.053 A 
BRANCH  11  14
ATOM     14  C   UNL A   1      40.647  28.810  31.683  1.00  0.00     0.046 A 
ATOM     15  C   UNL A   1      41.122  28.499  30.402  1.00  0.00     0.026 A 
ATOM     16  C   UNL A   1      39.411  28.321  32.116  1.00  0.00     0.026 A 
ATOM     17  C   UNL A   1      40.357  27.700  29.555  1.00  0.00     0.002 A 
ATOM     18  C   UNL A   1      38.644  27.533  31.256  1.00  0.00     0.002 A 
ATOM     19  C   UNL A   1      39.118  27.223  29.979  1.00  0.00     0.000 A 
ENDBRANCH  11  14
BRANCH  13  20
ATOM     20  C   UNL A   1      42.874  27.890  33.585  1.00  0.00    -0.001 A 
ATOM     21  C   UNL A   1      43.836  27.377  32.699  1.00  0.00     0.011 A 
ATOM     22  C   UNL A   1      42.412  27.083  34.631  1.00  0.00     0.011 A 
ATOM     23  C   UNL A   1      44.300  26.067  32.831  1.00  0.00     0.021 A 
ATOM     24  C   UNL A   1      42.871  25.770  34.770  1.00  0.00     0.021 A 
ATOM     25  C   UNL A   1      43.803  25.265  33.860  1.00  0.00     0.067 A 
BRANCH  25  26
ATOM     26  S   UNL A   1      44.394  23.600  34.034  1.00  0.00     0.175 S 
ATOM     27  C   UNL A   1      45.950  23.769  34.871  1.00  0.00     0.163 C 
ATOM     28  O   UNL A   1      43.469  22.914  34.930  1.00  0.00    -0.224 OA
ATOM     29  O   UNL A   1      44.663  23.082  32.714  1.00  0.00    -0.224 OA
ENDBRANCH  25  26
ENDBRANCH  13  20
ENDBRANCH   7   8
ENDBRANCH   4   7
ENDBRANCH   2   3
ENDBRANCH   1   2
BRANCH   1  30
ATOM     30  C   UNL A   1      46.385  35.595  31.019  1.00  0.00     0.118 C 
BRANCH  30  31
ATOM     31  N   UNL A   1      45.309  36.525  30.754  1.00  0.00    -0.352 N 
ATOM     32  C   UNL A   1      44.133  36.304  30.050  1.00  0.00     0.251 C 
ATOM     33  H   UNL A   1      45.426  37.432  31.120  1.00  0.00     0.163 HD
ATOM     34  O   UNL A   1      43.383  37.266  29.894  1.00  0.00    -0.269 OA
BRANCH  32  35
ATOM     35  C   UNL A   1      43.828  34.979  29.377  1.00  0.00     0.039 A 
ATOM     36  C   UNL A   1      43.192  34.000  30.124  1.00  0.00     0.014 A 
ATOM     37  C   UNL A   1      44.317  34.567  28.124  1.00  0.00     0.014 A 
ATOM     38  C   UNL A   1      42.982  32.682  29.597  1.00  0.00     0.010 A 
ATOM     39  C   UNL A   1      44.174  33.190  27.626  1.00  0.00     0.010 A 
ATOM     40  C   UNL A   1      43.487  32.179  28.338  1.00  0.00    -0.014 A 
BRANCH  40  41
ATOM     41  C   UNL A   1      43.735  30.544  28.260  1.00  0.00     0.031 A 
ATOM     42  C   UNL A   1      44.886  30.414  29.209  1.00  0.00     0.074 A 
ATOM     43  C   UNL A   1      43.362  29.353  27.605  1.00  0.00     0.049 A 
ATOM     44  N   UNL A   1      45.964  31.117  28.988  1.00  0.00    -0.248 NA
ATOM     45  C   UNL A   1      44.745  29.941  30.587  1.00  0.00     0.031 C 
ATOM     46  C   UNL A   1      42.458  29.192  26.449  1.00  0.00     0.029 A 
ATOM     47  N   UNL A   1      43.704  27.959  27.801  1.00  0.00    -0.354 N 
ATOM     48  C   UNL A   1      46.784  30.940  30.072  1.00  0.00     0.074 A 
ATOM     49  C   UNL A   1      45.887  30.417  31.102  1.00  0.00     0.031 C 
ATOM     50  C   UNL A   1      42.195  27.877  26.164  1.00  0.00     0.029 A 
ATOM     51  C   UNL A   1      42.936  26.966  27.041  1.00  0.00     0.049 A 
ATOM     52  H   UNL A   1      44.422  27.689  28.418  1.00  0.00     0.167 HD
ATOM     53  C   UNL A   1      48.035  30.494  29.761  1.00  0.00     0.037 A 
ATOM     54  C   UNL A   1      42.957  25.553  27.039  1.00  0.00     0.037 A 
ATOM     55  C   UNL A   1      48.100  29.054  29.803  1.00  0.00     0.049 A 
ATOM     56  C   UNL A   1      44.325  25.211  27.445  1.00  0.00     0.074 A 
ATOM     57  C   UNL A   1      47.641  28.137  30.728  1.00  0.00     0.029 A 
ATOM     58  N   UNL A   1      48.220  28.387  28.600  1.00  0.00    -0.354 N 
ATOM     59  N   UNL A   1      45.342  25.354  26.652  1.00  0.00    -0.248 NA
ATOM     60  C   UNL A   1      44.611  24.648  28.758  1.00  0.00     0.031 C 
ATOM     61  C   UNL A   1      46.984  27.167  29.948  1.00  0.00     0.029 A 
ATOM     62  C   UNL A   1      47.460  27.239  28.645  1.00  0.00     0.049 A 
ATOM     63  H   UNL A   1      48.761  28.684  27.834  1.00  0.00     0.167 HD
ATOM     64  C   UNL A   1      46.381  25.436  27.524  1.00  0.00     0.074 A 
ATOM     65  C   UNL A   1      45.940  24.744  28.725  1.00  0.00     0.031 C 
ATOM     66  C   UNL A   1      47.170  26.535  27.422  1.00  0.00     0.037 A 
BRANCH  53  67
ATOM     67  C   UNL A   1      48.748  31.328  28.734  1.00  0.00     0.058 A 
ATOM     68  C   UNL A   1      49.815  32.133  29.149  1.00  0.00     0.135 A 
ATOM     69  C   UNL A   1      48.365  31.410  27.377  1.00  0.00     0.135 A 
ATOM     70  F   UNL A   1      50.244  32.078  30.420  1.00  0.00    -0.206 F 
ATOM     71  C   UNL A   1      50.458  32.998  28.267  1.00  0.00     0.059 A 
ATOM     72  C   UNL A   1      48.959  32.302  26.492  1.00  0.00     0.059 A 
ATOM     73  F   UNL A   1      47.422  30.593  26.880  1.00  0.00    -0.206 F 
ATOM     74  C   UNL A   1      50.012  33.088  26.946  1.00  0.00     0.060 A 
BRANCH  74  75
ATOM     75  S   UNL A   1      50.846  34.238  25.834  1.00  0.00     0.124 S 
ATOM     76  O   UNL A   1      51.974  34.688  26.646  1.00  0.00    -0.237 OA
ATOM     77  O   UNL A   1      51.192  33.367  24.716  1.00  0.00    -0.237 OA
ATOM     78  O   UNL A   1      49.837  35.257  25.566  1.00  0.00    -0.744 OA
ENDBRANCH  74  75
ENDBRANCH  53  67
BRANCH  54  79
ATOM     79  C   UNL A   1      42.219  24.198  26.634  1.00  0.00     0.058 A 
ATOM     80  C   UNL A   1      42.643  23.409  25.495  1.00  0.00     0.135 A 
ATOM     81  C   UNL A   1      41.434  23.446  27.525  1.00  0.00     0.135 A 
ATOM     82  F   UNL A   1      43.364  23.956  24.504  1.00  0.00    -0.206 F 
ATOM     83  C   UNL A   1      42.440  22.015  25.339  1.00  0.00     0.059 A 
ATOM     84  C   UNL A   1      41.192  22.040  27.373  1.00  0.00     0.059 A 
ATOM     85  F   UNL A   1      40.947  24.026  28.629  1.00  0.00    -0.206 F 
ATOM     86  C   UNL A   1      41.742  21.320  26.308  1.00  0.00     0.060 A 
BRANCH  86  87
ATOM     87  S   UNL A   1      41.704  19.490  26.241  1.00  0.00     0.124 S 
ATOM     88  O   UNL A   1      40.306  19.203  25.941  1.00  0.00    -0.237 OA
ATOM     89  O   UNL A   1      42.650  19.193  25.167  1.00  0.00    -0.237 OA
ATOM     90  O   UNL A   1      42.150  19.093  27.574  1.00  0.00    -0.744 OA
ENDBRANCH  86  87
ENDBRANCH  54  79
BRANCH  66  91
ATOM     91  C   UNL A   1      47.578  26.967  26.027  1.00  0.00     0.058 A 
ATOM     92  C   UNL A   1      46.855  27.806  25.149  1.00  0.00     0.135 A 
ATOM     93  C   UNL A   1      48.761  26.409  25.511  1.00  0.00     0.135 A 
ATOM     94  F   UNL A   1      45.763  28.475  25.549  1.00  0.00    -0.206 F 
ATOM     95  C   UNL A   1      47.239  27.998  23.818  1.00  0.00     0.059 A 
ATOM     96  C   UNL A   1      49.189  26.627  24.204  1.00  0.00     0.059 A 
ATOM     97  F   UNL A   1      49.521  25.624  26.291  1.00  0.00    -0.206 F 
ATOM     98  C   UNL A   1      48.401  27.391  23.350  1.00  0.00     0.060 A 
BRANCH  98  99
ATOM     99  S   UNL A   1      48.873  27.604  21.618  1.00  0.00     0.124 S 
ATOM    100  O   UNL A   1      49.640  26.387  21.363  1.00  0.00    -0.237 OA
ATOM    101  O   UNL A   1      47.582  27.685  20.943  1.00  0.00    -0.237 OA
ATOM    102  O   UNL A   1      49.657  28.835  21.630  1.00  0.00    -0.744 OA
ENDBRANCH  98  99
ENDBRANCH  66  91
ENDBRANCH  40  41
ENDBRANCH  32  35
ENDBRANCH  30  31
ENDBRANCH   1  30
TORSDOF 17
ENDMDL
MODEL 2
REMARK VINA RESULT:      -9.0      2.455      4.071
REMARK SMILES Cc1c(CC(=O)NCCCNC(=O)c2ccc(-c3c4nc(c(-c5c(F)cc(S(=O)(=O)[O-])cc5F)c5ccc([nH]5)c(-c5c(F)cc(S(=O)(=O)[O-])cc5F)c5nc(c(-c6c(F)cc(S(=O)(=O)[O-])cc6F)c6ccc3[nH]6)C=C5)C=C4)cc2)cc(-c2ccc(S(C)(=O)=O)cc2)n1-c1ccccc1
REMARK SMILES IDX 9 1 8 2 7 3 5 4 6 5 4 7 3 8 1 9 2 10 92 11 80 12 81 13 93 14
REMARK SMILES IDX 94 15 98 16 95 17 97 18 96 19 82 20 83 21 91 22 84 23 90 24
REMARK SMILES IDX 85 25 86 26 87 27 88 28 89 29 10 30 11 31 12 32 13 34 14 35
REMARK SMILES IDX 15 36 79 37 16 38 78 39 17 40 18 41 19 42 72 43 20 44 77 45
REMARK SMILES IDX 71 46 73 47 21 48 76 49 70 50 69 51 22 53 56 54 35 55 55 56
REMARK SMILES IDX 36 57 39 58 54 59 74 60 37 61 38 62 53 64 75 65 40 66 23 67
REMARK SMILES IDX 24 68 33 69 25 70 26 71 32 72 34 73 27 74 28 75 29 76 30 77
REMARK SMILES IDX 31 78 57 79 58 80 67 81 59 82 60 83 66 84 68 85 61 86 62 87
REMARK SMILES IDX 63 88 64 89 65 90 41 91 42 92 51 93 43 94 44 95 50 96 52 97
REMARK SMILES IDX 45 98 46 99 47 100 48 101 49 102
REMARK H PARENT 7 6 11 33 73 52 39 63
REMARK Flexibility Score: inf
ROOT
ATOM      1  C   UNL A   1      43.605  36.294  33.374  1.00  0.00     0.042 C 
ENDROOT
BRANCH   1   2
ATOM      2  C   UNL A   1      43.277  35.103  34.292  1.00  0.00     0.117 C 
BRANCH   2   3
ATOM      3  N   UNL A   1      43.966  33.875  33.942  1.00  0.00    -0.356 N 
ATOM      4  C   UNL A   1      43.578  32.571  34.029  1.00  0.00     0.224 C 
ATOM      5  O   UNL A   1      44.387  31.705  33.683  1.00  0.00    -0.275 OA
ATOM      6  H   UNL A   1      44.872  34.006  33.578  1.00  0.00     0.163 HD
BRANCH   4   7
ATOM      7  C   UNL A   1      42.175  32.187  34.464  1.00  0.00     0.137 C 
BRANCH   7   8
ATOM      8  C   UNL A   1      41.285  31.720  33.354  1.00  0.00    -0.017 A 
ATOM      9  C   UNL A   1      42.200  29.328  32.968  1.00  0.00     0.065 C 
ATOM     10  C   UNL A   1      41.271  30.477  32.732  1.00  0.00     0.024 A 
ATOM     11  N   UNL A   1      40.257  30.476  31.777  1.00  0.00    -0.314 N 
ATOM     12  C   UNL A   1      40.297  32.510  32.715  1.00  0.00     0.033 A 
ATOM     13  C   UNL A   1      39.638  31.729  31.783  1.00  0.00     0.053 A 
BRANCH  11  14
ATOM     14  C   UNL A   1      39.897  29.391  30.931  1.00  0.00     0.046 A 
ATOM     15  C   UNL A   1      39.023  28.405  31.408  1.00  0.00     0.026 A 
ATOM     16  C   UNL A   1      40.458  29.282  29.655  1.00  0.00     0.026 A 
ATOM     17  C   UNL A   1      38.714  27.308  30.607  1.00  0.00     0.002 A 
ATOM     18  C   UNL A   1      40.154  28.172  28.864  1.00  0.00     0.002 A 
ATOM     19  C   UNL A   1      39.284  27.189  29.340  1.00  0.00     0.000 A 
ENDBRANCH  11  14
BRANCH  13  20
ATOM     20  C   UNL A   1      38.430  32.085  31.030  1.00  0.00    -0.001 A 
ATOM     21  C   UNL A   1      38.524  32.658  29.750  1.00  0.00     0.011 A 
ATOM     22  C   UNL A   1      37.164  31.834  31.572  1.00  0.00     0.011 A 
ATOM     23  C   UNL A   1      37.376  33.011  29.040  1.00  0.00     0.021 A 
ATOM     24  C   UNL A   1      36.008  32.186  30.868  1.00  0.00     0.021 A 
ATOM     25  C   UNL A   1      36.122  32.785  29.611  1.00  0.00     0.067 A 
BRANCH  25  26
ATOM     26  S   UNL A   1      34.657  33.229  28.709  1.00  0.00     0.175 S 
ATOM     27  C   UNL A   1      34.095  31.702  28.003  1.00  0.00     0.163 C 
ATOM     28  O   UNL A   1      33.672  33.665  29.692  1.00  0.00    -0.224 OA
ATOM     29  O   UNL A   1      35.049  34.095  27.622  1.00  0.00    -0.224 OA
ENDBRANCH  25  26
ENDBRANCH  13  20
ENDBRANCH   7   8
ENDBRANCH   4   7
ENDBRANCH   2   3
ENDBRANCH   1   2
BRANCH   1  30
ATOM     30  C   UNL A   1      43.305  36.128  31.870  1.00  0.00     0.118 C 
BRANCH  30  31
ATOM     31  N   UNL A   1      44.279  36.733  30.988  1.00  0.00    -0.352 N 
ATOM     32  C   UNL A   1      44.755  36.257  29.774  1.00  0.00     0.251 C 
ATOM     33  H   UNL A   1      44.654  37.593  31.288  1.00  0.00     0.163 HD
ATOM     34  O   UNL A   1      45.637  36.912  29.221  1.00  0.00    -0.269 OA
BRANCH  32  35
ATOM     35  C   UNL A   1      44.320  34.921  29.200  1.00  0.00     0.039 A 
ATOM     36  C   UNL A   1      43.837  33.962  30.076  1.00  0.00     0.014 A 
ATOM     37  C   UNL A   1      44.557  34.481  27.885  1.00  0.00     0.014 A 
ATOM     38  C   UNL A   1      43.524  32.635  29.626  1.00  0.00     0.010 A 
ATOM     39  C   UNL A   1      44.315  33.096  27.452  1.00  0.00     0.010 A 
ATOM     40  C   UNL A   1      43.775  32.104  28.305  1.00  0.00    -0.014 A 
BRANCH  40  41
ATOM     41  C   UNL A   1      43.997  30.466  28.214  1.00  0.00     0.031 A 
ATOM     42  C   UNL A   1      45.126  30.307  29.183  1.00  0.00     0.074 A 
ATOM     43  C   UNL A   1      43.616  29.288  27.539  1.00  0.00     0.049 A 
ATOM     44  N   UNL A   1      46.220  30.993  28.992  1.00  0.00    -0.248 NA
ATOM     45  C   UNL A   1      44.950  29.822  30.554  1.00  0.00     0.031 C 
ATOM     46  C   UNL A   1      42.733  29.155  26.364  1.00  0.00     0.029 A 
ATOM     47  N   UNL A   1      43.931  27.887  27.727  1.00  0.00    -0.354 N 
ATOM     48  C   UNL A   1      47.015  30.792  30.089  1.00  0.00     0.074 A 
ATOM     49  C   UNL A   1      46.089  30.273  31.096  1.00  0.00     0.031 C 
ATOM     50  C   UNL A   1      42.453  27.848  26.059  1.00  0.00     0.029 A 
ATOM     51  C   UNL A   1      43.162  26.915  26.941  1.00  0.00     0.049 A 
ATOM     52  H   UNL A   1      44.631  27.598  28.355  1.00  0.00     0.167 HD
ATOM     53  C   UNL A   1      48.264  30.327  29.798  1.00  0.00     0.037 A 
ATOM     54  C   UNL A   1      43.159  25.502  26.925  1.00  0.00     0.037 A 
ATOM     55  C   UNL A   1      48.304  28.887  29.826  1.00  0.00     0.049 A 
ATOM     56  C   UNL A   1      44.512  25.132  27.353  1.00  0.00     0.074 A 
ATOM     57  C   UNL A   1      47.811  27.967  30.732  1.00  0.00     0.029 A 
ATOM     58  N   UNL A   1      48.436  28.230  28.619  1.00  0.00    -0.354 N 
ATOM     59  N   UNL A   1      45.548  25.266  26.583  1.00  0.00    -0.248 NA
ATOM     60  C   UNL A   1      44.763  24.551  28.667  1.00  0.00     0.031 C 
ATOM     61  C   UNL A   1      47.154  27.017  29.929  1.00  0.00     0.029 A 
ATOM     62  C   UNL A   1      47.657  27.094  28.637  1.00  0.00     0.049 A 
ATOM     63  H   UNL A   1      48.998  28.525  27.866  1.00  0.00     0.167 HD
ATOM     64  C   UNL A   1      46.570  25.322  27.476  1.00  0.00     0.074 A 
ATOM     65  C   UNL A   1      46.094  24.625  28.660  1.00  0.00     0.031 C 
ATOM     66  C   UNL A   1      47.380  26.407  27.400  1.00  0.00     0.037 A 
BRANCH  53  67
ATOM     67  C   UNL A   1      49.012  31.160  28.794  1.00  0.00     0.058 A 
ATOM     68  C   UNL A   1      50.050  31.981  29.247  1.00  0.00     0.135 A 
ATOM     69  C   UNL A   1      48.686  31.225  27.421  1.00  0.00     0.135 A 
ATOM     70  F   UNL A   1      50.426  31.943  30.535  1.00  0.00    -0.206 F 
ATOM     71  C   UNL A   1      50.721  32.844  28.384  1.00  0.00     0.059 A 
ATOM     72  C   UNL A   1      49.308  32.115  26.554  1.00  0.00     0.059 A 
ATOM     73  F   UNL A   1      47.775  30.391  26.892  1.00  0.00    -0.206 F 
ATOM     74  C   UNL A   1      50.331  32.917  27.044  1.00  0.00     0.060 A 
BRANCH  74  75
ATOM     75  S   UNL A   1      51.200  34.066  25.958  1.00  0.00     0.124 S 
ATOM     76  O   UNL A   1      50.346  34.073  24.772  1.00  0.00    -0.237 OA
ATOM     77  O   UNL A   1      51.178  35.292  26.749  1.00  0.00    -0.237 OA
ATOM     78  O   UNL A   1      52.507  33.446  25.770  1.00  0.00    -0.744 OA
ENDBRANCH  74  75
ENDBRANCH  53  67
BRANCH  54  79
ATOM     79  C   UNL A   1      42.406  24.164  26.491  1.00  0.00     0.058 A 
ATOM     80  C   UNL A   1      42.876  23.346  25.391  1.00  0.00     0.135 A 
ATOM     81  C   UNL A   1      41.545  23.448  27.340  1.00  0.00     0.135 A 
ATOM     82  F   UNL A   1      43.673  23.858  24.440  1.00  0.00    -0.206 F 
ATOM     83  C   UNL A   1      42.640  21.957  25.239  1.00  0.00     0.059 A 
ATOM     84  C   UNL A   1      41.270  22.048  27.190  1.00  0.00     0.059 A 
ATOM     85  F   UNL A   1      41.009  24.058  28.405  1.00  0.00    -0.206 F 
ATOM     86  C   UNL A   1      41.863  21.297  26.171  1.00  0.00     0.060 A 
BRANCH  86  87
ATOM     87  S   UNL A   1      41.773  19.468  26.124  1.00  0.00     0.124 S 
ATOM     88  O   UNL A   1      42.713  19.122  25.064  1.00  0.00    -0.237 OA
ATOM     89  O   UNL A   1      42.187  19.097  27.476  1.00  0.00    -0.237 OA
ATOM     90  O   UNL A   1      40.369  19.205  25.823  1.00  0.00    -0.744 OA
ENDBRANCH  86  87
ENDBRANCH  54  79
BRANCH  66  91
ATOM     91  C   UNL A   1      47.822  26.848  26.019  1.00  0.00     0.058 A 
ATOM     92  C   UNL A   1      47.095  27.641  25.103  1.00  0.00     0.135 A 
ATOM     93  C   UNL A   1      49.051  26.345  25.557  1.00  0.00     0.135 A 
ATOM     94  F   UNL A   1      45.956  28.259  25.452  1.00  0.00    -0.206 F 
ATOM     95  C   UNL A   1      47.522  27.840  23.786  1.00  0.00     0.059 A 
ATOM     96  C   UNL A   1      49.521  26.572  24.266  1.00  0.00     0.059 A 
ATOM     97  F   UNL A   1      49.817  25.605  26.376  1.00  0.00    -0.206 F 
ATOM     98  C   UNL A   1      48.732  27.288  23.372  1.00  0.00     0.060 A 
BRANCH  98  99
ATOM     99  S   UNL A   1      49.263  27.509  21.659  1.00  0.00     0.124 S 
ATOM    100  O   UNL A   1      50.613  26.951  21.688  1.00  0.00    -0.237 OA
ATOM    101  O   UNL A   1      48.278  26.730  20.917  1.00  0.00    -0.237 OA
ATOM    102  O   UNL A   1      49.198  28.955  21.468  1.00  0.00    -0.744 OA
ENDBRANCH  98  99
ENDBRANCH  66  91
ENDBRANCH  40  41
ENDBRANCH  32  35
ENDBRANCH  30  31
ENDBRANCH   1  30
TORSDOF 17
ENDMDL
MODEL 3
REMARK VINA RESULT:      -8.8      4.830     11.217
REMARK SMILES Cc1c(CC(=O)NCCCNC(=O)c2ccc(-c3c4nc(c(-c5c(F)cc(S(=O)(=O)[O-])cc5F)c5ccc([nH]5)c(-c5c(F)cc(S(=O)(=O)[O-])cc5F)c5nc(c(-c6c(F)cc(S(=O)(=O)[O-])cc6F)c6ccc3[nH]6)C=C5)C=C4)cc2)cc(-c2ccc(S(C)(=O)=O)cc2)n1-c1ccccc1
REMARK SMILES IDX 9 1 8 2 7 3 5 4 6 5 4 7 3 8 1 9 2 10 92 11 80 12 81 13 93 14
REMARK SMILES IDX 94 15 98 16 95 17 97 18 96 19 82 20 83 21 91 22 84 23 90 24
REMARK SMILES IDX 85 25 86 26 87 27 88 28 89 29 10 30 11 31 12 32 13 34 14 35
REMARK SMILES IDX 15 36 79 37 16 38 78 39 17 40 18 41 19 42 72 43 20 44 77 45
REMARK SMILES IDX 71 46 73 47 21 48 76 49 70 50 69 51 22 53 56 54 35 55 55 56
REMARK SMILES IDX 36 57 39 58 54 59 74 60 37 61 38 62 53 64 75 65 40 66 23 67
REMARK SMILES IDX 24 68 33 69 25 70 26 71 32 72 34 73 27 74 28 75 29 76 30 77
REMARK SMILES IDX 31 78 57 79 58 80 67 81 59 82 60 83 66 84 68 85 61 86 62 87
REMARK SMILES IDX 63 88 64 89 65 90 41 91 42 92 51 93 43 94 44 95 50 96 52 97
REMARK SMILES IDX 45 98 46 99 47 100 48 101 49 102
REMARK H PARENT 7 6 11 33 73 52 39 63
REMARK Flexibility Score: inf
ROOT
ATOM      1  C   UNL A   1      48.881  27.159  31.218  1.00  0.00     0.042 C 
ENDROOT
BRANCH   1   2
ATOM      2  C   UNL A   1      48.497  26.066  30.206  1.00  0.00     0.117 C 
BRANCH   2   3
ATOM      3  N   UNL A   1      48.851  26.375  28.833  1.00  0.00    -0.356 N 
ATOM      4  C   UNL A   1      48.341  27.288  27.958  1.00  0.00     0.224 C 
ATOM      5  O   UNL A   1      48.817  27.322  26.820  1.00  0.00    -0.275 OA
ATOM      6  H   UNL A   1      49.587  25.832  28.470  1.00  0.00     0.163 HD
BRANCH   4   7
ATOM      7  C   UNL A   1      47.277  28.285  28.381  1.00  0.00     0.137 C 
BRANCH   7   8
ATOM      8  C   UNL A   1      45.871  27.792  28.235  1.00  0.00    -0.017 A 
ATOM      9  C   UNL A   1      44.566  30.029  28.236  1.00  0.00     0.065 C 
ATOM     10  C   UNL A   1      44.705  28.542  28.137  1.00  0.00     0.024 A 
ATOM     11  N   UNL A   1      43.632  27.667  27.983  1.00  0.00    -0.314 N 
ATOM     12  C   UNL A   1      45.486  26.428  28.202  1.00  0.00     0.033 A 
ATOM     13  C   UNL A   1      44.119  26.358  27.999  1.00  0.00     0.053 A 
BRANCH  11  14
ATOM     14  C   UNL A   1      42.265  28.029  27.830  1.00  0.00     0.046 A 
ATOM     15  C   UNL A   1      41.814  28.516  26.596  1.00  0.00     0.026 A 
ATOM     16  C   UNL A   1      41.394  27.953  28.921  1.00  0.00     0.026 A 
ATOM     17  C   UNL A   1      40.491  28.928  26.457  1.00  0.00     0.002 A 
ATOM     18  C   UNL A   1      40.074  28.382  28.777  1.00  0.00     0.002 A 
ATOM     19  C   UNL A   1      39.624  28.867  27.547  1.00  0.00     0.000 A 
ENDBRANCH  11  14
BRANCH  13  20
ATOM     20  C   UNL A   1      43.330  25.152  27.718  1.00  0.00    -0.001 A 
ATOM     21  C   UNL A   1      42.732  24.426  28.761  1.00  0.00     0.011 A 
ATOM     22  C   UNL A   1      43.145  24.726  26.398  1.00  0.00     0.011 A 
ATOM     23  C   UNL A   1      41.995  23.271  28.495  1.00  0.00     0.021 A 
ATOM     24  C   UNL A   1      42.409  23.570  26.122  1.00  0.00     0.021 A 
ATOM     25  C   UNL A   1      41.849  22.841  27.174  1.00  0.00     0.067 A 
BRANCH  25  26
ATOM     26  S   UNL A   1      40.909  21.375  26.830  1.00  0.00     0.175 S 
ATOM     27  C   UNL A   1      39.339  21.980  26.269  1.00  0.00     0.163 C 
ATOM     28  O   UNL A   1      41.564  20.705  25.713  1.00  0.00    -0.224 OA
ATOM     29  O   UNL A   1      40.689  20.683  28.079  1.00  0.00    -0.224 OA
ENDBRANCH  25  26
ENDBRANCH  13  20
ENDBRANCH   7   8
ENDBRANCH   4   7
ENDBRANCH   2   3
ENDBRANCH   1   2
BRANCH   1  30
ATOM     30  C   UNL A   1      48.211  27.101  32.607  1.00  0.00     0.118 C 
BRANCH  30  31
ATOM     31  N   UNL A   1      48.094  25.771  33.167  1.00  0.00    -0.352 N 
ATOM     32  C   UNL A   1      46.942  25.089  33.533  1.00  0.00     0.251 C 
ATOM     33  H   UNL A   1      48.942  25.289  33.307  1.00  0.00     0.163 HD
ATOM     34  O   UNL A   1      47.085  23.983  34.052  1.00  0.00    -0.269 OA
BRANCH  32  35
ATOM     35  C   UNL A   1      45.563  25.714  33.433  1.00  0.00     0.039 A 
ATOM     36  C   UNL A   1      45.083  26.037  32.173  1.00  0.00     0.014 A 
ATOM     37  C   UNL A   1      44.803  26.195  34.515  1.00  0.00     0.014 A 
ATOM     38  C   UNL A   1      43.844  26.742  32.008  1.00  0.00     0.010 A 
ATOM     39  C   UNL A   1      43.579  26.992  34.338  1.00  0.00     0.010 A 
ATOM     40  C   UNL A   1      43.033  27.297  33.069  1.00  0.00    -0.014 A 
BRANCH  40  41
ATOM     41  C   UNL A   1      42.100  28.601  32.659  1.00  0.00     0.031 A 
ATOM     42  C   UNL A   1      43.139  29.678  32.686  1.00  0.00     0.074 A 
ATOM     43  C   UNL A   1      40.784  29.046  32.420  1.00  0.00     0.049 A 
ATOM     44  N   UNL A   1      43.833  29.855  33.778  1.00  0.00    -0.248 NA
ATOM     45  C   UNL A   1      43.761  30.228  31.480  1.00  0.00     0.031 C 
ATOM     46  C   UNL A   1      39.524  28.293  32.580  1.00  0.00     0.029 A 
ATOM     47  N   UNL A   1      40.223  30.304  31.974  1.00  0.00    -0.354 N 
ATOM     48  C   UNL A   1      44.807  30.773  33.487  1.00  0.00     0.074 A 
ATOM     49  C   UNL A   1      44.857  30.773  32.026  1.00  0.00     0.031 C 
ATOM     50  C   UNL A   1      38.435  28.981  32.112  1.00  0.00     0.029 A 
ATOM     51  C   UNL A   1      38.795  30.320  31.634  1.00  0.00     0.049 A 
ATOM     52  H   UNL A   1      40.775  31.115  31.901  1.00  0.00     0.167 HD
ATOM     53  C   UNL A   1      44.819  31.858  34.315  1.00  0.00     0.037 A 
ATOM     54  C   UNL A   1      37.957  31.332  31.114  1.00  0.00     0.037 A 
ATOM     55  C   UNL A   1      44.014  32.928  33.782  1.00  0.00     0.049 A 
ATOM     56  C   UNL A   1      38.577  32.583  31.566  1.00  0.00     0.074 A 
ATOM     57  C   UNL A   1      43.928  33.477  32.517  1.00  0.00     0.029 A 
ATOM     58  N   UNL A   1      42.824  33.210  34.424  1.00  0.00    -0.354 N 
ATOM     59  N   UNL A   1      38.514  32.986  32.798  1.00  0.00    -0.248 NA
ATOM     60  C   UNL A   1      39.270  33.468  30.638  1.00  0.00     0.031 C 
ATOM     61  C   UNL A   1      42.545  33.546  32.269  1.00  0.00     0.029 A 
ATOM     62  C   UNL A   1      41.868  33.522  33.482  1.00  0.00     0.049 A 
ATOM     63  H   UNL A   1      42.682  33.191  35.397  1.00  0.00     0.167 HD
ATOM     64  C   UNL A   1      39.583  33.820  32.887  1.00  0.00     0.074 A 
ATOM     65  C   UNL A   1      39.830  34.284  31.531  1.00  0.00     0.031 C 
ATOM     66  C   UNL A   1      40.480  33.550  33.867  1.00  0.00     0.037 A 
BRANCH  53  67
ATOM     67  C   UNL A   1      44.885  31.515  35.777  1.00  0.00     0.058 A 
ATOM     68  C   UNL A   1      46.109  31.646  36.441  1.00  0.00     0.135 A 
ATOM     69  C   UNL A   1      43.799  30.997  36.518  1.00  0.00     0.135 A 
ATOM     70  F   UNL A   1      47.171  32.160  35.799  1.00  0.00    -0.206 F 
ATOM     71  C   UNL A   1      46.260  31.259  37.770  1.00  0.00     0.059 A 
ATOM     72  C   UNL A   1      43.939  30.558  37.828  1.00  0.00     0.059 A 
ATOM     73  F   UNL A   1      42.568  30.942  35.982  1.00  0.00    -0.206 F 
ATOM     74  C   UNL A   1      45.174  30.701  38.450  1.00  0.00     0.060 A 
BRANCH  74  75
ATOM     75  S   UNL A   1      45.407  30.182  40.162  1.00  0.00     0.124 S 
ATOM     76  O   UNL A   1      46.518  31.028  40.592  1.00  0.00    -0.237 OA
ATOM     77  O   UNL A   1      44.111  30.512  40.747  1.00  0.00    -0.237 OA
ATOM     78  O   UNL A   1      45.720  28.762  40.056  1.00  0.00    -0.744 OA
ENDBRANCH  74  75
ENDBRANCH  53  67
BRANCH  54  79
ATOM     79  C   UNL A   1      36.573  31.704  30.414  1.00  0.00     0.058 A 
ATOM     80  C   UNL A   1      35.467  32.269  31.161  1.00  0.00     0.135 A 
ATOM     81  C   UNL A   1      36.438  31.931  29.034  1.00  0.00     0.135 A 
ATOM     82  F   UNL A   1      35.385  32.120  32.493  1.00  0.00    -0.206 F 
ATOM     83  C   UNL A   1      34.441  33.083  30.622  1.00  0.00     0.059 A 
ATOM     84  C   UNL A   1      35.392  32.728  28.462  1.00  0.00     0.059 A 
ATOM     85  F   UNL A   1      37.369  31.463  28.193  1.00  0.00    -0.206 F 
ATOM     86  C   UNL A   1      34.429  33.346  29.265  1.00  0.00     0.060 A 
BRANCH  86  87
ATOM     87  S   UNL A   1      33.266  34.601  28.610  1.00  0.00     0.124 S 
ATOM     88  O   UNL A   1      34.157  35.608  28.044  1.00  0.00    -0.237 OA
ATOM     89  O   UNL A   1      32.488  33.834  27.638  1.00  0.00    -0.237 OA
ATOM     90  O   UNL A   1      32.519  35.022  29.792  1.00  0.00    -0.744 OA
ENDBRANCH  86  87
ENDBRANCH  54  79
BRANCH  66  91
ATOM     91  C   UNL A   1      39.928  33.204  35.236  1.00  0.00     0.058 A 
ATOM     92  C   UNL A   1      39.506  31.934  35.689  1.00  0.00     0.135 A 
ATOM     93  C   UNL A   1      39.731  34.273  36.128  1.00  0.00     0.135 A 
ATOM     94  F   UNL A   1      39.724  30.820  34.974  1.00  0.00    -0.206 F 
ATOM     95  C   UNL A   1      38.847  31.760  36.910  1.00  0.00     0.059 A 
ATOM     96  C   UNL A   1      39.123  34.114  37.371  1.00  0.00     0.059 A 
ATOM     97  F   UNL A   1      40.131  35.508  35.785  1.00  0.00    -0.206 F 
ATOM     98  C   UNL A   1      38.647  32.860  37.739  1.00  0.00     0.060 A 
BRANCH  98  99
ATOM     99  S   UNL A   1      37.758  32.642  39.297  1.00  0.00     0.124 S 
ATOM    100  O   UNL A   1      37.769  31.189  39.450  1.00  0.00    -0.237 OA
ATOM    101  O   UNL A   1      38.588  33.379  40.244  1.00  0.00    -0.237 OA
ATOM    102  O   UNL A   1      36.447  33.223  39.024  1.00  0.00    -0.744 OA
ENDBRANCH  98  99
ENDBRANCH  66  91
ENDBRANCH  40  41
ENDBRANCH  32  35
ENDBRANCH  30  31
ENDBRANCH   1  30
TORSDOF 17
ENDMDL
