MODEL 1
REMARK VINA RESULT:     -11.4      0.000      0.000
REMARK SMILES CC(=O)N[C@@H](C)C(=O)N1CCC[C@H]1C(=O)NCCCNC(=O)c1ccc(-c2c3nc(c(-c4c(F)cc(S(=O)(=O)[O-])cc4F)c4ccc([nH]4)c(-c4c(F)cc(S(=O)(=O)[O-])cc4F)c4nc(c(-c5c(F)cc(S(=O)(=O)[O-])cc5F)c5ccc2[nH]5)C=C4)C=C3)cc1
REMARK SMILES IDX 18 1 17 2 16 3 14 4 15 5 13 7 9 8 10 9 11 10 12 11 7 12 8 13
REMARK SMILES IDX 5 14 6 15 4 16 1 17 2 18 3 19 19 21 20 22 21 23 22 25 23 26
REMARK SMILES IDX 24 27 88 28 25 29 87 30 26 31 27 32 28 33 81 34 29 35 86 36
REMARK SMILES IDX 80 37 82 38 30 39 85 40 79 41 78 42 31 44 65 45 44 46 64 47
REMARK SMILES IDX 45 48 48 49 63 50 83 51 46 52 47 53 62 55 84 56 49 57 32 58
REMARK SMILES IDX 33 59 42 60 34 61 35 62 41 63 43 64 36 65 37 66 38 67 39 68
REMARK SMILES IDX 40 69 66 70 67 71 76 72 68 73 69 74 75 75 77 76 70 77 71 78
REMARK SMILES IDX 72 79 73 80 74 81 50 82 51 83 60 84 52 85 53 86 59 87 61 88
REMARK SMILES IDX 54 89 55 90 56 91 57 92 58 93
REMARK H PARENT 16 6 4 20 20 24 82 43 48 54
REMARK Flexibility Score: inf
ROOT
ATOM      1  C   UNL A   1      38.242  19.676  25.196  1.00  0.00     0.042 C 
ENDROOT
BRANCH   1   2
ATOM      2  C   UNL A   1      37.272  20.775  24.814  1.00  0.00     0.117 C 
BRANCH   2   3
ATOM      3  N   UNL A   1      36.375  21.140  25.896  1.00  0.00    -0.354 N 
ATOM      4  C   UNL A   1      35.008  21.128  25.908  1.00  0.00     0.242 C 
ATOM      5  O   UNL A   1      34.432  21.239  26.992  1.00  0.00    -0.273 OA
ATOM      6  H   UNL A   1      36.807  21.433  26.730  1.00  0.00     0.163 HD
BRANCH   4   7
ATOM      7  C   UNL A   1      34.253  20.931  24.577  1.00  0.00     0.174 C 
ATOM      8  N   UNL A   1      32.980  20.216  24.723  1.00  0.00    -0.329 N 
ATOM      9  C   UNL A   1      31.861  21.116  24.576  1.00  0.00     0.120 C 
ATOM     10  C   UNL A   1      32.376  22.144  23.593  1.00  0.00     0.024 C 
ATOM     11  C   UNL A   1      33.848  22.292  23.971  1.00  0.00     0.037 C 
BRANCH   8  12
ATOM     12  C   UNL A   1      32.880  18.890  25.067  1.00  0.00     0.245 C 
ATOM     13  O   UNL A   1      32.524  18.533  26.189  1.00  0.00    -0.272 OA
BRANCH  12  14
ATOM     14  C   UNL A   1      33.210  17.841  23.982  1.00  0.00     0.168 C 
ATOM     15  C   UNL A   1      32.552  18.149  22.642  1.00  0.00     0.041 C 
BRANCH  14  16
ATOM     16  N   UNL A   1      32.911  16.490  24.430  1.00  0.00    -0.345 N 
ATOM     17  C   UNL A   1      35.199  15.946  25.174  1.00  0.00     0.114 C 
ATOM     18  C   UNL A   1      33.737  15.612  25.063  1.00  0.00     0.217 C 
ATOM     19  O   UNL A   1      33.273  14.557  25.490  1.00  0.00    -0.275 OA
ATOM     20  H   UNL A   1      31.996  16.169  24.253  1.00  0.00     0.164 HD
ENDBRANCH  14  16
ENDBRANCH  12  14
ENDBRANCH   8  12
ENDBRANCH   4   7
ENDBRANCH   2   3
ENDBRANCH   1   2
BRANCH   1  21
ATOM     21  C   UNL A   1      39.400  20.160  26.051  1.00  0.00     0.118 C 
BRANCH  21  22
ATOM     22  N   UNL A   1      40.548  19.263  26.017  1.00  0.00    -0.352 N 
ATOM     23  C   UNL A   1      41.890  19.541  26.057  1.00  0.00     0.251 C 
ATOM     24  H   UNL A   1      40.324  18.307  25.954  1.00  0.00     0.163 HD
ATOM     25  O   UNL A   1      42.700  18.641  25.834  1.00  0.00    -0.269 OA
BRANCH  23  26
ATOM     26  C   UNL A   1      42.367  20.909  26.347  1.00  0.00     0.039 A 
ATOM     27  C   UNL A   1      42.589  21.283  27.675  1.00  0.00     0.014 A 
ATOM     28  C   UNL A   1      42.572  21.834  25.321  1.00  0.00     0.014 A 
ATOM     29  C   UNL A   1      43.058  22.565  27.963  1.00  0.00     0.010 A 
ATOM     30  C   UNL A   1      43.153  23.064  25.599  1.00  0.00     0.010 A 
ATOM     31  C   UNL A   1      43.367  23.460  26.926  1.00  0.00    -0.014 A 
BRANCH  31  32
ATOM     32  C   UNL A   1      43.851  24.834  27.209  1.00  0.00     0.031 A 
ATOM     33  C   UNL A   1      45.307  25.170  27.006  1.00  0.00     0.074 A 
ATOM     34  C   UNL A   1      42.999  25.763  27.685  1.00  0.00     0.049 A 
ATOM     35  N   UNL A   1      45.935  26.295  27.231  1.00  0.00    -0.248 NA
ATOM     36  C   UNL A   1      46.181  24.088  26.519  1.00  0.00     0.031 C 
ATOM     37  C   UNL A   1      41.580  25.541  27.976  1.00  0.00     0.029 A 
ATOM     38  N   UNL A   1      43.200  27.080  28.008  1.00  0.00    -0.354 N 
ATOM     39  C   UNL A   1      47.271  26.050  26.929  1.00  0.00     0.074 A 
ATOM     40  C   UNL A   1      47.377  24.653  26.578  1.00  0.00     0.031 C 
ATOM     41  C   UNL A   1      41.033  26.692  28.400  1.00  0.00     0.029 A 
ATOM     42  C   UNL A   1      42.065  27.722  28.446  1.00  0.00     0.049 A 
ATOM     43  H   UNL A   1      44.075  27.526  27.932  1.00  0.00     0.167 HD
ATOM     44  C   UNL A   1      48.310  26.918  26.912  1.00  0.00     0.037 A 
ATOM     45  C   UNL A   1      41.880  28.997  28.839  1.00  0.00     0.037 A 
ATOM     46  C   UNL A   1      48.187  28.316  27.230  1.00  0.00     0.049 A 
ATOM     47  C   UNL A   1      43.046  29.949  28.795  1.00  0.00     0.074 A 
ATOM     48  C   UNL A   1      49.164  29.296  27.192  1.00  0.00     0.029 A 
ATOM     49  N   UNL A   1      47.015  28.935  27.640  1.00  0.00    -0.354 N 
ATOM     50  N   UNL A   1      44.290  29.714  28.449  1.00  0.00    -0.248 NA
ATOM     51  C   UNL A   1      42.780  31.340  29.178  1.00  0.00     0.031 C 
ATOM     52  C   UNL A   1      48.592  30.496  27.626  1.00  0.00     0.029 A 
ATOM     53  C   UNL A   1      47.246  30.279  27.872  1.00  0.00     0.049 A 
ATOM     54  H   UNL A   1      46.146  28.483  27.748  1.00  0.00     0.167 HD
ATOM     55  C   UNL A   1      44.945  30.938  28.534  1.00  0.00     0.074 A 
ATOM     56  C   UNL A   1      43.957  31.910  28.957  1.00  0.00     0.031 C 
ATOM     57  C   UNL A   1      46.245  31.234  28.280  1.00  0.00     0.037 A 
BRANCH  44  58
ATOM     58  C   UNL A   1      49.664  26.381  26.529  1.00  0.00     0.058 A 
ATOM     59  C   UNL A   1      50.103  26.363  25.195  1.00  0.00     0.135 A 
ATOM     60  C   UNL A   1      50.545  25.900  27.511  1.00  0.00     0.135 A 
ATOM     61  F   UNL A   1      49.296  26.793  24.211  1.00  0.00    -0.206 F 
ATOM     62  C   UNL A   1      51.351  25.859  24.845  1.00  0.00     0.059 A 
ATOM     63  C   UNL A   1      51.811  25.422  27.187  1.00  0.00     0.059 A 
ATOM     64  F   UNL A   1      50.178  25.889  28.803  1.00  0.00    -0.206 F 
ATOM     65  C   UNL A   1      52.200  25.392  25.849  1.00  0.00     0.060 A 
BRANCH  65  66
ATOM     66  S   UNL A   1      53.820  24.751  25.378  1.00  0.00     0.124 S 
ATOM     67  O   UNL A   1      54.573  24.927  26.615  1.00  0.00    -0.237 OA
ATOM     68  O   UNL A   1      53.515  23.372  25.010  1.00  0.00    -0.237 OA
ATOM     69  O   UNL A   1      54.220  25.617  24.273  1.00  0.00    -0.744 OA
ENDBRANCH  65  66
ENDBRANCH  44  58
BRANCH  45  70
ATOM     70  C   UNL A   1      40.531  29.455  29.270  1.00  0.00     0.058 A 
ATOM     71  C   UNL A   1      39.509  29.674  28.335  1.00  0.00     0.135 A 
ATOM     72  C   UNL A   1      40.234  29.675  30.624  1.00  0.00     0.135 A 
ATOM     73  F   UNL A   1      39.742  29.482  27.028  1.00  0.00    -0.206 F 
ATOM     74  C   UNL A   1      38.247  30.116  28.722  1.00  0.00     0.059 A 
ATOM     75  C   UNL A   1      38.973  30.089  31.039  1.00  0.00     0.059 A 
ATOM     76  F   UNL A   1      41.170  29.460  31.561  1.00  0.00    -0.206 F 
ATOM     77  C   UNL A   1      37.989  30.320  30.078  1.00  0.00     0.060 A 
BRANCH  77  78
ATOM     78  S   UNL A   1      36.337  30.853  30.574  1.00  0.00     0.124 S 
ATOM     79  O   UNL A   1      35.968  29.818  31.533  1.00  0.00    -0.237 OA
ATOM     80  O   UNL A   1      36.596  32.178  31.130  1.00  0.00    -0.237 OA
ATOM     81  O   UNL A   1      35.590  30.845  29.319  1.00  0.00    -0.744 OA
ENDBRANCH  77  78
ENDBRANCH  45  70
BRANCH  57  82
ATOM     82  C   UNL A   1      46.661  32.676  28.393  1.00  0.00     0.058 A 
ATOM     83  C   UNL A   1      47.210  33.204  29.570  1.00  0.00     0.135 A 
ATOM     84  C   UNL A   1      46.539  33.532  27.285  1.00  0.00     0.135 A 
ATOM     85  F   UNL A   1      47.348  32.431  30.659  1.00  0.00    -0.206 F 
ATOM     86  C   UNL A   1      47.587  34.541  29.659  1.00  0.00     0.059 A 
ATOM     87  C   UNL A   1      46.941  34.861  27.340  1.00  0.00     0.059 A 
ATOM     88  F   UNL A   1      46.034  33.073  26.128  1.00  0.00    -0.206 F 
ATOM     89  C   UNL A   1      47.446  35.363  28.539  1.00  0.00     0.060 A 
BRANCH  89  90
ATOM     90  S   UNL A   1      47.946  37.091  28.664  1.00  0.00     0.124 S 
ATOM     91  O   UNL A   1      48.495  37.140  30.015  1.00  0.00    -0.237 OA
ATOM     92  O   UNL A   1      48.917  37.214  27.580  1.00  0.00    -0.237 OA
ATOM     93  O   UNL A   1      46.699  37.822  28.466  1.00  0.00    -0.744 OA
ENDBRANCH  89  90
ENDBRANCH  57  82
ENDBRANCH  31  32
ENDBRANCH  23  26
ENDBRANCH  21  22
ENDBRANCH   1  21
TORSDOF 16
ENDMDL
MODEL 2
REMARK VINA RESULT:     -11.2      0.588      8.472
REMARK SMILES CC(=O)N[C@@H](C)C(=O)N1CCC[C@H]1C(=O)NCCCNC(=O)c1ccc(-c2c3nc(c(-c4c(F)cc(S(=O)(=O)[O-])cc4F)c4ccc([nH]4)c(-c4c(F)cc(S(=O)(=O)[O-])cc4F)c4nc(c(-c5c(F)cc(S(=O)(=O)[O-])cc5F)c5ccc2[nH]5)C=C4)C=C3)cc1
REMARK SMILES IDX 18 1 17 2 16 3 14 4 15 5 13 7 9 8 10 9 11 10 12 11 7 12 8 13
REMARK SMILES IDX 5 14 6 15 4 16 1 17 2 18 3 19 19 21 20 22 21 23 22 25 23 26
REMARK SMILES IDX 24 27 88 28 25 29 87 30 26 31 27 32 28 33 81 34 29 35 86 36
REMARK SMILES IDX 80 37 82 38 30 39 85 40 79 41 78 42 31 44 65 45 44 46 64 47
REMARK SMILES IDX 45 48 48 49 63 50 83 51 46 52 47 53 62 55 84 56 49 57 32 58
REMARK SMILES IDX 33 59 42 60 34 61 35 62 41 63 43 64 36 65 37 66 38 67 39 68
REMARK SMILES IDX 40 69 66 70 67 71 76 72 68 73 69 74 75 75 77 76 70 77 71 78
REMARK SMILES IDX 72 79 73 80 74 81 50 82 51 83 60 84 52 85 53 86 59 87 61 88
REMARK SMILES IDX 54 89 55 90 56 91 57 92 58 93
REMARK H PARENT 16 6 4 20 20 24 82 43 48 54
REMARK Flexibility Score: inf
ROOT
ATOM      1  C   UNL A   1      38.173  19.574  25.147  1.00  0.00     0.042 C 
ENDROOT
BRANCH   1   2
ATOM      2  C   UNL A   1      37.195  20.652  24.725  1.00  0.00     0.117 C 
BRANCH   2   3
ATOM      3  N   UNL A   1      36.337  21.093  25.810  1.00  0.00    -0.354 N 
ATOM      4  C   UNL A   1      34.970  21.142  25.847  1.00  0.00     0.242 C 
ATOM      5  O   UNL A   1      34.422  21.316  26.937  1.00  0.00    -0.273 OA
ATOM      6  H   UNL A   1      36.797  21.395  26.626  1.00  0.00     0.163 HD
BRANCH   4   7
ATOM      7  C   UNL A   1      34.182  20.934  24.538  1.00  0.00     0.174 C 
ATOM      8  N   UNL A   1      32.922  20.204  24.720  1.00  0.00    -0.329 N 
ATOM      9  C   UNL A   1      31.789  21.090  24.603  1.00  0.00     0.120 C 
ATOM     10  C   UNL A   1      32.264  22.122  23.605  1.00  0.00     0.024 C 
ATOM     11  C   UNL A   1      33.743  22.290  23.942  1.00  0.00     0.037 C 
BRANCH   8  12
ATOM     12  C   UNL A   1      32.849  18.877  25.068  1.00  0.00     0.245 C 
ATOM     13  O   UNL A   1      32.514  18.517  26.196  1.00  0.00    -0.272 OA
BRANCH  12  14
ATOM     14  C   UNL A   1      33.178  17.832  23.980  1.00  0.00     0.168 C 
ATOM     15  C   UNL A   1      32.522  18.143  22.641  1.00  0.00     0.041 C 
BRANCH  14  16
ATOM     16  N   UNL A   1      32.878  16.479  24.423  1.00  0.00    -0.345 N 
ATOM     17  C   UNL A   1      35.156  15.945  25.204  1.00  0.00     0.114 C 
ATOM     18  C   UNL A   1      33.698  15.605  25.070  1.00  0.00     0.217 C 
ATOM     19  O   UNL A   1      33.232  14.548  25.490  1.00  0.00    -0.275 OA
ATOM     20  H   UNL A   1      31.968  16.154  24.233  1.00  0.00     0.164 HD
ENDBRANCH  14  16
ENDBRANCH  12  14
ENDBRANCH   8  12
ENDBRANCH   4   7
ENDBRANCH   2   3
ENDBRANCH   1   2
BRANCH   1  21
ATOM     21  C   UNL A   1      39.360  20.106  25.932  1.00  0.00     0.118 C 
BRANCH  21  22
ATOM     22  N   UNL A   1      40.464  19.157  26.007  1.00  0.00    -0.352 N 
ATOM     23  C   UNL A   1      41.814  19.376  26.098  1.00  0.00     0.251 C 
ATOM     24  H   UNL A   1      40.197  18.210  25.988  1.00  0.00     0.163 HD
ATOM     25  O   UNL A   1      42.590  18.430  25.968  1.00  0.00    -0.269 OA
BRANCH  23  26
ATOM     26  C   UNL A   1      42.341  20.737  26.332  1.00  0.00     0.039 A 
ATOM     27  C   UNL A   1      42.465  21.200  27.644  1.00  0.00     0.014 A 
ATOM     28  C   UNL A   1      42.691  21.568  25.265  1.00  0.00     0.014 A 
ATOM     29  C   UNL A   1      42.980  22.475  27.882  1.00  0.00     0.010 A 
ATOM     30  C   UNL A   1      43.314  22.785  25.507  1.00  0.00     0.010 A 
ATOM     31  C   UNL A   1      43.432  23.270  26.816  1.00  0.00    -0.014 A 
BRANCH  31  32
ATOM     32  C   UNL A   1      43.967  24.635  27.043  1.00  0.00     0.031 A 
ATOM     33  C   UNL A   1      43.040  25.737  27.492  1.00  0.00     0.074 A 
ATOM     34  C   UNL A   1      45.269  24.896  26.809  1.00  0.00     0.049 A 
ATOM     35  N   UNL A   1      43.301  27.000  27.709  1.00  0.00    -0.248 NA
ATOM     36  C   UNL A   1      41.624  25.379  27.691  1.00  0.00     0.031 C 
ATOM     37  C   UNL A   1      46.251  23.927  26.317  1.00  0.00     0.029 A 
ATOM     38  N   UNL A   1      45.989  26.053  26.952  1.00  0.00    -0.354 N 
ATOM     39  C   UNL A   1      42.085  27.584  28.051  1.00  0.00     0.074 A 
ATOM     40  C   UNL A   1      41.075  26.557  27.941  1.00  0.00     0.031 C 
ATOM     41  C   UNL A   1      47.453  24.522  26.235  1.00  0.00     0.029 A 
ATOM     42  C   UNL A   1      47.320  25.920  26.631  1.00  0.00     0.049 A 
ATOM     43  H   UNL A   1      45.593  26.901  27.257  1.00  0.00     0.167 HD
ATOM     44  C   UNL A   1      41.836  28.851  28.455  1.00  0.00     0.037 A 
ATOM     45  C   UNL A   1      48.319  26.823  26.654  1.00  0.00     0.037 A 
ATOM     46  C   UNL A   1      42.855  29.858  28.595  1.00  0.00     0.049 A 
ATOM     47  C   UNL A   1      48.023  28.223  27.123  1.00  0.00     0.074 A 
ATOM     48  C   UNL A   1      42.723  31.160  29.048  1.00  0.00     0.029 A 
ATOM     49  N   UNL A   1      44.196  29.676  28.290  1.00  0.00    -0.354 N 
ATOM     50  N   UNL A   1      46.878  28.742  27.501  1.00  0.00    -0.248 NA
ATOM     51  C   UNL A   1      49.156  29.154  27.185  1.00  0.00     0.031 C 
ATOM     52  C   UNL A   1      43.975  31.777  28.969  1.00  0.00     0.029 A 
ATOM     53  C   UNL A   1      44.900  30.843  28.529  1.00  0.00     0.049 A 
ATOM     54  H   UNL A   1      44.589  28.838  27.952  1.00  0.00     0.167 HD
ATOM     55  C   UNL A   1      47.162  30.049  27.884  1.00  0.00     0.074 A 
ATOM     56  C   UNL A   1      48.586  30.237  27.699  1.00  0.00     0.031 C 
ATOM     57  C   UNL A   1      46.321  31.006  28.352  1.00  0.00     0.037 A 
BRANCH  44  58
ATOM     58  C   UNL A   1      40.412  29.216  28.781  1.00  0.00     0.058 A 
ATOM     59  C   UNL A   1      39.458  29.446  27.775  1.00  0.00     0.135 A 
ATOM     60  C   UNL A   1      39.987  29.311  30.116  1.00  0.00     0.135 A 
ATOM     61  F   UNL A   1      39.812  29.387  26.481  1.00  0.00    -0.206 F 
ATOM     62  C   UNL A   1      38.145  29.790  28.081  1.00  0.00     0.059 A 
ATOM     63  C   UNL A   1      38.671  29.621  30.444  1.00  0.00     0.059 A 
ATOM     64  F   UNL A   1      40.856  29.105  31.119  1.00  0.00    -0.206 F 
ATOM     65  C   UNL A   1      37.760  29.874  29.419  1.00  0.00     0.060 A 
BRANCH  65  66
ATOM     66  S   UNL A   1      36.051  30.311  29.797  1.00  0.00     0.124 S 
ATOM     67  O   UNL A   1      35.904  29.773  31.146  1.00  0.00    -0.237 OA
ATOM     68  O   UNL A   1      36.071  31.767  29.693  1.00  0.00    -0.237 OA
ATOM     69  O   UNL A   1      35.286  29.622  28.761  1.00  0.00    -0.744 OA
ENDBRANCH  65  66
ENDBRANCH  44  58
BRANCH  45  70
ATOM     70  C   UNL A   1      49.697  26.421  26.258  1.00  0.00     0.058 A 
ATOM     71  C   UNL A   1      50.524  25.709  27.140  1.00  0.00     0.135 A 
ATOM     72  C   UNL A   1      50.210  26.733  24.990  1.00  0.00     0.135 A 
ATOM     73  F   UNL A   1      50.081  25.390  28.366  1.00  0.00    -0.206 F 
ATOM     74  C   UNL A   1      51.818  25.340  26.789  1.00  0.00     0.059 A 
ATOM     75  C   UNL A   1      51.491  26.350  24.605  1.00  0.00     0.059 A 
ATOM     76  F   UNL A   1      49.453  27.394  24.101  1.00  0.00    -0.206 F 
ATOM     77  C   UNL A   1      52.292  25.664  25.517  1.00  0.00     0.060 A 
BRANCH  77  78
ATOM     78  S   UNL A   1      53.959  25.143  25.055  1.00  0.00     0.124 S 
ATOM     79  O   UNL A   1      54.736  25.590  26.206  1.00  0.00    -0.237 OA
ATOM     80  O   UNL A   1      53.800  23.700  24.912  1.00  0.00    -0.237 OA
ATOM     81  O   UNL A   1      54.204  25.866  23.810  1.00  0.00    -0.744 OA
ENDBRANCH  77  78
ENDBRANCH  45  70
BRANCH  57  82
ATOM     82  C   UNL A   1      46.928  32.323  28.755  1.00  0.00     0.058 A 
ATOM     83  C   UNL A   1      47.062  33.390  27.854  1.00  0.00     0.135 A 
ATOM     84  C   UNL A   1      47.349  32.527  30.080  1.00  0.00     0.135 A 
ATOM     85  F   UNL A   1      46.678  33.249  26.576  1.00  0.00    -0.206 F 
ATOM     86  C   UNL A   1      47.630  34.600  28.242  1.00  0.00     0.059 A 
ATOM     87  C   UNL A   1      47.887  33.739  30.498  1.00  0.00     0.059 A 
ATOM     88  F   UNL A   1      47.229  31.544  30.988  1.00  0.00    -0.206 F 
ATOM     89  C   UNL A   1      48.041  34.764  29.567  1.00  0.00     0.060 A 
BRANCH  89  90
ATOM     90  S   UNL A   1      48.766  36.340  30.060  1.00  0.00     0.124 S 
ATOM     91  O   UNL A   1      47.998  36.653  31.261  1.00  0.00    -0.237 OA
ATOM     92  O   UNL A   1      50.166  35.986  30.275  1.00  0.00    -0.237 OA
ATOM     93  O   UNL A   1      48.514  37.206  28.911  1.00  0.00    -0.744 OA
ENDBRANCH  89  90
ENDBRANCH  57  82
ENDBRANCH  31  32
ENDBRANCH  23  26
ENDBRANCH  21  22
ENDBRANCH   1  21
TORSDOF 16
ENDMDL
MODEL 3
REMARK VINA RESULT:     -11.1      6.670      8.981
REMARK SMILES CC(=O)N[C@@H](C)C(=O)N1CCC[C@H]1C(=O)NCCCNC(=O)c1ccc(-c2c3nc(c(-c4c(F)cc(S(=O)(=O)[O-])cc4F)c4ccc([nH]4)c(-c4c(F)cc(S(=O)(=O)[O-])cc4F)c4nc(c(-c5c(F)cc(S(=O)(=O)[O-])cc5F)c5ccc2[nH]5)C=C4)C=C3)cc1
REMARK SMILES IDX 18 1 17 2 16 3 14 4 15 5 13 7 9 8 10 9 11 10 12 11 7 12 8 13
REMARK SMILES IDX 5 14 6 15 4 16 1 17 2 18 3 19 19 21 20 22 21 23 22 25 23 26
REMARK SMILES IDX 24 27 88 28 25 29 87 30 26 31 27 32 28 33 81 34 29 35 86 36
REMARK SMILES IDX 80 37 82 38 30 39 85 40 79 41 78 42 31 44 65 45 44 46 64 47
REMARK SMILES IDX 45 48 48 49 63 50 83 51 46 52 47 53 62 55 84 56 49 57 32 58
REMARK SMILES IDX 33 59 42 60 34 61 35 62 41 63 43 64 36 65 37 66 38 67 39 68
REMARK SMILES IDX 40 69 66 70 67 71 76 72 68 73 69 74 75 75 77 76 70 77 71 78
REMARK SMILES IDX 72 79 73 80 74 81 50 82 51 83 60 84 52 85 53 86 59 87 61 88
REMARK SMILES IDX 54 89 55 90 56 91 57 92 58 93
REMARK H PARENT 16 6 4 20 20 24 82 43 48 54
REMARK Flexibility Score: inf
ROOT
ATOM      1  C   UNL A   1      37.666  23.096  25.762  1.00  0.00     0.042 C 
ENDROOT
BRANCH   1   2
ATOM      2  C   UNL A   1      36.179  23.381  25.824  1.00  0.00     0.117 C 
BRANCH   2   3
ATOM      3  N   UNL A   1      35.492  22.585  26.825  1.00  0.00    -0.354 N 
ATOM      4  C   UNL A   1      34.149  22.369  26.964  1.00  0.00     0.242 C 
ATOM      5  O   UNL A   1      33.777  21.473  27.723  1.00  0.00    -0.273 OA
ATOM      6  H   UNL A   1      36.067  22.140  27.489  1.00  0.00     0.163 HD
BRANCH   4   7
ATOM      7  C   UNL A   1      33.167  23.223  26.135  1.00  0.00     0.174 C 
ATOM      8  N   UNL A   1      32.314  22.434  25.239  1.00  0.00    -0.329 N 
ATOM      9  C   UNL A   1      30.960  22.371  25.735  1.00  0.00     0.120 C 
ATOM     10  C   UNL A   1      30.792  23.700  26.438  1.00  0.00     0.024 C 
ATOM     11  C   UNL A   1      32.165  23.953  27.055  1.00  0.00     0.037 C 
BRANCH   8  12
ATOM     12  C   UNL A   1      32.779  21.757  24.138  1.00  0.00     0.245 C 
ATOM     13  O   UNL A   1      33.654  20.896  24.224  1.00  0.00    -0.272 OA
BRANCH  12  14
ATOM     14  C   UNL A   1      32.145  22.092  22.769  1.00  0.00     0.168 C 
ATOM     15  C   UNL A   1      31.882  20.855  21.920  1.00  0.00     0.041 C 
BRANCH  14  16
ATOM     16  N   UNL A   1      32.922  23.086  22.045  1.00  0.00    -0.345 N 
ATOM     17  C   UNL A   1      31.654  25.045  22.845  1.00  0.00     0.114 C 
ATOM     18  C   UNL A   1      32.816  24.442  22.105  1.00  0.00     0.217 C 
ATOM     19  O   UNL A   1      33.649  25.133  21.521  1.00  0.00    -0.275 OA
ATOM     20  H   UNL A   1      33.610  22.735  21.434  1.00  0.00     0.164 HD
ENDBRANCH  14  16
ENDBRANCH  12  14
ENDBRANCH   8  12
ENDBRANCH   4   7
ENDBRANCH   2   3
ENDBRANCH   1   2
BRANCH   1  21
ATOM     21  C   UNL A   1      38.516  24.155  26.444  1.00  0.00     0.118 C 
BRANCH  21  22
ATOM     22  N   UNL A   1      39.927  24.064  26.094  1.00  0.00    -0.352 N 
ATOM     23  C   UNL A   1      40.994  24.814  26.518  1.00  0.00     0.251 C 
ATOM     24  H   UNL A   1      40.149  23.353  25.450  1.00  0.00     0.163 HD
ATOM     25  O   UNL A   1      42.083  24.686  25.959  1.00  0.00    -0.269 OA
BRANCH  23  26
ATOM     26  C   UNL A   1      40.841  25.780  27.625  1.00  0.00     0.039 A 
ATOM     27  C   UNL A   1      41.753  26.832  27.739  1.00  0.00     0.014 A 
ATOM     28  C   UNL A   1      39.817  25.643  28.566  1.00  0.00     0.014 A 
ATOM     29  C   UNL A   1      41.609  27.765  28.767  1.00  0.00     0.010 A 
ATOM     30  C   UNL A   1      39.604  26.637  29.512  1.00  0.00     0.010 A 
ATOM     31  C   UNL A   1      40.519  27.689  29.649  1.00  0.00    -0.014 A 
BRANCH  31  32
ATOM     32  C   UNL A   1      40.354  28.660  30.759  1.00  0.00     0.031 A 
ATOM     33  C   UNL A   1      41.200  28.526  32.000  1.00  0.00     0.074 A 
ATOM     34  C   UNL A   1      39.424  29.631  30.672  1.00  0.00     0.049 A 
ATOM     35  N   UNL A   1      41.185  29.244  33.093  1.00  0.00    -0.248 NA
ATOM     36  C   UNL A   1      42.169  27.415  32.032  1.00  0.00     0.031 C 
ATOM     37  C   UNL A   1      38.506  29.827  29.547  1.00  0.00     0.029 A 
ATOM     38  N   UNL A   1      39.094  30.635  31.546  1.00  0.00    -0.354 N 
ATOM     39  C   UNL A   1      42.124  28.664  33.940  1.00  0.00     0.074 A 
ATOM     40  C   UNL A   1      42.636  27.493  33.268  1.00  0.00     0.031 C 
ATOM     41  C   UNL A   1      37.744  30.907  29.784  1.00  0.00     0.029 A 
ATOM     42  C   UNL A   1      38.091  31.457  31.090  1.00  0.00     0.049 A 
ATOM     43  H   UNL A   1      39.534  30.757  32.418  1.00  0.00     0.167 HD
ATOM     44  C   UNL A   1      42.547  29.088  35.154  1.00  0.00     0.037 A 
ATOM     45  C   UNL A   1      37.517  32.534  31.662  1.00  0.00     0.037 A 
ATOM     46  C   UNL A   1      42.055  30.275  35.801  1.00  0.00     0.049 A 
ATOM     47  C   UNL A   1      38.015  32.997  33.004  1.00  0.00     0.074 A 
ATOM     48  C   UNL A   1      42.453  30.826  37.007  1.00  0.00     0.029 A 
ATOM     49  N   UNL A   1      41.060  31.099  35.294  1.00  0.00    -0.354 N 
ATOM     50  N   UNL A   1      38.947  32.472  33.765  1.00  0.00    -0.248 NA
ATOM     51  C   UNL A   1      37.398  34.208  33.559  1.00  0.00     0.031 C 
ATOM     52  C   UNL A   1      41.664  31.955  37.251  1.00  0.00     0.029 A 
ATOM     53  C   UNL A   1      40.820  32.145  36.168  1.00  0.00     0.049 A 
ATOM     54  H   UNL A   1      40.594  30.959  34.437  1.00  0.00     0.167 HD
ATOM     55  C   UNL A   1      39.054  33.311  34.869  1.00  0.00     0.074 A 
ATOM     56  C   UNL A   1      38.098  34.382  34.671  1.00  0.00     0.031 C 
ATOM     57  C   UNL A   1      39.874  33.210  35.946  1.00  0.00     0.037 A 
BRANCH  44  58
ATOM     58  C   UNL A   1      43.597  28.267  35.855  1.00  0.00     0.058 A 
ATOM     59  C   UNL A   1      43.258  27.212  36.718  1.00  0.00     0.135 A 
ATOM     60  C   UNL A   1      44.962  28.521  35.641  1.00  0.00     0.135 A 
ATOM     61  F   UNL A   1      41.970  26.935  36.975  1.00  0.00    -0.206 F 
ATOM     62  C   UNL A   1      44.232  26.461  37.370  1.00  0.00     0.059 A 
ATOM     63  C   UNL A   1      45.953  27.761  36.256  1.00  0.00     0.059 A 
ATOM     64  F   UNL A   1      45.345  29.519  34.828  1.00  0.00    -0.206 F 
ATOM     65  C   UNL A   1      45.578  26.743  37.131  1.00  0.00     0.060 A 
BRANCH  65  66
ATOM     66  S   UNL A   1      46.827  25.752  37.976  1.00  0.00     0.124 S 
ATOM     67  O   UNL A   1      46.746  24.493  37.242  1.00  0.00    -0.237 OA
ATOM     68  O   UNL A   1      48.041  26.534  37.764  1.00  0.00    -0.237 OA
ATOM     69  O   UNL A   1      46.348  25.704  39.354  1.00  0.00    -0.744 OA
ENDBRANCH  65  66
ENDBRANCH  44  58
BRANCH  45  70
ATOM     70  C   UNL A   1      36.436  33.269  30.949  1.00  0.00     0.058 A 
ATOM     71  C   UNL A   1      35.104  33.197  31.383  1.00  0.00     0.135 A 
ATOM     72  C   UNL A   1      36.714  34.063  29.826  1.00  0.00     0.135 A 
ATOM     73  F   UNL A   1      34.785  32.448  32.449  1.00  0.00    -0.206 F 
ATOM     74  C   UNL A   1      34.082  33.867  30.717  1.00  0.00     0.059 A 
ATOM     75  C   UNL A   1      35.715  34.766  29.161  1.00  0.00     0.059 A 
ATOM     76  F   UNL A   1      37.975  34.183  29.382  1.00  0.00    -0.206 F 
ATOM     77  C   UNL A   1      34.399  34.651  29.607  1.00  0.00     0.060 A 
BRANCH  77  78
ATOM     78  S   UNL A   1      33.072  35.551  28.775  1.00  0.00     0.124 S 
ATOM     79  O   UNL A   1      33.821  36.541  28.011  1.00  0.00    -0.237 OA
ATOM     80  O   UNL A   1      32.427  34.496  27.999  1.00  0.00    -0.237 OA
ATOM     81  O   UNL A   1      32.278  36.077  29.882  1.00  0.00    -0.744 OA
ENDBRANCH  77  78
ENDBRANCH  45  70
BRANCH  57  82
ATOM     82  C   UNL A   1      39.817  34.316  36.965  1.00  0.00     0.058 A 
ATOM     83  C   UNL A   1      40.535  35.511  36.811  1.00  0.00     0.135 A 
ATOM     84  C   UNL A   1      38.997  34.186  38.099  1.00  0.00     0.135 A 
ATOM     85  F   UNL A   1      41.335  35.687  35.748  1.00  0.00    -0.206 F 
ATOM     86  C   UNL A   1      40.474  36.522  37.764  1.00  0.00     0.059 A 
ATOM     87  C   UNL A   1      38.893  35.198  39.046  1.00  0.00     0.059 A 
ATOM     88  F   UNL A   1      38.275  33.069  38.287  1.00  0.00    -0.206 F 
ATOM     89  C   UNL A   1      39.651  36.356  38.880  1.00  0.00     0.060 A 
BRANCH  89  90
ATOM     90  S   UNL A   1      39.573  37.678  40.104  1.00  0.00     0.124 S 
ATOM     91  O   UNL A   1      40.909  38.255  39.999  1.00  0.00    -0.237 OA
ATOM     92  O   UNL A   1      38.482  38.507  39.599  1.00  0.00    -0.237 OA
ATOM     93  O   UNL A   1      39.291  36.973  41.351  1.00  0.00    -0.744 OA
ENDBRANCH  89  90
ENDBRANCH  57  82
ENDBRANCH  31  32
ENDBRANCH  23  26
ENDBRANCH  21  22
ENDBRANCH   1  21
TORSDOF 16
ENDMDL
