MODEL 1
REMARK VINA RESULT:     -15.0      0.000      0.000
REMARK SMILES Cc1ccc(S(=O)(=O)N2c3ccc(C(=O)NCCCNC(=O)c4ccc(-c5c6nc(c(-c7c(F)cc(S(=O)(=O)[O-])cc7F)c7ccc([nH]7)c(-c7c(F)cc(S(=O)(=O)[O-])cc7F)c7nc(c(-c8c(F)cc(S(=O)(=O)[O-])cc8F)c8ccc5[nH]8)C=C7)C=C6)cc4)cc3C[C@H]2C)cc1
REMARK SMILES IDX 18 1 17 2 16 3 14 4 15 5 13 7 9 8 10 9 92 10 11 11 90 12
REMARK SMILES IDX 91 13 93 14 12 15 89 16 6 17 7 18 8 19 5 20 1 21 2 22 3 23
REMARK SMILES IDX 95 24 4 25 94 26 19 27 20 28 21 29 22 31 23 32 24 33 88 34
REMARK SMILES IDX 25 35 87 36 26 37 27 38 28 39 81 40 29 41 86 42 80 43 82 44
REMARK SMILES IDX 30 45 85 46 79 47 78 48 31 50 65 51 44 52 64 53 45 54 48 55
REMARK SMILES IDX 63 56 83 57 46 58 47 59 62 61 84 62 49 63 32 64 33 65 42 66
REMARK SMILES IDX 34 67 35 68 41 69 43 70 36 71 37 72 38 73 39 74 40 75 66 76
REMARK SMILES IDX 67 77 76 78 68 79 69 80 75 81 77 82 70 83 71 84 72 85 73 86
REMARK SMILES IDX 74 87 50 88 51 89 60 90 52 91 53 92 59 93 61 94 54 95 55 96
REMARK SMILES IDX 56 97 57 98 58 99
REMARK H PARENT 16 6 20 30 82 49 48 60
REMARK Flexibility Score: inf
ROOT
ATOM      1  C   UNL A   1      32.842  29.876  26.944  1.00  0.00     0.042 C 
ENDROOT
BRANCH   1   2
ATOM      2  C   UNL A   1      32.199  29.763  25.561  1.00  0.00     0.118 C 
BRANCH   2   3
ATOM      3  N   UNL A   1      33.192  29.682  24.497  1.00  0.00    -0.352 N 
ATOM      4  C   UNL A   1      33.585  28.677  23.649  1.00  0.00     0.251 C 
ATOM      5  O   UNL A   1      34.395  28.978  22.767  1.00  0.00    -0.269 OA
ATOM      6  H   UNL A   1      33.684  30.523  24.359  1.00  0.00     0.163 HD
BRANCH   4   7
ATOM      7  C   UNL A   1      33.128  27.249  23.722  1.00  0.00     0.040 A 
ATOM      8  N   UNL A   1      31.892  23.259  24.455  1.00  0.00    -0.263 N 
ATOM      9  C   UNL A   1      32.240  24.614  24.090  1.00  0.00     0.055 A 
ATOM     10  C   UNL A   1      32.214  23.196  25.943  1.00  0.00     0.101 C 
ATOM     11  C   UNL A   1      31.944  25.256  22.909  1.00  0.00     0.028 A 
ATOM     12  C   UNL A   1      32.969  25.253  25.084  1.00  0.00    -0.021 A 
ATOM     13  C   UNL A   1      33.231  24.328  26.223  1.00  0.00     0.063 C 
ATOM     14  C   UNL A   1      30.911  23.439  26.722  1.00  0.00     0.032 C 
ATOM     15  C   UNL A   1      32.404  26.567  22.728  1.00  0.00     0.016 A 
ATOM     16  C   UNL A   1      33.415  26.558  24.917  1.00  0.00     0.019 A 
BRANCH   8  17
ATOM     17  S   UNL A   1      32.728  22.121  23.457  1.00  0.00     0.264 S 
ATOM     18  O   UNL A   1      32.837  22.689  22.127  1.00  0.00    -0.201 OA
ATOM     19  O   UNL A   1      32.139  20.811  23.664  1.00  0.00    -0.201 OA
BRANCH  17  20
ATOM     20  C   UNL A   1      34.399  21.963  24.056  1.00  0.00     0.088 A 
ATOM     21  C   UNL A   1      38.424  22.045  25.579  1.00  0.00     0.044 C 
ATOM     22  C   UNL A   1      37.030  21.993  25.029  1.00  0.00    -0.051 A 
ATOM     23  C   UNL A   1      36.637  22.898  24.037  1.00  0.00     0.005 A 
ATOM     24  C   UNL A   1      36.114  21.034  25.477  1.00  0.00     0.005 A 
ATOM     25  C   UNL A   1      35.328  22.887  23.557  1.00  0.00     0.022 A 
ATOM     26  C   UNL A   1      34.805  21.010  24.985  1.00  0.00     0.022 A 
ENDBRANCH  17  20
ENDBRANCH   8  17
ENDBRANCH   4   7
ENDBRANCH   2   3
ENDBRANCH   1   2
BRANCH   1  27
ATOM     27  C   UNL A   1      34.357  29.787  26.912  1.00  0.00     0.118 C 
BRANCH  27  28
ATOM     28  N   UNL A   1      35.000  30.984  27.430  1.00  0.00    -0.352 N 
ATOM     29  C   UNL A   1      36.168  31.051  28.168  1.00  0.00     0.251 C 
ATOM     30  H   UNL A   1      34.554  31.840  27.235  1.00  0.00     0.163 HD
ATOM     31  O   UNL A   1      36.488  32.041  28.809  1.00  0.00    -0.269 OA
BRANCH  29  32
ATOM     32  C   UNL A   1      37.094  29.912  28.017  1.00  0.00     0.039 A 
ATOM     33  C   UNL A   1      37.265  29.092  29.137  1.00  0.00     0.014 A 
ATOM     34  C   UNL A   1      37.974  29.862  26.942  1.00  0.00     0.014 A 
ATOM     35  C   UNL A   1      38.416  28.317  29.245  1.00  0.00     0.010 A 
ATOM     36  C   UNL A   1      39.161  29.167  27.097  1.00  0.00     0.010 A 
ATOM     37  C   UNL A   1      39.405  28.424  28.263  1.00  0.00    -0.014 A 
BRANCH  37  38
ATOM     38  C   UNL A   1      40.755  27.887  28.428  1.00  0.00     0.031 A 
ATOM     39  C   UNL A   1      41.073  26.492  28.029  1.00  0.00     0.074 A 
ATOM     40  C   UNL A   1      41.758  28.636  28.945  1.00  0.00     0.049 A 
ATOM     41  N   UNL A   1      41.966  25.765  28.621  1.00  0.00    -0.248 NA
ATOM     42  C   UNL A   1      40.382  25.788  26.949  1.00  0.00     0.031 C 
ATOM     43  C   UNL A   1      43.182  28.308  28.905  1.00  0.00     0.029 A 
ATOM     44  N   UNL A   1      41.693  29.741  29.796  1.00  0.00    -0.354 N 
ATOM     45  C   UNL A   1      42.160  24.646  27.850  1.00  0.00     0.074 A 
ATOM     46  C   UNL A   1      41.104  24.666  26.863  1.00  0.00     0.031 C 
ATOM     47  C   UNL A   1      43.799  28.954  29.903  1.00  0.00     0.029 A 
ATOM     48  C   UNL A   1      42.780  29.637  30.680  1.00  0.00     0.049 A 
ATOM     49  H   UNL A   1      41.016  30.456  29.780  1.00  0.00     0.167 HD
ATOM     50  C   UNL A   1      43.269  23.871  28.003  1.00  0.00     0.037 A 
ATOM     51  C   UNL A   1      42.715  29.670  32.042  1.00  0.00     0.037 A 
ATOM     52  C   UNL A   1      44.178  24.376  29.020  1.00  0.00     0.049 A 
ATOM     53  C   UNL A   1      43.386  28.491  32.704  1.00  0.00     0.074 A 
ATOM     54  C   UNL A   1      45.314  25.164  28.940  1.00  0.00     0.029 A 
ATOM     55  N   UNL A   1      43.826  24.329  30.363  1.00  0.00    -0.354 N 
ATOM     56  N   UNL A   1      43.712  27.400  32.070  1.00  0.00    -0.248 NA
ATOM     57  C   UNL A   1      43.689  28.415  34.130  1.00  0.00     0.031 C 
ATOM     58  C   UNL A   1      45.644  25.603  30.240  1.00  0.00     0.029 A 
ATOM     59  C   UNL A   1      44.704  25.088  31.115  1.00  0.00     0.049 A 
ATOM     60  H   UNL A   1      43.061  23.827  30.728  1.00  0.00     0.167 HD
ATOM     61  C   UNL A   1      44.205  26.480  32.959  1.00  0.00     0.074 A 
ATOM     62  C   UNL A   1      44.196  27.174  34.233  1.00  0.00     0.031 C 
ATOM     63  C   UNL A   1      44.561  25.223  32.556  1.00  0.00     0.037 A 
BRANCH  50  64
ATOM     64  C   UNL A   1      43.628  22.830  26.977  1.00  0.00     0.058 A 
ATOM     65  C   UNL A   1      42.921  21.615  26.881  1.00  0.00     0.135 A 
ATOM     66  C   UNL A   1      44.719  22.973  26.098  1.00  0.00     0.135 A 
ATOM     67  F   UNL A   1      41.848  21.365  27.640  1.00  0.00    -0.206 F 
ATOM     68  C   UNL A   1      43.315  20.582  26.032  1.00  0.00     0.059 A 
ATOM     69  C   UNL A   1      45.157  21.936  25.269  1.00  0.00     0.059 A 
ATOM     70  F   UNL A   1      45.407  24.124  26.049  1.00  0.00    -0.206 F 
ATOM     71  C   UNL A   1      44.451  20.737  25.250  1.00  0.00     0.060 A 
BRANCH  71  72
ATOM     72  S   UNL A   1      45.021  19.333  24.273  1.00  0.00     0.124 S 
ATOM     73  O   UNL A   1      44.415  18.200  24.967  1.00  0.00    -0.237 OA
ATOM     74  O   UNL A   1      44.473  19.637  22.956  1.00  0.00    -0.237 OA
ATOM     75  O   UNL A   1      46.475  19.413  24.385  1.00  0.00    -0.744 OA
ENDBRANCH  71  72
ENDBRANCH  50  64
BRANCH  51  76
ATOM     76  C   UNL A   1      41.547  30.396  32.590  1.00  0.00     0.058 A 
ATOM     77  C   UNL A   1      40.393  29.650  32.889  1.00  0.00     0.135 A 
ATOM     78  C   UNL A   1      41.709  31.638  33.219  1.00  0.00     0.135 A 
ATOM     79  F   UNL A   1      40.178  28.473  32.280  1.00  0.00    -0.206 F 
ATOM     80  C   UNL A   1      39.534  30.028  33.913  1.00  0.00     0.059 A 
ATOM     81  C   UNL A   1      40.860  32.037  34.248  1.00  0.00     0.059 A 
ATOM     82  F   UNL A   1      42.796  32.383  32.970  1.00  0.00    -0.206 F 
ATOM     83  C   UNL A   1      39.825  31.183  34.636  1.00  0.00     0.060 A 
BRANCH  83  84
ATOM     84  S   UNL A   1      38.956  31.442  36.202  1.00  0.00     0.124 S 
ATOM     85  O   UNL A   1      37.950  32.432  35.836  1.00  0.00    -0.237 OA
ATOM     86  O   UNL A   1      38.451  30.099  36.481  1.00  0.00    -0.237 OA
ATOM     87  O   UNL A   1      40.014  31.911  37.090  1.00  0.00    -0.744 OA
ENDBRANCH  83  84
ENDBRANCH  51  76
BRANCH  63  88
ATOM     88  C   UNL A   1      44.928  24.056  33.446  1.00  0.00     0.058 A 
ATOM     89  C   UNL A   1      44.108  22.937  33.663  1.00  0.00     0.135 A 
ATOM     90  C   UNL A   1      46.219  23.979  34.029  1.00  0.00     0.135 A 
ATOM     91  F   UNL A   1      42.910  22.823  33.071  1.00  0.00    -0.206 F 
ATOM     92  C   UNL A   1      44.503  21.856  34.459  1.00  0.00     0.059 A 
ATOM     93  C   UNL A   1      46.651  22.891  34.783  1.00  0.00     0.059 A 
ATOM     94  F   UNL A   1      47.118  24.963  33.874  1.00  0.00    -0.206 F 
ATOM     95  C   UNL A   1      45.776  21.843  35.018  1.00  0.00     0.060 A 
BRANCH  95  96
ATOM     96  S   UNL A   1      46.325  20.434  36.000  1.00  0.00     0.124 S 
ATOM     97  O   UNL A   1      45.417  19.387  35.540  1.00  0.00    -0.237 OA
ATOM     98  O   UNL A   1      47.720  20.277  35.598  1.00  0.00    -0.237 OA
ATOM     99  O   UNL A   1      46.124  20.891  37.370  1.00  0.00    -0.744 OA
ENDBRANCH  95  96
ENDBRANCH  63  88
ENDBRANCH  37  38
ENDBRANCH  29  32
ENDBRANCH  27  28
ENDBRANCH   1  27
TORSDOF 15
ENDMDL
MODEL 2
REMARK VINA RESULT:     -14.8      1.095      1.740
REMARK SMILES Cc1ccc(S(=O)(=O)N2c3ccc(C(=O)NCCCNC(=O)c4ccc(-c5c6nc(c(-c7c(F)cc(S(=O)(=O)[O-])cc7F)c7ccc([nH]7)c(-c7c(F)cc(S(=O)(=O)[O-])cc7F)c7nc(c(-c8c(F)cc(S(=O)(=O)[O-])cc8F)c8ccc5[nH]8)C=C7)C=C6)cc4)cc3C[C@H]2C)cc1
REMARK SMILES IDX 18 1 17 2 16 3 14 4 15 5 13 7 9 8 10 9 92 10 11 11 90 12
REMARK SMILES IDX 91 13 93 14 12 15 89 16 6 17 7 18 8 19 5 20 1 21 2 22 3 23
REMARK SMILES IDX 95 24 4 25 94 26 19 27 20 28 21 29 22 31 23 32 24 33 88 34
REMARK SMILES IDX 25 35 87 36 26 37 27 38 28 39 81 40 29 41 86 42 80 43 82 44
REMARK SMILES IDX 30 45 85 46 79 47 78 48 31 50 65 51 44 52 64 53 45 54 48 55
REMARK SMILES IDX 63 56 83 57 46 58 47 59 62 61 84 62 49 63 32 64 33 65 42 66
REMARK SMILES IDX 34 67 35 68 41 69 43 70 36 71 37 72 38 73 39 74 40 75 66 76
REMARK SMILES IDX 67 77 76 78 68 79 69 80 75 81 77 82 70 83 71 84 72 85 73 86
REMARK SMILES IDX 74 87 50 88 51 89 60 90 52 91 53 92 59 93 61 94 54 95 55 96
REMARK SMILES IDX 56 97 57 98 58 99
REMARK H PARENT 16 6 20 30 82 49 48 60
REMARK Flexibility Score: inf
ROOT
ATOM      1  C   UNL A   1      32.883  29.738  27.228  1.00  0.00     0.042 C 
ENDROOT
BRANCH   1   2
ATOM      2  C   UNL A   1      32.017  29.823  25.970  1.00  0.00     0.118 C 
BRANCH   2   3
ATOM      3  N   UNL A   1      32.804  29.706  24.750  1.00  0.00    -0.352 N 
ATOM      4  C   UNL A   1      33.255  28.636  24.017  1.00  0.00     0.251 C 
ATOM      5  O   UNL A   1      33.815  28.891  22.947  1.00  0.00    -0.269 OA
ATOM      6  H   UNL A   1      33.069  30.576  24.372  1.00  0.00     0.163 HD
BRANCH   4   7
ATOM      7  C   UNL A   1      33.141  27.195  24.422  1.00  0.00     0.040 A 
ATOM      8  N   UNL A   1      33.311  23.065  25.370  1.00  0.00    -0.263 N 
ATOM      9  C   UNL A   1      33.162  24.486  25.148  1.00  0.00     0.055 A 
ATOM     10  C   UNL A   1      34.614  22.727  24.657  1.00  0.00     0.101 C 
ATOM     11  C   UNL A   1      32.264  25.331  25.759  1.00  0.00     0.028 A 
ATOM     12  C   UNL A   1      34.043  24.961  24.185  1.00  0.00    -0.021 A 
ATOM     13  C   UNL A   1      34.851  23.845  23.615  1.00  0.00     0.063 C 
ATOM     14  C   UNL A   1      35.740  22.719  25.704  1.00  0.00     0.032 C 
ATOM     15  C   UNL A   1      32.250  26.680  25.380  1.00  0.00     0.016 A 
ATOM     16  C   UNL A   1      34.045  26.300  23.815  1.00  0.00     0.019 A 
BRANCH   8  17
ATOM     17  S   UNL A   1      31.911  22.210  24.821  1.00  0.00     0.264 S 
ATOM     18  O   UNL A   1      31.527  22.760  23.536  1.00  0.00    -0.201 OA
ATOM     19  O   UNL A   1      30.962  22.136  25.917  1.00  0.00    -0.201 OA
BRANCH  17  20
ATOM     20  C   UNL A   1      32.369  20.517  24.507  1.00  0.00     0.088 A 
ATOM     21  C   UNL A   1      33.707  16.586  23.373  1.00  0.00     0.044 C 
ATOM     22  C   UNL A   1      33.214  17.943  23.779  1.00  0.00    -0.051 A 
ATOM     23  C   UNL A   1      32.613  18.779  22.832  1.00  0.00     0.005 A 
ATOM     24  C   UNL A   1      33.326  18.383  25.103  1.00  0.00     0.005 A 
ATOM     25  C   UNL A   1      32.197  20.061  23.192  1.00  0.00     0.022 A 
ATOM     26  C   UNL A   1      32.895  19.662  25.471  1.00  0.00     0.022 A 
ENDBRANCH  17  20
ENDBRANCH   8  17
ENDBRANCH   4   7
ENDBRANCH   2   3
ENDBRANCH   1   2
BRANCH   1  27
ATOM     27  C   UNL A   1      34.371  29.816  26.939  1.00  0.00     0.118 C 
BRANCH  27  28
ATOM     28  N   UNL A   1      34.995  30.992  27.523  1.00  0.00    -0.352 N 
ATOM     29  C   UNL A   1      36.143  31.033  28.294  1.00  0.00     0.251 C 
ATOM     30  H   UNL A   1      34.551  31.854  27.351  1.00  0.00     0.163 HD
ATOM     31  O   UNL A   1      36.441  31.996  28.983  1.00  0.00    -0.269 OA
BRANCH  29  32
ATOM     32  C   UNL A   1      37.077  29.903  28.121  1.00  0.00     0.039 A 
ATOM     33  C   UNL A   1      37.235  29.049  29.217  1.00  0.00     0.014 A 
ATOM     34  C   UNL A   1      37.974  29.892  27.058  1.00  0.00     0.014 A 
ATOM     35  C   UNL A   1      38.389  28.277  29.318  1.00  0.00     0.010 A 
ATOM     36  C   UNL A   1      39.161  29.198  27.210  1.00  0.00     0.010 A 
ATOM     37  C   UNL A   1      39.392  28.420  28.355  1.00  0.00    -0.014 A 
BRANCH  37  38
ATOM     38  C   UNL A   1      40.742  27.885  28.523  1.00  0.00     0.031 A 
ATOM     39  C   UNL A   1      41.065  26.492  28.119  1.00  0.00     0.074 A 
ATOM     40  C   UNL A   1      41.741  28.633  29.049  1.00  0.00     0.049 A 
ATOM     41  N   UNL A   1      41.957  25.764  28.711  1.00  0.00    -0.248 NA
ATOM     42  C   UNL A   1      40.381  25.792  27.033  1.00  0.00     0.031 C 
ATOM     43  C   UNL A   1      43.166  28.308  29.014  1.00  0.00     0.029 A 
ATOM     44  N   UNL A   1      41.670  29.734  29.905  1.00  0.00    -0.354 N 
ATOM     45  C   UNL A   1      42.156  24.649  27.936  1.00  0.00     0.074 A 
ATOM     46  C   UNL A   1      41.105  24.672  26.944  1.00  0.00     0.031 C 
ATOM     47  C   UNL A   1      43.777  28.951  30.018  1.00  0.00     0.029 A 
ATOM     48  C   UNL A   1      42.753  29.627  30.793  1.00  0.00     0.049 A 
ATOM     49  H   UNL A   1      40.992  30.447  29.890  1.00  0.00     0.167 HD
ATOM     50  C   UNL A   1      43.267  23.876  28.090  1.00  0.00     0.037 A 
ATOM     51  C   UNL A   1      42.683  29.653  32.155  1.00  0.00     0.037 A 
ATOM     52  C   UNL A   1      44.170  24.378  29.114  1.00  0.00     0.049 A 
ATOM     53  C   UNL A   1      43.353  28.473  32.814  1.00  0.00     0.074 A 
ATOM     54  C   UNL A   1      45.305  25.168  29.043  1.00  0.00     0.029 A 
ATOM     55  N   UNL A   1      43.811  24.323  30.455  1.00  0.00    -0.354 N 
ATOM     56  N   UNL A   1      43.684  27.385  32.177  1.00  0.00    -0.248 NA
ATOM     57  C   UNL A   1      43.650  28.390  34.242  1.00  0.00     0.031 C 
ATOM     58  C   UNL A   1      45.628  25.601  30.347  1.00  0.00     0.029 A 
ATOM     59  C   UNL A   1      44.684  25.080  31.215  1.00  0.00     0.049 A 
ATOM     60  H   UNL A   1      43.046  23.818  30.814  1.00  0.00     0.167 HD
ATOM     61  C   UNL A   1      44.174  26.461  33.064  1.00  0.00     0.074 A 
ATOM     62  C   UNL A   1      44.158  27.149  34.340  1.00  0.00     0.031 C 
ATOM     63  C   UNL A   1      44.535  25.208  32.656  1.00  0.00     0.037 A 
BRANCH  50  64
ATOM     64  C   UNL A   1      43.632  22.841  27.060  1.00  0.00     0.058 A 
ATOM     65  C   UNL A   1      42.911  21.637  26.937  1.00  0.00     0.135 A 
ATOM     66  C   UNL A   1      44.742  22.978  26.205  1.00  0.00     0.135 A 
ATOM     67  F   UNL A   1      41.820  21.393  27.673  1.00  0.00    -0.206 F 
ATOM     68  C   UNL A   1      43.308  20.607  26.086  1.00  0.00     0.059 A 
ATOM     69  C   UNL A   1      45.184  21.944  25.374  1.00  0.00     0.059 A 
ATOM     70  F   UNL A   1      45.447  24.121  26.182  1.00  0.00    -0.206 F 
ATOM     71  C   UNL A   1      44.462  20.755  25.328  1.00  0.00     0.060 A 
BRANCH  71  72
ATOM     72  S   UNL A   1      45.033  19.353  24.348  1.00  0.00     0.124 S 
ATOM     73  O   UNL A   1      44.311  19.534  23.092  1.00  0.00    -0.237 OA
ATOM     74  O   UNL A   1      46.472  19.589  24.292  1.00  0.00    -0.237 OA
ATOM     75  O   UNL A   1      44.614  18.198  25.136  1.00  0.00    -0.744 OA
ENDBRANCH  71  72
ENDBRANCH  50  64
BRANCH  51  76
ATOM     76  C   UNL A   1      41.510  30.375  32.701  1.00  0.00     0.058 A 
ATOM     77  C   UNL A   1      40.361  29.622  33.003  1.00  0.00     0.135 A 
ATOM     78  C   UNL A   1      41.666  31.619  33.327  1.00  0.00     0.135 A 
ATOM     79  F   UNL A   1      40.151  28.443  32.396  1.00  0.00    -0.206 F 
ATOM     80  C   UNL A   1      39.500  29.999  34.026  1.00  0.00     0.059 A 
ATOM     81  C   UNL A   1      40.814  32.016  34.355  1.00  0.00     0.059 A 
ATOM     82  F   UNL A   1      42.748  32.369  33.077  1.00  0.00    -0.206 F 
ATOM     83  C   UNL A   1      39.784  31.157  34.746  1.00  0.00     0.060 A 
BRANCH  83  84
ATOM     84  S   UNL A   1      38.914  31.415  36.311  1.00  0.00     0.124 S 
ATOM     85  O   UNL A   1      38.432  30.075  36.620  1.00  0.00    -0.237 OA
ATOM     86  O   UNL A   1      39.991  31.914  37.165  1.00  0.00    -0.237 OA
ATOM     87  O   UNL A   1      37.890  32.393  35.960  1.00  0.00    -0.744 OA
ENDBRANCH  83  84
ENDBRANCH  51  76
BRANCH  63  88
ATOM     88  C   UNL A   1      44.900  24.037  33.542  1.00  0.00     0.058 A 
ATOM     89  C   UNL A   1      44.015  23.005  33.896  1.00  0.00     0.135 A 
ATOM     90  C   UNL A   1      46.239  23.857  33.973  1.00  0.00     0.135 A 
ATOM     91  F   UNL A   1      42.750  22.987  33.452  1.00  0.00    -0.206 F 
ATOM     92  C   UNL A   1      44.405  21.915  34.681  1.00  0.00     0.059 A 
ATOM     93  C   UNL A   1      46.660  22.755  34.713  1.00  0.00     0.059 A 
ATOM     94  F   UNL A   1      47.197  24.747  33.676  1.00  0.00    -0.206 F 
ATOM     95  C   UNL A   1      45.729  21.800  35.088  1.00  0.00     0.060 A 
BRANCH  95  96
ATOM     96  S   UNL A   1      46.264  20.373  36.054  1.00  0.00     0.124 S 
ATOM     97  O   UNL A   1      45.587  19.282  35.361  1.00  0.00    -0.237 OA
ATOM     98  O   UNL A   1      47.717  20.404  35.909  1.00  0.00    -0.237 OA
ATOM     99  O   UNL A   1      45.769  20.679  37.392  1.00  0.00    -0.744 OA
ENDBRANCH  95  96
ENDBRANCH  63  88
ENDBRANCH  37  38
ENDBRANCH  29  32
ENDBRANCH  27  28
ENDBRANCH   1  27
TORSDOF 15
ENDMDL
MODEL 3
REMARK VINA RESULT:     -14.6      0.926      1.558
REMARK SMILES Cc1ccc(S(=O)(=O)N2c3ccc(C(=O)NCCCNC(=O)c4ccc(-c5c6nc(c(-c7c(F)cc(S(=O)(=O)[O-])cc7F)c7ccc([nH]7)c(-c7c(F)cc(S(=O)(=O)[O-])cc7F)c7nc(c(-c8c(F)cc(S(=O)(=O)[O-])cc8F)c8ccc5[nH]8)C=C7)C=C6)cc4)cc3C[C@H]2C)cc1
REMARK SMILES IDX 18 1 17 2 16 3 14 4 15 5 13 7 9 8 10 9 92 10 11 11 90 12
REMARK SMILES IDX 91 13 93 14 12 15 89 16 6 17 7 18 8 19 5 20 1 21 2 22 3 23
REMARK SMILES IDX 95 24 4 25 94 26 19 27 20 28 21 29 22 31 23 32 24 33 88 34
REMARK SMILES IDX 25 35 87 36 26 37 27 38 28 39 81 40 29 41 86 42 80 43 82 44
REMARK SMILES IDX 30 45 85 46 79 47 78 48 31 50 65 51 44 52 64 53 45 54 48 55
REMARK SMILES IDX 63 56 83 57 46 58 47 59 62 61 84 62 49 63 32 64 33 65 42 66
REMARK SMILES IDX 34 67 35 68 41 69 43 70 36 71 37 72 38 73 39 74 40 75 66 76
REMARK SMILES IDX 67 77 76 78 68 79 69 80 75 81 77 82 70 83 71 84 72 85 73 86
REMARK SMILES IDX 74 87 50 88 51 89 60 90 52 91 53 92 59 93 61 94 54 95 55 96
REMARK SMILES IDX 56 97 57 98 58 99
REMARK H PARENT 16 6 20 30 82 49 48 60
REMARK Flexibility Score: inf
ROOT
ATOM      1  C   UNL A   1      32.908  29.901  27.085  1.00  0.00     0.042 C 
ENDROOT
BRANCH   1   2
ATOM      2  C   UNL A   1      32.291  29.734  25.695  1.00  0.00     0.118 C 
BRANCH   2   3
ATOM      3  N   UNL A   1      33.303  29.671  24.648  1.00  0.00    -0.352 N 
ATOM      4  C   UNL A   1      33.711  28.681  23.789  1.00  0.00     0.251 C 
ATOM      5  O   UNL A   1      34.536  28.998  22.927  1.00  0.00    -0.269 OA
ATOM      6  H   UNL A   1      33.797  30.514  24.534  1.00  0.00     0.163 HD
BRANCH   4   7
ATOM      7  C   UNL A   1      33.251  27.252  23.828  1.00  0.00     0.040 A 
ATOM      8  N   UNL A   1      32.013  23.247  24.465  1.00  0.00    -0.263 N 
ATOM      9  C   UNL A   1      32.361  24.610  24.132  1.00  0.00     0.055 A 
ATOM     10  C   UNL A   1      32.342  23.146  25.949  1.00  0.00     0.101 C 
ATOM     11  C   UNL A   1      32.060  25.283  22.970  1.00  0.00     0.028 A 
ATOM     12  C   UNL A   1      33.096  25.223  25.139  1.00  0.00    -0.021 A 
ATOM     13  C   UNL A   1      33.362  24.268  26.253  1.00  0.00     0.063 C 
ATOM     14  C   UNL A   1      31.043  23.370  26.740  1.00  0.00     0.032 C 
ATOM     15  C   UNL A   1      32.521  26.598  22.820  1.00  0.00     0.016 A 
ATOM     16  C   UNL A   1      33.543  26.531  25.003  1.00  0.00     0.019 A 
BRANCH   8  17
ATOM     17  S   UNL A   1      32.843  22.134  23.433  1.00  0.00     0.264 S 
ATOM     18  O   UNL A   1      32.956  22.740  22.121  1.00  0.00    -0.201 OA
ATOM     19  O   UNL A   1      32.244  20.822  23.601  1.00  0.00    -0.201 OA
BRANCH  17  20
ATOM     20  C   UNL A   1      34.511  21.947  24.029  1.00  0.00     0.088 A 
ATOM     21  C   UNL A   1      38.535  21.957  25.559  1.00  0.00     0.044 C 
ATOM     22  C   UNL A   1      37.141  21.931  25.005  1.00  0.00    -0.051 A 
ATOM     23  C   UNL A   1      36.754  22.872  24.046  1.00  0.00     0.005 A 
ATOM     24  C   UNL A   1      36.221  20.960  25.418  1.00  0.00     0.005 A 
ATOM     25  C   UNL A   1      35.445  22.884  23.564  1.00  0.00     0.022 A 
ATOM     26  C   UNL A   1      34.912  20.960  24.924  1.00  0.00     0.022 A 
ENDBRANCH  17  20
ENDBRANCH   8  17
ENDBRANCH   4   7
ENDBRANCH   2   3
ENDBRANCH   1   2
BRANCH   1  27
ATOM     27  C   UNL A   1      34.425  29.912  27.072  1.00  0.00     0.118 C 
BRANCH  27  28
ATOM     28  N   UNL A   1      34.985  30.999  27.860  1.00  0.00    -0.352 N 
ATOM     29  C   UNL A   1      35.992  30.913  28.804  1.00  0.00     0.251 C 
ATOM     30  H   UNL A   1      34.605  31.894  27.704  1.00  0.00     0.163 HD
ATOM     31  O   UNL A   1      36.207  31.795  29.622  1.00  0.00    -0.269 OA
BRANCH  29  32
ATOM     32  C   UNL A   1      36.903  29.759  28.674  1.00  0.00     0.039 A 
ATOM     33  C   UNL A   1      37.204  29.064  29.849  1.00  0.00     0.014 A 
ATOM     34  C   UNL A   1      37.657  29.588  27.517  1.00  0.00     0.014 A 
ATOM     35  C   UNL A   1      38.366  28.300  29.910  1.00  0.00     0.010 A 
ATOM     36  C   UNL A   1      38.858  28.908  27.613  1.00  0.00     0.010 A 
ATOM     37  C   UNL A   1      39.237  28.294  28.817  1.00  0.00    -0.014 A 
BRANCH  37  38
ATOM     38  C   UNL A   1      40.601  27.772  28.886  1.00  0.00     0.031 A 
ATOM     39  C   UNL A   1      40.911  26.392  28.429  1.00  0.00     0.074 A 
ATOM     40  C   UNL A   1      41.624  28.520  29.363  1.00  0.00     0.049 A 
ATOM     41  N   UNL A   1      41.847  25.662  28.946  1.00  0.00    -0.248 NA
ATOM     42  C   UNL A   1      40.165  25.709  27.374  1.00  0.00     0.031 C 
ATOM     43  C   UNL A   1      43.047  28.212  29.229  1.00  0.00     0.029 A 
ATOM     44  N   UNL A   1      41.597  29.600  30.247  1.00  0.00    -0.354 N 
ATOM     45  C   UNL A   1      42.007  24.567  28.134  1.00  0.00     0.074 A 
ATOM     46  C   UNL A   1      40.893  24.600  27.213  1.00  0.00     0.031 C 
ATOM     47  C   UNL A   1      43.715  28.839  30.206  1.00  0.00     0.029 A 
ATOM     48  C   UNL A   1      42.737  29.486  31.061  1.00  0.00     0.049 A 
ATOM     49  H   UNL A   1      40.913  30.305  30.292  1.00  0.00     0.167 HD
ATOM     50  C   UNL A   1      43.132  23.803  28.198  1.00  0.00     0.037 A 
ATOM     51  C   UNL A   1      42.754  29.481  32.425  1.00  0.00     0.037 A 
ATOM     52  C   UNL A   1      44.095  24.292  29.173  1.00  0.00     0.049 A 
ATOM     53  C   UNL A   1      43.477  28.293  33.012  1.00  0.00     0.074 A 
ATOM     54  C   UNL A   1      45.215  25.097  29.048  1.00  0.00     0.029 A 
ATOM     55  N   UNL A   1      43.824  24.203  30.533  1.00  0.00    -0.354 N 
ATOM     56  N   UNL A   1      43.777  27.225  32.330  1.00  0.00    -0.248 NA
ATOM     57  C   UNL A   1      43.866  28.182  34.415  1.00  0.00     0.031 C 
ATOM     58  C   UNL A   1      45.617  25.504  30.338  1.00  0.00     0.029 A 
ATOM     59  C   UNL A   1      44.737  24.953  31.252  1.00  0.00     0.049 A 
ATOM     60  H   UNL A   1      43.089  23.681  30.928  1.00  0.00     0.167 HD
ATOM     61  C   UNL A   1      44.334  26.287  33.161  1.00  0.00     0.074 A 
ATOM     62  C   UNL A   1      44.393  26.945  34.452  1.00  0.00     0.031 C 
ATOM     63  C   UNL A   1      44.679  25.046  32.702  1.00  0.00     0.037 A 
BRANCH  50  64
ATOM     64  C   UNL A   1      43.441  22.795  27.123  1.00  0.00     0.058 A 
ATOM     65  C   UNL A   1      42.784  21.551  27.069  1.00  0.00     0.135 A 
ATOM     66  C   UNL A   1      44.438  23.002  26.151  1.00  0.00     0.135 A 
ATOM     67  F   UNL A   1      41.798  21.239  27.919  1.00  0.00    -0.206 F 
ATOM     68  C   UNL A   1      43.143  20.550  26.168  1.00  0.00     0.059 A 
ATOM     69  C   UNL A   1      44.845  22.000  25.265  1.00  0.00     0.059 A 
ATOM     70  F   UNL A   1      45.067  24.185  26.061  1.00  0.00    -0.206 F 
ATOM     71  C   UNL A   1      44.194  20.770  25.288  1.00  0.00     0.060 A 
BRANCH  71  72
ATOM     72  S   UNL A   1      44.734  19.409  24.236  1.00  0.00     0.124 S 
ATOM     73  O   UNL A   1      43.865  18.316  24.664  1.00  0.00    -0.237 OA
ATOM     74  O   UNL A   1      44.477  19.937  22.901  1.00  0.00    -0.237 OA
ATOM     75  O   UNL A   1      46.142  19.247  24.590  1.00  0.00    -0.744 OA
ENDBRANCH  71  72
ENDBRANCH  50  64
BRANCH  51  76
ATOM     76  C   UNL A   1      41.612  30.176  33.062  1.00  0.00     0.058 A 
ATOM     77  C   UNL A   1      41.740  31.554  33.311  1.00  0.00     0.135 A 
ATOM     78  C   UNL A   1      40.320  29.636  32.994  1.00  0.00     0.135 A 
ATOM     79  F   UNL A   1      42.959  32.106  33.424  1.00  0.00    -0.206 F 
ATOM     80  C   UNL A   1      40.635  32.395  33.300  1.00  0.00     0.059 A 
ATOM     81  C   UNL A   1      39.198  30.462  32.981  1.00  0.00     0.059 A 
ATOM     82  F   UNL A   1      40.147  28.329  32.752  1.00  0.00    -0.206 F 
ATOM     83  C   UNL A   1      39.379  31.845  33.054  1.00  0.00     0.060 A 
BRANCH  83  84
ATOM     84  S   UNL A   1      38.027  32.973  32.636  1.00  0.00     0.124 S 
ATOM     85  O   UNL A   1      38.410  33.433  31.307  1.00  0.00    -0.237 OA
ATOM     86  O   UNL A   1      36.873  32.078  32.690  1.00  0.00    -0.237 OA
ATOM     87  O   UNL A   1      38.094  33.972  33.697  1.00  0.00    -0.744 OA
ENDBRANCH  83  84
ENDBRANCH  51  76
BRANCH  63  88
ATOM     88  C   UNL A   1      45.113  23.861  33.536  1.00  0.00     0.058 A 
ATOM     89  C   UNL A   1      46.438  23.613  33.930  1.00  0.00     0.135 A 
ATOM     90  C   UNL A   1      44.147  22.977  34.080  1.00  0.00     0.135 A 
ATOM     91  F   UNL A   1      47.435  24.441  33.588  1.00  0.00    -0.206 F 
ATOM     92  C   UNL A   1      46.793  22.528  34.740  1.00  0.00     0.059 A 
ATOM     93  C   UNL A   1      44.472  21.921  34.928  1.00  0.00     0.059 A 
ATOM     94  F   UNL A   1      42.840  23.117  33.815  1.00  0.00    -0.206 F 
ATOM     95  C   UNL A   1      45.803  21.685  35.232  1.00  0.00     0.060 A 
BRANCH  95  96
ATOM     96  S   UNL A   1      46.234  20.315  36.322  1.00  0.00     0.124 S 
ATOM     97  O   UNL A   1      45.537  19.203  35.683  1.00  0.00    -0.237 OA
ATOM     98  O   UNL A   1      47.691  20.274  36.238  1.00  0.00    -0.237 OA
ATOM     99  O   UNL A   1      45.701  20.742  37.611  1.00  0.00    -0.744 OA
ENDBRANCH  95  96
ENDBRANCH  63  88
ENDBRANCH  37  38
ENDBRANCH  29  32
ENDBRANCH  27  28
ENDBRANCH   1  27
TORSDOF 15
ENDMDL
