MODEL 1
REMARK VINA RESULT:     -14.0      0.000      0.000
REMARK SMILES O=C(Cn1cc(/C=C2\SC(N3CCOCC3)=[NH+]C2=O)c2ccccc21)NCCCNC(=O)c1ccc(-c2c3nc(c(-c4c(F)cc(S(=O)(=O)[O-])cc4F)c4ccc([nH]4)c(-c4c(F)cc(S(=O)(=O)[O-])cc4F)c4nc(c(-c5c(F)cc(S(=O)(=O)[O-])cc5F)c5ccc2[nH]5)C=C4)C=C3)cc1
REMARK SMILES IDX 28 1 27 2 26 3 1 4 2 5 3 7 4 8 5 9 25 10 6 11 20 12 24 13
REMARK SMILES IDX 21 14 23 15 22 16 7 17 8 18 9 19 18 20 10 21 17 22 19 23
REMARK SMILES IDX 11 24 12 26 16 27 13 28 15 29 14 30 29 31 30 32 31 33 32 35
REMARK SMILES IDX 33 36 34 37 98 38 35 39 97 40 36 41 37 42 38 43 91 44 39 45
REMARK SMILES IDX 96 46 90 47 92 48 40 49 95 50 89 51 88 52 41 54 75 55 54 56
REMARK SMILES IDX 74 57 55 58 58 59 73 60 93 61 56 62 57 63 72 65 94 66 59 67
REMARK SMILES IDX 42 68 43 69 52 70 44 71 45 72 51 73 53 74 46 75 47 76 48 77
REMARK SMILES IDX 49 78 50 79 76 80 77 81 86 82 78 83 79 84 85 85 87 86 80 87
REMARK SMILES IDX 81 88 82 89 83 90 84 91 60 92 61 93 70 94 62 95 63 96 69 97
REMARK SMILES IDX 71 98 64 99 65 100 66 101 67 102 68 103
REMARK H PARENT 26 6 17 25 30 34 92 53 58 64
REMARK Flexibility Score: inf
ROOT
ATOM      1  C   UNL A   1      39.932  23.241  27.450  1.00  0.00     0.042 C 
ENDROOT
BRANCH   1   2
ATOM      2  C   UNL A   1      39.082  23.856  26.343  1.00  0.00     0.117 C 
BRANCH   2   3
ATOM      3  N   UNL A   1      37.692  23.429  26.374  1.00  0.00    -0.354 N 
ATOM      4  O   UNL A   1      37.970  21.589  25.026  1.00  0.00    -0.273 OA
ATOM      5  C   UNL A   1      37.271  22.252  25.790  1.00  0.00     0.239 C 
ATOM      6  H   UNL A   1      37.029  23.998  26.826  1.00  0.00     0.163 HD
BRANCH   5   7
ATOM      7  C   UNL A   1      35.852  21.836  26.103  1.00  0.00     0.222 C 
BRANCH   7   8
ATOM      8  N   UNL A   1      34.902  21.832  24.989  1.00  0.00    -0.337 N 
ATOM      9  C   UNL A   1      34.841  22.881  24.096  1.00  0.00     0.095 A 
ATOM     10  C   UNL A   1      34.003  20.849  24.613  1.00  0.00     0.049 A 
ATOM     11  C   UNL A   1      33.880  22.589  23.158  1.00  0.00     0.001 A 
ATOM     12  C   UNL A   1      33.297  21.342  23.503  1.00  0.00     0.007 A 
ATOM     13  C   UNL A   1      33.726  19.572  25.133  1.00  0.00     0.027 A 
ATOM     14  C   UNL A   1      32.259  20.563  22.946  1.00  0.00     0.011 A 
ATOM     15  C   UNL A   1      32.682  18.829  24.576  1.00  0.00     0.002 A 
ATOM     16  C   UNL A   1      31.950  19.319  23.503  1.00  0.00     0.001 A 
BRANCH  11  17
ATOM     17  C   UNL A   1      33.566  23.422  22.044  1.00  0.00     0.034 C 
ATOM     18  C   UNL A   1      33.333  24.742  22.097  1.00  0.00     0.110 C 
ATOM     19  S   UNL A   1      33.435  25.775  23.466  1.00  0.00     0.006 SA
ATOM     20  C   UNL A   1      32.903  25.542  20.920  1.00  0.00     0.346 C 
ATOM     21  C   UNL A   1      32.749  27.081  22.521  1.00  0.00     0.319 C 
ATOM     22  N   UNL A   1      32.511  26.812  21.278  1.00  0.00    -0.200 N 
ATOM     23  O   UNL A   1      32.885  25.100  19.774  1.00  0.00    -0.240 OA
ATOM     24  N   UNL A   1      32.439  28.248  23.158  1.00  0.00    -0.251 N 
ATOM     25  H   UNL A   1      32.093  27.448  20.654  1.00  0.00     0.316 HD
ATOM     26  C   UNL A   1      33.339  28.959  24.068  1.00  0.00     0.265 C 
ATOM     27  C   UNL A   1      31.182  28.952  22.901  1.00  0.00     0.265 C 
ATOM     28  C   UNL A   1      32.600  29.302  25.366  1.00  0.00     0.206 C 
ATOM     29  C   UNL A   1      30.514  29.268  24.250  1.00  0.00     0.206 C 
ATOM     30  O   UNL A   1      31.388  30.033  25.101  1.00  0.00    -0.373 OA
ENDBRANCH  11  17
ENDBRANCH   7   8
ENDBRANCH   5   7
ENDBRANCH   2   3
ENDBRANCH   1   2
BRANCH   1  31
ATOM     31  C   UNL A   1      40.897  22.154  26.978  1.00  0.00     0.118 C 
BRANCH  31  32
ATOM     32  N   UNL A   1      41.712  22.517  25.836  1.00  0.00    -0.352 N 
ATOM     33  C   UNL A   1      42.590  23.534  25.575  1.00  0.00     0.251 C 
ATOM     34  H   UNL A   1      41.613  21.893  25.081  1.00  0.00     0.163 HD
ATOM     35  O   UNL A   1      43.362  23.344  24.630  1.00  0.00    -0.269 OA
BRANCH  33  36
ATOM     36  C   UNL A   1      42.607  24.854  26.262  1.00  0.00     0.039 A 
ATOM     37  C   UNL A   1      43.183  25.110  27.503  1.00  0.00     0.014 A 
ATOM     38  C   UNL A   1      41.858  25.875  25.642  1.00  0.00     0.014 A 
ATOM     39  C   UNL A   1      42.894  26.296  28.172  1.00  0.00     0.010 A 
ATOM     40  C   UNL A   1      41.580  27.068  26.298  1.00  0.00     0.010 A 
ATOM     41  C   UNL A   1      42.042  27.246  27.594  1.00  0.00    -0.014 A 
BRANCH  41  42
ATOM     42  C   UNL A   1      41.742  28.450  28.362  1.00  0.00     0.031 A 
ATOM     43  C   UNL A   1      42.819  29.475  28.319  1.00  0.00     0.074 A 
ATOM     44  C   UNL A   1      40.590  28.664  29.032  1.00  0.00     0.049 A 
ATOM     45  N   UNL A   1      43.608  29.815  29.284  1.00  0.00    -0.248 NA
ATOM     46  C   UNL A   1      43.180  30.059  27.019  1.00  0.00     0.031 C 
ATOM     47  C   UNL A   1      39.355  27.879  29.017  1.00  0.00     0.029 A 
ATOM     48  N   UNL A   1      40.268  29.708  29.849  1.00  0.00    -0.354 N 
ATOM     49  C   UNL A   1      44.435  30.812  28.776  1.00  0.00     0.074 A 
ATOM     50  C   UNL A   1      44.236  30.805  27.349  1.00  0.00     0.031 C 
ATOM     51  C   UNL A   1      38.360  28.594  29.593  1.00  0.00     0.029 A 
ATOM     52  C   UNL A   1      38.911  29.824  30.136  1.00  0.00     0.049 A 
ATOM     53  H   UNL A   1      40.941  30.332  30.206  1.00  0.00     0.167 HD
ATOM     54  C   UNL A   1      45.066  31.692  29.601  1.00  0.00     0.037 A 
ATOM     55  C   UNL A   1      38.291  30.883  30.725  1.00  0.00     0.037 A 
ATOM     56  C   UNL A   1      45.090  31.208  30.958  1.00  0.00     0.049 A 
ATOM     57  C   UNL A   1      39.328  31.597  31.521  1.00  0.00     0.074 A 
ATOM     58  C   UNL A   1      45.612  30.085  31.571  1.00  0.00     0.029 A 
ATOM     59  N   UNL A   1      44.176  31.726  31.846  1.00  0.00    -0.354 N 
ATOM     60  N   UNL A   1      39.910  31.074  32.571  1.00  0.00    -0.248 NA
ATOM     61  C   UNL A   1      40.079  32.653  30.856  1.00  0.00     0.031 C 
ATOM     62  C   UNL A   1      44.630  29.704  32.531  1.00  0.00     0.029 A 
ATOM     63  C   UNL A   1      43.615  30.662  32.506  1.00  0.00     0.049 A 
ATOM     64  H   UNL A   1      43.964  32.678  31.982  1.00  0.00     0.167 HD
ATOM     65  C   UNL A   1      41.251  31.408  32.437  1.00  0.00     0.074 A 
ATOM     66  C   UNL A   1      41.285  32.430  31.390  1.00  0.00     0.031 C 
ATOM     67  C   UNL A   1      42.243  30.633  32.967  1.00  0.00     0.037 A 
BRANCH  54  68
ATOM     68  C   UNL A   1      45.351  33.134  29.258  1.00  0.00     0.058 A 
ATOM     69  C   UNL A   1      44.307  33.944  28.763  1.00  0.00     0.135 A 
ATOM     70  C   UNL A   1      46.652  33.662  29.115  1.00  0.00     0.135 A 
ATOM     71  F   UNL A   1      43.029  33.545  28.850  1.00  0.00    -0.206 F 
ATOM     72  C   UNL A   1      44.547  35.145  28.095  1.00  0.00     0.059 A 
ATOM     73  C   UNL A   1      46.910  34.880  28.497  1.00  0.00     0.059 A 
ATOM     74  F   UNL A   1      47.746  32.981  29.480  1.00  0.00    -0.206 F 
ATOM     75  C   UNL A   1      45.856  35.594  27.951  1.00  0.00     0.060 A 
BRANCH  75  76
ATOM     76  S   UNL A   1      46.175  37.083  26.990  1.00  0.00     0.124 S 
ATOM     77  O   UNL A   1      44.836  37.650  26.878  1.00  0.00    -0.237 OA
ATOM     78  O   UNL A   1      47.105  37.803  27.854  1.00  0.00    -0.237 OA
ATOM     79  O   UNL A   1      46.748  36.567  25.750  1.00  0.00    -0.744 OA
ENDBRANCH  75  76
ENDBRANCH  54  68
BRANCH  55  80
ATOM     80  C   UNL A   1      37.013  31.521  30.276  1.00  0.00     0.058 A 
ATOM     81  C   UNL A   1      36.022  31.940  31.188  1.00  0.00     0.135 A 
ATOM     82  C   UNL A   1      36.846  31.971  28.949  1.00  0.00     0.135 A 
ATOM     83  F   UNL A   1      36.104  31.590  32.480  1.00  0.00    -0.206 F 
ATOM     84  C   UNL A   1      34.959  32.779  30.812  1.00  0.00     0.059 A 
ATOM     85  C   UNL A   1      35.794  32.795  28.552  1.00  0.00     0.059 A 
ATOM     86  F   UNL A   1      37.753  31.696  28.003  1.00  0.00    -0.206 F 
ATOM     87  C   UNL A   1      34.864  33.217  29.491  1.00  0.00     0.060 A 
BRANCH  87  88
ATOM     88  S   UNL A   1      33.592  34.414  29.018  1.00  0.00     0.124 S 
ATOM     89  O   UNL A   1      34.385  35.487  28.427  1.00  0.00    -0.237 OA
ATOM     90  O   UNL A   1      32.772  33.642  28.090  1.00  0.00    -0.237 OA
ATOM     91  O   UNL A   1      32.946  34.745  30.286  1.00  0.00    -0.744 OA
ENDBRANCH  87  88
ENDBRANCH  55  80
BRANCH  67  92
ATOM     92  C   UNL A   1      41.887  29.519  33.919  1.00  0.00     0.058 A 
ATOM     93  C   UNL A   1      41.634  28.190  33.531  1.00  0.00     0.135 A 
ATOM     94  C   UNL A   1      42.013  29.765  35.296  1.00  0.00     0.135 A 
ATOM     95  F   UNL A   1      41.603  27.844  32.236  1.00  0.00    -0.206 F 
ATOM     96  C   UNL A   1      41.485  27.164  34.468  1.00  0.00     0.059 A 
ATOM     97  C   UNL A   1      41.902  28.752  36.245  1.00  0.00     0.059 A 
ATOM     98  F   UNL A   1      42.316  30.998  35.732  1.00  0.00    -0.206 F 
ATOM     99  C   UNL A   1      41.629  27.454  35.824  1.00  0.00     0.060 A 
BRANCH  99 100
ATOM    100  S   UNL A   1      41.520  26.113  37.029  1.00  0.00     0.124 S 
ATOM    101  O   UNL A   1      40.265  26.411  37.710  1.00  0.00    -0.237 OA
ATOM    102  O   UNL A   1      41.516  24.925  36.180  1.00  0.00    -0.237 OA
ATOM    103  O   UNL A   1      42.724  26.283  37.841  1.00  0.00    -0.744 OA
ENDBRANCH  99 100
ENDBRANCH  67  92
ENDBRANCH  41  42
ENDBRANCH  33  36
ENDBRANCH  31  32
ENDBRANCH   1  31
TORSDOF 15
ENDMDL
MODEL 2
REMARK VINA RESULT:     -14.0      1.367      1.934
REMARK SMILES O=C(Cn1cc(/C=C2\SC(N3CCOCC3)=[NH+]C2=O)c2ccccc21)NCCCNC(=O)c1ccc(-c2c3nc(c(-c4c(F)cc(S(=O)(=O)[O-])cc4F)c4ccc([nH]4)c(-c4c(F)cc(S(=O)(=O)[O-])cc4F)c4nc(c(-c5c(F)cc(S(=O)(=O)[O-])cc5F)c5ccc2[nH]5)C=C4)C=C3)cc1
REMARK SMILES IDX 28 1 27 2 26 3 1 4 2 5 3 7 4 8 5 9 25 10 6 11 20 12 24 13
REMARK SMILES IDX 21 14 23 15 22 16 7 17 8 18 9 19 18 20 10 21 17 22 19 23
REMARK SMILES IDX 11 24 12 26 16 27 13 28 15 29 14 30 29 31 30 32 31 33 32 35
REMARK SMILES IDX 33 36 34 37 98 38 35 39 97 40 36 41 37 42 38 43 91 44 39 45
REMARK SMILES IDX 96 46 90 47 92 48 40 49 95 50 89 51 88 52 41 54 75 55 54 56
REMARK SMILES IDX 74 57 55 58 58 59 73 60 93 61 56 62 57 63 72 65 94 66 59 67
REMARK SMILES IDX 42 68 43 69 52 70 44 71 45 72 51 73 53 74 46 75 47 76 48 77
REMARK SMILES IDX 49 78 50 79 76 80 77 81 86 82 78 83 79 84 85 85 87 86 80 87
REMARK SMILES IDX 81 88 82 89 83 90 84 91 60 92 61 93 70 94 62 95 63 96 69 97
REMARK SMILES IDX 71 98 64 99 65 100 66 101 67 102 68 103
REMARK H PARENT 26 6 17 25 30 34 92 53 58 64
REMARK Flexibility Score: inf
ROOT
ATOM      1  C   UNL A   1      40.009  23.361  27.470  1.00  0.00     0.042 C 
ENDROOT
BRANCH   1   2
ATOM      2  C   UNL A   1      38.776  23.644  26.619  1.00  0.00     0.117 C 
BRANCH   2   3
ATOM      3  N   UNL A   1      38.040  22.445  26.248  1.00  0.00    -0.354 N 
ATOM      4  O   UNL A   1      37.050  23.333  24.375  1.00  0.00    -0.273 OA
ATOM      5  C   UNL A   1      37.313  22.360  25.079  1.00  0.00     0.239 C 
ATOM      6  H   UNL A   1      38.061  21.668  26.852  1.00  0.00     0.163 HD
BRANCH   5   7
ATOM      7  C   UNL A   1      36.798  20.984  24.725  1.00  0.00     0.222 C 
BRANCH   7   8
ATOM      8  N   UNL A   1      35.409  20.686  25.077  1.00  0.00    -0.337 N 
ATOM      9  C   UNL A   1      34.595  21.640  25.651  1.00  0.00     0.095 A 
ATOM     10  C   UNL A   1      34.689  19.521  24.876  1.00  0.00     0.049 A 
ATOM     11  C   UNL A   1      33.354  21.082  25.847  1.00  0.00     0.001 A 
ATOM     12  C   UNL A   1      33.412  19.729  25.424  1.00  0.00     0.007 A 
ATOM     13  C   UNL A   1      35.023  18.296  24.272  1.00  0.00     0.027 A 
ATOM     14  C   UNL A   1      32.479  18.669  25.415  1.00  0.00     0.011 A 
ATOM     15  C   UNL A   1      34.088  17.257  24.293  1.00  0.00     0.002 A 
ATOM     16  C   UNL A   1      32.835  17.435  24.864  1.00  0.00     0.001 A 
BRANCH  11  17
ATOM     17  C   UNL A   1      32.233  21.784  26.379  1.00  0.00     0.034 C 
ATOM     18  C   UNL A   1      31.789  22.979  25.959  1.00  0.00     0.110 C 
ATOM     19  S   UNL A   1      32.378  23.920  24.648  1.00  0.00     0.006 SA
ATOM     20  C   UNL A   1      30.680  23.714  26.621  1.00  0.00     0.346 C 
ATOM     21  C   UNL A   1      31.336  25.240  25.139  1.00  0.00     0.319 C 
ATOM     22  N   UNL A   1      30.566  25.003  26.152  1.00  0.00    -0.200 N 
ATOM     23  O   UNL A   1      29.972  23.223  27.497  1.00  0.00    -0.240 OA
ATOM     24  N   UNL A   1      31.456  26.436  24.491  1.00  0.00    -0.251 N 
ATOM     25  H   UNL A   1      29.964  25.674  26.546  1.00  0.00     0.316 HD
ATOM     26  C   UNL A   1      31.490  26.588  23.034  1.00  0.00     0.265 C 
ATOM     27  C   UNL A   1      31.464  27.706  25.218  1.00  0.00     0.265 C 
ATOM     28  C   UNL A   1      32.677  27.469  22.632  1.00  0.00     0.206 C 
ATOM     29  C   UNL A   1      32.676  28.529  24.747  1.00  0.00     0.206 C 
ATOM     30  O   UNL A   1      32.649  28.732  23.322  1.00  0.00    -0.373 OA
ENDBRANCH  11  17
ENDBRANCH   7   8
ENDBRANCH   5   7
ENDBRANCH   2   3
ENDBRANCH   1   2
BRANCH   1  31
ATOM     31  C   UNL A   1      40.900  22.237  26.941  1.00  0.00     0.118 C 
BRANCH  31  32
ATOM     32  N   UNL A   1      41.717  22.594  25.798  1.00  0.00    -0.352 N 
ATOM     33  C   UNL A   1      42.590  23.612  25.529  1.00  0.00     0.251 C 
ATOM     34  H   UNL A   1      41.622  21.963  25.048  1.00  0.00     0.163 HD
ATOM     35  O   UNL A   1      43.365  23.418  24.588  1.00  0.00    -0.269 OA
BRANCH  33  36
ATOM     36  C   UNL A   1      42.599  24.939  26.204  1.00  0.00     0.039 A 
ATOM     37  C   UNL A   1      43.264  25.236  27.391  1.00  0.00     0.014 A 
ATOM     38  C   UNL A   1      41.750  25.916  25.643  1.00  0.00     0.014 A 
ATOM     39  C   UNL A   1      42.974  26.413  28.074  1.00  0.00     0.010 A 
ATOM     40  C   UNL A   1      41.470  27.101  26.313  1.00  0.00     0.010 A 
ATOM     41  C   UNL A   1      42.030  27.314  27.564  1.00  0.00    -0.014 A 
BRANCH  41  42
ATOM     42  C   UNL A   1      41.736  28.510  28.347  1.00  0.00     0.031 A 
ATOM     43  C   UNL A   1      42.810  29.538  28.302  1.00  0.00     0.074 A 
ATOM     44  C   UNL A   1      40.592  28.715  29.033  1.00  0.00     0.049 A 
ATOM     45  N   UNL A   1      43.610  29.870  29.260  1.00  0.00    -0.248 NA
ATOM     46  C   UNL A   1      43.155  30.136  27.003  1.00  0.00     0.031 C 
ATOM     47  C   UNL A   1      39.359  27.927  29.025  1.00  0.00     0.029 A 
ATOM     48  N   UNL A   1      40.277  29.750  29.864  1.00  0.00    -0.354 N 
ATOM     49  C   UNL A   1      44.429  30.874  28.752  1.00  0.00     0.074 A 
ATOM     50  C   UNL A   1      44.213  30.880  27.327  1.00  0.00     0.031 C 
ATOM     51  C   UNL A   1      38.369  28.634  29.620  1.00  0.00     0.029 A 
ATOM     52  C   UNL A   1      38.923  29.860  30.168  1.00  0.00     0.049 A 
ATOM     53  H   UNL A   1      40.953  30.372  30.218  1.00  0.00     0.167 HD
ATOM     54  C   UNL A   1      45.068  31.748  29.577  1.00  0.00     0.037 A 
ATOM     55  C   UNL A   1      38.308  30.911  30.775  1.00  0.00     0.037 A 
ATOM     56  C   UNL A   1      45.109  31.252  30.929  1.00  0.00     0.049 A 
ATOM     57  C   UNL A   1      39.353  31.621  31.565  1.00  0.00     0.074 A 
ATOM     58  C   UNL A   1      45.640  30.124  31.525  1.00  0.00     0.029 A 
ATOM     59  N   UNL A   1      44.204  31.758  31.834  1.00  0.00    -0.354 N 
ATOM     60  N   UNL A   1      39.948  31.089  32.603  1.00  0.00    -0.248 NA
ATOM     61  C   UNL A   1      40.093  32.685  30.901  1.00  0.00     0.031 C 
ATOM     62  C   UNL A   1      44.671  29.731  32.493  1.00  0.00     0.029 A 
ATOM     63  C   UNL A   1      43.653  30.687  32.490  1.00  0.00     0.049 A 
ATOM     64  H   UNL A   1      43.992  32.709  31.981  1.00  0.00     0.167 HD
ATOM     65  C   UNL A   1      41.287  31.428  32.456  1.00  0.00     0.074 A 
ATOM     66  C   UNL A   1      41.306  32.459  31.419  1.00  0.00     0.031 C 
ATOM     67  C   UNL A   1      42.288  30.650  32.967  1.00  0.00     0.037 A 
BRANCH  54  68
ATOM     68  C   UNL A   1      45.345  33.194  29.246  1.00  0.00     0.058 A 
ATOM     69  C   UNL A   1      44.279  34.025  28.838  1.00  0.00     0.135 A 
ATOM     70  C   UNL A   1      46.639  33.713  29.025  1.00  0.00     0.135 A 
ATOM     71  F   UNL A   1      43.005  33.637  29.004  1.00  0.00    -0.206 F 
ATOM     72  C   UNL A   1      44.487  35.236  28.180  1.00  0.00     0.059 A 
ATOM     73  C   UNL A   1      46.868  34.940  28.416  1.00  0.00     0.059 A 
ATOM     74  F   UNL A   1      47.747  33.014  29.301  1.00  0.00    -0.206 F 
ATOM     75  C   UNL A   1      45.788  35.676  27.957  1.00  0.00     0.060 A 
BRANCH  75  76
ATOM     76  S   UNL A   1      46.058  37.181  27.007  1.00  0.00     0.124 S 
ATOM     77  O   UNL A   1      46.701  36.657  25.806  1.00  0.00    -0.237 OA
ATOM     78  O   UNL A   1      44.697  37.678  26.839  1.00  0.00    -0.237 OA
ATOM     79  O   UNL A   1      46.911  37.982  27.881  1.00  0.00    -0.744 OA
ENDBRANCH  75  76
ENDBRANCH  54  68
BRANCH  55  80
ATOM     80  C   UNL A   1      37.023  31.551  30.347  1.00  0.00     0.058 A 
ATOM     81  C   UNL A   1      36.046  31.966  31.275  1.00  0.00     0.135 A 
ATOM     82  C   UNL A   1      36.837  32.005  29.025  1.00  0.00     0.135 A 
ATOM     83  F   UNL A   1      36.147  31.611  32.565  1.00  0.00    -0.206 F 
ATOM     84  C   UNL A   1      34.977  32.806  30.918  1.00  0.00     0.059 A 
ATOM     85  C   UNL A   1      35.778  32.830  28.646  1.00  0.00     0.059 A 
ATOM     86  F   UNL A   1      37.729  31.735  28.063  1.00  0.00    -0.206 F 
ATOM     87  C   UNL A   1      34.862  33.248  29.600  1.00  0.00     0.060 A 
BRANCH  87  88
ATOM     88  S   UNL A   1      33.583  34.447  29.151  1.00  0.00     0.124 S 
ATOM     89  O   UNL A   1      32.993  34.766  30.447  1.00  0.00    -0.237 OA
ATOM     90  O   UNL A   1      34.362  35.510  28.525  1.00  0.00    -0.237 OA
ATOM     91  O   UNL A   1      32.718  33.698  28.243  1.00  0.00    -0.744 OA
ENDBRANCH  87  88
ENDBRANCH  55  80
BRANCH  67  92
ATOM     92  C   UNL A   1      41.945  29.526  33.913  1.00  0.00     0.058 A 
ATOM     93  C   UNL A   1      41.675  28.204  33.513  1.00  0.00     0.135 A 
ATOM     94  C   UNL A   1      42.103  29.753  35.289  1.00  0.00     0.135 A 
ATOM     95  F   UNL A   1      41.614  27.875  32.215  1.00  0.00    -0.206 F 
ATOM     96  C   UNL A   1      41.541  27.166  34.439  1.00  0.00     0.059 A 
ATOM     97  C   UNL A   1      42.007  28.729  36.227  1.00  0.00     0.059 A 
ATOM     98  F   UNL A   1      42.424  30.979  35.734  1.00  0.00    -0.206 F 
ATOM     99  C   UNL A   1      41.716  27.438  35.796  1.00  0.00     0.060 A 
BRANCH  99 100
ATOM    100  S   UNL A   1      41.626  26.082  36.986  1.00  0.00     0.124 S 
ATOM    101  O   UNL A   1      41.806  24.912  36.134  1.00  0.00    -0.237 OA
ATOM    102  O   UNL A   1      42.730  26.384  37.893  1.00  0.00    -0.237 OA
ATOM    103  O   UNL A   1      40.294  26.228  37.571  1.00  0.00    -0.744 OA
ENDBRANCH  99 100
ENDBRANCH  67  92
ENDBRANCH  41  42
ENDBRANCH  33  36
ENDBRANCH  31  32
ENDBRANCH   1  31
TORSDOF 15
ENDMDL
MODEL 3
REMARK VINA RESULT:     -13.6      2.920      9.643
REMARK SMILES O=C(Cn1cc(/C=C2\SC(N3CCOCC3)=[NH+]C2=O)c2ccccc21)NCCCNC(=O)c1ccc(-c2c3nc(c(-c4c(F)cc(S(=O)(=O)[O-])cc4F)c4ccc([nH]4)c(-c4c(F)cc(S(=O)(=O)[O-])cc4F)c4nc(c(-c5c(F)cc(S(=O)(=O)[O-])cc5F)c5ccc2[nH]5)C=C4)C=C3)cc1
REMARK SMILES IDX 28 1 27 2 26 3 1 4 2 5 3 7 4 8 5 9 25 10 6 11 20 12 24 13
REMARK SMILES IDX 21 14 23 15 22 16 7 17 8 18 9 19 18 20 10 21 17 22 19 23
REMARK SMILES IDX 11 24 12 26 16 27 13 28 15 29 14 30 29 31 30 32 31 33 32 35
REMARK SMILES IDX 33 36 34 37 98 38 35 39 97 40 36 41 37 42 38 43 91 44 39 45
REMARK SMILES IDX 96 46 90 47 92 48 40 49 95 50 89 51 88 52 41 54 75 55 54 56
REMARK SMILES IDX 74 57 55 58 58 59 73 60 93 61 56 62 57 63 72 65 94 66 59 67
REMARK SMILES IDX 42 68 43 69 52 70 44 71 45 72 51 73 53 74 46 75 47 76 48 77
REMARK SMILES IDX 49 78 50 79 76 80 77 81 86 82 78 83 79 84 85 85 87 86 80 87
REMARK SMILES IDX 81 88 82 89 83 90 84 91 60 92 61 93 70 94 62 95 63 96 69 97
REMARK SMILES IDX 71 98 64 99 65 100 66 101 67 102 68 103
REMARK H PARENT 26 6 17 25 30 34 92 53 58 64
REMARK Flexibility Score: inf
ROOT
ATOM      1  C   UNL A   1      35.803  31.739  27.830  1.00  0.00     0.042 C 
ENDROOT
BRANCH   1   2
ATOM      2  C   UNL A   1      35.186  30.364  28.060  1.00  0.00     0.117 C 
BRANCH   2   3
ATOM      3  N   UNL A   1      34.639  29.764  26.853  1.00  0.00    -0.354 N 
ATOM      4  O   UNL A   1      32.505  30.570  27.124  1.00  0.00    -0.273 OA
ATOM      5  C   UNL A   1      33.350  30.013  26.427  1.00  0.00     0.239 C 
ATOM      6  H   UNL A   1      35.206  29.161  26.323  1.00  0.00     0.163 HD
BRANCH   5   7
ATOM      7  C   UNL A   1      33.007  29.505  25.045  1.00  0.00     0.222 C 
BRANCH   7   8
ATOM      8  N   UNL A   1      31.892  28.562  24.944  1.00  0.00    -0.337 N 
ATOM      9  C   UNL A   1      31.819  27.450  25.756  1.00  0.00     0.095 A 
ATOM     10  C   UNL A   1      30.772  28.619  24.133  1.00  0.00     0.049 A 
ATOM     11  C   UNL A   1      30.664  26.771  25.450  1.00  0.00     0.001 A 
ATOM     12  C   UNL A   1      30.023  27.458  24.386  1.00  0.00     0.007 A 
ATOM     13  C   UNL A   1      30.333  29.570  23.195  1.00  0.00     0.027 A 
ATOM     14  C   UNL A   1      28.847  27.223  23.641  1.00  0.00     0.011 A 
ATOM     15  C   UNL A   1      29.176  29.304  22.458  1.00  0.00     0.002 A 
ATOM     16  C   UNL A   1      28.445  28.143  22.669  1.00  0.00     0.001 A 
BRANCH  11  17
ATOM     17  C   UNL A   1      30.224  25.591  26.118  1.00  0.00     0.034 C 
ATOM     18  C   UNL A   1      30.977  24.510  26.370  1.00  0.00     0.110 C 
ATOM     19  S   UNL A   1      32.650  24.293  26.045  1.00  0.00     0.006 SA
ATOM     20  C   UNL A   1      30.437  23.263  26.974  1.00  0.00     0.346 C 
ATOM     21  C   UNL A   1      32.512  22.607  26.503  1.00  0.00     0.319 C 
ATOM     22  N   UNL A   1      31.345  22.231  26.919  1.00  0.00    -0.200 N 
ATOM     23  O   UNL A   1      29.305  23.176  27.443  1.00  0.00    -0.240 OA
ATOM     24  N   UNL A   1      33.593  21.794  26.319  1.00  0.00    -0.251 N 
ATOM     25  H   UNL A   1      31.130  21.303  27.169  1.00  0.00     0.316 HD
ATOM     26  C   UNL A   1      34.956  22.123  26.742  1.00  0.00     0.265 C 
ATOM     27  C   UNL A   1      33.457  20.451  25.755  1.00  0.00     0.265 C 
ATOM     28  C   UNL A   1      35.930  21.889  25.582  1.00  0.00     0.206 C 
ATOM     29  C   UNL A   1      34.474  20.298  24.610  1.00  0.00     0.206 C 
ATOM     30  O   UNL A   1      35.816  20.550  25.065  1.00  0.00    -0.373 OA
ENDBRANCH  11  17
ENDBRANCH   7   8
ENDBRANCH   5   7
ENDBRANCH   2   3
ENDBRANCH   1   2
BRANCH   1  31
ATOM     31  C   UNL A   1      35.093  32.881  28.558  1.00  0.00     0.118 C 
BRANCH  31  32
ATOM     32  N   UNL A   1      34.589  32.544  29.875  1.00  0.00    -0.352 N 
ATOM     33  C   UNL A   1      35.171  32.128  31.041  1.00  0.00     0.251 C 
ATOM     34  H   UNL A   1      33.612  32.637  29.946  1.00  0.00     0.163 HD
ATOM     35  O   UNL A   1      34.485  32.264  32.059  1.00  0.00    -0.269 OA
BRANCH  33  36
ATOM     36  C   UNL A   1      36.489  31.445  31.151  1.00  0.00     0.039 A 
ATOM     37  C   UNL A   1      37.730  32.058  30.998  1.00  0.00     0.014 A 
ATOM     38  C   UNL A   1      36.441  30.042  31.288  1.00  0.00     0.014 A 
ATOM     39  C   UNL A   1      38.873  31.281  30.837  1.00  0.00     0.010 A 
ATOM     40  C   UNL A   1      37.583  29.262  31.145  1.00  0.00     0.010 A 
ATOM     41  C   UNL A   1      38.787  29.883  30.848  1.00  0.00    -0.014 A 
BRANCH  41  42
ATOM     42  C   UNL A   1      40.014  29.122  30.632  1.00  0.00     0.031 A 
ATOM     43  C   UNL A   1      40.870  29.003  31.842  1.00  0.00     0.074 A 
ATOM     44  C   UNL A   1      40.357  28.537  29.464  1.00  0.00     0.049 A 
ATOM     45  N   UNL A   1      42.008  29.577  32.051  1.00  0.00    -0.248 NA
ATOM     46  C   UNL A   1      40.324  28.315  33.022  1.00  0.00     0.031 C 
ATOM     47  C   UNL A   1      39.559  28.370  28.248  1.00  0.00     0.029 A 
ATOM     48  N   UNL A   1      41.519  27.897  29.148  1.00  0.00    -0.354 N 
ATOM     49  C   UNL A   1      42.429  29.159  33.309  1.00  0.00     0.074 A 
ATOM     50  C   UNL A   1      41.290  28.522  33.919  1.00  0.00     0.031 C 
ATOM     51  C   UNL A   1      40.170  27.482  27.428  1.00  0.00     0.029 A 
ATOM     52  C   UNL A   1      41.459  27.121  27.994  1.00  0.00     0.049 A 
ATOM     53  H   UNL A   1      42.335  27.976  29.693  1.00  0.00     0.167 HD
ATOM     54  C   UNL A   1      43.743  29.200  33.662  1.00  0.00     0.037 A 
ATOM     55  C   UNL A   1      42.381  26.211  27.576  1.00  0.00     0.037 A 
ATOM     56  C   UNL A   1      44.491  30.063  32.783  1.00  0.00     0.049 A 
ATOM     57  C   UNL A   1      43.678  26.601  28.198  1.00  0.00     0.074 A 
ATOM     58  C   UNL A   1      44.419  31.404  32.458  1.00  0.00     0.029 A 
ATOM     59  N   UNL A   1      45.242  29.480  31.788  1.00  0.00    -0.354 N 
ATOM     60  N   UNL A   1      44.312  27.705  27.897  1.00  0.00    -0.248 NA
ATOM     61  C   UNL A   1      43.996  26.037  29.503  1.00  0.00     0.031 C 
ATOM     62  C   UNL A   1      44.670  31.455  31.056  1.00  0.00     0.029 A 
ATOM     63  C   UNL A   1      44.964  30.158  30.628  1.00  0.00     0.049 A 
ATOM     64  H   UNL A   1      45.860  28.719  31.889  1.00  0.00     0.167 HD
ATOM     65  C   UNL A   1      44.753  28.205  29.115  1.00  0.00     0.074 A 
ATOM     66  C   UNL A   1      44.577  27.104  30.062  1.00  0.00     0.031 C 
ATOM     67  C   UNL A   1      44.946  29.542  29.319  1.00  0.00     0.037 A 
BRANCH  54  68
ATOM     68  C   UNL A   1      44.418  28.204  34.572  1.00  0.00     0.058 A 
ATOM     69  C   UNL A   1      44.368  26.831  34.250  1.00  0.00     0.135 A 
ATOM     70  C   UNL A   1      44.847  28.506  35.883  1.00  0.00     0.135 A 
ATOM     71  F   UNL A   1      43.980  26.426  33.031  1.00  0.00    -0.206 F 
ATOM     72  C   UNL A   1      44.636  25.834  35.187  1.00  0.00     0.059 A 
ATOM     73  C   UNL A   1      45.166  27.529  36.818  1.00  0.00     0.059 A 
ATOM     74  F   UNL A   1      44.884  29.759  36.353  1.00  0.00    -0.206 F 
ATOM     75  C   UNL A   1      45.016  26.195  36.476  1.00  0.00     0.060 A 
BRANCH  75  76
ATOM     76  S   UNL A   1      45.250  24.912  37.717  1.00  0.00     0.124 S 
ATOM     77  O   UNL A   1      44.662  23.754  37.054  1.00  0.00    -0.237 OA
ATOM     78  O   UNL A   1      46.702  24.898  37.863  1.00  0.00    -0.237 OA
ATOM     79  O   UNL A   1      44.513  25.421  38.870  1.00  0.00    -0.744 OA
ENDBRANCH  75  76
ENDBRANCH  54  68
BRANCH  55  80
ATOM     80  C   UNL A   1      42.095  24.834  27.062  1.00  0.00     0.058 A 
ATOM     81  C   UNL A   1      42.917  24.204  26.106  1.00  0.00     0.135 A 
ATOM     82  C   UNL A   1      41.146  24.000  27.691  1.00  0.00     0.135 A 
ATOM     83  F   UNL A   1      43.870  24.903  25.471  1.00  0.00    -0.206 F 
ATOM     84  C   UNL A   1      42.827  22.831  25.822  1.00  0.00     0.059 A 
ATOM     85  C   UNL A   1      41.031  22.638  27.418  1.00  0.00     0.059 A 
ATOM     86  F   UNL A   1      40.350  24.463  28.663  1.00  0.00    -0.206 F 
ATOM     87  C   UNL A   1      41.890  22.050  26.500  1.00  0.00     0.060 A 
BRANCH  87  88
ATOM     88  S   UNL A   1      41.855  20.257  26.260  1.00  0.00     0.124 S 
ATOM     89  O   UNL A   1      42.885  20.063  25.246  1.00  0.00    -0.237 OA
ATOM     90  O   UNL A   1      42.173  19.761  27.595  1.00  0.00    -0.237 OA
ATOM     91  O   UNL A   1      40.488  19.999  25.814  1.00  0.00    -0.744 OA
ENDBRANCH  87  88
ENDBRANCH  55  80
BRANCH  67  92
ATOM     92  C   UNL A   1      44.912  30.485  28.142  1.00  0.00     0.058 A 
ATOM     93  C   UNL A   1      43.734  30.954  27.531  1.00  0.00     0.135 A 
ATOM     94  C   UNL A   1      46.115  31.099  27.757  1.00  0.00     0.135 A 
ATOM     95  F   UNL A   1      42.532  30.501  27.914  1.00  0.00    -0.206 F 
ATOM     96  C   UNL A   1      43.756  31.962  26.564  1.00  0.00     0.059 A 
ATOM     97  C   UNL A   1      46.157  32.128  26.820  1.00  0.00     0.059 A 
ATOM     98  F   UNL A   1      47.269  30.744  28.346  1.00  0.00    -0.206 F 
ATOM     99  C   UNL A   1      44.974  32.549  26.220  1.00  0.00     0.060 A 
BRANCH  99 100
ATOM    100  S   UNL A   1      44.993  33.909  25.031  1.00  0.00     0.124 S 
ATOM    101  O   UNL A   1      44.081  34.868  25.646  1.00  0.00    -0.237 OA
ATOM    102  O   UNL A   1      46.402  34.293  25.013  1.00  0.00    -0.237 OA
ATOM    103  O   UNL A   1      44.509  33.292  23.798  1.00  0.00    -0.744 OA
ENDBRANCH  99 100
ENDBRANCH  67  92
ENDBRANCH  41  42
ENDBRANCH  33  36
ENDBRANCH  31  32
ENDBRANCH   1  31
TORSDOF 15
ENDMDL
