MODEL 1
REMARK VINA RESULT:      -9.6      0.000      0.000
REMARK SMILES COCc1cc(C)nc(N/N=C\c2ccc(-c3cccc(C(=O)NCCCNC(=O)c4ccc(-c5c6nc(c(-c7c(F)cc(S(=O)(=O)[O-])cc7F)c7ccc([nH]7)c(-c7c(F)cc(S(=O)(=O)[O-])cc7F)c7nc(c(-c8c(F)cc(S(=O)(=O)[O-])cc8F)c8ccc5[nH]8)C=C7)C=C6)cc4)c3)o2)c1C#N
REMARK SMILES IDX 22 1 23 2 24 3 21 5 17 6 18 7 97 8 19 9 20 10 16 11 13 12
REMARK SMILES IDX 14 13 98 14 15 15 12 16 11 17 10 18 9 20 4 21 5 22 99 23
REMARK SMILES IDX 6 24 7 25 8 26 3 27 2 28 1 29 100 30 101 31 25 32 26 33
REMARK SMILES IDX 27 34 28 35 29 36 30 38 31 39 32 40 96 41 33 42 95 43 34 44
REMARK SMILES IDX 35 45 36 46 89 47 37 48 94 49 88 50 90 51 38 52 93 53 87 54
REMARK SMILES IDX 86 55 39 57 73 58 52 59 72 60 53 61 56 62 71 63 91 64 54 65
REMARK SMILES IDX 55 66 70 68 92 69 57 70 40 71 41 72 50 73 42 74 43 75 49 76
REMARK SMILES IDX 51 77 44 78 45 79 46 80 47 81 48 82 74 83 75 84 84 85 76 86
REMARK SMILES IDX 77 87 83 88 85 89 78 90 79 91 80 92 81 93 82 94 58 95 59 96
REMARK SMILES IDX 68 97 60 98 61 99 67 100 69 101 62 102 63 103 64 104 65 105
REMARK SMILES IDX 66 106
REMARK H PARENT 24 4 10 19 28 37 90 56 56 67
REMARK Flexibility Score: inf
ROOT
ATOM      1  C   UNL A   1      35.768  33.213  33.813  1.00  0.00     0.251 C 
ATOM      2  O   UNL A   1      35.290  33.716  34.830  1.00  0.00    -0.269 OA
ATOM      3  N   UNL A   1      34.888  32.731  32.869  1.00  0.00    -0.352 N 
ATOM      4  H   UNL A   1      33.956  32.688  33.185  1.00  0.00     0.163 HD
ENDROOT
BRANCH   1   5
ATOM      5  C   UNL A   1      37.252  33.172  33.659  1.00  0.00     0.040 A 
ATOM      6  C   UNL A   1      39.362  31.936  33.598  1.00  0.00     0.018 A 
ATOM      7  C   UNL A   1      40.047  33.116  33.306  1.00  0.00     0.012 A 
ATOM      8  C   UNL A   1      37.993  32.013  33.839  1.00  0.00     0.025 A 
ATOM      9  C   UNL A   1      39.339  34.318  33.171  1.00  0.00     0.002 A 
ATOM     10  C   UNL A   1      37.946  34.340  33.324  1.00  0.00     0.014 A 
BRANCH   6  11
ATOM     11  C   UNL A   1      39.928  30.600  33.444  1.00  0.00     0.134 A 
ATOM     12  C   UNL A   1      41.561  29.245  32.924  1.00  0.00     0.147 A 
ATOM     13  C   UNL A   1      40.412  28.487  32.850  1.00  0.00     0.053 A 
ATOM     14  O   UNL A   1      41.277  30.505  33.374  1.00  0.00    -0.455 OA
ATOM     15  C   UNL A   1      39.355  29.363  33.183  1.00  0.00     0.051 A 
BRANCH  12  16
ATOM     16  C   UNL A   1      42.914  29.015  32.553  1.00  0.00     0.180 C 
ATOM     17  N   UNL A   1      43.847  28.356  33.172  1.00  0.00    -0.178 NA
BRANCH  17  18
ATOM     18  N   UNL A   1      43.720  27.747  34.381  1.00  0.00    -0.260 N 
ATOM     19  H   UNL A   1      44.088  28.251  35.143  1.00  0.00     0.192 HD
BRANCH  18  20
ATOM     20  C   UNL A   1      43.133  26.484  34.715  1.00  0.00     0.164 A 
ATOM     21  C   UNL A   1      43.366  24.044  34.698  1.00  0.00     0.001 A 
ATOM     22  C   UNL A   1      42.434  23.989  35.726  1.00  0.00     0.031 A 
ATOM     23  C   UNL A   1      43.712  25.312  34.185  1.00  0.00     0.102 A 
ATOM     24  C   UNL A   1      41.760  25.142  36.063  1.00  0.00     0.040 A 
ATOM     25  C   UNL A   1      40.575  25.009  36.969  1.00  0.00     0.067 C 
ATOM     26  N   UNL A   1      42.095  26.368  35.577  1.00  0.00    -0.233 NA
BRANCH  21  27
ATOM     27  C   UNL A   1      43.860  22.729  34.151  1.00  0.00     0.196 C 
BRANCH  27  28
ATOM     28  O   UNL A   1      44.644  21.994  35.078  1.00  0.00    -0.380 OA
ATOM     29  C   UNL A   1      45.933  21.654  34.591  1.00  0.00     0.195 C 
ENDBRANCH  27  28
ENDBRANCH  21  27
BRANCH  23  30
ATOM     30  C   UNL A   1      44.585  25.425  33.055  1.00  0.00     0.103 C 
ATOM     31  N   UNL A   1      45.296  25.495  32.145  1.00  0.00    -0.192 NA
ENDBRANCH  23  30
ENDBRANCH  18  20
ENDBRANCH  17  18
ENDBRANCH  12  16
ENDBRANCH   6  11
ENDBRANCH   1   5
BRANCH   3  32
ATOM     32  C   UNL A   1      35.061  32.271  31.497  1.00  0.00     0.118 C 
BRANCH  32  33
ATOM     33  C   UNL A   1      34.665  33.328  30.460  1.00  0.00     0.042 C 
BRANCH  33  34
ATOM     34  C   UNL A   1      34.885  32.895  29.021  1.00  0.00     0.118 C 
BRANCH  34  35
ATOM     35  N   UNL A   1      34.036  31.769  28.662  1.00  0.00    -0.352 N 
ATOM     36  C   UNL A   1      34.378  30.513  28.226  1.00  0.00     0.251 C 
ATOM     37  H   UNL A   1      33.069  31.932  28.744  1.00  0.00     0.163 HD
ATOM     38  O   UNL A   1      33.525  29.809  27.693  1.00  0.00    -0.269 OA
BRANCH  36  39
ATOM     39  C   UNL A   1      35.760  30.018  28.391  1.00  0.00     0.039 A 
ATOM     40  C   UNL A   1      36.624  30.036  27.293  1.00  0.00     0.014 A 
ATOM     41  C   UNL A   1      36.200  29.525  29.622  1.00  0.00     0.014 A 
ATOM     42  C   UNL A   1      37.953  29.639  27.455  1.00  0.00     0.010 A 
ATOM     43  C   UNL A   1      37.543  29.213  29.803  1.00  0.00     0.010 A 
ATOM     44  C   UNL A   1      38.435  29.280  28.724  1.00  0.00    -0.014 A 
BRANCH  44  45
ATOM     45  C   UNL A   1      39.878  29.027  28.962  1.00  0.00     0.031 A 
ATOM     46  C   UNL A   1      40.780  30.140  29.414  1.00  0.00     0.074 A 
ATOM     47  C   UNL A   1      40.383  27.811  28.673  1.00  0.00     0.049 A 
ATOM     48  N   UNL A   1      42.078  30.136  29.565  1.00  0.00    -0.248 NA
ATOM     49  C   UNL A   1      40.144  31.433  29.715  1.00  0.00     0.031 C 
ATOM     50  C   UNL A   1      39.606  26.669  28.185  1.00  0.00     0.029 A 
ATOM     51  N   UNL A   1      41.669  27.336  28.724  1.00  0.00    -0.354 N 
ATOM     52  C   UNL A   1      42.418  31.422  29.965  1.00  0.00     0.074 A 
ATOM     53  C   UNL A   1      41.193  32.194  29.988  1.00  0.00     0.031 C 
ATOM     54  C   UNL A   1      40.426  25.624  27.998  1.00  0.00     0.029 A 
ATOM     55  C   UNL A   1      41.794  26.035  28.293  1.00  0.00     0.049 A 
ATOM     56  H   UNL A   1      42.431  27.875  29.040  1.00  0.00     0.167 HD
ATOM     57  C   UNL A   1      43.637  31.907  30.297  1.00  0.00     0.037 A 
ATOM     58  C   UNL A   1      42.889  25.270  28.123  1.00  0.00     0.037 A 
ATOM     59  C   UNL A   1      44.845  31.122  30.274  1.00  0.00     0.049 A 
ATOM     60  C   UNL A   1      44.238  25.846  28.454  1.00  0.00     0.074 A 
ATOM     61  C   UNL A   1      46.122  31.501  30.650  1.00  0.00     0.029 A 
ATOM     62  N   UNL A   1      44.932  29.808  29.833  1.00  0.00    -0.354 N 
ATOM     63  N   UNL A   1      44.532  27.040  28.915  1.00  0.00    -0.248 NA
ATOM     64  C   UNL A   1      45.405  24.980  28.240  1.00  0.00     0.031 C 
ATOM     65  C   UNL A   1      46.991  30.443  30.369  1.00  0.00     0.029 A 
ATOM     66  C   UNL A   1      46.247  29.378  29.884  1.00  0.00     0.049 A 
ATOM     67  H   UNL A   1      44.170  29.263  29.530  1.00  0.00     0.167 HD
ATOM     68  C   UNL A   1      45.913  27.060  29.063  1.00  0.00     0.074 A 
ATOM     69  C   UNL A   1      46.396  25.754  28.666  1.00  0.00     0.031 C 
ATOM     70  C   UNL A   1      46.712  28.072  29.484  1.00  0.00     0.037 A 
BRANCH  57  71
ATOM     71  C   UNL A   1      43.737  33.353  30.703  1.00  0.00     0.058 A 
ATOM     72  C   UNL A   1      43.602  33.759  32.042  1.00  0.00     0.135 A 
ATOM     73  C   UNL A   1      44.030  34.341  29.749  1.00  0.00     0.135 A 
ATOM     74  F   UNL A   1      43.308  32.861  32.995  1.00  0.00    -0.206 F 
ATOM     75  C   UNL A   1      43.729  35.093  32.414  1.00  0.00     0.059 A 
ATOM     76  C   UNL A   1      44.195  35.677  30.104  1.00  0.00     0.059 A 
ATOM     77  F   UNL A   1      44.169  34.012  28.456  1.00  0.00    -0.206 F 
ATOM     78  C   UNL A   1      44.031  36.046  31.438  1.00  0.00     0.060 A 
BRANCH  78  79
ATOM     79  S   UNL A   1      44.210  37.768  31.945  1.00  0.00     0.124 S 
ATOM     80  O   UNL A   1      45.632  37.830  32.268  1.00  0.00    -0.237 OA
ATOM     81  O   UNL A   1      43.801  38.488  30.745  1.00  0.00    -0.237 OA
ATOM     82  O   UNL A   1      43.305  37.885  33.084  1.00  0.00    -0.744 OA
ENDBRANCH  78  79
ENDBRANCH  57  71
BRANCH  58  83
ATOM     83  C   UNL A   1      42.753  23.883  27.600  1.00  0.00     0.058 A 
ATOM     84  C   UNL A   1      42.598  22.793  28.468  1.00  0.00     0.135 A 
ATOM     85  C   UNL A   1      42.764  23.620  26.220  1.00  0.00     0.135 A 
ATOM     86  F   UNL A   1      42.589  22.990  29.795  1.00  0.00    -0.206 F 
ATOM     87  C   UNL A   1      42.475  21.492  27.992  1.00  0.00     0.059 A 
ATOM     88  C   UNL A   1      42.609  22.331  25.717  1.00  0.00     0.059 A 
ATOM     89  F   UNL A   1      42.894  24.628  25.343  1.00  0.00    -0.206 F 
ATOM     90  C   UNL A   1      42.476  21.273  26.613  1.00  0.00     0.060 A 
BRANCH  90  91
ATOM     91  S   UNL A   1      42.266  19.585  26.007  1.00  0.00     0.124 S 
ATOM     92  O   UNL A   1      43.123  19.587  24.828  1.00  0.00    -0.237 OA
ATOM     93  O   UNL A   1      42.738  18.796  27.141  1.00  0.00    -0.237 OA
ATOM     94  O   UNL A   1      40.832  19.498  25.745  1.00  0.00    -0.744 OA
ENDBRANCH  90  91
ENDBRANCH  58  83
BRANCH  70  95
ATOM     95  C   UNL A   1      48.193  27.812  29.551  1.00  0.00     0.058 A 
ATOM     96  C   UNL A   1      48.804  27.347  30.726  1.00  0.00     0.135 A 
ATOM     97  C   UNL A   1      48.992  27.944  28.404  1.00  0.00     0.135 A 
ATOM     98  F   UNL A   1      48.088  27.216  31.854  1.00  0.00    -0.206 F 
ATOM     99  C   UNL A   1      50.157  27.028  30.763  1.00  0.00     0.059 A 
ATOM    100  C   UNL A   1      50.340  27.598  28.410  1.00  0.00     0.059 A 
ATOM    101  F   UNL A   1      48.457  28.379  27.252  1.00  0.00    -0.206 F 
ATOM    102  C   UNL A   1      50.913  27.143  29.596  1.00  0.00     0.060 A 
BRANCH 102 103
ATOM    103  S   UNL A   1      52.649  26.651  29.644  1.00  0.00     0.124 S 
ATOM    104  O   UNL A   1      52.841  26.109  28.303  1.00  0.00    -0.237 OA
ATOM    105  O   UNL A   1      53.320  27.919  29.919  1.00  0.00    -0.237 OA
ATOM    106  O   UNL A   1      52.698  25.675  30.728  1.00  0.00    -0.744 OA
ENDBRANCH 102 103
ENDBRANCH  70  95
ENDBRANCH  44  45
ENDBRANCH  36  39
ENDBRANCH  34  35
ENDBRANCH  33  34
ENDBRANCH  32  33
ENDBRANCH   3  32
TORSDOF 20
ENDMDL
MODEL 2
REMARK VINA RESULT:      -9.3      1.480      2.160
REMARK SMILES COCc1cc(C)nc(N/N=C\c2ccc(-c3cccc(C(=O)NCCCNC(=O)c4ccc(-c5c6nc(c(-c7c(F)cc(S(=O)(=O)[O-])cc7F)c7ccc([nH]7)c(-c7c(F)cc(S(=O)(=O)[O-])cc7F)c7nc(c(-c8c(F)cc(S(=O)(=O)[O-])cc8F)c8ccc5[nH]8)C=C7)C=C6)cc4)c3)o2)c1C#N
REMARK SMILES IDX 22 1 23 2 24 3 21 5 17 6 18 7 97 8 19 9 20 10 16 11 13 12
REMARK SMILES IDX 14 13 98 14 15 15 12 16 11 17 10 18 9 20 4 21 5 22 99 23
REMARK SMILES IDX 6 24 7 25 8 26 3 27 2 28 1 29 100 30 101 31 25 32 26 33
REMARK SMILES IDX 27 34 28 35 29 36 30 38 31 39 32 40 96 41 33 42 95 43 34 44
REMARK SMILES IDX 35 45 36 46 89 47 37 48 94 49 88 50 90 51 38 52 93 53 87 54
REMARK SMILES IDX 86 55 39 57 73 58 52 59 72 60 53 61 56 62 71 63 91 64 54 65
REMARK SMILES IDX 55 66 70 68 92 69 57 70 40 71 41 72 50 73 42 74 43 75 49 76
REMARK SMILES IDX 51 77 44 78 45 79 46 80 47 81 48 82 74 83 75 84 84 85 76 86
REMARK SMILES IDX 77 87 83 88 85 89 78 90 79 91 80 92 81 93 82 94 58 95 59 96
REMARK SMILES IDX 68 97 60 98 61 99 67 100 69 101 62 102 63 103 64 104 65 105
REMARK SMILES IDX 66 106
REMARK H PARENT 24 4 10 19 28 37 90 56 56 67
REMARK Flexibility Score: inf
ROOT
ATOM      1  C   UNL A   1      35.378  33.218  33.616  1.00  0.00     0.251 C 
ATOM      2  O   UNL A   1      34.891  33.786  34.594  1.00  0.00    -0.269 OA
ATOM      3  N   UNL A   1      34.533  32.918  32.570  1.00  0.00    -0.352 N 
ATOM      4  H   UNL A   1      33.580  33.044  32.785  1.00  0.00     0.163 HD
ENDROOT
BRANCH   1   5
ATOM      5  C   UNL A   1      36.838  32.907  33.616  1.00  0.00     0.040 A 
ATOM      6  C   UNL A   1      38.681  31.300  33.590  1.00  0.00     0.018 A 
ATOM      7  C   UNL A   1      39.599  32.350  33.557  1.00  0.00     0.012 A 
ATOM      8  C   UNL A   1      37.328  31.612  33.693  1.00  0.00     0.025 A 
ATOM      9  C   UNL A   1      39.142  33.674  33.534  1.00  0.00     0.002 A 
ATOM     10  C   UNL A   1      37.768  33.949  33.540  1.00  0.00     0.014 A 
BRANCH   6  11
ATOM     11  C   UNL A   1      39.015  29.911  33.294  1.00  0.00     0.134 A 
ATOM     12  C   UNL A   1      40.422  28.349  32.697  1.00  0.00     0.147 A 
ATOM     13  C   UNL A   1      39.168  27.831  32.453  1.00  0.00     0.053 A 
ATOM     14  O   UNL A   1      40.327  29.576  33.293  1.00  0.00    -0.455 OA
ATOM     15  C   UNL A   1      38.257  28.842  32.837  1.00  0.00     0.051 A 
BRANCH  12  16
ATOM     16  C   UNL A   1      41.739  27.919  32.380  1.00  0.00     0.180 C 
ATOM     17  N   UNL A   1      42.724  27.606  33.166  1.00  0.00    -0.178 NA
BRANCH  17  18
ATOM     18  N   UNL A   1      42.704  27.659  34.525  1.00  0.00    -0.260 N 
ATOM     19  H   UNL A   1      41.808  27.735  34.926  1.00  0.00     0.192 HD
BRANCH  18  20
ATOM     20  C   UNL A   1      43.787  27.622  35.461  1.00  0.00     0.164 A 
ATOM     21  C   UNL A   1      44.697  26.626  37.508  1.00  0.00     0.001 A 
ATOM     22  C   UNL A   1      45.961  27.014  37.086  1.00  0.00     0.031 A 
ATOM     23  C   UNL A   1      43.597  26.942  36.683  1.00  0.00     0.102 A 
ATOM     24  C   UNL A   1      46.061  27.844  35.991  1.00  0.00     0.040 A 
ATOM     25  C   UNL A   1      47.393  28.473  35.720  1.00  0.00     0.067 C 
ATOM     26  N   UNL A   1      45.005  28.145  35.188  1.00  0.00    -0.233 NA
BRANCH  21  27
ATOM     27  C   UNL A   1      44.598  25.979  38.866  1.00  0.00     0.196 C 
BRANCH  27  28
ATOM     28  O   UNL A   1      44.348  26.904  39.912  1.00  0.00    -0.380 OA
ATOM     29  C   UNL A   1      44.357  26.319  41.205  1.00  0.00     0.195 C 
ENDBRANCH  27  28
ENDBRANCH  21  27
BRANCH  23  30
ATOM     30  C   UNL A   1      42.261  26.662  37.115  1.00  0.00     0.103 C 
ATOM     31  N   UNL A   1      41.174  26.454  37.454  1.00  0.00    -0.192 NA
ENDBRANCH  23  30
ENDBRANCH  18  20
ENDBRANCH  17  18
ENDBRANCH  12  16
ENDBRANCH   6  11
ENDBRANCH   1   5
BRANCH   3  32
ATOM     32  C   UNL A   1      34.767  32.454  31.209  1.00  0.00     0.118 C 
BRANCH  32  33
ATOM     33  C   UNL A   1      34.517  33.540  30.157  1.00  0.00     0.042 C 
BRANCH  33  34
ATOM     34  C   UNL A   1      34.845  33.112  28.737  1.00  0.00     0.118 C 
BRANCH  34  35
ATOM     35  N   UNL A   1      33.997  32.015  28.296  1.00  0.00    -0.352 N 
ATOM     36  C   UNL A   1      34.337  30.753  27.876  1.00  0.00     0.251 C 
ATOM     37  H   UNL A   1      33.032  32.207  28.298  1.00  0.00     0.163 HD
ATOM     38  O   UNL A   1      33.511  30.080  27.265  1.00  0.00    -0.269 OA
BRANCH  36  39
ATOM     39  C   UNL A   1      35.685  30.215  28.150  1.00  0.00     0.039 A 
ATOM     40  C   UNL A   1      36.658  30.277  27.150  1.00  0.00     0.014 A 
ATOM     41  C   UNL A   1      35.986  29.640  29.387  1.00  0.00     0.014 A 
ATOM     42  C   UNL A   1      37.956  29.839  27.422  1.00  0.00     0.010 A 
ATOM     43  C   UNL A   1      37.297  29.285  29.685  1.00  0.00     0.010 A 
ATOM     44  C   UNL A   1      38.297  29.393  28.708  1.00  0.00    -0.014 A 
BRANCH  44  45
ATOM     45  C   UNL A   1      39.703  29.092  29.077  1.00  0.00     0.031 A 
ATOM     46  C   UNL A   1      40.584  30.163  29.653  1.00  0.00     0.074 A 
ATOM     47  C   UNL A   1      40.203  27.872  28.796  1.00  0.00     0.049 A 
ATOM     48  N   UNL A   1      41.861  30.117  29.930  1.00  0.00    -0.248 NA
ATOM     49  C   UNL A   1      39.955  31.463  29.936  1.00  0.00     0.031 C 
ATOM     50  C   UNL A   1      39.449  26.769  28.195  1.00  0.00     0.029 A 
ATOM     51  N   UNL A   1      41.465  27.359  28.955  1.00  0.00    -0.354 N 
ATOM     52  C   UNL A   1      42.193  31.379  30.406  1.00  0.00     0.074 A 
ATOM     53  C   UNL A   1      40.992  32.185  30.337  1.00  0.00     0.031 C 
ATOM     54  C   UNL A   1      40.257  25.707  28.052  1.00  0.00     0.029 A 
ATOM     55  C   UNL A   1      41.599  26.069  28.493  1.00  0.00     0.049 A 
ATOM     56  H   UNL A   1      42.206  27.865  29.363  1.00  0.00     0.167 HD
ATOM     57  C   UNL A   1      43.386  31.818  30.871  1.00  0.00     0.037 A 
ATOM     58  C   UNL A   1      42.686  25.278  28.404  1.00  0.00     0.037 A 
ATOM     59  C   UNL A   1      44.570  30.999  30.938  1.00  0.00     0.049 A 
ATOM     60  C   UNL A   1      44.010  25.805  28.884  1.00  0.00     0.074 A 
ATOM     61  C   UNL A   1      45.812  31.329  31.450  1.00  0.00     0.029 A 
ATOM     62  N   UNL A   1      44.665  29.698  30.462  1.00  0.00    -0.354 N 
ATOM     63  N   UNL A   1      44.287  26.974  29.413  1.00  0.00    -0.248 NA
ATOM     64  C   UNL A   1      45.170  24.913  28.754  1.00  0.00     0.031 C 
ATOM     65  C   UNL A   1      46.678  30.256  31.217  1.00  0.00     0.029 A 
ATOM     66  C   UNL A   1      45.958  29.229  30.625  1.00  0.00     0.049 A 
ATOM     67  H   UNL A   1      43.923  29.186  30.067  1.00  0.00     0.167 HD
ATOM     68  C   UNL A   1      45.647  26.950  29.695  1.00  0.00     0.074 A 
ATOM     69  C   UNL A   1      46.133  25.643  29.301  1.00  0.00     0.031 C 
ATOM     70  C   UNL A   1      46.426  27.924  30.227  1.00  0.00     0.037 A 
BRANCH  57  71
ATOM     71  C   UNL A   1      43.482  33.246  31.336  1.00  0.00     0.058 A 
ATOM     72  C   UNL A   1      43.257  33.609  32.675  1.00  0.00     0.135 A 
ATOM     73  C   UNL A   1      43.861  34.261  30.441  1.00  0.00     0.135 A 
ATOM     74  F   UNL A   1      42.878  32.684  33.571  1.00  0.00    -0.206 F 
ATOM     75  C   UNL A   1      43.381  34.926  33.102  1.00  0.00     0.059 A 
ATOM     76  C   UNL A   1      44.025  35.580  30.855  1.00  0.00     0.059 A 
ATOM     77  F   UNL A   1      44.088  33.974  29.150  1.00  0.00    -0.206 F 
ATOM     78  C   UNL A   1      43.771  35.905  32.186  1.00  0.00     0.060 A 
BRANCH  78  79
ATOM     79  S   UNL A   1      43.943  37.605  32.767  1.00  0.00     0.124 S 
ATOM     80  O   UNL A   1      42.902  37.671  33.788  1.00  0.00    -0.237 OA
ATOM     81  O   UNL A   1      45.316  37.625  33.261  1.00  0.00    -0.237 OA
ATOM     82  O   UNL A   1      43.697  38.402  31.570  1.00  0.00    -0.744 OA
ENDBRANCH  78  79
ENDBRANCH  57  71
BRANCH  58  83
ATOM     83  C   UNL A   1      42.566  23.914  27.821  1.00  0.00     0.058 A 
ATOM     84  C   UNL A   1      42.468  22.782  28.643  1.00  0.00     0.135 A 
ATOM     85  C   UNL A   1      42.536  23.714  26.431  1.00  0.00     0.135 A 
ATOM     86  F   UNL A   1      42.500  22.917  29.977  1.00  0.00    -0.206 F 
ATOM     87  C   UNL A   1      42.361  21.501  28.111  1.00  0.00     0.059 A 
ATOM     88  C   UNL A   1      42.396  22.446  25.875  1.00  0.00     0.059 A 
ATOM     89  F   UNL A   1      42.611  24.764  25.598  1.00  0.00    -0.206 F 
ATOM     90  C   UNL A   1      42.320  21.345  26.724  1.00  0.00     0.060 A 
BRANCH  90  91
ATOM     91  S   UNL A   1      42.132  19.682  26.048  1.00  0.00     0.124 S 
ATOM     92  O   UNL A   1      40.722  19.671  25.679  1.00  0.00    -0.237 OA
ATOM     93  O   UNL A   1      43.084  19.695  24.942  1.00  0.00    -0.237 OA
ATOM     94  O   UNL A   1      42.498  18.820  27.169  1.00  0.00    -0.744 OA
ENDBRANCH  90  91
ENDBRANCH  58  83
BRANCH  70  95
ATOM     95  C   UNL A   1      47.886  27.619  30.429  1.00  0.00     0.058 A 
ATOM     96  C   UNL A   1      48.366  27.091  31.637  1.00  0.00     0.135 A 
ATOM     97  C   UNL A   1      48.800  27.775  29.373  1.00  0.00     0.135 A 
ATOM     98  F   UNL A   1      47.538  26.935  32.683  1.00  0.00    -0.206 F 
ATOM     99  C   UNL A   1      49.700  26.732  31.794  1.00  0.00     0.059 A 
ATOM    100  C   UNL A   1      50.131  27.390  29.497  1.00  0.00     0.059 A 
ATOM    101  F   UNL A   1      48.392  28.270  28.193  1.00  0.00    -0.206 F 
ATOM    102  C   UNL A   1      50.572  26.872  30.713  1.00  0.00     0.060 A 
BRANCH 102 103
ATOM    103  S   UNL A   1      52.282  26.329  30.911  1.00  0.00     0.124 S 
ATOM    104  O   UNL A   1      52.116  25.101  31.680  1.00  0.00    -0.237 OA
ATOM    105  O   UNL A   1      52.713  26.159  29.526  1.00  0.00    -0.237 OA
ATOM    106  O   UNL A   1      52.911  27.436  31.626  1.00  0.00    -0.744 OA
ENDBRANCH 102 103
ENDBRANCH  70  95
ENDBRANCH  44  45
ENDBRANCH  36  39
ENDBRANCH  34  35
ENDBRANCH  33  34
ENDBRANCH  32  33
ENDBRANCH   3  32
TORSDOF 20
ENDMDL
MODEL 3
REMARK VINA RESULT:      -8.9      1.317      8.025
REMARK SMILES COCc1cc(C)nc(N/N=C\c2ccc(-c3cccc(C(=O)NCCCNC(=O)c4ccc(-c5c6nc(c(-c7c(F)cc(S(=O)(=O)[O-])cc7F)c7ccc([nH]7)c(-c7c(F)cc(S(=O)(=O)[O-])cc7F)c7nc(c(-c8c(F)cc(S(=O)(=O)[O-])cc8F)c8ccc5[nH]8)C=C7)C=C6)cc4)c3)o2)c1C#N
REMARK SMILES IDX 22 1 23 2 24 3 21 5 17 6 18 7 97 8 19 9 20 10 16 11 13 12
REMARK SMILES IDX 14 13 98 14 15 15 12 16 11 17 10 18 9 20 4 21 5 22 99 23
REMARK SMILES IDX 6 24 7 25 8 26 3 27 2 28 1 29 100 30 101 31 25 32 26 33
REMARK SMILES IDX 27 34 28 35 29 36 30 38 31 39 32 40 96 41 33 42 95 43 34 44
REMARK SMILES IDX 35 45 36 46 89 47 37 48 94 49 88 50 90 51 38 52 93 53 87 54
REMARK SMILES IDX 86 55 39 57 73 58 52 59 72 60 53 61 56 62 71 63 91 64 54 65
REMARK SMILES IDX 55 66 70 68 92 69 57 70 40 71 41 72 50 73 42 74 43 75 49 76
REMARK SMILES IDX 51 77 44 78 45 79 46 80 47 81 48 82 74 83 75 84 84 85 76 86
REMARK SMILES IDX 77 87 83 88 85 89 78 90 79 91 80 92 81 93 82 94 58 95 59 96
REMARK SMILES IDX 68 97 60 98 61 99 67 100 69 101 62 102 63 103 64 104 65 105
REMARK SMILES IDX 66 106
REMARK H PARENT 24 4 10 19 28 37 90 56 56 67
REMARK Flexibility Score: inf
ROOT
ATOM      1  C   UNL A   1      35.584  33.356  33.671  1.00  0.00     0.251 C 
ATOM      2  O   UNL A   1      35.136  33.985  34.631  1.00  0.00    -0.269 OA
ATOM      3  N   UNL A   1      34.682  32.905  32.732  1.00  0.00    -0.352 N 
ATOM      4  H   UNL A   1      33.743  32.990  33.015  1.00  0.00     0.163 HD
ENDROOT
BRANCH   1   5
ATOM      5  C   UNL A   1      37.057  33.141  33.576  1.00  0.00     0.040 A 
ATOM      6  C   UNL A   1      39.002  31.658  33.530  1.00  0.00     0.018 A 
ATOM      7  C   UNL A   1      39.839  32.757  33.335  1.00  0.00     0.012 A 
ATOM      8  C   UNL A   1      37.642  31.891  33.719  1.00  0.00     0.025 A 
ATOM      9  C   UNL A   1      39.289  34.043  33.240  1.00  0.00     0.002 A 
ATOM     10  C   UNL A   1      37.903  34.229  33.338  1.00  0.00     0.014 A 
BRANCH   6  11
ATOM     11  C   UNL A   1      39.409  30.272  33.323  1.00  0.00     0.134 A 
ATOM     12  C   UNL A   1      40.894  28.752  32.813  1.00  0.00     0.147 A 
ATOM     13  C   UNL A   1      39.668  28.152  32.621  1.00  0.00     0.053 A 
ATOM     14  O   UNL A   1      40.737  30.010  33.328  1.00  0.00    -0.455 OA
ATOM     15  C   UNL A   1      38.707  29.135  32.948  1.00  0.00     0.051 A 
BRANCH  12  16
ATOM     16  C   UNL A   1      42.230  28.374  32.509  1.00  0.00     0.180 C 
ATOM     17  N   UNL A   1      43.016  27.537  33.115  1.00  0.00    -0.178 NA
BRANCH  17  18
ATOM     18  N   UNL A   1      42.715  26.837  34.241  1.00  0.00    -0.260 N 
ATOM     19  H   UNL A   1      41.854  27.067  34.658  1.00  0.00     0.192 HD
BRANCH  18  20
ATOM     20  C   UNL A   1      43.462  25.817  34.915  1.00  0.00     0.164 A 
ATOM     21  C   UNL A   1      44.306  24.965  37.053  1.00  0.00     0.001 A 
ATOM     22  C   UNL A   1      44.408  23.711  36.466  1.00  0.00     0.031 A 
ATOM     23  C   UNL A   1      43.831  26.031  36.260  1.00  0.00     0.102 A 
ATOM     24  C   UNL A   1      44.225  23.607  35.104  1.00  0.00     0.040 A 
ATOM     25  C   UNL A   1      44.608  22.314  34.452  1.00  0.00     0.067 C 
ATOM     26  N   UNL A   1      43.759  24.630  34.337  1.00  0.00    -0.233 NA
BRANCH  21  27
ATOM     27  C   UNL A   1      44.804  25.100  38.469  1.00  0.00     0.196 C 
BRANCH  27  28
ATOM     28  O   UNL A   1      46.219  25.080  38.572  1.00  0.00    -0.380 OA
ATOM     29  C   UNL A   1      46.802  26.371  38.659  1.00  0.00     0.195 C 
ENDBRANCH  27  28
ENDBRANCH  21  27
BRANCH  23  30
ATOM     30  C   UNL A   1      43.805  27.365  36.778  1.00  0.00     0.103 C 
ATOM     31  N   UNL A   1      43.774  28.437  37.215  1.00  0.00    -0.192 NA
ENDBRANCH  23  30
ENDBRANCH  18  20
ENDBRANCH  17  18
ENDBRANCH  12  16
ENDBRANCH   6  11
ENDBRANCH   1   5
BRANCH   3  32
ATOM     32  C   UNL A   1      34.842  32.327  31.404  1.00  0.00     0.118 C 
BRANCH  32  33
ATOM     33  C   UNL A   1      34.596  33.339  30.280  1.00  0.00     0.042 C 
BRANCH  33  34
ATOM     34  C   UNL A   1      34.909  32.809  28.892  1.00  0.00     0.118 C 
BRANCH  34  35
ATOM     35  N   UNL A   1      34.090  31.653  28.559  1.00  0.00    -0.352 N 
ATOM     36  C   UNL A   1      34.463  30.404  28.130  1.00  0.00     0.251 C 
ATOM     37  H   UNL A   1      33.120  31.787  28.657  1.00  0.00     0.163 HD
ATOM     38  O   UNL A   1      33.623  29.668  27.619  1.00  0.00    -0.269 OA
BRANCH  36  39
ATOM     39  C   UNL A   1      35.863  29.954  28.274  1.00  0.00     0.039 A 
ATOM     40  C   UNL A   1      36.716  30.024  27.171  1.00  0.00     0.014 A 
ATOM     41  C   UNL A   1      36.329  29.453  29.492  1.00  0.00     0.014 A 
ATOM     42  C   UNL A   1      38.060  29.670  27.315  1.00  0.00     0.010 A 
ATOM     43  C   UNL A   1      37.684  29.184  29.657  1.00  0.00     0.010 A 
ATOM     44  C   UNL A   1      38.564  29.303  28.573  1.00  0.00    -0.014 A 
BRANCH  44  45
ATOM     45  C   UNL A   1      40.017  29.096  28.796  1.00  0.00     0.031 A 
ATOM     46  C   UNL A   1      40.650  27.768  28.494  1.00  0.00     0.074 A 
ATOM     47  C   UNL A   1      40.736  30.084  29.364  1.00  0.00     0.049 A 
ATOM     48  N   UNL A   1      41.872  27.368  28.727  1.00  0.00    -0.248 NA
ATOM     49  C   UNL A   1      39.793  26.748  27.867  1.00  0.00     0.031 C 
ATOM     50  C   UNL A   1      40.213  31.400  29.740  1.00  0.00     0.029 A 
ATOM     51  N   UNL A   1      42.053  30.132  29.746  1.00  0.00    -0.354 N 
ATOM     52  C   UNL A   1      41.931  26.050  28.291  1.00  0.00     0.074 A 
ATOM     53  C   UNL A   1      40.607  25.702  27.820  1.00  0.00     0.031 C 
ATOM     54  C   UNL A   1      41.200  32.130  30.282  1.00  0.00     0.029 A 
ATOM     55  C   UNL A   1      42.409  31.317  30.349  1.00  0.00     0.049 A 
ATOM     56  H   UNL A   1      42.684  29.390  29.602  1.00  0.00     0.167 HD
ATOM     57  C   UNL A   1      42.996  25.215  28.271  1.00  0.00     0.037 A 
ATOM     58  C   UNL A   1      43.569  31.696  30.921  1.00  0.00     0.037 A 
ATOM     59  C   UNL A   1      44.310  25.581  28.738  1.00  0.00     0.049 A 
ATOM     60  C   UNL A   1      44.724  30.733  30.928  1.00  0.00     0.074 A 
ATOM     61  C   UNL A   1      45.471  24.830  28.706  1.00  0.00     0.029 A 
ATOM     62  N   UNL A   1      44.631  26.790  29.341  1.00  0.00    -0.354 N 
ATOM     63  N   UNL A   1      44.787  29.520  30.431  1.00  0.00    -0.248 NA
ATOM     64  C   UNL A   1      45.964  31.184  31.575  1.00  0.00     0.031 C 
ATOM     65  C   UNL A   1      46.476  25.554  29.353  1.00  0.00     0.029 A 
ATOM     66  C   UNL A   1      45.962  26.786  29.726  1.00  0.00     0.049 A 
ATOM     67  H   UNL A   1      44.006  27.539  29.473  1.00  0.00     0.167 HD
ATOM     68  C   UNL A   1      46.076  29.070  30.689  1.00  0.00     0.074 A 
ATOM     69  C   UNL A   1      46.768  30.149  31.364  1.00  0.00     0.031 C 
ATOM     70  C   UNL A   1      46.636  27.870  30.399  1.00  0.00     0.037 A 
BRANCH  57  71
ATOM     71  C   UNL A   1      42.793  23.822  27.739  1.00  0.00     0.058 A 
ATOM     72  C   UNL A   1      42.590  22.724  28.592  1.00  0.00     0.135 A 
ATOM     73  C   UNL A   1      42.743  23.589  26.355  1.00  0.00     0.135 A 
ATOM     74  F   UNL A   1      42.641  22.883  29.925  1.00  0.00    -0.206 F 
ATOM     75  C   UNL A   1      42.369  21.445  28.092  1.00  0.00     0.059 A 
ATOM     76  C   UNL A   1      42.489  22.324  25.832  1.00  0.00     0.059 A 
ATOM     77  F   UNL A   1      42.931  24.600  25.492  1.00  0.00    -0.206 F 
ATOM     78  C   UNL A   1      42.315  21.255  26.710  1.00  0.00     0.060 A 
BRANCH  78  79
ATOM     79  S   UNL A   1      42.008  19.591  26.083  1.00  0.00     0.124 S 
ATOM     80  O   UNL A   1      42.364  18.775  27.239  1.00  0.00    -0.237 OA
ATOM     81  O   UNL A   1      40.588  19.641  25.755  1.00  0.00    -0.237 OA
ATOM     82  O   UNL A   1      42.911  19.485  24.941  1.00  0.00    -0.744 OA
ENDBRANCH  78  79
ENDBRANCH  57  71
BRANCH  58  83
ATOM     83  C   UNL A   1      43.685  33.041  31.546  1.00  0.00     0.058 A 
ATOM     84  C   UNL A   1      43.456  33.226  32.916  1.00  0.00     0.135 A 
ATOM     85  C   UNL A   1      44.039  34.170  30.787  1.00  0.00     0.135 A 
ATOM     86  F   UNL A   1      43.108  32.182  33.684  1.00  0.00    -0.206 F 
ATOM     87  C   UNL A   1      43.557  34.479  33.512  1.00  0.00     0.059 A 
ATOM     88  C   UNL A   1      44.179  35.428  31.365  1.00  0.00     0.059 A 
ATOM     89  F   UNL A   1      44.285  34.048  29.473  1.00  0.00    -0.206 F 
ATOM     90  C   UNL A   1      43.925  35.574  32.727  1.00  0.00     0.060 A 
BRANCH  90  91
ATOM     91  S   UNL A   1      44.099  37.185  33.521  1.00  0.00     0.124 S 
ATOM     92  O   UNL A   1      43.833  38.091  32.411  1.00  0.00    -0.237 OA
ATOM     93  O   UNL A   1      43.073  37.124  34.558  1.00  0.00    -0.237 OA
ATOM     94  O   UNL A   1      45.475  37.172  34.010  1.00  0.00    -0.744 OA
ENDBRANCH  90  91
ENDBRANCH  58  83
BRANCH  70  95
ATOM     95  C   UNL A   1      48.071  27.654  30.796  1.00  0.00     0.058 A 
ATOM     96  C   UNL A   1      49.130  28.017  29.950  1.00  0.00     0.135 A 
ATOM     97  C   UNL A   1      48.391  27.160  32.072  1.00  0.00     0.135 A 
ATOM     98  F   UNL A   1      48.880  28.482  28.715  1.00  0.00    -0.206 F 
ATOM     99  C   UNL A   1      50.456  27.894  30.352  1.00  0.00     0.059 A 
ATOM    100  C   UNL A   1      49.709  27.061  32.507  1.00  0.00     0.059 A 
ATOM    101  F   UNL A   1      47.417  26.803  32.923  1.00  0.00    -0.206 F 
ATOM    102  C   UNL A   1      50.735  27.428  31.637  1.00  0.00     0.060 A 
BRANCH 102 103
ATOM    103  S   UNL A   1      52.458  27.348  32.168  1.00  0.00     0.124 S 
ATOM    104  O   UNL A   1      52.453  26.159  33.014  1.00  0.00    -0.237 OA
ATOM    105  O   UNL A   1      53.166  27.221  30.897  1.00  0.00    -0.237 OA
ATOM    106  O   UNL A   1      52.659  28.613  32.867  1.00  0.00    -0.744 OA
ENDBRANCH 102 103
ENDBRANCH  70  95
ENDBRANCH  44  45
ENDBRANCH  36  39
ENDBRANCH  34  35
ENDBRANCH  33  34
ENDBRANCH  32  33
ENDBRANCH   3  32
TORSDOF 20
ENDMDL
