MODEL 1
REMARK VINA RESULT:      -9.7      0.000      0.000
REMARK SMILES O=C(NCc1ccc(C(=O)NCCCNC(=O)c2ccc(-c3c4nc(c(-c5c(F)cc(S(=O)(=O)[O-])cc5F)c5ccc([nH]5)c(-c5c(F)cc(S(=O)(=O)[O-])cc5F)c5nc(c(-c6c(F)cc(S(=O)(=O)[O-])cc6F)c6ccc3[nH]6)C=C5)C=C4)cc2)cc1)Nc1ccccc1Br
REMARK SMILES IDX 13 1 12 2 11 3 9 4 10 5 8 7 5 8 6 9 85 10 7 11 84 12 4 13
REMARK SMILES IDX 3 14 1 15 2 16 86 17 87 20 88 21 92 22 89 23 91 24 93 25
REMARK SMILES IDX 90 26 14 27 15 28 16 29 17 31 18 32 19 33 83 34 20 35 82 36
REMARK SMILES IDX 21 37 22 38 23 39 76 40 24 41 81 42 75 43 77 44 25 45 80 46
REMARK SMILES IDX 74 47 73 48 26 50 60 51 39 52 59 53 40 54 43 55 58 56 78 57
REMARK SMILES IDX 41 58 42 59 57 61 79 62 44 63 27 64 28 65 37 66 29 67 30 68
REMARK SMILES IDX 36 69 38 70 31 71 32 72 33 73 34 74 35 75 61 76 62 77 71 78
REMARK SMILES IDX 63 79 64 80 70 81 72 82 65 83 66 84 67 85 68 86 69 87 45 88
REMARK SMILES IDX 46 89 55 90 47 91 48 92 54 93 56 94 49 95 50 96 51 97 52 98
REMARK SMILES IDX 53 99
REMARK H PARENT 11 6 3 18 86 19 15 30 77 49 43 60
REMARK Flexibility Score: inf
ROOT
ATOM      1  C   UNL A   1      34.561  32.688  30.440  1.00  0.00     0.042 C 
ENDROOT
BRANCH   1   2
ATOM      2  C   UNL A   1      35.913  32.634  31.150  1.00  0.00     0.118 C 
BRANCH   2   3
ATOM      3  N   UNL A   1      35.789  32.975  32.556  1.00  0.00    -0.352 N 
ATOM      4  C   UNL A   1      36.524  32.609  33.654  1.00  0.00     0.251 C 
ATOM      5  O   UNL A   1      36.257  33.144  34.730  1.00  0.00    -0.269 OA
ATOM      6  H   UNL A   1      35.040  33.580  32.758  1.00  0.00     0.163 HD
BRANCH   4   7
ATOM      7  C   UNL A   1      37.649  31.637  33.592  1.00  0.00     0.039 A 
ATOM      8  C   UNL A   1      39.870  29.895  33.595  1.00  0.00    -0.029 A 
ATOM      9  C   UNL A   1      39.997  31.207  34.067  1.00  0.00     0.006 A 
ATOM     10  C   UNL A   1      38.621  29.457  33.139  1.00  0.00     0.006 A 
ATOM     11  C   UNL A   1      38.896  32.067  34.067  1.00  0.00     0.014 A 
ATOM     12  C   UNL A   1      37.517  30.315  33.159  1.00  0.00     0.014 A 
BRANCH   8  13
ATOM     13  C   UNL A   1      41.049  28.959  33.617  1.00  0.00     0.153 C 
BRANCH  13  14
ATOM     14  N   UNL A   1      40.781  27.789  34.425  1.00  0.00    -0.334 N 
ATOM     15  O   UNL A   1      41.113  25.838  35.438  1.00  0.00    -0.248 OA
ATOM     16  C   UNL A   1      41.580  26.736  34.745  1.00  0.00     0.319 C 
ATOM     17  N   UNL A   1      42.870  26.811  34.302  1.00  0.00    -0.307 N 
ATOM     18  H   UNL A   1      39.873  27.749  34.806  1.00  0.00     0.165 HD
ATOM     19  H   UNL A   1      43.167  27.686  33.961  1.00  0.00     0.171 HD
BRANCH  17  20
ATOM     20  C   UNL A   1      43.825  25.770  34.281  1.00  0.00     0.057 A 
ATOM     21  C   UNL A   1      43.996  25.145  33.033  1.00  0.00     0.027 A 
ATOM     22  C   UNL A   1      44.563  25.287  35.376  1.00  0.00     0.041 A 
ATOM     23  C   UNL A   1      44.930  24.121  32.855  1.00  0.00     0.002 A 
ATOM     24  C   UNL A   1      45.510  24.268  35.186  1.00  0.00     0.018 A 
ATOM     25  Br  UNL A   1      44.222  25.745  37.192  1.00  0.00    -0.049 Br
ATOM     26  C   UNL A   1      45.700  23.695  33.928  1.00  0.00     0.001 A 
ENDBRANCH  17  20
ENDBRANCH  13  14
ENDBRANCH   8  13
ENDBRANCH   4   7
ENDBRANCH   2   3
ENDBRANCH   1   2
BRANCH   1  27
ATOM     27  C   UNL A   1      34.667  32.665  28.916  1.00  0.00     0.118 C 
BRANCH  27  28
ATOM     28  N   UNL A   1      33.998  31.507  28.342  1.00  0.00    -0.352 N 
ATOM     29  C   UNL A   1      34.516  30.304  27.928  1.00  0.00     0.251 C 
ATOM     30  H   UNL A   1      33.023  31.600  28.233  1.00  0.00     0.163 HD
ATOM     31  O   UNL A   1      33.811  29.547  27.266  1.00  0.00    -0.269 OA
BRANCH  29  32
ATOM     32  C   UNL A   1      35.906  29.918  28.263  1.00  0.00     0.039 A 
ATOM     33  C   UNL A   1      36.901  30.085  27.294  1.00  0.00     0.014 A 
ATOM     34  C   UNL A   1      36.227  29.343  29.497  1.00  0.00     0.014 A 
ATOM     35  C   UNL A   1      38.220  29.721  27.577  1.00  0.00     0.010 A 
ATOM     36  C   UNL A   1      37.553  29.037  29.800  1.00  0.00     0.010 A 
ATOM     37  C   UNL A   1      38.562  29.217  28.842  1.00  0.00    -0.014 A 
BRANCH  37  38
ATOM     38  C   UNL A   1      39.967  28.866  29.176  1.00  0.00     0.031 A 
ATOM     39  C   UNL A   1      40.858  29.871  29.855  1.00  0.00     0.074 A 
ATOM     40  C   UNL A   1      40.455  27.662  28.816  1.00  0.00     0.049 A 
ATOM     41  N   UNL A   1      42.131  29.784  30.146  1.00  0.00    -0.248 NA
ATOM     42  C   UNL A   1      40.242  31.153  30.238  1.00  0.00     0.031 C 
ATOM     43  C   UNL A   1      39.702  26.617  28.119  1.00  0.00     0.029 A 
ATOM     44  N   UNL A   1      41.705  27.118  28.974  1.00  0.00    -0.354 N 
ATOM     45  C   UNL A   1      42.471  30.997  30.732  1.00  0.00     0.074 A 
ATOM     46  C   UNL A   1      41.282  31.822  30.716  1.00  0.00     0.031 C 
ATOM     47  C   UNL A   1      40.502  25.556  27.919  1.00  0.00     0.029 A 
ATOM     48  C   UNL A   1      41.830  25.856  28.442  1.00  0.00     0.049 A 
ATOM     49  H   UNL A   1      42.444  27.587  29.426  1.00  0.00     0.167 HD
ATOM     50  C   UNL A   1      43.660  31.381  31.256  1.00  0.00     0.037 A 
ATOM     51  C   UNL A   1      42.899  25.037  28.371  1.00  0.00     0.037 A 
ATOM     52  C   UNL A   1      44.832  30.545  31.296  1.00  0.00     0.049 A 
ATOM     53  C   UNL A   1      44.207  25.487  28.965  1.00  0.00     0.074 A 
ATOM     54  C   UNL A   1      46.073  30.829  31.843  1.00  0.00     0.029 A 
ATOM     55  N   UNL A   1      44.908  29.262  30.777  1.00  0.00    -0.354 N 
ATOM     56  N   UNL A   1      44.498  26.623  29.554  1.00  0.00    -0.248 NA
ATOM     57  C   UNL A   1      45.331  24.543  28.890  1.00  0.00     0.031 C 
ATOM     58  C   UNL A   1      46.907  29.727  31.628  1.00  0.00     0.029 A 
ATOM     59  C   UNL A   1      46.175  28.743  30.982  1.00  0.00     0.049 A 
ATOM     60  H   UNL A   1      44.170  28.789  30.328  1.00  0.00     0.167 HD
ATOM     61  C   UNL A   1      45.828  26.518  29.944  1.00  0.00     0.074 A 
ATOM     62  C   UNL A   1      46.282  25.205  29.535  1.00  0.00     0.031 C 
ATOM     63  C   UNL A   1      46.604  27.427  30.583  1.00  0.00     0.037 A 
BRANCH  50  64
ATOM     64  C   UNL A   1      43.754  32.762  31.845  1.00  0.00     0.058 A 
ATOM     65  C   UNL A   1      44.058  33.878  31.048  1.00  0.00     0.135 A 
ATOM     66  C   UNL A   1      43.483  32.983  33.204  1.00  0.00     0.135 A 
ATOM     67  F   UNL A   1      44.342  33.721  29.744  1.00  0.00    -0.206 F 
ATOM     68  C   UNL A   1      44.106  35.162  31.581  1.00  0.00     0.059 A 
ATOM     69  C   UNL A   1      43.501  34.262  33.754  1.00  0.00     0.059 A 
ATOM     70  F   UNL A   1      43.189  31.952  34.010  1.00  0.00    -0.206 F 
ATOM     71  C   UNL A   1      43.825  35.344  32.936  1.00  0.00     0.060 A 
BRANCH  71  72
ATOM     72  S   UNL A   1      43.868  37.020  33.607  1.00  0.00     0.124 S 
ATOM     73  O   UNL A   1      42.574  37.097  34.279  1.00  0.00    -0.237 OA
ATOM     74  O   UNL A   1      45.035  36.977  34.481  1.00  0.00    -0.237 OA
ATOM     75  O   UNL A   1      44.007  37.858  32.420  1.00  0.00    -0.744 OA
ENDBRANCH  71  72
ENDBRANCH  50  64
BRANCH  51  76
ATOM     76  C   UNL A   1      42.779  23.704  27.723  1.00  0.00     0.058 A 
ATOM     77  C   UNL A   1      42.472  22.562  28.476  1.00  0.00     0.135 A 
ATOM     78  C   UNL A   1      42.980  23.545  26.344  1.00  0.00     0.135 A 
ATOM     79  F   UNL A   1      42.274  22.663  29.799  1.00  0.00    -0.206 F 
ATOM     80  C   UNL A   1      42.395  21.302  27.890  1.00  0.00     0.059 A 
ATOM     81  C   UNL A   1      42.885  22.300  25.730  1.00  0.00     0.059 A 
ATOM     82  F   UNL A   1      43.258  24.610  25.576  1.00  0.00    -0.206 F 
ATOM     83  C   UNL A   1      42.608  21.182  26.515  1.00  0.00     0.060 A 
BRANCH  83  84
ATOM     84  S   UNL A   1      42.482  19.549  25.756  1.00  0.00     0.124 S 
ATOM     85  O   UNL A   1      42.899  18.683  26.852  1.00  0.00    -0.237 OA
ATOM     86  O   UNL A   1      41.069  19.483  25.392  1.00  0.00    -0.237 OA
ATOM     87  O   UNL A   1      43.405  19.633  24.628  1.00  0.00    -0.744 OA
ENDBRANCH  83  84
ENDBRANCH  51  76
BRANCH  63  88
ATOM     88  C   UNL A   1      48.012  27.020  30.914  1.00  0.00     0.058 A 
ATOM     89  C   UNL A   1      48.341  26.447  32.151  1.00  0.00     0.135 A 
ATOM     90  C   UNL A   1      49.035  27.162  29.962  1.00  0.00     0.135 A 
ATOM     91  F   UNL A   1      47.401  26.295  33.098  1.00  0.00    -0.206 F 
ATOM     92  C   UNL A   1      49.641  26.047  32.442  1.00  0.00     0.059 A 
ATOM     93  C   UNL A   1      50.336  26.748  30.222  1.00  0.00     0.059 A 
ATOM     94  F   UNL A   1      48.769  27.697  28.759  1.00  0.00    -0.206 F 
ATOM     95  C   UNL A   1      50.633  26.201  31.471  1.00  0.00     0.060 A 
BRANCH  95  96
ATOM     96  S   UNL A   1      52.310  25.647  31.846  1.00  0.00     0.124 S 
ATOM     97  O   UNL A   1      52.640  26.477  33.000  1.00  0.00    -0.237 OA
ATOM     98  O   UNL A   1      52.117  24.227  32.122  1.00  0.00    -0.237 OA
ATOM     99  O   UNL A   1      53.048  25.949  30.624  1.00  0.00    -0.744 OA
ENDBRANCH  95  96
ENDBRANCH  63  88
ENDBRANCH  37  38
ENDBRANCH  29  32
ENDBRANCH  27  28
ENDBRANCH   1  27
TORSDOF 16
ENDMDL
MODEL 2
REMARK VINA RESULT:      -9.6      5.256     12.321
REMARK SMILES O=C(NCc1ccc(C(=O)NCCCNC(=O)c2ccc(-c3c4nc(c(-c5c(F)cc(S(=O)(=O)[O-])cc5F)c5ccc([nH]5)c(-c5c(F)cc(S(=O)(=O)[O-])cc5F)c5nc(c(-c6c(F)cc(S(=O)(=O)[O-])cc6F)c6ccc3[nH]6)C=C5)C=C4)cc2)cc1)Nc1ccccc1Br
REMARK SMILES IDX 13 1 12 2 11 3 9 4 10 5 8 7 5 8 6 9 85 10 7 11 84 12 4 13
REMARK SMILES IDX 3 14 1 15 2 16 86 17 87 20 88 21 92 22 89 23 91 24 93 25
REMARK SMILES IDX 90 26 14 27 15 28 16 29 17 31 18 32 19 33 83 34 20 35 82 36
REMARK SMILES IDX 21 37 22 38 23 39 76 40 24 41 81 42 75 43 77 44 25 45 80 46
REMARK SMILES IDX 74 47 73 48 26 50 60 51 39 52 59 53 40 54 43 55 58 56 78 57
REMARK SMILES IDX 41 58 42 59 57 61 79 62 44 63 27 64 28 65 37 66 29 67 30 68
REMARK SMILES IDX 36 69 38 70 31 71 32 72 33 73 34 74 35 75 61 76 62 77 71 78
REMARK SMILES IDX 63 79 64 80 70 81 72 82 65 83 66 84 67 85 68 86 69 87 45 88
REMARK SMILES IDX 46 89 55 90 47 91 48 92 54 93 56 94 49 95 50 96 51 97 52 98
REMARK SMILES IDX 53 99
REMARK H PARENT 11 6 3 18 86 19 15 30 77 49 43 60
REMARK Flexibility Score: inf
ROOT
ATOM      1  C   UNL A   1      38.487  23.387  26.455  1.00  0.00     0.042 C 
ENDROOT
BRANCH   1   2
ATOM      2  C   UNL A   1      37.933  22.129  25.787  1.00  0.00     0.118 C 
BRANCH   2   3
ATOM      3  N   UNL A   1      37.664  22.349  24.378  1.00  0.00    -0.352 N 
ATOM      4  C   UNL A   1      36.549  22.800  23.719  1.00  0.00     0.251 C 
ATOM      5  O   UNL A   1      36.636  22.998  22.508  1.00  0.00    -0.269 OA
ATOM      6  H   UNL A   1      38.421  22.138  23.787  1.00  0.00     0.163 HD
BRANCH   4   7
ATOM      7  C   UNL A   1      35.263  23.098  24.407  1.00  0.00     0.039 A 
ATOM      8  C   UNL A   1      32.773  23.493  25.676  1.00  0.00    -0.029 A 
ATOM      9  C   UNL A   1      32.954  22.430  24.784  1.00  0.00     0.006 A 
ATOM     10  C   UNL A   1      33.852  24.345  25.941  1.00  0.00     0.006 A 
ATOM     11  C   UNL A   1      34.188  22.234  24.158  1.00  0.00     0.014 A 
ATOM     12  C   UNL A   1      35.091  24.134  25.328  1.00  0.00     0.014 A 
BRANCH   8  13
ATOM     13  C   UNL A   1      31.453  23.692  26.370  1.00  0.00     0.153 C 
BRANCH  13  14
ATOM     14  N   UNL A   1      31.337  25.027  26.915  1.00  0.00    -0.334 N 
ATOM     15  O   UNL A   1      31.029  27.228  26.984  1.00  0.00    -0.248 OA
ATOM     16  C   UNL A   1      31.047  26.208  26.304  1.00  0.00     0.319 C 
ATOM     17  N   UNL A   1      30.740  26.131  24.976  1.00  0.00    -0.307 N 
ATOM     18  H   UNL A   1      31.493  25.092  27.885  1.00  0.00     0.165 HD
ATOM     19  H   UNL A   1      30.568  25.231  24.616  1.00  0.00     0.171 HD
BRANCH  17  20
ATOM     20  C   UNL A   1      30.642  27.204  24.061  1.00  0.00     0.057 A 
ATOM     21  C   UNL A   1      29.335  27.515  23.647  1.00  0.00     0.027 A 
ATOM     22  C   UNL A   1      31.709  27.934  23.509  1.00  0.00     0.041 A 
ATOM     23  C   UNL A   1      29.083  28.573  22.771  1.00  0.00     0.002 A 
ATOM     24  C   UNL A   1      31.447  29.006  22.639  1.00  0.00     0.018 A 
ATOM     25  Br  UNL A   1      33.542  27.444  23.658  1.00  0.00    -0.049 Br
ATOM     26  C   UNL A   1      30.139  29.330  22.281  1.00  0.00     0.001 A 
ENDBRANCH  17  20
ENDBRANCH  13  14
ENDBRANCH   8  13
ENDBRANCH   4   7
ENDBRANCH   2   3
ENDBRANCH   1   2
BRANCH   1  27
ATOM     27  C   UNL A   1      39.905  23.220  26.998  1.00  0.00     0.118 C 
BRANCH  27  28
ATOM     28  N   UNL A   1      40.902  23.771  26.093  1.00  0.00    -0.352 N 
ATOM     29  C   UNL A   1      41.488  25.012  26.075  1.00  0.00     0.251 C 
ATOM     30  H   UNL A   1      41.203  23.157  25.382  1.00  0.00     0.163 HD
ATOM     31  O   UNL A   1      42.141  25.350  25.091  1.00  0.00    -0.269 OA
BRANCH  29  32
ATOM     32  C   UNL A   1      41.335  25.943  27.217  1.00  0.00     0.039 A 
ATOM     33  C   UNL A   1      42.232  27.009  27.337  1.00  0.00     0.014 A 
ATOM     34  C   UNL A   1      40.356  25.745  28.195  1.00  0.00     0.014 A 
ATOM     35  C   UNL A   1      42.120  27.899  28.408  1.00  0.00     0.010 A 
ATOM     36  C   UNL A   1      40.206  26.668  29.229  1.00  0.00     0.010 A 
ATOM     37  C   UNL A   1      41.089  27.751  29.350  1.00  0.00    -0.014 A 
BRANCH  37  38
ATOM     38  C   UNL A   1      40.926  28.713  30.471  1.00  0.00     0.031 A 
ATOM     39  C   UNL A   1      41.787  28.595  31.700  1.00  0.00     0.074 A 
ATOM     40  C   UNL A   1      39.965  29.656  30.405  1.00  0.00     0.049 A 
ATOM     41  N   UNL A   1      41.735  29.280  32.814  1.00  0.00    -0.248 NA
ATOM     42  C   UNL A   1      42.830  27.555  31.684  1.00  0.00     0.031 C 
ATOM     43  C   UNL A   1      39.043  29.847  29.284  1.00  0.00     0.029 A 
ATOM     44  N   UNL A   1      39.596  30.623  31.305  1.00  0.00    -0.354 N 
ATOM     45  C   UNL A   1      42.724  28.749  33.634  1.00  0.00     0.074 A 
ATOM     46  C   UNL A   1      43.332  27.655  32.907  1.00  0.00     0.031 C 
ATOM     47  C   UNL A   1      38.221  30.873  29.559  1.00  0.00     0.029 A 
ATOM     48  C   UNL A   1      38.534  31.392  30.886  1.00  0.00     0.049 A 
ATOM     49  H   UNL A   1      40.047  30.756  32.170  1.00  0.00     0.167 HD
ATOM     50  C   UNL A   1      43.106  29.150  34.870  1.00  0.00     0.037 A 
ATOM     51  C   UNL A   1      37.879  32.392  31.507  1.00  0.00     0.037 A 
ATOM     52  C   UNL A   1      42.517  30.258  35.577  1.00  0.00     0.049 A 
ATOM     53  C   UNL A   1      38.326  32.821  32.879  1.00  0.00     0.074 A 
ATOM     54  C   UNL A   1      42.862  30.769  36.817  1.00  0.00     0.029 A 
ATOM     55  N   UNL A   1      41.468  31.032  35.105  1.00  0.00    -0.354 N 
ATOM     56  N   UNL A   1      39.292  32.334  33.621  1.00  0.00    -0.248 NA
ATOM     57  C   UNL A   1      37.598  33.938  33.497  1.00  0.00     0.031 C 
ATOM     58  C   UNL A   1      42.001  31.833  37.107  1.00  0.00     0.029 A 
ATOM     59  C   UNL A   1      41.145  32.009  36.031  1.00  0.00     0.049 A 
ATOM     60  H   UNL A   1      41.017  30.904  34.238  1.00  0.00     0.167 HD
ATOM     61  C   UNL A   1      39.306  33.103  34.778  1.00  0.00     0.074 A 
ATOM     62  C   UNL A   1      38.261  34.094  34.635  1.00  0.00     0.031 C 
ATOM     63  C   UNL A   1      40.112  32.998  35.863  1.00  0.00     0.037 A 
BRANCH  50  64
ATOM     64  C   UNL A   1      44.224  28.398  35.538  1.00  0.00     0.058 A 
ATOM     65  C   UNL A   1      45.567  28.768  35.354  1.00  0.00     0.135 A 
ATOM     66  C   UNL A   1      43.953  27.337  36.416  1.00  0.00     0.135 A 
ATOM     67  F   UNL A   1      45.884  29.767  34.514  1.00  0.00    -0.206 F 
ATOM     68  C   UNL A   1      46.601  28.101  36.002  1.00  0.00     0.059 A 
ATOM     69  C   UNL A   1      44.970  26.671  37.093  1.00  0.00     0.059 A 
ATOM     70  F   UNL A   1      42.688  26.941  36.626  1.00  0.00    -0.206 F 
ATOM     71  C   UNL A   1      46.292  27.054  36.871  1.00  0.00     0.060 A 
BRANCH  71  72
ATOM     72  S   UNL A   1      47.645  26.214  37.723  1.00  0.00     0.124 S 
ATOM     73  O   UNL A   1      46.934  25.139  38.408  1.00  0.00    -0.237 OA
ATOM     74  O   UNL A   1      48.503  25.803  36.617  1.00  0.00    -0.237 OA
ATOM     75  O   UNL A   1      48.198  27.252  38.589  1.00  0.00    -0.744 OA
ENDBRANCH  71  72
ENDBRANCH  50  64
BRANCH  51  76
ATOM     76  C   UNL A   1      36.736  33.067  30.837  1.00  0.00     0.058 A 
ATOM     77  C   UNL A   1      36.949  33.985  29.799  1.00  0.00     0.135 A 
ATOM     78  C   UNL A   1      35.412  32.817  31.228  1.00  0.00     0.135 A 
ATOM     79  F   UNL A   1      38.197  34.260  29.392  1.00  0.00    -0.206 F 
ATOM     80  C   UNL A   1      35.892  34.654  29.189  1.00  0.00     0.059 A 
ATOM     81  C   UNL A   1      34.336  33.454  30.618  1.00  0.00     0.059 A 
ATOM     82  F   UNL A   1      35.154  31.933  32.204  1.00  0.00    -0.206 F 
ATOM     83  C   UNL A   1      34.588  34.384  29.609  1.00  0.00     0.060 A 
BRANCH  83  84
ATOM     84  S   UNL A   1      33.219  35.235  28.797  1.00  0.00     0.124 S 
ATOM     85  O   UNL A   1      33.921  36.271  28.048  1.00  0.00    -0.237 OA
ATOM     86  O   UNL A   1      32.617  34.168  28.003  1.00  0.00    -0.237 OA
ATOM     87  O   UNL A   1      32.407  35.705  29.916  1.00  0.00    -0.744 OA
ENDBRANCH  83  84
ENDBRANCH  51  76
BRANCH  63  88
ATOM     88  C   UNL A   1      39.922  34.003  36.964  1.00  0.00     0.058 A 
ATOM     89  C   UNL A   1      40.487  35.285  36.897  1.00  0.00     0.135 A 
ATOM     90  C   UNL A   1      39.122  33.695  38.076  1.00  0.00     0.135 A 
ATOM     91  F   UNL A   1      41.265  35.628  35.857  1.00  0.00    -0.206 F 
ATOM     92  C   UNL A   1      40.285  36.221  37.906  1.00  0.00     0.059 A 
ATOM     93  C   UNL A   1      38.886  34.622  39.085  1.00  0.00     0.059 A 
ATOM     94  F   UNL A   1      38.550  32.484  38.183  1.00  0.00    -0.206 F 
ATOM     95  C   UNL A   1      39.482  35.880  38.997  1.00  0.00     0.060 A 
BRANCH  95  96
ATOM     96  S   UNL A   1      39.198  37.114  40.284  1.00  0.00     0.124 S 
ATOM     97  O   UNL A   1      40.561  37.413  40.708  1.00  0.00    -0.237 OA
ATOM     98  O   UNL A   1      38.513  38.177  39.555  1.00  0.00    -0.237 OA
ATOM     99  O   UNL A   1      38.378  36.402  41.260  1.00  0.00    -0.744 OA
ENDBRANCH  95  96
ENDBRANCH  63  88
ENDBRANCH  37  38
ENDBRANCH  29  32
ENDBRANCH  27  28
ENDBRANCH   1  27
TORSDOF 16
ENDMDL
MODEL 3
REMARK VINA RESULT:      -9.5      3.409     10.639
REMARK SMILES O=C(NCc1ccc(C(=O)NCCCNC(=O)c2ccc(-c3c4nc(c(-c5c(F)cc(S(=O)(=O)[O-])cc5F)c5ccc([nH]5)c(-c5c(F)cc(S(=O)(=O)[O-])cc5F)c5nc(c(-c6c(F)cc(S(=O)(=O)[O-])cc6F)c6ccc3[nH]6)C=C5)C=C4)cc2)cc1)Nc1ccccc1Br
REMARK SMILES IDX 13 1 12 2 11 3 9 4 10 5 8 7 5 8 6 9 85 10 7 11 84 12 4 13
REMARK SMILES IDX 3 14 1 15 2 16 86 17 87 20 88 21 92 22 89 23 91 24 93 25
REMARK SMILES IDX 90 26 14 27 15 28 16 29 17 31 18 32 19 33 83 34 20 35 82 36
REMARK SMILES IDX 21 37 22 38 23 39 76 40 24 41 81 42 75 43 77 44 25 45 80 46
REMARK SMILES IDX 74 47 73 48 26 50 60 51 39 52 59 53 40 54 43 55 58 56 78 57
REMARK SMILES IDX 41 58 42 59 57 61 79 62 44 63 27 64 28 65 37 66 29 67 30 68
REMARK SMILES IDX 36 69 38 70 31 71 32 72 33 73 34 74 35 75 61 76 62 77 71 78
REMARK SMILES IDX 63 79 64 80 70 81 72 82 65 83 66 84 67 85 68 86 69 87 45 88
REMARK SMILES IDX 46 89 55 90 47 91 48 92 54 93 56 94 49 95 50 96 51 97 52 98
REMARK SMILES IDX 53 99
REMARK H PARENT 11 6 3 18 86 19 15 30 77 49 43 60
REMARK Flexibility Score: inf
ROOT
ATOM      1  C   UNL A   1      41.787  21.341  26.141  1.00  0.00     0.042 C 
ENDROOT
BRANCH   1   2
ATOM      2  C   UNL A   1      42.851  22.191  26.836  1.00  0.00     0.118 C 
BRANCH   2   3
ATOM      3  N   UNL A   1      44.182  21.882  26.345  1.00  0.00    -0.352 N 
ATOM      4  C   UNL A   1      45.263  22.680  26.068  1.00  0.00     0.251 C 
ATOM      5  O   UNL A   1      46.320  22.130  25.762  1.00  0.00    -0.269 OA
ATOM      6  H   UNL A   1      44.337  20.924  26.180  1.00  0.00     0.163 HD
BRANCH   4   7
ATOM      7  C   UNL A   1      45.223  24.164  26.163  1.00  0.00     0.039 A 
ATOM      8  C   UNL A   1      45.315  26.974  26.416  1.00  0.00    -0.029 A 
ATOM      9  C   UNL A   1      46.196  26.167  27.146  1.00  0.00     0.006 A 
ATOM     10  C   UNL A   1      44.402  26.365  25.547  1.00  0.00     0.006 A 
ATOM     11  C   UNL A   1      46.151  24.776  27.018  1.00  0.00     0.014 A 
ATOM     12  C   UNL A   1      44.373  24.974  25.407  1.00  0.00     0.014 A 
BRANCH   8  13
ATOM     13  C   UNL A   1      45.378  28.473  26.533  1.00  0.00     0.153 C 
BRANCH  13  14
ATOM     14  N   UNL A   1      44.171  29.009  27.126  1.00  0.00    -0.334 N 
ATOM     15  O   UNL A   1      42.646  30.498  27.756  1.00  0.00    -0.248 OA
ATOM     16  C   UNL A   1      43.699  30.284  27.164  1.00  0.00     0.319 C 
ATOM     17  N   UNL A   1      44.428  31.211  26.477  1.00  0.00    -0.307 N 
ATOM     18  H   UNL A   1      43.600  28.343  27.573  1.00  0.00     0.165 HD
ATOM     19  H   UNL A   1      45.114  30.862  25.862  1.00  0.00     0.171 HD
BRANCH  17  20
ATOM     20  C   UNL A   1      44.305  32.616  26.550  1.00  0.00     0.057 A 
ATOM     21  C   UNL A   1      43.848  33.236  25.374  1.00  0.00     0.027 A 
ATOM     22  C   UNL A   1      44.636  33.431  27.647  1.00  0.00     0.041 A 
ATOM     23  C   UNL A   1      43.647  34.617  25.310  1.00  0.00     0.002 A 
ATOM     24  C   UNL A   1      44.417  34.816  27.581  1.00  0.00     0.018 A 
ATOM     25  Br  UNL A   1      45.595  32.836  29.180  1.00  0.00    -0.049 Br
ATOM     26  C   UNL A   1      43.915  35.405  26.421  1.00  0.00     0.001 A 
ENDBRANCH  17  20
ENDBRANCH  13  14
ENDBRANCH   8  13
ENDBRANCH   4   7
ENDBRANCH   2   3
ENDBRANCH   1   2
BRANCH   1  27
ATOM     27  C   UNL A   1      40.431  21.360  26.845  1.00  0.00     0.118 C 
BRANCH  27  28
ATOM     28  N   UNL A   1      39.366  21.814  25.963  1.00  0.00    -0.352 N 
ATOM     29  C   UNL A   1      38.707  23.017  25.925  1.00  0.00     0.251 C 
ATOM     30  H   UNL A   1      39.074  21.157  25.290  1.00  0.00     0.163 HD
ATOM     31  O   UNL A   1      37.686  23.117  25.249  1.00  0.00    -0.269 OA
BRANCH  29  32
ATOM     32  C   UNL A   1      39.203  24.184  26.692  1.00  0.00     0.039 A 
ATOM     33  C   UNL A   1      40.094  25.065  26.069  1.00  0.00     0.014 A 
ATOM     34  C   UNL A   1      38.845  24.386  28.028  1.00  0.00     0.014 A 
ATOM     35  C   UNL A   1      40.587  26.169  26.769  1.00  0.00     0.010 A 
ATOM     36  C   UNL A   1      39.289  25.521  28.705  1.00  0.00     0.010 A 
ATOM     37  C   UNL A   1      40.169  26.421  28.085  1.00  0.00    -0.014 A 
BRANCH  37  38
ATOM     38  C   UNL A   1      40.648  27.614  28.830  1.00  0.00     0.031 A 
ATOM     39  C   UNL A   1      42.020  27.619  29.450  1.00  0.00     0.074 A 
ATOM     40  C   UNL A   1      39.826  28.669  28.997  1.00  0.00     0.049 A 
ATOM     41  N   UNL A   1      42.581  28.525  30.209  1.00  0.00    -0.248 NA
ATOM     42  C   UNL A   1      42.865  26.439  29.201  1.00  0.00     0.031 C 
ATOM     43  C   UNL A   1      38.460  28.769  28.477  1.00  0.00     0.029 A 
ATOM     44  N   UNL A   1      40.014  29.855  29.661  1.00  0.00    -0.354 N 
ATOM     45  C   UNL A   1      43.834  28.023  30.539  1.00  0.00     0.074 A 
ATOM     46  C   UNL A   1      43.936  26.712  29.934  1.00  0.00     0.031 C 
ATOM     47  C   UNL A   1      37.938  29.954  28.834  1.00  0.00     0.029 A 
ATOM     48  C   UNL A   1      38.916  30.684  29.633  1.00  0.00     0.049 A 
ATOM     49  H   UNL A   1      40.855  30.092  30.115  1.00  0.00     0.167 HD
ATOM     50  C   UNL A   1      44.819  28.609  31.261  1.00  0.00     0.037 A 
ATOM     51  C   UNL A   1      38.716  31.891  30.199  1.00  0.00     0.037 A 
ATOM     52  C   UNL A   1      44.723  29.926  31.836  1.00  0.00     0.049 A 
ATOM     53  C   UNL A   1      39.828  32.521  30.993  1.00  0.00     0.074 A 
ATOM     54  C   UNL A   1      45.683  30.625  32.550  1.00  0.00     0.029 A 
ATOM     55  N   UNL A   1      43.608  30.746  31.757  1.00  0.00    -0.354 N 
ATOM     56  N   UNL A   1      41.023  32.048  31.258  1.00  0.00    -0.248 NA
ATOM     57  C   UNL A   1      39.568  33.852  31.561  1.00  0.00     0.031 C 
ATOM     58  C   UNL A   1      45.136  31.856  32.928  1.00  0.00     0.029 A 
ATOM     59  C   UNL A   1      43.851  31.939  32.416  1.00  0.00     0.049 A 
ATOM     60  H   UNL A   1      42.767  30.514  31.300  1.00  0.00     0.167 HD
ATOM     61  C   UNL A   1      41.665  33.035  31.998  1.00  0.00     0.074 A 
ATOM     62  C   UNL A   1      40.733  34.134  32.130  1.00  0.00     0.031 C 
ATOM     63  C   UNL A   1      42.915  33.030  32.522  1.00  0.00     0.037 A 
BRANCH  50  64
ATOM     64  C   UNL A   1      46.096  27.840  31.461  1.00  0.00     0.058 A 
ATOM     65  C   UNL A   1      46.277  26.998  32.571  1.00  0.00     0.135 A 
ATOM     66  C   UNL A   1      47.125  27.898  30.509  1.00  0.00     0.135 A 
ATOM     67  F   UNL A   1      45.331  26.918  33.520  1.00  0.00    -0.206 F 
ATOM     68  C   UNL A   1      47.441  26.255  32.738  1.00  0.00     0.059 A 
ATOM     69  C   UNL A   1      48.288  27.143  30.643  1.00  0.00     0.059 A 
ATOM     70  F   UNL A   1      47.005  28.687  29.430  1.00  0.00    -0.206 F 
ATOM     71  C   UNL A   1      48.440  26.333  31.767  1.00  0.00     0.060 A 
BRANCH  71  72
ATOM     72  S   UNL A   1      49.933  25.342  31.987  1.00  0.00     0.124 S 
ATOM     73  O   UNL A   1      50.161  24.855  30.630  1.00  0.00    -0.237 OA
ATOM     74  O   UNL A   1      50.892  26.326  32.477  1.00  0.00    -0.237 OA
ATOM     75  O   UNL A   1      49.529  24.328  32.957  1.00  0.00    -0.744 OA
ENDBRANCH  71  72
ENDBRANCH  50  64
BRANCH  51  76
ATOM     76  C   UNL A   1      37.414  32.590  30.030  1.00  0.00     0.058 A 
ATOM     77  C   UNL A   1      37.251  33.585  29.056  1.00  0.00     0.135 A 
ATOM     78  C   UNL A   1      36.314  32.285  30.845  1.00  0.00     0.135 A 
ATOM     79  F   UNL A   1      38.276  33.913  28.255  1.00  0.00    -0.206 F 
ATOM     80  C   UNL A   1      36.052  34.275  28.912  1.00  0.00     0.059 A 
ATOM     81  C   UNL A   1      35.096  32.943  30.705  1.00  0.00     0.059 A 
ATOM     82  F   UNL A   1      36.412  31.327  31.780  1.00  0.00    -0.206 F 
ATOM     83  C   UNL A   1      34.980  33.949  29.745  1.00  0.00     0.060 A 
BRANCH  83  84
ATOM     84  S   UNL A   1      33.418  34.829  29.537  1.00  0.00     0.124 S 
ATOM     85  O   UNL A   1      32.682  33.919  28.667  1.00  0.00    -0.237 OA
ATOM     86  O   UNL A   1      32.933  34.931  30.911  1.00  0.00    -0.237 OA
ATOM     87  O   UNL A   1      33.825  36.094  28.932  1.00  0.00    -0.744 OA
ENDBRANCH  83  84
ENDBRANCH  51  76
BRANCH  63  88
ATOM     88  C   UNL A   1      43.362  34.265  33.252  1.00  0.00     0.058 A 
ATOM     89  C   UNL A   1      43.962  35.341  32.581  1.00  0.00     0.135 A 
ATOM     90  C   UNL A   1      43.141  34.392  34.633  1.00  0.00     0.135 A 
ATOM     91  F   UNL A   1      44.201  35.267  31.262  1.00  0.00    -0.206 F 
ATOM     92  C   UNL A   1      44.348  36.493  33.258  1.00  0.00     0.059 A 
ATOM     93  C   UNL A   1      43.497  35.543  35.326  1.00  0.00     0.059 A 
ATOM     94  F   UNL A   1      42.561  33.393  35.320  1.00  0.00    -0.206 F 
ATOM     95  C   UNL A   1      44.111  36.585  34.631  1.00  0.00     0.060 A 
BRANCH  95  96
ATOM     96  S   UNL A   1      44.585  38.099  35.494  1.00  0.00     0.124 S 
ATOM     97  O   UNL A   1      46.008  38.182  35.179  1.00  0.00    -0.237 OA
ATOM     98  O   UNL A   1      43.737  39.102  34.858  1.00  0.00    -0.237 OA
ATOM     99  O   UNL A   1      44.266  37.808  36.888  1.00  0.00    -0.744 OA
ENDBRANCH  95  96
ENDBRANCH  63  88
ENDBRANCH  37  38
ENDBRANCH  29  32
ENDBRANCH  27  28
ENDBRANCH   1  27
TORSDOF 16
ENDMDL
