MODEL 1
REMARK VINA RESULT:     -13.5      0.000      0.000
REMARK SMILES CC(=O)c1cccc(C(=O)NCCCNC(=O)c2ccc(-c3c4nc(c(-c5c(F)cc(S(=O)(=O)[O-])cc5F)c5ccc([nH]5)c(-c5c(F)cc(S(=O)(=O)[O-])cc5F)c5nc(c(-c6c(F)cc(S(=O)(=O)[O-])cc6F)c6ccc3[nH]6)C=C5)C=C4)cc2)c1C
REMARK SMILES IDX 14 1 13 2 12 3 11 4 9 5 10 6 8 8 4 9 5 10 84 11 6 12 85 13
REMARK SMILES IDX 7 14 2 15 1 16 3 17 15 18 16 19 17 21 18 22 19 23 83 24
REMARK SMILES IDX 20 25 82 26 21 27 22 28 23 29 76 30 24 31 81 32 75 33 77 34
REMARK SMILES IDX 25 35 80 36 74 37 73 38 26 40 60 41 39 42 59 43 40 44 43 45
REMARK SMILES IDX 58 46 78 47 41 48 42 49 57 51 79 52 44 53 27 54 28 55 37 56
REMARK SMILES IDX 29 57 30 58 36 59 38 60 31 61 32 62 33 63 34 64 35 65 61 66
REMARK SMILES IDX 62 67 71 68 63 69 64 70 70 71 72 72 65 73 66 74 67 75 68 76
REMARK SMILES IDX 69 77 45 78 46 79 55 80 47 81 48 82 54 83 56 84 49 85 50 86
REMARK SMILES IDX 51 87 52 88 53 89
REMARK H PARENT 11 7 15 20 77 39 43 50
REMARK Flexibility Score: inf
ROOT
ATOM      1  C   UNL A   1      34.549  30.408  27.378  1.00  0.00     0.118 C 
ENDROOT
BRANCH   1   2
ATOM      2  C   UNL A   1      33.107  30.892  27.365  1.00  0.00     0.042 C 
BRANCH   2   3
ATOM      3  C   UNL A   1      32.272  30.511  26.138  1.00  0.00     0.118 C 
BRANCH   3   4
ATOM      4  N   UNL A   1      33.119  29.900  25.116  1.00  0.00    -0.352 N 
ATOM      5  C   UNL A   1      33.158  28.690  24.475  1.00  0.00     0.251 C 
ATOM      6  O   UNL A   1      34.076  28.532  23.663  1.00  0.00    -0.269 OA
ATOM      7  H   UNL A   1      33.834  30.504  24.816  1.00  0.00     0.163 HD
BRANCH   5   8
ATOM      8  C   UNL A   1      32.151  27.586  24.595  1.00  0.00     0.043 A 
ATOM      9  C   UNL A   1      31.212  25.423  25.209  1.00  0.00     0.021 A 
ATOM     10  C   UNL A   1      30.059  25.688  24.464  1.00  0.00     0.012 A 
ATOM     11  C   UNL A   1      32.312  26.320  25.195  1.00  0.00    -0.028 A 
ATOM     12  C   UNL A   1      29.944  26.883  23.771  1.00  0.00     0.002 A 
ATOM     13  C   UNL A   1      33.631  25.830  25.699  1.00  0.00     0.046 C 
ATOM     14  C   UNL A   1      30.963  27.831  23.868  1.00  0.00     0.014 A 
BRANCH   9  15
ATOM     15  C   UNL A   1      31.216  24.140  25.968  1.00  0.00     0.160 C 
ATOM     16  C   UNL A   1      31.450  22.854  25.214  1.00  0.00     0.093 C 
ATOM     17  O   UNL A   1      31.088  24.156  27.191  1.00  0.00    -0.295 OA
ENDBRANCH   9  15
ENDBRANCH   5   8
ENDBRANCH   3   4
ENDBRANCH   2   3
ENDBRANCH   1   2
BRANCH   1  18
ATOM     18  N   UNL A   1      35.416  31.409  28.014  1.00  0.00    -0.352 N 
ATOM     19  C   UNL A   1      36.653  31.245  28.606  1.00  0.00     0.251 C 
ATOM     20  H   UNL A   1      35.065  32.328  28.019  1.00  0.00     0.163 HD
ATOM     21  O   UNL A   1      37.234  32.118  29.221  1.00  0.00    -0.269 OA
BRANCH  19  22
ATOM     22  C   UNL A   1      37.263  29.920  28.409  1.00  0.00     0.039 A 
ATOM     23  C   UNL A   1      37.392  29.134  29.561  1.00  0.00     0.014 A 
ATOM     24  C   UNL A   1      38.080  29.755  27.294  1.00  0.00     0.014 A 
ATOM     25  C   UNL A   1      38.502  28.315  29.689  1.00  0.00     0.010 A 
ATOM     26  C   UNL A   1      39.211  28.976  27.449  1.00  0.00     0.010 A 
ATOM     27  C   UNL A   1      39.458  28.327  28.674  1.00  0.00    -0.014 A 
BRANCH  27  28
ATOM     28  C   UNL A   1      40.798  27.779  28.854  1.00  0.00     0.031 A 
ATOM     29  C   UNL A   1      41.056  26.372  28.484  1.00  0.00     0.074 A 
ATOM     30  C   UNL A   1      41.806  28.559  29.307  1.00  0.00     0.049 A 
ATOM     31  N   UNL A   1      42.066  25.677  28.883  1.00  0.00    -0.248 NA
ATOM     32  C   UNL A   1      40.120  25.610  27.671  1.00  0.00     0.031 C 
ATOM     33  C   UNL A   1      43.235  28.264  29.246  1.00  0.00     0.029 A 
ATOM     34  N   UNL A   1      41.719  29.701  30.113  1.00  0.00    -0.354 N 
ATOM     35  C   UNL A   1      42.067  24.491  28.179  1.00  0.00     0.074 A 
ATOM     36  C   UNL A   1      40.794  24.472  27.501  1.00  0.00     0.031 C 
ATOM     37  C   UNL A   1      43.873  29.007  30.162  1.00  0.00     0.029 A 
ATOM     38  C   UNL A   1      42.861  29.699  30.940  1.00  0.00     0.049 A 
ATOM     39  H   UNL A   1      41.001  30.375  30.103  1.00  0.00     0.167 HD
ATOM     40  C   UNL A   1      43.206  23.736  28.156  1.00  0.00     0.037 A 
ATOM     41  C   UNL A   1      42.761  29.639  32.300  1.00  0.00     0.037 A 
ATOM     42  C   UNL A   1      44.184  24.248  29.123  1.00  0.00     0.049 A 
ATOM     43  C   UNL A   1      43.398  28.414  32.912  1.00  0.00     0.074 A 
ATOM     44  C   UNL A   1      45.298  25.062  29.002  1.00  0.00     0.029 A 
ATOM     45  N   UNL A   1      43.895  24.183  30.485  1.00  0.00    -0.354 N 
ATOM     46  N   UNL A   1      43.741  27.354  32.232  1.00  0.00    -0.248 NA
ATOM     47  C   UNL A   1      43.685  28.275  34.338  1.00  0.00     0.031 C 
ATOM     48  C   UNL A   1      45.630  25.552  30.291  1.00  0.00     0.029 A 
ATOM     49  C   UNL A   1      44.734  25.017  31.202  1.00  0.00     0.049 A 
ATOM     50  H   UNL A   1      43.192  23.620  30.883  1.00  0.00     0.167 HD
ATOM     51  C   UNL A   1      44.232  26.398  33.084  1.00  0.00     0.074 A 
ATOM     52  C   UNL A   1      44.209  27.036  34.387  1.00  0.00     0.031 C 
ATOM     53  C   UNL A   1      44.600  25.156  32.648  1.00  0.00     0.037 A 
BRANCH  40  54
ATOM     54  C   UNL A   1      43.544  22.749  27.045  1.00  0.00     0.058 A 
ATOM     55  C   UNL A   1      42.859  21.516  26.943  1.00  0.00     0.135 A 
ATOM     56  C   UNL A   1      44.588  22.900  26.109  1.00  0.00     0.135 A 
ATOM     57  F   UNL A   1      41.771  21.256  27.680  1.00  0.00    -0.206 F 
ATOM     58  C   UNL A   1      43.257  20.485  26.083  1.00  0.00     0.059 A 
ATOM     59  C   UNL A   1      45.042  21.867  25.283  1.00  0.00     0.059 A 
ATOM     60  F   UNL A   1      45.181  24.078  25.898  1.00  0.00    -0.206 F 
ATOM     61  C   UNL A   1      44.379  20.653  25.285  1.00  0.00     0.060 A 
BRANCH  61  62
ATOM     62  S   UNL A   1      44.936  19.295  24.240  1.00  0.00     0.124 S 
ATOM     63  O   UNL A   1      46.383  19.333  24.433  1.00  0.00    -0.237 OA
ATOM     64  O   UNL A   1      44.245  18.154  24.829  1.00  0.00    -0.237 OA
ATOM     65  O   UNL A   1      44.480  19.681  22.907  1.00  0.00    -0.744 OA
ENDBRANCH  61  62
ENDBRANCH  40  54
BRANCH  41  66
ATOM     66  C   UNL A   1      41.588  30.379  32.838  1.00  0.00     0.058 A 
ATOM     67  C   UNL A   1      40.437  29.628  33.147  1.00  0.00     0.135 A 
ATOM     68  C   UNL A   1      41.726  31.634  33.446  1.00  0.00     0.135 A 
ATOM     69  F   UNL A   1      40.249  28.425  32.582  1.00  0.00    -0.206 F 
ATOM     70  C   UNL A   1      39.545  30.028  34.134  1.00  0.00     0.059 A 
ATOM     71  C   UNL A   1      40.839  32.056  34.441  1.00  0.00     0.059 A 
ATOM     72  F   UNL A   1      42.799  32.395  33.186  1.00  0.00    -0.206 F 
ATOM     73  C   UNL A   1      39.791  31.215  34.821  1.00  0.00     0.060 A 
BRANCH  73  74
ATOM     74  S   UNL A   1      38.844  31.523  36.334  1.00  0.00     0.124 S 
ATOM     75  O   UNL A   1      38.300  30.202  36.623  1.00  0.00    -0.237 OA
ATOM     76  O   UNL A   1      39.880  31.989  37.256  1.00  0.00    -0.237 OA
ATOM     77  O   UNL A   1      37.878  32.535  35.922  1.00  0.00    -0.744 OA
ENDBRANCH  73  74
ENDBRANCH  41  66
BRANCH  53  78
ATOM     78  C   UNL A   1      44.957  23.985  33.535  1.00  0.00     0.058 A 
ATOM     79  C   UNL A   1      44.053  22.974  33.907  1.00  0.00     0.135 A 
ATOM     80  C   UNL A   1      46.298  23.780  33.941  1.00  0.00     0.135 A 
ATOM     81  F   UNL A   1      42.780  22.988  33.484  1.00  0.00    -0.206 F 
ATOM     82  C   UNL A   1      44.430  21.881  34.690  1.00  0.00     0.059 A 
ATOM     83  C   UNL A   1      46.708  22.669  34.675  1.00  0.00     0.059 A 
ATOM     84  F   UNL A   1      47.265  24.654  33.624  1.00  0.00    -0.206 F 
ATOM     85  C   UNL A   1      45.760  21.737  35.073  1.00  0.00     0.060 A 
BRANCH  85  86
ATOM     86  S   UNL A   1      46.271  20.303  36.039  1.00  0.00     0.124 S 
ATOM     87  O   UNL A   1      45.570  19.224  35.351  1.00  0.00    -0.237 OA
ATOM     88  O   UNL A   1      47.724  20.308  35.886  1.00  0.00    -0.237 OA
ATOM     89  O   UNL A   1      45.790  20.620  37.379  1.00  0.00    -0.744 OA
ENDBRANCH  85  86
ENDBRANCH  53  78
ENDBRANCH  27  28
ENDBRANCH  19  22
ENDBRANCH   1  18
TORSDOF 14
ENDMDL
MODEL 2
REMARK VINA RESULT:     -13.4      3.120      4.917
REMARK SMILES CC(=O)c1cccc(C(=O)NCCCNC(=O)c2ccc(-c3c4nc(c(-c5c(F)cc(S(=O)(=O)[O-])cc5F)c5ccc([nH]5)c(-c5c(F)cc(S(=O)(=O)[O-])cc5F)c5nc(c(-c6c(F)cc(S(=O)(=O)[O-])cc6F)c6ccc3[nH]6)C=C5)C=C4)cc2)c1C
REMARK SMILES IDX 14 1 13 2 12 3 11 4 9 5 10 6 8 8 4 9 5 10 84 11 6 12 85 13
REMARK SMILES IDX 7 14 2 15 1 16 3 17 15 18 16 19 17 21 18 22 19 23 83 24
REMARK SMILES IDX 20 25 82 26 21 27 22 28 23 29 76 30 24 31 81 32 75 33 77 34
REMARK SMILES IDX 25 35 80 36 74 37 73 38 26 40 60 41 39 42 59 43 40 44 43 45
REMARK SMILES IDX 58 46 78 47 41 48 42 49 57 51 79 52 44 53 27 54 28 55 37 56
REMARK SMILES IDX 29 57 30 58 36 59 38 60 31 61 32 62 33 63 34 64 35 65 61 66
REMARK SMILES IDX 62 67 71 68 63 69 64 70 70 71 72 72 65 73 66 74 67 75 68 76
REMARK SMILES IDX 69 77 45 78 46 79 55 80 47 81 48 82 54 83 56 84 49 85 50 86
REMARK SMILES IDX 51 87 52 88 53 89
REMARK H PARENT 11 7 15 20 77 39 43 50
REMARK Flexibility Score: inf
ROOT
ATOM      1  C   UNL A   1      38.689  31.867  29.858  1.00  0.00     0.118 C 
ENDROOT
BRANCH   1   2
ATOM      2  C   UNL A   1      39.193  33.209  30.369  1.00  0.00     0.042 C 
BRANCH   2   3
ATOM      3  C   UNL A   1      38.580  33.712  31.681  1.00  0.00     0.118 C 
BRANCH   3   4
ATOM      4  N   UNL A   1      37.607  32.747  32.190  1.00  0.00    -0.352 N 
ATOM      5  C   UNL A   1      36.246  32.714  32.331  1.00  0.00     0.251 C 
ATOM      6  O   UNL A   1      35.774  31.697  32.850  1.00  0.00    -0.269 OA
ATOM      7  H   UNL A   1      38.035  31.920  32.509  1.00  0.00     0.163 HD
BRANCH   5   8
ATOM      8  C   UNL A   1      35.274  33.744  31.838  1.00  0.00     0.043 A 
ATOM      9  C   UNL A   1      33.760  35.653  31.897  1.00  0.00     0.021 A 
ATOM     10  C   UNL A   1      33.350  35.394  30.585  1.00  0.00     0.012 A 
ATOM     11  C   UNL A   1      34.643  34.770  32.572  1.00  0.00    -0.028 A 
ATOM     12  C   UNL A   1      33.877  34.314  29.897  1.00  0.00     0.002 A 
ATOM     13  C   UNL A   1      34.760  34.887  34.057  1.00  0.00     0.046 C 
ATOM     14  C   UNL A   1      34.853  33.525  30.506  1.00  0.00     0.014 A 
BRANCH   9  15
ATOM     15  C   UNL A   1      33.184  36.872  32.531  1.00  0.00     0.160 C 
ATOM     16  C   UNL A   1      34.025  38.124  32.589  1.00  0.00     0.093 C 
ATOM     17  O   UNL A   1      32.024  36.856  32.939  1.00  0.00    -0.295 OA
ENDBRANCH   9  15
ENDBRANCH   5   8
ENDBRANCH   3   4
ENDBRANCH   2   3
ENDBRANCH   1   2
BRANCH   1  18
ATOM     18  N   UNL A   1      37.377  32.029  29.215  1.00  0.00    -0.352 N 
ATOM     19  C   UNL A   1      36.736  31.199  28.316  1.00  0.00     0.251 C 
ATOM     20  H   UNL A   1      36.885  32.845  29.461  1.00  0.00     0.163 HD
ATOM     21  O   UNL A   1      35.705  31.486  27.742  1.00  0.00    -0.269 OA
BRANCH  19  22
ATOM     22  C   UNL A   1      37.376  29.889  28.118  1.00  0.00     0.039 A 
ATOM     23  C   UNL A   1      37.457  29.074  29.255  1.00  0.00     0.014 A 
ATOM     24  C   UNL A   1      38.255  29.765  27.045  1.00  0.00     0.014 A 
ATOM     25  C   UNL A   1      38.571  28.268  29.421  1.00  0.00     0.010 A 
ATOM     26  C   UNL A   1      39.388  28.999  27.240  1.00  0.00     0.010 A 
ATOM     27  C   UNL A   1      39.579  28.321  28.460  1.00  0.00    -0.014 A 
BRANCH  27  28
ATOM     28  C   UNL A   1      40.916  27.788  28.698  1.00  0.00     0.031 A 
ATOM     29  C   UNL A   1      41.206  26.385  28.339  1.00  0.00     0.074 A 
ATOM     30  C   UNL A   1      41.894  28.579  29.194  1.00  0.00     0.049 A 
ATOM     31  N   UNL A   1      42.205  25.700  28.781  1.00  0.00    -0.248 NA
ATOM     32  C   UNL A   1      40.314  25.612  27.486  1.00  0.00     0.031 C 
ATOM     33  C   UNL A   1      43.328  28.300  29.195  1.00  0.00     0.029 A 
ATOM     34  N   UNL A   1      41.760  29.720  29.996  1.00  0.00    -0.354 N 
ATOM     35  C   UNL A   1      42.251  24.515  28.077  1.00  0.00     0.074 A 
ATOM     36  C   UNL A   1      41.008  24.482  27.345  1.00  0.00     0.031 C 
ATOM     37  C   UNL A   1      43.917  29.050  30.138  1.00  0.00     0.029 A 
ATOM     38  C   UNL A   1      42.866  29.730  30.872  1.00  0.00     0.049 A 
ATOM     39  H   UNL A   1      41.036  30.385  29.955  1.00  0.00     0.167 HD
ATOM     40  C   UNL A   1      43.398  23.773  28.104  1.00  0.00     0.037 A 
ATOM     41  C   UNL A   1      42.707  29.668  32.226  1.00  0.00     0.037 A 
ATOM     42  C   UNL A   1      44.327  24.295  29.113  1.00  0.00     0.049 A 
ATOM     43  C   UNL A   1      43.331  28.449  32.865  1.00  0.00     0.074 A 
ATOM     44  C   UNL A   1      45.436  25.121  29.040  1.00  0.00     0.029 A 
ATOM     45  N   UNL A   1      43.980  24.226  30.461  1.00  0.00    -0.354 N 
ATOM     46  N   UNL A   1      43.715  27.393  32.200  1.00  0.00    -0.248 NA
ATOM     47  C   UNL A   1      43.558  28.312  34.302  1.00  0.00     0.031 C 
ATOM     48  C   UNL A   1      45.706  25.614  30.343  1.00  0.00     0.029 A 
ATOM     49  C   UNL A   1      44.778  25.069  31.214  1.00  0.00     0.049 A 
ATOM     50  H   UNL A   1      43.266  23.655  30.828  1.00  0.00     0.167 HD
ATOM     51  C   UNL A   1      44.179  26.442  33.072  1.00  0.00     0.074 A 
ATOM     52  C   UNL A   1      44.092  27.080  34.373  1.00  0.00     0.031 C 
ATOM     53  C   UNL A   1      44.580  25.205  32.652  1.00  0.00     0.037 A 
BRANCH  40  54
ATOM     54  C   UNL A   1      43.794  22.790  27.008  1.00  0.00     0.058 A 
ATOM     55  C   UNL A   1      43.050  21.607  26.797  1.00  0.00     0.135 A 
ATOM     56  C   UNL A   1      44.943  22.894  26.196  1.00  0.00     0.135 A 
ATOM     57  F   UNL A   1      41.874  21.401  27.404  1.00  0.00    -0.206 F 
ATOM     58  C   UNL A   1      43.476  20.571  25.957  1.00  0.00     0.059 A 
ATOM     59  C   UNL A   1      45.420  21.852  25.395  1.00  0.00     0.059 A 
ATOM     60  F   UNL A   1      45.626  24.036  26.085  1.00  0.00    -0.206 F 
ATOM     61  C   UNL A   1      44.687  20.684  25.290  1.00  0.00     0.060 A 
BRANCH  61  62
ATOM     62  S   UNL A   1      45.271  19.316  24.273  1.00  0.00     0.124 S 
ATOM     63  O   UNL A   1      44.525  19.514  23.033  1.00  0.00    -0.237 OA
ATOM     64  O   UNL A   1      46.704  19.578  24.204  1.00  0.00    -0.237 OA
ATOM     65  O   UNL A   1      44.889  18.133  25.041  1.00  0.00    -0.744 OA
ENDBRANCH  61  62
ENDBRANCH  40  54
BRANCH  41  66
ATOM     66  C   UNL A   1      41.504  30.394  32.713  1.00  0.00     0.058 A 
ATOM     67  C   UNL A   1      40.350  29.630  32.974  1.00  0.00     0.135 A 
ATOM     68  C   UNL A   1      41.601  31.651  33.324  1.00  0.00     0.135 A 
ATOM     69  F   UNL A   1      40.201  28.423  32.404  1.00  0.00    -0.206 F 
ATOM     70  C   UNL A   1      39.413  30.020  33.923  1.00  0.00     0.059 A 
ATOM     71  C   UNL A   1      40.668  32.064  34.280  1.00  0.00     0.059 A 
ATOM     72  F   UNL A   1      42.675  32.424  33.108  1.00  0.00    -0.206 F 
ATOM     73  C   UNL A   1      39.615  31.211  34.617  1.00  0.00     0.060 A 
BRANCH  73  74
ATOM     74  S   UNL A   1      38.602  31.509  36.088  1.00  0.00     0.124 S 
ATOM     75  O   UNL A   1      38.385  30.156  36.584  1.00  0.00    -0.237 OA
ATOM     76  O   UNL A   1      39.484  32.342  36.906  1.00  0.00    -0.237 OA
ATOM     77  O   UNL A   1      37.428  32.188  35.552  1.00  0.00    -0.744 OA
ENDBRANCH  73  74
ENDBRANCH  41  66
BRANCH  53  78
ATOM     78  C   UNL A   1      44.911  24.038  33.554  1.00  0.00     0.058 A 
ATOM     79  C   UNL A   1      44.062  22.936  33.760  1.00  0.00     0.135 A 
ATOM     80  C   UNL A   1      46.191  23.938  34.152  1.00  0.00     0.135 A 
ATOM     81  F   UNL A   1      42.870  22.852  33.152  1.00  0.00    -0.206 F 
ATOM     82  C   UNL A   1      44.421  21.852  34.564  1.00  0.00     0.059 A 
ATOM     83  C   UNL A   1      46.591  22.841  34.911  1.00  0.00     0.059 A 
ATOM     84  F   UNL A   1      47.107  24.907  34.005  1.00  0.00    -0.206 F 
ATOM     85  C   UNL A   1      45.688  21.813  35.139  1.00  0.00     0.060 A 
BRANCH  85  86
ATOM     86  S   UNL A   1      46.184  20.395  36.135  1.00  0.00     0.124 S 
ATOM     87  O   UNL A   1      47.618  20.339  35.868  1.00  0.00    -0.237 OA
ATOM     88  O   UNL A   1      45.812  20.801  37.488  1.00  0.00    -0.237 OA
ATOM     89  O   UNL A   1      45.391  19.306  35.578  1.00  0.00    -0.744 OA
ENDBRANCH  85  86
ENDBRANCH  53  78
ENDBRANCH  27  28
ENDBRANCH  19  22
ENDBRANCH   1  18
TORSDOF 14
ENDMDL
MODEL 3
REMARK VINA RESULT:     -13.3      5.577     11.998
REMARK SMILES CC(=O)c1cccc(C(=O)NCCCNC(=O)c2ccc(-c3c4nc(c(-c5c(F)cc(S(=O)(=O)[O-])cc5F)c5ccc([nH]5)c(-c5c(F)cc(S(=O)(=O)[O-])cc5F)c5nc(c(-c6c(F)cc(S(=O)(=O)[O-])cc6F)c6ccc3[nH]6)C=C5)C=C4)cc2)c1C
REMARK SMILES IDX 14 1 13 2 12 3 11 4 9 5 10 6 8 8 4 9 5 10 84 11 6 12 85 13
REMARK SMILES IDX 7 14 2 15 1 16 3 17 15 18 16 19 17 21 18 22 19 23 83 24
REMARK SMILES IDX 20 25 82 26 21 27 22 28 23 29 76 30 24 31 81 32 75 33 77 34
REMARK SMILES IDX 25 35 80 36 74 37 73 38 26 40 60 41 39 42 59 43 40 44 43 45
REMARK SMILES IDX 58 46 78 47 41 48 42 49 57 51 79 52 44 53 27 54 28 55 37 56
REMARK SMILES IDX 29 57 30 58 36 59 38 60 31 61 32 62 33 63 34 64 35 65 61 66
REMARK SMILES IDX 62 67 71 68 63 69 64 70 70 71 72 72 65 73 66 74 67 75 68 76
REMARK SMILES IDX 69 77 45 78 46 79 55 80 47 81 48 82 54 83 56 84 49 85 50 86
REMARK SMILES IDX 51 87 52 88 53 89
REMARK H PARENT 11 7 15 20 77 39 43 50
REMARK Flexibility Score: inf
ROOT
ATOM      1  C   UNL A   1      38.662  22.961  26.338  1.00  0.00     0.118 C 
ENDROOT
BRANCH   1   2
ATOM      2  C   UNL A   1      38.486  21.806  25.362  1.00  0.00     0.042 C 
BRANCH   2   3
ATOM      3  C   UNL A   1      37.087  21.628  24.764  1.00  0.00     0.118 C 
BRANCH   3   4
ATOM      4  N   UNL A   1      36.070  21.725  25.809  1.00  0.00    -0.352 N 
ATOM      5  C   UNL A   1      34.793  21.261  25.976  1.00  0.00     0.251 C 
ATOM      6  O   UNL A   1      34.225  21.589  27.024  1.00  0.00    -0.269 OA
ATOM      7  H   UNL A   1      36.379  22.252  26.581  1.00  0.00     0.163 HD
BRANCH   5   8
ATOM      8  C   UNL A   1      34.058  20.327  25.062  1.00  0.00     0.043 A 
ATOM      9  C   UNL A   1      33.556  18.296  23.815  1.00  0.00     0.021 A 
ATOM     10  C   UNL A   1      32.500  18.935  23.158  1.00  0.00     0.012 A 
ATOM     11  C   UNL A   1      34.411  19.013  24.691  1.00  0.00    -0.028 A 
ATOM     12  C   UNL A   1      32.222  20.265  23.429  1.00  0.00     0.002 A 
ATOM     13  C   UNL A   1      35.714  18.390  25.075  1.00  0.00     0.046 C 
ATOM     14  C   UNL A   1      32.971  20.937  24.395  1.00  0.00     0.014 A 
BRANCH   9  15
ATOM     15  C   UNL A   1      33.736  16.849  23.502  1.00  0.00     0.160 C 
ATOM     16  C   UNL A   1      33.262  15.828  24.508  1.00  0.00     0.093 C 
ATOM     17  O   UNL A   1      34.209  16.515  22.418  1.00  0.00    -0.295 OA
ENDBRANCH   9  15
ENDBRANCH   5   8
ENDBRANCH   3   4
ENDBRANCH   2   3
ENDBRANCH   1   2
BRANCH   1  18
ATOM     18  N   UNL A   1      40.058  23.038  26.788  1.00  0.00    -0.352 N 
ATOM     19  C   UNL A   1      40.783  24.137  27.205  1.00  0.00     0.251 C 
ATOM     20  H   UNL A   1      40.546  22.183  26.795  1.00  0.00     0.163 HD
ATOM     21  O   UNL A   1      41.976  24.116  27.437  1.00  0.00    -0.269 OA
BRANCH  19  22
ATOM     22  C   UNL A   1      39.994  25.364  27.394  1.00  0.00     0.039 A 
ATOM     23  C   UNL A   1      40.376  26.458  26.608  1.00  0.00     0.014 A 
ATOM     24  C   UNL A   1      39.325  25.509  28.606  1.00  0.00     0.014 A 
ATOM     25  C   UNL A   1      40.284  27.732  27.147  1.00  0.00     0.010 A 
ATOM     26  C   UNL A   1      39.284  26.776  29.157  1.00  0.00     0.010 A 
ATOM     27  C   UNL A   1      39.839  27.867  28.460  1.00  0.00    -0.014 A 
BRANCH  27  28
ATOM     28  C   UNL A   1      40.022  29.095  29.226  1.00  0.00     0.031 A 
ATOM     29  C   UNL A   1      38.988  30.147  29.158  1.00  0.00     0.074 A 
ATOM     30  C   UNL A   1      41.099  29.252  30.028  1.00  0.00     0.049 A 
ATOM     31  N   UNL A   1      39.161  31.378  29.501  1.00  0.00    -0.248 NA
ATOM     32  C   UNL A   1      37.665  29.887  28.608  1.00  0.00     0.031 C 
ATOM     33  C   UNL A   1      41.271  30.255  31.076  1.00  0.00     0.029 A 
ATOM     34  N   UNL A   1      42.359  28.651  29.911  1.00  0.00    -0.354 N 
ATOM     35  C   UNL A   1      37.931  32.000  29.484  1.00  0.00     0.074 A 
ATOM     36  C   UNL A   1      37.054  31.048  28.847  1.00  0.00     0.031 C 
ATOM     37  C   UNL A   1      42.579  30.399  31.332  1.00  0.00     0.029 A 
ATOM     38  C   UNL A   1      43.302  29.599  30.359  1.00  0.00     0.049 A 
ATOM     39  H   UNL A   1      42.549  27.743  29.581  1.00  0.00     0.167 HD
ATOM     40  C   UNL A   1      37.783  33.193  30.133  1.00  0.00     0.037 A 
ATOM     41  C   UNL A   1      44.278  30.083  29.537  1.00  0.00     0.037 A 
ATOM     42  C   UNL A   1      39.089  33.719  30.548  1.00  0.00     0.049 A 
ATOM     43  C   UNL A   1      44.203  31.573  29.301  1.00  0.00     0.074 A 
ATOM     44  C   UNL A   1      39.777  33.702  31.751  1.00  0.00     0.029 A 
ATOM     45  N   UNL A   1      40.012  34.101  29.577  1.00  0.00    -0.354 N 
ATOM     46  N   UNL A   1      43.158  32.304  29.578  1.00  0.00    -0.248 NA
ATOM     47  C   UNL A   1      45.290  32.358  28.719  1.00  0.00     0.031 C 
ATOM     48  C   UNL A   1      41.138  33.997  31.485  1.00  0.00     0.029 A 
ATOM     49  C   UNL A   1      41.277  34.219  30.125  1.00  0.00     0.049 A 
ATOM     50  H   UNL A   1      39.795  34.266  28.631  1.00  0.00     0.167 HD
ATOM     51  C   UNL A   1      43.384  33.599  29.190  1.00  0.00     0.074 A 
ATOM     52  C   UNL A   1      44.746  33.589  28.690  1.00  0.00     0.031 C 
ATOM     53  C   UNL A   1      42.425  34.568  29.298  1.00  0.00     0.037 A 
BRANCH  40  54
ATOM     54  C   UNL A   1      36.449  33.710  30.660  1.00  0.00     0.058 A 
ATOM     55  C   UNL A   1      35.463  34.196  29.772  1.00  0.00     0.135 A 
ATOM     56  C   UNL A   1      36.110  33.849  32.021  1.00  0.00     0.135 A 
ATOM     57  F   UNL A   1      35.576  34.042  28.445  1.00  0.00    -0.206 F 
ATOM     58  C   UNL A   1      34.312  34.871  30.196  1.00  0.00     0.059 A 
ATOM     59  C   UNL A   1      34.998  34.568  32.471  1.00  0.00     0.059 A 
ATOM     60  F   UNL A   1      36.800  33.236  32.986  1.00  0.00    -0.206 F 
ATOM     61  C   UNL A   1      34.107  35.091  31.551  1.00  0.00     0.060 A 
BRANCH  61  62
ATOM     62  S   UNL A   1      32.667  36.030  32.090  1.00  0.00     0.124 S 
ATOM     63  O   UNL A   1      33.225  36.864  33.152  1.00  0.00    -0.237 OA
ATOM     64  O   UNL A   1      32.284  36.728  30.868  1.00  0.00    -0.237 OA
ATOM     65  O   UNL A   1      31.736  34.998  32.538  1.00  0.00    -0.744 OA
ENDBRANCH  61  62
ENDBRANCH  40  54
BRANCH  41  66
ATOM     66  C   UNL A   1      44.802  29.069  28.583  1.00  0.00     0.058 A 
ATOM     67  C   UNL A   1      44.219  29.027  27.301  1.00  0.00     0.135 A 
ATOM     68  C   UNL A   1      46.074  28.504  28.735  1.00  0.00     0.135 A 
ATOM     69  F   UNL A   1      42.995  29.544  27.103  1.00  0.00    -0.206 F 
ATOM     70  C   UNL A   1      44.929  28.594  26.188  1.00  0.00     0.059 A 
ATOM     71  C   UNL A   1      46.805  28.060  27.629  1.00  0.00     0.059 A 
ATOM     72  F   UNL A   1      46.676  28.511  29.933  1.00  0.00    -0.206 F 
ATOM     73  C   UNL A   1      46.246  28.171  26.354  1.00  0.00     0.060 A 
BRANCH  73  74
ATOM     74  S   UNL A   1      47.259  27.972  24.866  1.00  0.00     0.124 S 
ATOM     75  O   UNL A   1      46.955  26.601  24.476  1.00  0.00    -0.237 OA
ATOM     76  O   UNL A   1      46.718  29.008  23.985  1.00  0.00    -0.237 OA
ATOM     77  O   UNL A   1      48.613  28.213  25.350  1.00  0.00    -0.744 OA
ENDBRANCH  73  74
ENDBRANCH  41  66
BRANCH  53  78
ATOM     78  C   UNL A   1      42.516  35.960  28.715  1.00  0.00     0.058 A 
ATOM     79  C   UNL A   1      43.043  37.068  29.401  1.00  0.00     0.135 A 
ATOM     80  C   UNL A   1      42.181  36.189  27.358  1.00  0.00     0.135 A 
ATOM     81  F   UNL A   1      43.510  36.955  30.653  1.00  0.00    -0.206 F 
ATOM     82  C   UNL A   1      43.155  38.330  28.813  1.00  0.00     0.059 A 
ATOM     83  C   UNL A   1      42.337  37.425  26.735  1.00  0.00     0.059 A 
ATOM     84  F   UNL A   1      41.698  35.206  26.583  1.00  0.00    -0.206 F 
ATOM     85  C   UNL A   1      42.797  38.501  27.480  1.00  0.00     0.060 A 
BRANCH  85  86
ATOM     86  S   UNL A   1      42.986  40.112  26.693  1.00  0.00     0.124 S 
ATOM     87  O   UNL A   1      43.186  40.979  27.850  1.00  0.00    -0.237 OA
ATOM     88  O   UNL A   1      44.155  39.923  25.839  1.00  0.00    -0.237 OA
ATOM     89  O   UNL A   1      41.723  40.283  25.983  1.00  0.00    -0.744 OA
ENDBRANCH  85  86
ENDBRANCH  53  78
ENDBRANCH  27  28
ENDBRANCH  19  22
ENDBRANCH   1  18
TORSDOF 14
ENDMDL
