MODEL 1
REMARK VINA RESULT:     -14.1      0.000      0.000
REMARK SMILES Cc1ccc(Nc2c(Cl)cccc2Cl)c(CC(=O)NCCCNC(=O)c2ccc(-c3c4nc(c(-c5c(F)cc(S(=O)(=O)[O-])cc5F)c5ccc([nH]5)c(-c5c(F)cc(S(=O)(=O)[O-])cc5F)c5nc(c(-c6c(F)cc(S(=O)(=O)[O-])cc6F)c6ccc3[nH]6)C=C5)C=C4)cc2)c1
REMARK SMILES IDX 21 1 20 2 19 3 17 4 18 5 16 7 15 8 1 9 2 10 3 11 92 12 4 13
REMARK SMILES IDX 5 14 6 15 7 17 8 18 13 19 9 20 10 21 12 22 14 23 11 24 22 25
REMARK SMILES IDX 23 26 24 27 25 29 26 30 27 31 91 32 28 33 90 34 29 35 30 36
REMARK SMILES IDX 31 37 84 38 32 39 89 40 83 41 85 42 33 43 88 44 82 45 81 46
REMARK SMILES IDX 34 48 68 49 47 50 67 51 48 52 51 53 66 54 86 55 49 56 50 57
REMARK SMILES IDX 65 59 87 60 52 61 35 62 36 63 45 64 37 65 38 66 44 67 46 68
REMARK SMILES IDX 39 69 40 70 41 71 42 72 43 73 69 74 70 75 79 76 71 77 72 78
REMARK SMILES IDX 78 79 80 80 73 81 74 82 75 83 76 84 77 85 53 86 54 87 63 88
REMARK SMILES IDX 55 89 56 90 62 91 64 92 57 93 58 94 59 95 60 96 61 97
REMARK H PARENT 19 6 6 16 23 28 85 47 51 58
REMARK Flexibility Score: inf
ROOT
ATOM      1  C   UNL A   1      33.012  29.784  27.322  1.00  0.00     0.042 C 
ENDROOT
BRANCH   1   2
ATOM      2  C   UNL A   1      32.217  29.081  26.226  1.00  0.00     0.117 C 
BRANCH   2   3
ATOM      3  N   UNL A   1      31.731  27.770  26.636  1.00  0.00    -0.356 N 
ATOM      4  C   UNL A   1      32.301  26.542  26.460  1.00  0.00     0.224 C 
ATOM      5  O   UNL A   1      31.688  25.536  26.827  1.00  0.00    -0.275 OA
ATOM      6  H   UNL A   1      30.867  27.769  27.109  1.00  0.00     0.163 HD
BRANCH   4   7
ATOM      7  C   UNL A   1      33.660  26.397  25.796  1.00  0.00     0.137 C 
BRANCH   7   8
ATOM      8  C   UNL A   1      33.859  25.057  25.120  1.00  0.00    -0.015 A 
ATOM      9  C   UNL A   1      35.167  21.636  26.228  1.00  0.00     0.044 C 
ATOM     10  C   UNL A   1      34.616  22.740  25.377  1.00  0.00    -0.051 A 
ATOM     11  C   UNL A   1      34.499  22.568  24.000  1.00  0.00     0.005 A 
ATOM     12  C   UNL A   1      34.266  23.974  25.931  1.00  0.00     0.009 A 
ATOM     13  C   UNL A   1      34.045  23.616  23.194  1.00  0.00     0.026 A 
ATOM     14  C   UNL A   1      33.726  24.877  23.725  1.00  0.00     0.042 A 
BRANCH  14  15
ATOM     15  N   UNL A   1      33.250  25.918  22.892  1.00  0.00    -0.353 N 
ATOM     16  H   UNL A   1      33.810  26.126  22.110  1.00  0.00     0.167 HD
BRANCH  15  17
ATOM     17  C   UNL A   1      32.075  26.702  23.031  1.00  0.00     0.076 A 
ATOM     18  C   UNL A   1      30.797  26.144  23.235  1.00  0.00     0.066 A 
ATOM     19  C   UNL A   1      32.150  28.103  22.866  1.00  0.00     0.066 A 
ATOM     20  Cl  UNL A   1      30.568  24.455  23.553  1.00  0.00    -0.082 Cl
ATOM     21  C   UNL A   1      29.649  26.949  23.250  1.00  0.00     0.023 A 
ATOM     22  C   UNL A   1      31.004  28.905  22.888  1.00  0.00     0.023 A 
ATOM     23  Cl  UNL A   1      33.669  28.888  22.589  1.00  0.00    -0.082 Cl
ATOM     24  C   UNL A   1      29.752  28.327  23.071  1.00  0.00     0.003 A 
ENDBRANCH  15  17
ENDBRANCH  14  15
ENDBRANCH   7   8
ENDBRANCH   4   7
ENDBRANCH   2   3
ENDBRANCH   1   2
BRANCH   1  25
ATOM     25  C   UNL A   1      34.517  29.765  27.099  1.00  0.00     0.118 C 
BRANCH  25  26
ATOM     26  N   UNL A   1      35.167  30.969  27.610  1.00  0.00    -0.352 N 
ATOM     27  C   UNL A   1      36.371  31.067  28.285  1.00  0.00     0.251 C 
ATOM     28  H   UNL A   1      34.689  31.815  27.455  1.00  0.00     0.163 HD
ATOM     29  O   UNL A   1      36.755  32.096  28.805  1.00  0.00    -0.269 OA
BRANCH  27  30
ATOM     30  C   UNL A   1      37.234  29.870  28.246  1.00  0.00     0.039 A 
ATOM     31  C   UNL A   1      37.320  29.117  29.422  1.00  0.00     0.014 A 
ATOM     32  C   UNL A   1      38.154  29.722  27.213  1.00  0.00     0.014 A 
ATOM     33  C   UNL A   1      38.450  28.337  29.646  1.00  0.00     0.010 A 
ATOM     34  C   UNL A   1      39.310  29.013  27.473  1.00  0.00     0.010 A 
ATOM     35  C   UNL A   1      39.481  28.368  28.709  1.00  0.00    -0.014 A 
BRANCH  35  36
ATOM     36  C   UNL A   1      40.809  27.816  28.954  1.00  0.00     0.031 A 
ATOM     37  C   UNL A   1      41.097  26.412  28.592  1.00  0.00     0.074 A 
ATOM     38  C   UNL A   1      41.803  28.617  29.392  1.00  0.00     0.049 A 
ATOM     39  N   UNL A   1      42.154  25.761  28.936  1.00  0.00    -0.248 NA
ATOM     40  C   UNL A   1      40.149  25.606  27.836  1.00  0.00     0.031 C 
ATOM     41  C   UNL A   1      43.237  28.351  29.347  1.00  0.00     0.029 A 
ATOM     42  N   UNL A   1      41.685  29.761  30.188  1.00  0.00    -0.354 N 
ATOM     43  C   UNL A   1      42.170  24.572  28.240  1.00  0.00     0.074 A 
ATOM     44  C   UNL A   1      40.864  24.498  27.627  1.00  0.00     0.031 C 
ATOM     45  C   UNL A   1      43.845  29.103  30.275  1.00  0.00     0.029 A 
ATOM     46  C   UNL A   1      42.806  29.756  31.050  1.00  0.00     0.049 A 
ATOM     47  H   UNL A   1      40.968  30.434  30.154  1.00  0.00     0.167 HD
ATOM     48  C   UNL A   1      43.335  23.861  28.175  1.00  0.00     0.037 A 
ATOM     49  C   UNL A   1      42.636  29.620  32.400  1.00  0.00     0.037 A 
ATOM     50  C   UNL A   1      44.329  24.394  29.112  1.00  0.00     0.049 A 
ATOM     51  C   UNL A   1      43.227  28.352  32.989  1.00  0.00     0.074 A 
ATOM     52  C   UNL A   1      45.443  25.213  29.010  1.00  0.00     0.029 A 
ATOM     53  N   UNL A   1      44.056  24.305  30.466  1.00  0.00    -0.354 N 
ATOM     54  N   UNL A   1      43.852  27.437  32.302  1.00  0.00    -0.248 NA
ATOM     55  C   UNL A   1      43.095  27.984  34.401  1.00  0.00     0.031 C 
ATOM     56  C   UNL A   1      45.796  25.653  30.321  1.00  0.00     0.029 A 
ATOM     57  C   UNL A   1      44.902  25.095  31.217  1.00  0.00     0.049 A 
ATOM     58  H   UNL A   1      43.343  23.744  30.848  1.00  0.00     0.167 HD
ATOM     59  C   UNL A   1      44.127  26.365  33.109  1.00  0.00     0.074 A 
ATOM     60  C   UNL A   1      43.663  26.765  34.423  1.00  0.00     0.031 C 
ATOM     61  C   UNL A   1      44.667  25.201  32.648  1.00  0.00     0.037 A 
BRANCH  48  62
ATOM     62  C   UNL A   1      43.651  22.828  27.105  1.00  0.00     0.058 A 
ATOM     63  C   UNL A   1      42.939  21.607  27.055  1.00  0.00     0.135 A 
ATOM     64  C   UNL A   1      44.683  22.928  26.150  1.00  0.00     0.135 A 
ATOM     65  F   UNL A   1      41.864  21.391  27.824  1.00  0.00    -0.206 F 
ATOM     66  C   UNL A   1      43.303  20.542  26.225  1.00  0.00     0.059 A 
ATOM     67  C   UNL A   1      45.103  21.861  25.351  1.00  0.00     0.059 A 
ATOM     68  F   UNL A   1      45.299  24.085  25.895  1.00  0.00    -0.206 F 
ATOM     69  C   UNL A   1      44.414  20.662  25.404  1.00  0.00     0.060 A 
BRANCH  69  70
ATOM     70  S   UNL A   1      44.934  19.256  24.405  1.00  0.00     0.124 S 
ATOM     71  O   UNL A   1      46.373  19.226  24.645  1.00  0.00    -0.237 OA
ATOM     72  O   UNL A   1      44.166  18.164  24.993  1.00  0.00    -0.237 OA
ATOM     73  O   UNL A   1      44.542  19.636  23.050  1.00  0.00    -0.744 OA
ENDBRANCH  69  70
ENDBRANCH  48  62
BRANCH  49  74
ATOM     74  C   UNL A   1      41.424  30.338  32.887  1.00  0.00     0.058 A 
ATOM     75  C   UNL A   1      40.275  29.564  33.154  1.00  0.00     0.135 A 
ATOM     76  C   UNL A   1      41.512  31.597  33.494  1.00  0.00     0.135 A 
ATOM     77  F   UNL A   1      40.134  28.355  32.585  1.00  0.00    -0.206 F 
ATOM     78  C   UNL A   1      39.345  29.942  34.114  1.00  0.00     0.059 A 
ATOM     79  C   UNL A   1      40.579  32.004  34.451  1.00  0.00     0.059 A 
ATOM     80  F   UNL A   1      42.578  32.382  33.275  1.00  0.00    -0.206 F 
ATOM     81  C   UNL A   1      39.545  31.135  34.805  1.00  0.00     0.060 A 
BRANCH  81  82
ATOM     82  S   UNL A   1      38.545  31.423  36.284  1.00  0.00     0.124 S 
ATOM     83  O   UNL A   1      39.486  32.119  37.154  1.00  0.00    -0.237 OA
ATOM     84  O   UNL A   1      37.455  32.243  35.756  1.00  0.00    -0.237 OA
ATOM     85  O   UNL A   1      38.173  30.078  36.704  1.00  0.00    -0.744 OA
ENDBRANCH  81  82
ENDBRANCH  49  74
BRANCH  61  86
ATOM     86  C   UNL A   1      44.996  24.045  33.544  1.00  0.00     0.058 A 
ATOM     87  C   UNL A   1      46.314  23.775  33.948  1.00  0.00     0.135 A 
ATOM     88  C   UNL A   1      44.018  23.097  33.910  1.00  0.00     0.135 A 
ATOM     89  F   UNL A   1      47.312  24.611  33.623  1.00  0.00    -0.206 F 
ATOM     90  C   UNL A   1      46.641  22.635  34.681  1.00  0.00     0.059 A 
ATOM     91  C   UNL A   1      44.329  21.931  34.603  1.00  0.00     0.059 A 
ATOM     92  F   UNL A   1      42.722  23.293  33.622  1.00  0.00    -0.206 F 
ATOM     93  C   UNL A   1      45.643  21.714  34.999  1.00  0.00     0.060 A 
BRANCH  93  94
ATOM     94  S   UNL A   1      46.066  20.212  35.903  1.00  0.00     0.124 S 
ATOM     95  O   UNL A   1      45.212  19.207  35.279  1.00  0.00    -0.237 OA
ATOM     96  O   UNL A   1      47.492  20.094  35.617  1.00  0.00    -0.237 OA
ATOM     97  O   UNL A   1      45.725  20.545  37.284  1.00  0.00    -0.744 OA
ENDBRANCH  93  94
ENDBRANCH  61  86
ENDBRANCH  35  36
ENDBRANCH  27  30
ENDBRANCH  25  26
ENDBRANCH   1  25
TORSDOF 16
ENDMDL
MODEL 2
REMARK VINA RESULT:     -14.1      5.060     11.319
REMARK SMILES Cc1ccc(Nc2c(Cl)cccc2Cl)c(CC(=O)NCCCNC(=O)c2ccc(-c3c4nc(c(-c5c(F)cc(S(=O)(=O)[O-])cc5F)c5ccc([nH]5)c(-c5c(F)cc(S(=O)(=O)[O-])cc5F)c5nc(c(-c6c(F)cc(S(=O)(=O)[O-])cc6F)c6ccc3[nH]6)C=C5)C=C4)cc2)c1
REMARK SMILES IDX 21 1 20 2 19 3 17 4 18 5 16 7 15 8 1 9 2 10 3 11 92 12 4 13
REMARK SMILES IDX 5 14 6 15 7 17 8 18 13 19 9 20 10 21 12 22 14 23 11 24 22 25
REMARK SMILES IDX 23 26 24 27 25 29 26 30 27 31 91 32 28 33 90 34 29 35 30 36
REMARK SMILES IDX 31 37 84 38 32 39 89 40 83 41 85 42 33 43 88 44 82 45 81 46
REMARK SMILES IDX 34 48 68 49 47 50 67 51 48 52 51 53 66 54 86 55 49 56 50 57
REMARK SMILES IDX 65 59 87 60 52 61 35 62 36 63 45 64 37 65 38 66 44 67 46 68
REMARK SMILES IDX 39 69 40 70 41 71 42 72 43 73 69 74 70 75 79 76 71 77 72 78
REMARK SMILES IDX 78 79 80 80 73 81 74 82 75 83 76 84 77 85 53 86 54 87 63 88
REMARK SMILES IDX 55 89 56 90 62 91 64 92 57 93 58 94 59 95 60 96 61 97
REMARK H PARENT 19 6 6 16 23 28 85 47 51 58
REMARK Flexibility Score: inf
ROOT
ATOM      1  C   UNL A   1      37.425  22.337  25.313  1.00  0.00     0.042 C 
ENDROOT
BRANCH   1   2
ATOM      2  C   UNL A   1      35.902  22.359  25.230  1.00  0.00     0.117 C 
BRANCH   2   3
ATOM      3  N   UNL A   1      35.413  23.065  24.052  1.00  0.00    -0.356 N 
ATOM      4  C   UNL A   1      34.763  24.262  23.969  1.00  0.00     0.224 C 
ATOM      5  O   UNL A   1      34.369  24.658  22.868  1.00  0.00    -0.275 OA
ATOM      6  H   UNL A   1      35.575  22.613  23.192  1.00  0.00     0.163 HD
BRANCH   4   7
ATOM      7  C   UNL A   1      34.495  25.096  25.211  1.00  0.00     0.137 C 
BRANCH   7   8
ATOM      8  C   UNL A   1      33.030  25.166  25.584  1.00  0.00    -0.015 A 
ATOM      9  C   UNL A   1      30.364  22.604  26.570  1.00  0.00     0.044 C 
ATOM     10  C   UNL A   1      31.033  23.903  26.237  1.00  0.00    -0.051 A 
ATOM     11  C   UNL A   1      30.275  25.062  26.089  1.00  0.00     0.005 A 
ATOM     12  C   UNL A   1      32.411  23.971  26.013  1.00  0.00     0.009 A 
ATOM     13  C   UNL A   1      30.885  26.263  25.717  1.00  0.00     0.026 A 
ATOM     14  C   UNL A   1      32.261  26.344  25.448  1.00  0.00     0.042 A 
BRANCH  14  15
ATOM     15  N   UNL A   1      32.861  27.575  25.092  1.00  0.00    -0.353 N 
ATOM     16  H   UNL A   1      33.584  27.519  24.426  1.00  0.00     0.167 HD
BRANCH  15  17
ATOM     17  C   UNL A   1      32.565  28.881  25.565  1.00  0.00     0.076 A 
ATOM     18  C   UNL A   1      33.226  29.471  26.661  1.00  0.00     0.066 A 
ATOM     19  C   UNL A   1      31.498  29.604  24.987  1.00  0.00     0.066 A 
ATOM     20  Cl  UNL A   1      34.614  28.743  27.401  1.00  0.00    -0.082 Cl
ATOM     21  C   UNL A   1      32.822  30.715  27.167  1.00  0.00     0.023 A 
ATOM     22  C   UNL A   1      31.102  30.849  25.489  1.00  0.00     0.023 A 
ATOM     23  Cl  UNL A   1      30.607  28.962  23.649  1.00  0.00    -0.082 Cl
ATOM     24  C   UNL A   1      31.757  31.400  26.586  1.00  0.00     0.003 A 
ENDBRANCH  15  17
ENDBRANCH  14  15
ENDBRANCH   7   8
ENDBRANCH   4   7
ENDBRANCH   2   3
ENDBRANCH   1   2
BRANCH   1  25
ATOM     25  C   UNL A   1      38.017  23.514  26.075  1.00  0.00     0.118 C 
BRANCH  25  26
ATOM     26  N   UNL A   1      39.274  23.170  26.734  1.00  0.00    -0.352 N 
ATOM     27  C   UNL A   1      40.187  24.024  27.329  1.00  0.00     0.251 C 
ATOM     28  H   UNL A   1      39.501  22.213  26.756  1.00  0.00     0.163 HD
ATOM     29  O   UNL A   1      41.279  23.658  27.715  1.00  0.00    -0.269 OA
BRANCH  27  30
ATOM     30  C   UNL A   1      39.717  25.401  27.577  1.00  0.00     0.039 A 
ATOM     31  C   UNL A   1      40.282  26.412  26.792  1.00  0.00     0.014 A 
ATOM     32  C   UNL A   1      39.022  25.686  28.748  1.00  0.00     0.014 A 
ATOM     33  C   UNL A   1      40.313  27.713  27.281  1.00  0.00     0.010 A 
ATOM     34  C   UNL A   1      39.127  26.962  29.268  1.00  0.00     0.010 A 
ATOM     35  C   UNL A   1      39.819  27.959  28.561  1.00  0.00    -0.014 A 
BRANCH  35  36
ATOM     36  C   UNL A   1      40.036  29.208  29.282  1.00  0.00     0.031 A 
ATOM     37  C   UNL A   1      39.010  30.272  29.232  1.00  0.00     0.074 A 
ATOM     38  C   UNL A   1      41.108  29.343  30.090  1.00  0.00     0.049 A 
ATOM     39  N   UNL A   1      39.173  31.477  29.657  1.00  0.00    -0.248 NA
ATOM     40  C   UNL A   1      37.705  30.049  28.627  1.00  0.00     0.031 C 
ATOM     41  C   UNL A   1      41.302  30.334  31.143  1.00  0.00     0.029 A 
ATOM     42  N   UNL A   1      42.358  28.727  29.956  1.00  0.00    -0.354 N 
ATOM     43  C   UNL A   1      37.946  32.104  29.644  1.00  0.00     0.074 A 
ATOM     44  C   UNL A   1      37.085  31.192  28.927  1.00  0.00     0.031 C 
ATOM     45  C   UNL A   1      42.616  30.468  31.375  1.00  0.00     0.029 A 
ATOM     46  C   UNL A   1      43.313  29.685  30.370  1.00  0.00     0.049 A 
ATOM     47  H   UNL A   1      42.536  27.813  29.639  1.00  0.00     0.167 HD
ATOM     48  C   UNL A   1      37.791  33.264  30.350  1.00  0.00     0.037 A 
ATOM     49  C   UNL A   1      44.216  30.188  29.476  1.00  0.00     0.037 A 
ATOM     50  C   UNL A   1      39.086  33.780  30.805  1.00  0.00     0.049 A 
ATOM     51  C   UNL A   1      44.077  31.675  29.201  1.00  0.00     0.074 A 
ATOM     52  C   UNL A   1      39.789  33.770  31.999  1.00  0.00     0.029 A 
ATOM     53  N   UNL A   1      39.992  34.192  29.843  1.00  0.00    -0.354 N 
ATOM     54  N   UNL A   1      43.181  32.449  29.750  1.00  0.00    -0.248 NA
ATOM     55  C   UNL A   1      44.901  32.394  28.226  1.00  0.00     0.031 C 
ATOM     56  C   UNL A   1      41.142  34.131  31.724  1.00  0.00     0.029 A 
ATOM     57  C   UNL A   1      41.257  34.367  30.366  1.00  0.00     0.049 A 
ATOM     58  H   UNL A   1      39.762  34.343  28.898  1.00  0.00     0.167 HD
ATOM     59  C   UNL A   1      43.239  33.693  29.180  1.00  0.00     0.074 A 
ATOM     60  C   UNL A   1      44.353  33.621  28.253  1.00  0.00     0.031 C 
ATOM     61  C   UNL A   1      42.347  34.685  29.458  1.00  0.00     0.037 A 
BRANCH  48  62
ATOM     62  C   UNL A   1      36.451  33.807  30.821  1.00  0.00     0.058 A 
ATOM     63  C   UNL A   1      35.496  34.268  29.886  1.00  0.00     0.135 A 
ATOM     64  C   UNL A   1      36.066  33.982  32.166  1.00  0.00     0.135 A 
ATOM     65  F   UNL A   1      35.659  34.085  28.569  1.00  0.00    -0.206 F 
ATOM     66  C   UNL A   1      34.331  34.950  30.253  1.00  0.00     0.059 A 
ATOM     67  C   UNL A   1      34.940  34.710  32.560  1.00  0.00     0.059 A 
ATOM     68  F   UNL A   1      36.727  33.401  33.171  1.00  0.00    -0.206 F 
ATOM     69  C   UNL A   1      34.081  35.205  31.594  1.00  0.00     0.060 A 
BRANCH  69  70
ATOM     70  S   UNL A   1      32.629  36.165  32.056  1.00  0.00     0.124 S 
ATOM     71  O   UNL A   1      32.293  36.834  30.803  1.00  0.00    -0.237 OA
ATOM     72  O   UNL A   1      31.703  35.126  32.494  1.00  0.00    -0.237 OA
ATOM     73  O   UNL A   1      33.124  37.046  33.112  1.00  0.00    -0.744 OA
ENDBRANCH  69  70
ENDBRANCH  48  62
BRANCH  49  74
ATOM     74  C   UNL A   1      44.685  29.154  28.511  1.00  0.00     0.058 A 
ATOM     75  C   UNL A   1      44.104  29.154  27.226  1.00  0.00     0.135 A 
ATOM     76  C   UNL A   1      45.925  28.520  28.660  1.00  0.00     0.135 A 
ATOM     77  F   UNL A   1      42.909  29.736  27.030  1.00  0.00    -0.206 F 
ATOM     78  C   UNL A   1      44.798  28.707  26.109  1.00  0.00     0.059 A 
ATOM     79  C   UNL A   1      46.634  28.048  27.552  1.00  0.00     0.059 A 
ATOM     80  F   UNL A   1      46.526  28.481  29.859  1.00  0.00    -0.206 F 
ATOM     81  C   UNL A   1      46.091  28.217  26.277  1.00  0.00     0.060 A 
BRANCH  81  82
ATOM     82  S   UNL A   1      47.100  27.990  24.793  1.00  0.00     0.124 S 
ATOM     83  O   UNL A   1      48.451  28.141  25.321  1.00  0.00    -0.237 OA
ATOM     84  O   UNL A   1      46.734  26.634  24.384  1.00  0.00    -0.237 OA
ATOM     85  O   UNL A   1      46.644  29.057  23.911  1.00  0.00    -0.744 OA
ENDBRANCH  81  82
ENDBRANCH  49  74
BRANCH  61  86
ATOM     86  C   UNL A   1      42.438  36.054  28.854  1.00  0.00     0.058 A 
ATOM     87  C   UNL A   1      41.879  36.347  27.599  1.00  0.00     0.135 A 
ATOM     88  C   UNL A   1      43.206  37.073  29.454  1.00  0.00     0.135 A 
ATOM     89  F   UNL A   1      41.153  35.427  26.944  1.00  0.00    -0.206 F 
ATOM     90  C   UNL A   1      42.064  37.583  26.980  1.00  0.00     0.059 A 
ATOM     91  C   UNL A   1      43.440  38.296  28.835  1.00  0.00     0.059 A 
ATOM     92  F   UNL A   1      43.734  36.912  30.678  1.00  0.00    -0.206 F 
ATOM     93  C   UNL A   1      42.852  38.550  27.602  1.00  0.00     0.060 A 
BRANCH  93  94
ATOM     94  S   UNL A   1      43.137  40.132  26.785  1.00  0.00     0.124 S 
ATOM     95  O   UNL A   1      41.871  40.377  26.102  1.00  0.00    -0.237 OA
ATOM     96  O   UNL A   1      43.417  41.000  27.924  1.00  0.00    -0.237 OA
ATOM     97  O   UNL A   1      44.271  39.856  25.907  1.00  0.00    -0.744 OA
ENDBRANCH  93  94
ENDBRANCH  61  86
ENDBRANCH  35  36
ENDBRANCH  27  30
ENDBRANCH  25  26
ENDBRANCH   1  25
TORSDOF 16
ENDMDL
MODEL 3
REMARK VINA RESULT:     -13.9      1.275      2.821
REMARK SMILES Cc1ccc(Nc2c(Cl)cccc2Cl)c(CC(=O)NCCCNC(=O)c2ccc(-c3c4nc(c(-c5c(F)cc(S(=O)(=O)[O-])cc5F)c5ccc([nH]5)c(-c5c(F)cc(S(=O)(=O)[O-])cc5F)c5nc(c(-c6c(F)cc(S(=O)(=O)[O-])cc6F)c6ccc3[nH]6)C=C5)C=C4)cc2)c1
REMARK SMILES IDX 21 1 20 2 19 3 17 4 18 5 16 7 15 8 1 9 2 10 3 11 92 12 4 13
REMARK SMILES IDX 5 14 6 15 7 17 8 18 13 19 9 20 10 21 12 22 14 23 11 24 22 25
REMARK SMILES IDX 23 26 24 27 25 29 26 30 27 31 91 32 28 33 90 34 29 35 30 36
REMARK SMILES IDX 31 37 84 38 32 39 89 40 83 41 85 42 33 43 88 44 82 45 81 46
REMARK SMILES IDX 34 48 68 49 47 50 67 51 48 52 51 53 66 54 86 55 49 56 50 57
REMARK SMILES IDX 65 59 87 60 52 61 35 62 36 63 45 64 37 65 38 66 44 67 46 68
REMARK SMILES IDX 39 69 40 70 41 71 42 72 43 73 69 74 70 75 79 76 71 77 72 78
REMARK SMILES IDX 78 79 80 80 73 81 74 82 75 83 76 84 77 85 53 86 54 87 63 88
REMARK SMILES IDX 55 89 56 90 62 91 64 92 57 93 58 94 59 95 60 96 61 97
REMARK H PARENT 19 6 6 16 23 28 85 47 51 58
REMARK Flexibility Score: inf
ROOT
ATOM      1  C   UNL A   1      33.025  29.790  26.823  1.00  0.00     0.042 C 
ENDROOT
BRANCH   1   2
ATOM      2  C   UNL A   1      32.593  28.785  25.759  1.00  0.00     0.117 C 
BRANCH   2   3
ATOM      3  N   UNL A   1      31.855  27.658  26.315  1.00  0.00    -0.356 N 
ATOM      4  C   UNL A   1      32.209  26.342  26.383  1.00  0.00     0.224 C 
ATOM      5  O   UNL A   1      31.403  25.525  26.838  1.00  0.00    -0.275 OA
ATOM      6  H   UNL A   1      30.974  27.878  26.698  1.00  0.00     0.163 HD
BRANCH   4   7
ATOM      7  C   UNL A   1      33.562  25.867  25.882  1.00  0.00     0.137 C 
BRANCH   7   8
ATOM      8  C   UNL A   1      33.505  25.224  24.512  1.00  0.00    -0.015 A 
ATOM      9  C   UNL A   1      31.949  26.164  21.145  1.00  0.00     0.044 C 
ATOM     10  C   UNL A   1      32.686  25.409  22.209  1.00  0.00    -0.051 A 
ATOM     11  C   UNL A   1      33.106  24.102  21.975  1.00  0.00     0.005 A 
ATOM     12  C   UNL A   1      32.917  25.972  23.467  1.00  0.00     0.009 A 
ATOM     13  C   UNL A   1      33.737  23.371  22.984  1.00  0.00     0.026 A 
ATOM     14  C   UNL A   1      33.943  23.903  24.268  1.00  0.00     0.042 A 
BRANCH  14  15
ATOM     15  N   UNL A   1      34.603  23.152  25.270  1.00  0.00    -0.353 N 
ATOM     16  H   UNL A   1      34.370  23.384  26.198  1.00  0.00     0.167 HD
BRANCH  15  17
ATOM     17  C   UNL A   1      35.555  22.110  25.120  1.00  0.00     0.076 A 
ATOM     18  C   UNL A   1      35.195  20.767  24.886  1.00  0.00     0.066 A 
ATOM     19  C   UNL A   1      36.927  22.388  25.303  1.00  0.00     0.066 A 
ATOM     20  Cl  UNL A   1      33.561  20.296  24.543  1.00  0.00    -0.082 Cl
ATOM     21  C   UNL A   1      36.161  19.751  24.861  1.00  0.00     0.023 A 
ATOM     22  C   UNL A   1      37.890  21.374  25.270  1.00  0.00     0.023 A 
ATOM     23  Cl  UNL A   1      37.475  24.001  25.617  1.00  0.00    -0.082 Cl
ATOM     24  C   UNL A   1      37.507  20.054  25.059  1.00  0.00     0.003 A 
ENDBRANCH  15  17
ENDBRANCH  14  15
ENDBRANCH   7   8
ENDBRANCH   4   7
ENDBRANCH   2   3
ENDBRANCH   1   2
BRANCH   1  25
ATOM     25  C   UNL A   1      34.424  29.544  27.369  1.00  0.00     0.118 C 
BRANCH  25  26
ATOM     26  N   UNL A   1      35.075  30.779  27.799  1.00  0.00    -0.352 N 
ATOM     27  C   UNL A   1      36.313  30.927  28.399  1.00  0.00     0.251 C 
ATOM     28  H   UNL A   1      34.568  31.609  27.644  1.00  0.00     0.163 HD
ATOM     29  O   UNL A   1      36.702  31.981  28.860  1.00  0.00    -0.269 OA
BRANCH  27  30
ATOM     30  C   UNL A   1      37.199  29.748  28.350  1.00  0.00     0.039 A 
ATOM     31  C   UNL A   1      37.322  29.002  29.528  1.00  0.00     0.014 A 
ATOM     32  C   UNL A   1      38.104  29.613  27.302  1.00  0.00     0.014 A 
ATOM     33  C   UNL A   1      38.471  28.247  29.736  1.00  0.00     0.010 A 
ATOM     34  C   UNL A   1      39.279  28.930  27.545  1.00  0.00     0.010 A 
ATOM     35  C   UNL A   1      39.485  28.294  28.781  1.00  0.00    -0.014 A 
BRANCH  35  36
ATOM     36  C   UNL A   1      40.828  27.770  29.005  1.00  0.00     0.031 A 
ATOM     37  C   UNL A   1      41.139  26.372  28.642  1.00  0.00     0.074 A 
ATOM     38  C   UNL A   1      41.812  28.593  29.424  1.00  0.00     0.049 A 
ATOM     39  N   UNL A   1      42.216  25.744  28.970  1.00  0.00    -0.248 NA
ATOM     40  C   UNL A   1      40.197  25.544  27.903  1.00  0.00     0.031 C 
ATOM     41  C   UNL A   1      43.250  28.358  29.357  1.00  0.00     0.029 A 
ATOM     42  N   UNL A   1      41.683  29.737  30.220  1.00  0.00    -0.354 N 
ATOM     43  C   UNL A   1      42.245  24.554  28.276  1.00  0.00     0.074 A 
ATOM     44  C   UNL A   1      40.931  24.451  27.685  1.00  0.00     0.031 C 
ATOM     45  C   UNL A   1      43.858  29.124  30.273  1.00  0.00     0.029 A 
ATOM     46  C   UNL A   1      42.818  29.757  31.063  1.00  0.00     0.049 A 
ATOM     47  H   UNL A   1      40.951  30.395  30.196  1.00  0.00     0.167 HD
ATOM     48  C   UNL A   1      43.424  23.867  28.194  1.00  0.00     0.037 A 
ATOM     49  C   UNL A   1      42.673  29.622  32.416  1.00  0.00     0.037 A 
ATOM     50  C   UNL A   1      44.421  24.424  29.113  1.00  0.00     0.049 A 
ATOM     51  C   UNL A   1      43.300  28.368  32.999  1.00  0.00     0.074 A 
ATOM     52  C   UNL A   1      45.516  25.266  28.990  1.00  0.00     0.029 A 
ATOM     53  N   UNL A   1      44.172  24.332  30.471  1.00  0.00    -0.354 N 
ATOM     54  N   UNL A   1      43.933  27.464  32.303  1.00  0.00    -0.248 NA
ATOM     55  C   UNL A   1      43.199  28.001  34.413  1.00  0.00     0.031 C 
ATOM     56  C   UNL A   1      45.881  25.717  30.295  1.00  0.00     0.029 A 
ATOM     57  C   UNL A   1      45.014  25.142  31.207  1.00  0.00     0.049 A 
ATOM     58  H   UNL A   1      43.478  23.758  30.867  1.00  0.00     0.167 HD
ATOM     59  C   UNL A   1      44.244  26.401  33.108  1.00  0.00     0.074 A 
ATOM     60  C   UNL A   1      43.794  26.795  34.429  1.00  0.00     0.031 C 
ATOM     61  C   UNL A   1      44.800  25.247  32.641  1.00  0.00     0.037 A 
BRANCH  48  62
ATOM     62  C   UNL A   1      43.743  22.838  27.121  1.00  0.00     0.058 A 
ATOM     63  C   UNL A   1      42.991  21.644  27.026  1.00  0.00     0.135 A 
ATOM     64  C   UNL A   1      44.814  22.914  26.208  1.00  0.00     0.135 A 
ATOM     65  F   UNL A   1      41.880  21.457  27.750  1.00  0.00    -0.206 F 
ATOM     66  C   UNL A   1      43.348  20.578  26.194  1.00  0.00     0.059 A 
ATOM     67  C   UNL A   1      45.226  21.844  25.408  1.00  0.00     0.059 A 
ATOM     68  F   UNL A   1      45.480  24.052  25.993  1.00  0.00    -0.206 F 
ATOM     69  C   UNL A   1      44.494  20.670  25.417  1.00  0.00     0.060 A 
BRANCH  69  70
ATOM     70  S   UNL A   1      45.001  19.259  24.418  1.00  0.00     0.124 S 
ATOM     71  O   UNL A   1      44.302  18.156  25.070  1.00  0.00    -0.237 OA
ATOM     72  O   UNL A   1      44.512  19.631  23.095  1.00  0.00    -0.237 OA
ATOM     73  O   UNL A   1      46.455  19.242  24.566  1.00  0.00    -0.744 OA
ENDBRANCH  69  70
ENDBRANCH  48  62
BRANCH  49  74
ATOM     74  C   UNL A   1      41.455  30.316  32.922  1.00  0.00     0.058 A 
ATOM     75  C   UNL A   1      40.322  29.521  33.194  1.00  0.00     0.135 A 
ATOM     76  C   UNL A   1      41.528  31.571  33.537  1.00  0.00     0.135 A 
ATOM     77  F   UNL A   1      40.195  28.313  32.618  1.00  0.00    -0.206 F 
ATOM     78  C   UNL A   1      39.396  29.875  34.167  1.00  0.00     0.059 A 
ATOM     79  C   UNL A   1      40.598  31.956  34.507  1.00  0.00     0.059 A 
ATOM     80  F   UNL A   1      42.578  32.376  33.313  1.00  0.00    -0.206 F 
ATOM     81  C   UNL A   1      39.583  31.066  34.865  1.00  0.00     0.060 A 
BRANCH  81  82
ATOM     82  S   UNL A   1      38.594  31.326  36.357  1.00  0.00     0.124 S 
ATOM     83  O   UNL A   1      38.225  29.962  36.717  1.00  0.00    -0.237 OA
ATOM     84  O   UNL A   1      39.558  31.972  37.248  1.00  0.00    -0.237 OA
ATOM     85  O   UNL A   1      37.503  32.174  35.892  1.00  0.00    -0.744 OA
ENDBRANCH  81  82
ENDBRANCH  49  74
BRANCH  61  86
ATOM     86  C   UNL A   1      45.168  24.101  33.534  1.00  0.00     0.058 A 
ATOM     87  C   UNL A   1      46.469  23.948  34.042  1.00  0.00     0.135 A 
ATOM     88  C   UNL A   1      44.264  23.051  33.793  1.00  0.00     0.135 A 
ATOM     89  F   UNL A   1      47.402  24.888  33.824  1.00  0.00    -0.206 F 
ATOM     90  C   UNL A   1      46.847  22.822  34.774  1.00  0.00     0.059 A 
ATOM     91  C   UNL A   1      44.632  21.899  34.481  1.00  0.00     0.059 A 
ATOM     92  F   UNL A   1      42.983  23.128  33.399  1.00  0.00    -0.206 F 
ATOM     93  C   UNL A   1      45.923  21.799  34.983  1.00  0.00     0.060 A 
BRANCH  93  94
ATOM     94  S   UNL A   1      46.419  20.318  35.885  1.00  0.00     0.124 S 
ATOM     95  O   UNL A   1      45.628  20.404  37.109  1.00  0.00    -0.237 OA
ATOM     96  O   UNL A   1      46.025  19.266  34.953  1.00  0.00    -0.237 OA
ATOM     97  O   UNL A   1      47.857  20.499  36.062  1.00  0.00    -0.744 OA
ENDBRANCH  93  94
ENDBRANCH  61  86
ENDBRANCH  35  36
ENDBRANCH  27  30
ENDBRANCH  25  26
ENDBRANCH   1  25
TORSDOF 16
ENDMDL
