MODEL 1
REMARK VINA RESULT:     -10.9      0.000      0.000
REMARK SMILES C[C@H]1CCC(F)(F)[C@@H]1C(=O)NCCCNC(=O)c1ccc(-c2c3nc(c(-c4c(F)cc(S(=O)(=O)[O-])cc4F)c4ccc([nH]4)c(-c4c(F)cc(S(=O)(=O)[O-])cc4F)c4nc(c(-c5c(F)cc(S(=O)(=O)[O-])cc5F)c5ccc2[nH]5)C=C4)C=C3)cc1
REMARK SMILES IDX 15 1 16 2 17 3 14 5 13 6 12 7 11 8 9 9 10 10 8 12 1 13 2 14
REMARK SMILES IDX 3 15 4 16 5 17 6 18 7 19 18 20 19 21 83 22 20 23 82 24 21 25
REMARK SMILES IDX 22 26 23 27 76 28 24 29 81 30 75 31 77 32 25 33 80 34 74 35
REMARK SMILES IDX 73 36 26 38 60 39 39 40 59 41 40 42 43 43 58 44 78 45 41 46
REMARK SMILES IDX 42 47 57 49 79 50 44 51 27 52 28 53 37 54 29 55 30 56 36 57
REMARK SMILES IDX 38 58 31 59 32 60 33 61 34 62 35 63 61 64 62 65 71 66 63 67
REMARK SMILES IDX 64 68 70 69 72 70 65 71 66 72 67 73 68 74 69 75 45 76 46 77
REMARK SMILES IDX 55 78 47 79 48 80 54 81 56 82 49 83 50 84 51 85 52 86 53 87
REMARK H PARENT 15 4 11 11 77 37 43 48
REMARK Flexibility Score: inf
ROOT
ATOM      1  N   UNL A   1      33.855  31.306  27.996  1.00  0.00    -0.352 N 
ATOM      2  C   UNL A   1      34.397  30.045  27.938  1.00  0.00     0.251 C 
ATOM      3  O   UNL A   1      33.690  29.095  27.609  1.00  0.00    -0.269 OA
ATOM      4  H   UNL A   1      32.875  31.344  27.903  1.00  0.00     0.163 HD
ENDROOT
BRANCH   1   5
ATOM      5  C   UNL A   1      34.507  32.597  28.177  1.00  0.00     0.118 C 
BRANCH   5   6
ATOM      6  C   UNL A   1      33.527  33.767  28.149  1.00  0.00     0.042 C 
BRANCH   6   7
ATOM      7  C   UNL A   1      33.899  34.915  29.079  1.00  0.00     0.117 C 
BRANCH   7   8
ATOM      8  N   UNL A   1      33.321  34.756  30.404  1.00  0.00    -0.356 N 
ATOM      9  C   UNL A   1      33.909  34.530  31.612  1.00  0.00     0.229 C 
ATOM     10  O   UNL A   1      33.170  34.417  32.591  1.00  0.00    -0.275 OA
ATOM     11  H   UNL A   1      32.340  34.821  30.433  1.00  0.00     0.163 HD
BRANCH   9  12
ATOM     12  C   UNL A   1      35.410  34.359  31.711  1.00  0.00     0.151 C 
ATOM     13  C   UNL A   1      37.195  32.766  30.847  1.00  0.00     0.009 C 
ATOM     14  C   UNL A   1      35.806  32.891  31.471  1.00  0.00     0.004 C 
ATOM     15  C   UNL A   1      35.755  32.225  32.862  1.00  0.00     0.010 C 
ATOM     16  C   UNL A   1      35.676  33.344  33.904  1.00  0.00     0.078 C 
ATOM     17  C   UNL A   1      35.886  34.622  33.122  1.00  0.00     0.259 C 
ATOM     18  F   UNL A   1      35.303  35.690  33.695  1.00  0.00    -0.206 F 
ATOM     19  F   UNL A   1      37.221  34.896  33.088  1.00  0.00    -0.206 F 
ENDBRANCH   9  12
ENDBRANCH   7   8
ENDBRANCH   6   7
ENDBRANCH   5   6
ENDBRANCH   1   5
BRANCH   2  20
ATOM     20  C   UNL A   1      35.828  29.834  28.244  1.00  0.00     0.039 A 
ATOM     21  C   UNL A   1      36.196  29.414  29.525  1.00  0.00     0.014 A 
ATOM     22  C   UNL A   1      36.805  30.052  27.271  1.00  0.00     0.014 A 
ATOM     23  C   UNL A   1      37.538  29.139  29.807  1.00  0.00     0.010 A 
ATOM     24  C   UNL A   1      38.126  29.701  27.527  1.00  0.00     0.010 A 
ATOM     25  C   UNL A   1      38.508  29.242  28.797  1.00  0.00    -0.014 A 
BRANCH  25  26
ATOM     26  C   UNL A   1      39.932  28.890  29.034  1.00  0.00     0.031 A 
ATOM     27  C   UNL A   1      40.881  29.931  29.561  1.00  0.00     0.074 A 
ATOM     28  C   UNL A   1      40.391  27.672  28.683  1.00  0.00     0.049 A 
ATOM     29  N   UNL A   1      42.180  29.872  29.701  1.00  0.00    -0.248 NA
ATOM     30  C   UNL A   1      40.293  31.222  29.950  1.00  0.00     0.031 C 
ATOM     31  C   UNL A   1      39.577  26.584  28.139  1.00  0.00     0.029 A 
ATOM     32  N   UNL A   1      41.660  27.150  28.716  1.00  0.00    -0.354 N 
ATOM     33  C   UNL A   1      42.568  31.126  30.160  1.00  0.00     0.074 A 
ATOM     34  C   UNL A   1      41.372  31.936  30.235  1.00  0.00     0.031 C 
ATOM     35  C   UNL A   1      40.362  25.518  27.912  1.00  0.00     0.029 A 
ATOM     36  C   UNL A   1      41.741  25.861  28.246  1.00  0.00     0.049 A 
ATOM     37  H   UNL A   1      42.441  27.652  29.046  1.00  0.00     0.167 HD
ATOM     38  C   UNL A   1      43.806  31.557  30.502  1.00  0.00     0.037 A 
ATOM     39  C   UNL A   1      42.807  25.050  28.090  1.00  0.00     0.037 A 
ATOM     40  C   UNL A   1      44.984  30.732  30.458  1.00  0.00     0.049 A 
ATOM     41  C   UNL A   1      44.174  25.554  28.463  1.00  0.00     0.074 A 
ATOM     42  C   UNL A   1      46.272  31.051  30.852  1.00  0.00     0.029 A 
ATOM     43  N   UNL A   1      45.020  29.427  29.988  1.00  0.00    -0.354 N 
ATOM     44  N   UNL A   1      44.517  26.724  28.947  1.00  0.00    -0.248 NA
ATOM     45  C   UNL A   1      45.302  24.631  28.267  1.00  0.00     0.031 C 
ATOM     46  C   UNL A   1      47.097  29.955  30.575  1.00  0.00     0.029 A 
ATOM     47  C   UNL A   1      46.312  28.934  30.059  1.00  0.00     0.049 A 
ATOM     48  H   UNL A   1      44.242  28.925  29.654  1.00  0.00     0.167 HD
ATOM     49  C   UNL A   1      45.891  26.662  29.155  1.00  0.00     0.074 A 
ATOM     50  C   UNL A   1      46.318  25.343  28.734  1.00  0.00     0.031 C 
ATOM     51  C   UNL A   1      46.720  27.610  29.658  1.00  0.00     0.037 A 
BRANCH  38  52
ATOM     52  C   UNL A   1      43.947  32.991  30.935  1.00  0.00     0.058 A 
ATOM     53  C   UNL A   1      43.700  33.397  32.257  1.00  0.00     0.135 A 
ATOM     54  C   UNL A   1      44.340  33.975  30.014  1.00  0.00     0.135 A 
ATOM     55  F   UNL A   1      43.310  32.500  33.177  1.00  0.00    -0.206 F 
ATOM     56  C   UNL A   1      43.788  34.732  32.638  1.00  0.00     0.059 A 
ATOM     57  C   UNL A   1      44.466  35.312  30.380  1.00  0.00     0.059 A 
ATOM     58  F   UNL A   1      44.594  33.646  28.737  1.00  0.00    -0.206 F 
ATOM     59  C   UNL A   1      44.164  35.684  31.689  1.00  0.00     0.060 A 
BRANCH  59  60
ATOM     60  S   UNL A   1      44.244  37.416  32.189  1.00  0.00     0.124 S 
ATOM     61  O   UNL A   1      45.663  37.562  32.500  1.00  0.00    -0.237 OA
ATOM     62  O   UNL A   1      43.785  38.111  30.992  1.00  0.00    -0.237 OA
ATOM     63  O   UNL A   1      43.341  37.481  33.335  1.00  0.00    -0.744 OA
ENDBRANCH  59  60
ENDBRANCH  38  52
BRANCH  39  64
ATOM     64  C   UNL A   1      42.613  23.662  27.593  1.00  0.00     0.058 A 
ATOM     65  C   UNL A   1      42.622  23.393  26.215  1.00  0.00     0.135 A 
ATOM     66  C   UNL A   1      42.451  22.579  28.470  1.00  0.00     0.135 A 
ATOM     67  F   UNL A   1      42.765  24.396  25.337  1.00  0.00    -0.206 F 
ATOM     68  C   UNL A   1      42.472  22.100  25.725  1.00  0.00     0.059 A 
ATOM     69  C   UNL A   1      42.322  21.274  28.004  1.00  0.00     0.059 A 
ATOM     70  F   UNL A   1      42.450  22.782  29.797  1.00  0.00    -0.206 F 
ATOM     71  C   UNL A   1      42.329  21.045  26.627  1.00  0.00     0.060 A 
BRANCH  71  72
ATOM     72  S   UNL A   1      42.203  19.365  25.979  1.00  0.00     0.124 S 
ATOM     73  O   UNL A   1      40.768  19.243  25.753  1.00  0.00    -0.237 OA
ATOM     74  O   UNL A   1      43.035  19.437  24.781  1.00  0.00    -0.237 OA
ATOM     75  O   UNL A   1      42.744  18.546  27.060  1.00  0.00    -0.744 OA
ENDBRANCH  71  72
ENDBRANCH  39  64
BRANCH  51  76
ATOM     76  C   UNL A   1      48.168  27.251  29.843  1.00  0.00     0.058 A 
ATOM     77  C   UNL A   1      49.152  27.633  28.920  1.00  0.00     0.135 A 
ATOM     78  C   UNL A   1      48.583  26.594  31.014  1.00  0.00     0.135 A 
ATOM     79  F   UNL A   1      48.806  28.254  27.781  1.00  0.00    -0.206 F 
ATOM     80  C   UNL A   1      50.500  27.376  29.151  1.00  0.00     0.059 A 
ATOM     81  C   UNL A   1      49.927  26.350  31.276  1.00  0.00     0.059 A 
ATOM     82  F   UNL A   1      47.681  26.213  31.932  1.00  0.00    -0.206 F 
ATOM     83  C   UNL A   1      50.879  26.743  30.336  1.00  0.00     0.060 A 
BRANCH  83  84
ATOM     84  S   UNL A   1      52.636  26.483  30.657  1.00  0.00     0.124 S 
ATOM     85  O   UNL A   1      53.140  26.187  29.320  1.00  0.00    -0.237 OA
ATOM     86  O   UNL A   1      53.044  27.768  31.218  1.00  0.00    -0.237 OA
ATOM     87  O   UNL A   1      52.650  25.365  31.595  1.00  0.00    -0.744 OA
ENDBRANCH  83  84
ENDBRANCH  51  76
ENDBRANCH  25  26
ENDBRANCH   2  20
TORSDOF 13
ENDMDL
MODEL 2
REMARK VINA RESULT:     -10.8      3.140      4.642
REMARK SMILES C[C@H]1CCC(F)(F)[C@@H]1C(=O)NCCCNC(=O)c1ccc(-c2c3nc(c(-c4c(F)cc(S(=O)(=O)[O-])cc4F)c4ccc([nH]4)c(-c4c(F)cc(S(=O)(=O)[O-])cc4F)c4nc(c(-c5c(F)cc(S(=O)(=O)[O-])cc5F)c5ccc2[nH]5)C=C4)C=C3)cc1
REMARK SMILES IDX 15 1 16 2 17 3 14 5 13 6 12 7 11 8 9 9 10 10 8 12 1 13 2 14
REMARK SMILES IDX 3 15 4 16 5 17 6 18 7 19 18 20 19 21 83 22 20 23 82 24 21 25
REMARK SMILES IDX 22 26 23 27 76 28 24 29 81 30 75 31 77 32 25 33 80 34 74 35
REMARK SMILES IDX 73 36 26 38 60 39 39 40 59 41 40 42 43 43 58 44 78 45 41 46
REMARK SMILES IDX 42 47 57 49 79 50 44 51 27 52 28 53 37 54 29 55 30 56 36 57
REMARK SMILES IDX 38 58 31 59 32 60 33 61 34 62 35 63 61 64 62 65 71 66 63 67
REMARK SMILES IDX 64 68 70 69 72 70 65 71 66 72 67 73 68 74 69 75 45 76 46 77
REMARK SMILES IDX 55 78 47 79 48 80 54 81 56 82 49 83 50 84 51 85 52 86 53 87
REMARK H PARENT 15 4 11 11 77 37 43 48
REMARK Flexibility Score: inf
ROOT
ATOM      1  N   UNL A   1      33.473  29.919  27.521  1.00  0.00    -0.352 N 
ATOM      2  C   UNL A   1      34.417  30.692  28.154  1.00  0.00     0.251 C 
ATOM      3  O   UNL A   1      34.110  31.808  28.567  1.00  0.00    -0.269 OA
ATOM      4  H   UNL A   1      32.628  30.380  27.312  1.00  0.00     0.163 HD
ENDROOT
BRANCH   1   5
ATOM      5  C   UNL A   1      33.532  28.521  27.110  1.00  0.00     0.118 C 
BRANCH   5   6
ATOM      6  C   UNL A   1      32.460  28.158  26.087  1.00  0.00     0.042 C 
BRANCH   6   7
ATOM      7  C   UNL A   1      31.693  29.353  25.535  1.00  0.00     0.117 C 
BRANCH   7   8
ATOM      8  N   UNL A   1      31.751  29.418  24.084  1.00  0.00    -0.356 N 
ATOM      9  C   UNL A   1      30.769  29.606  23.159  1.00  0.00     0.229 C 
ATOM     10  O   UNL A   1      31.097  29.601  21.972  1.00  0.00    -0.275 OA
ATOM     11  H   UNL A   1      32.652  29.306  23.706  1.00  0.00     0.163 HD
BRANCH   9  12
ATOM     12  C   UNL A   1      29.326  29.745  23.596  1.00  0.00     0.151 C 
ATOM     13  C   UNL A   1      27.101  28.585  23.178  1.00  0.00     0.009 C 
ATOM     14  C   UNL A   1      28.380  29.134  22.547  1.00  0.00     0.004 C 
ATOM     15  C   UNL A   1      28.071  30.282  21.563  1.00  0.00     0.010 C 
ATOM     16  C   UNL A   1      28.537  31.585  22.217  1.00  0.00     0.078 C 
ATOM     17  C   UNL A   1      28.915  31.200  23.630  1.00  0.00     0.259 C 
ATOM     18  F   UNL A   1      29.849  32.009  24.163  1.00  0.00    -0.206 F 
ATOM     19  F   UNL A   1      27.814  31.324  24.424  1.00  0.00    -0.206 F 
ENDBRANCH   9  12
ENDBRANCH   7   8
ENDBRANCH   6   7
ENDBRANCH   5   6
ENDBRANCH   1   5
BRANCH   2  20
ATOM     20  C   UNL A   1      35.788  30.177  28.359  1.00  0.00     0.039 A 
ATOM     21  C   UNL A   1      36.692  30.200  27.292  1.00  0.00     0.014 A 
ATOM     22  C   UNL A   1      36.181  29.668  29.598  1.00  0.00     0.014 A 
ATOM     23  C   UNL A   1      38.012  29.785  27.492  1.00  0.00     0.010 A 
ATOM     24  C   UNL A   1      37.512  29.332  29.817  1.00  0.00     0.010 A 
ATOM     25  C   UNL A   1      38.443  29.386  28.767  1.00  0.00    -0.014 A 
BRANCH  25  26
ATOM     26  C   UNL A   1      39.854  29.007  29.039  1.00  0.00     0.031 A 
ATOM     27  C   UNL A   1      40.809  30.031  29.589  1.00  0.00     0.074 A 
ATOM     28  C   UNL A   1      40.298  27.780  28.700  1.00  0.00     0.049 A 
ATOM     29  N   UNL A   1      42.102  29.948  29.761  1.00  0.00    -0.248 NA
ATOM     30  C   UNL A   1      40.234  31.333  29.963  1.00  0.00     0.031 C 
ATOM     31  C   UNL A   1      39.477  26.707  28.136  1.00  0.00     0.029 A 
ATOM     32  N   UNL A   1      41.556  27.235  28.765  1.00  0.00    -0.354 N 
ATOM     33  C   UNL A   1      42.502  31.195  30.228  1.00  0.00     0.074 A 
ATOM     34  C   UNL A   1      41.319  32.027  30.274  1.00  0.00     0.031 C 
ATOM     35  C   UNL A   1      40.249  25.627  27.929  1.00  0.00     0.029 A 
ATOM     36  C   UNL A   1      41.625  25.945  28.296  1.00  0.00     0.049 A 
ATOM     37  H   UNL A   1      42.338  27.724  29.114  1.00  0.00     0.167 HD
ATOM     38  C   UNL A   1      43.738  31.604  30.600  1.00  0.00     0.037 A 
ATOM     39  C   UNL A   1      42.679  25.114  28.167  1.00  0.00     0.037 A 
ATOM     40  C   UNL A   1      44.902  30.757  30.586  1.00  0.00     0.049 A 
ATOM     41  C   UNL A   1      44.046  25.593  28.574  1.00  0.00     0.074 A 
ATOM     42  C   UNL A   1      46.186  31.052  31.011  1.00  0.00     0.029 A 
ATOM     43  N   UNL A   1      44.926  29.451  30.118  1.00  0.00    -0.354 N 
ATOM     44  N   UNL A   1      44.398  26.757  29.066  1.00  0.00    -0.248 NA
ATOM     45  C   UNL A   1      45.161  24.649  28.406  1.00  0.00     0.031 C 
ATOM     46  C   UNL A   1      46.996  29.941  30.755  1.00  0.00     0.029 A 
ATOM     47  C   UNL A   1      46.206  28.934  30.221  1.00  0.00     0.049 A 
ATOM     48  H   UNL A   1      44.147  28.963  29.765  1.00  0.00     0.167 HD
ATOM     49  C   UNL A   1      45.766  26.669  29.307  1.00  0.00     0.074 A 
ATOM     50  C   UNL A   1      46.178  25.343  28.898  1.00  0.00     0.031 C 
ATOM     51  C   UNL A   1      46.599  27.603  29.830  1.00  0.00     0.037 A 
BRANCH  38  52
ATOM     52  C   UNL A   1      43.895  33.035  31.037  1.00  0.00     0.058 A 
ATOM     53  C   UNL A   1      43.586  33.454  32.341  1.00  0.00     0.135 A 
ATOM     54  C   UNL A   1      44.368  34.003  30.136  1.00  0.00     0.135 A 
ATOM     55  F   UNL A   1      43.119  32.573  33.241  1.00  0.00    -0.206 F 
ATOM     56  C   UNL A   1      43.690  34.788  32.722  1.00  0.00     0.059 A 
ATOM     57  C   UNL A   1      44.511  35.338  30.504  1.00  0.00     0.059 A 
ATOM     58  F   UNL A   1      44.685  33.661  28.877  1.00  0.00    -0.206 F 
ATOM     59  C   UNL A   1      44.146  35.724  31.793  1.00  0.00     0.060 A 
BRANCH  59  60
ATOM     60  S   UNL A   1      44.247  37.456  32.291  1.00  0.00     0.124 S 
ATOM     61  O   UNL A   1      43.307  37.490  33.407  1.00  0.00    -0.237 OA
ATOM     62  O   UNL A   1      45.655  37.600  32.645  1.00  0.00    -0.237 OA
ATOM     63  O   UNL A   1      43.826  38.179  31.094  1.00  0.00    -0.744 OA
ENDBRANCH  59  60
ENDBRANCH  38  52
BRANCH  39  64
ATOM     64  C   UNL A   1      42.472  23.730  27.666  1.00  0.00     0.058 A 
ATOM     65  C   UNL A   1      42.424  23.472  26.287  1.00  0.00     0.135 A 
ATOM     66  C   UNL A   1      42.353  22.638  28.539  1.00  0.00     0.135 A 
ATOM     67  F   UNL A   1      42.525  24.485  25.413  1.00  0.00    -0.206 F 
ATOM     68  C   UNL A   1      42.260  22.183  25.792  1.00  0.00     0.059 A 
ATOM     69  C   UNL A   1      42.211  21.336  28.067  1.00  0.00     0.059 A 
ATOM     70  F   UNL A   1      42.407  22.829  29.867  1.00  0.00    -0.206 F 
ATOM     71  C   UNL A   1      42.161  21.120  26.690  1.00  0.00     0.060 A 
BRANCH  71  72
ATOM     72  S   UNL A   1      42.017  19.445  26.032  1.00  0.00     0.124 S 
ATOM     73  O   UNL A   1      42.882  19.513  24.860  1.00  0.00    -0.237 OA
ATOM     74  O   UNL A   1      42.508  18.637  27.143  1.00  0.00    -0.237 OA
ATOM     75  O   UNL A   1      40.589  19.314  25.755  1.00  0.00    -0.744 OA
ENDBRANCH  71  72
ENDBRANCH  39  64
BRANCH  51  76
ATOM     76  C   UNL A   1      48.035  27.217  30.051  1.00  0.00     0.058 A 
ATOM     77  C   UNL A   1      49.034  27.502  29.110  1.00  0.00     0.135 A 
ATOM     78  C   UNL A   1      48.426  26.635  31.269  1.00  0.00     0.135 A 
ATOM     79  F   UNL A   1      48.712  28.048  27.926  1.00  0.00    -0.206 F 
ATOM     80  C   UNL A   1      50.373  27.225  29.368  1.00  0.00     0.059 A 
ATOM     81  C   UNL A   1      49.760  26.373  31.558  1.00  0.00     0.059 A 
ATOM     82  F   UNL A   1      47.508  26.347  32.207  1.00  0.00    -0.206 F 
ATOM     83  C   UNL A   1      50.728  26.669  30.599  1.00  0.00     0.060 A 
BRANCH  83  84
ATOM     84  S   UNL A   1      52.475  26.384  30.950  1.00  0.00     0.124 S 
ATOM     85  O   UNL A   1      53.030  26.258  29.606  1.00  0.00    -0.237 OA
ATOM     86  O   UNL A   1      52.848  27.591  31.680  1.00  0.00    -0.237 OA
ATOM     87  O   UNL A   1      52.468  25.158  31.743  1.00  0.00    -0.744 OA
ENDBRANCH  83  84
ENDBRANCH  51  76
ENDBRANCH  25  26
ENDBRANCH   2  20
TORSDOF 13
ENDMDL
MODEL 3
REMARK VINA RESULT:     -10.7      0.251      1.471
REMARK SMILES C[C@H]1CCC(F)(F)[C@@H]1C(=O)NCCCNC(=O)c1ccc(-c2c3nc(c(-c4c(F)cc(S(=O)(=O)[O-])cc4F)c4ccc([nH]4)c(-c4c(F)cc(S(=O)(=O)[O-])cc4F)c4nc(c(-c5c(F)cc(S(=O)(=O)[O-])cc5F)c5ccc2[nH]5)C=C4)C=C3)cc1
REMARK SMILES IDX 15 1 16 2 17 3 14 5 13 6 12 7 11 8 9 9 10 10 8 12 1 13 2 14
REMARK SMILES IDX 3 15 4 16 5 17 6 18 7 19 18 20 19 21 83 22 20 23 82 24 21 25
REMARK SMILES IDX 22 26 23 27 76 28 24 29 81 30 75 31 77 32 25 33 80 34 74 35
REMARK SMILES IDX 73 36 26 38 60 39 39 40 59 41 40 42 43 43 58 44 78 45 41 46
REMARK SMILES IDX 42 47 57 49 79 50 44 51 27 52 28 53 37 54 29 55 30 56 36 57
REMARK SMILES IDX 38 58 31 59 32 60 33 61 34 62 35 63 61 64 62 65 71 66 63 67
REMARK SMILES IDX 64 68 70 69 72 70 65 71 66 72 67 73 68 74 69 75 45 76 46 77
REMARK SMILES IDX 55 78 47 79 48 80 54 81 56 82 49 83 50 84 51 85 52 86 53 87
REMARK H PARENT 15 4 11 11 77 37 43 48
REMARK Flexibility Score: inf
ROOT
ATOM      1  N   UNL A   1      34.007  31.241  28.135  1.00  0.00    -0.352 N 
ATOM      2  C   UNL A   1      34.570  29.994  28.007  1.00  0.00     0.251 C 
ATOM      3  O   UNL A   1      33.881  29.053  27.621  1.00  0.00    -0.269 OA
ATOM      4  H   UNL A   1      33.027  31.268  28.041  1.00  0.00     0.163 HD
ENDROOT
BRANCH   1   5
ATOM      5  C   UNL A   1      34.638  32.530  28.393  1.00  0.00     0.118 C 
BRANCH   5   6
ATOM      6  C   UNL A   1      33.688  33.707  28.188  1.00  0.00     0.042 C 
BRANCH   6   7
ATOM      7  C   UNL A   1      33.906  34.861  29.160  1.00  0.00     0.117 C 
BRANCH   7   8
ATOM      8  N   UNL A   1      33.377  34.569  30.482  1.00  0.00    -0.356 N 
ATOM      9  C   UNL A   1      34.012  34.295  31.656  1.00  0.00     0.229 C 
ATOM     10  O   UNL A   1      33.310  34.064  32.641  1.00  0.00    -0.275 OA
ATOM     11  H   UNL A   1      32.395  34.568  30.539  1.00  0.00     0.163 HD
BRANCH   9  12
ATOM     12  C   UNL A   1      35.523  34.215  31.706  1.00  0.00     0.151 C 
ATOM     13  C   UNL A   1      37.362  32.631  30.943  1.00  0.00     0.009 C 
ATOM     14  C   UNL A   1      35.992  32.752  31.612  1.00  0.00     0.004 C 
ATOM     15  C   UNL A   1      36.033  32.245  33.068  1.00  0.00     0.010 C 
ATOM     16  C   UNL A   1      35.931  33.468  33.983  1.00  0.00     0.078 C 
ATOM     17  C   UNL A   1      36.037  34.659  33.057  1.00  0.00     0.259 C 
ATOM     18  F   UNL A   1      35.416  35.753  33.535  1.00  0.00    -0.206 F 
ATOM     19  F   UNL A   1      37.352  34.998  32.934  1.00  0.00    -0.206 F 
ENDBRANCH   9  12
ENDBRANCH   7   8
ENDBRANCH   6   7
ENDBRANCH   5   6
ENDBRANCH   1   5
BRANCH   2  20
ATOM     20  C   UNL A   1      36.004  29.789  28.306  1.00  0.00     0.039 A 
ATOM     21  C   UNL A   1      36.378  29.343  29.576  1.00  0.00     0.014 A 
ATOM     22  C   UNL A   1      36.978  30.039  27.337  1.00  0.00     0.014 A 
ATOM     23  C   UNL A   1      37.723  29.074  29.849  1.00  0.00     0.010 A 
ATOM     24  C   UNL A   1      38.302  29.695  27.583  1.00  0.00     0.010 A 
ATOM     25  C   UNL A   1      38.690  29.209  28.841  1.00  0.00    -0.014 A 
BRANCH  25  26
ATOM     26  C   UNL A   1      40.118  28.864  29.068  1.00  0.00     0.031 A 
ATOM     27  C   UNL A   1      41.062  29.906  29.603  1.00  0.00     0.074 A 
ATOM     28  C   UNL A   1      40.584  27.654  28.701  1.00  0.00     0.049 A 
ATOM     29  N   UNL A   1      42.362  29.855  29.736  1.00  0.00    -0.248 NA
ATOM     30  C   UNL A   1      40.466  31.189  30.009  1.00  0.00     0.031 C 
ATOM     31  C   UNL A   1      39.775  26.567  28.147  1.00  0.00     0.029 A 
ATOM     32  N   UNL A   1      41.857  27.141  28.722  1.00  0.00    -0.354 N 
ATOM     33  C   UNL A   1      42.743  31.107  30.208  1.00  0.00     0.074 A 
ATOM     34  C   UNL A   1      41.541  31.907  30.297  1.00  0.00     0.031 C 
ATOM     35  C   UNL A   1      40.567  25.509  27.904  1.00  0.00     0.029 A 
ATOM     36  C   UNL A   1      41.945  25.858  28.236  1.00  0.00     0.049 A 
ATOM     37  H   UNL A   1      42.635  27.645  29.055  1.00  0.00     0.167 HD
ATOM     38  C   UNL A   1      43.979  31.543  30.549  1.00  0.00     0.037 A 
ATOM     39  C   UNL A   1      43.016  25.057  28.066  1.00  0.00     0.037 A 
ATOM     40  C   UNL A   1      45.163  30.727  30.490  1.00  0.00     0.049 A 
ATOM     41  C   UNL A   1      44.381  25.567  28.439  1.00  0.00     0.074 A 
ATOM     42  C   UNL A   1      46.450  31.050  30.882  1.00  0.00     0.029 A 
ATOM     43  N   UNL A   1      45.206  29.428  30.005  1.00  0.00    -0.354 N 
ATOM     44  N   UNL A   1      44.718  26.733  28.936  1.00  0.00    -0.248 NA
ATOM     45  C   UNL A   1      45.515  24.654  28.228  1.00  0.00     0.031 C 
ATOM     46  C   UNL A   1      47.281  29.964  30.589  1.00  0.00     0.029 A 
ATOM     47  C   UNL A   1      46.502  28.944  30.065  1.00  0.00     0.049 A 
ATOM     48  H   UNL A   1      44.430  28.923  29.669  1.00  0.00     0.167 HD
ATOM     49  C   UNL A   1      46.093  26.679  29.136  1.00  0.00     0.074 A 
ATOM     50  C   UNL A   1      46.528  25.368  28.699  1.00  0.00     0.031 C 
ATOM     51  C   UNL A   1      46.918  27.627  29.646  1.00  0.00     0.037 A 
BRANCH  38  52
ATOM     52  C   UNL A   1      44.111  32.973  30.999  1.00  0.00     0.058 A 
ATOM     53  C   UNL A   1      44.404  34.012  30.100  1.00  0.00     0.135 A 
ATOM     54  C   UNL A   1      43.938  33.309  32.351  1.00  0.00     0.135 A 
ATOM     55  F   UNL A   1      44.592  33.746  28.798  1.00  0.00    -0.206 F 
ATOM     56  C   UNL A   1      44.570  35.323  30.533  1.00  0.00     0.059 A 
ATOM     57  C   UNL A   1      44.067  34.620  32.801  1.00  0.00     0.059 A 
ATOM     58  F   UNL A   1      43.651  32.359  33.255  1.00  0.00    -0.206 F 
ATOM     59  C   UNL A   1      44.408  35.616  31.888  1.00  0.00     0.060 A 
BRANCH  59  60
ATOM     60  S   UNL A   1      44.657  37.316  32.439  1.00  0.00     0.124 S 
ATOM     61  O   UNL A   1      46.105  37.451  32.315  1.00  0.00    -0.237 OA
ATOM     62  O   UNL A   1      43.866  38.078  31.478  1.00  0.00    -0.237 OA
ATOM     63  O   UNL A   1      44.142  37.309  33.806  1.00  0.00    -0.744 OA
ENDBRANCH  59  60
ENDBRANCH  38  52
BRANCH  39  64
ATOM     64  C   UNL A   1      42.830  23.673  27.554  1.00  0.00     0.058 A 
ATOM     65  C   UNL A   1      42.649  22.604  28.445  1.00  0.00     0.135 A 
ATOM     66  C   UNL A   1      42.796  23.393  26.180  1.00  0.00     0.135 A 
ATOM     67  F   UNL A   1      42.681  22.821  29.768  1.00  0.00    -0.206 F 
ATOM     68  C   UNL A   1      42.444  21.305  27.992  1.00  0.00     0.059 A 
ATOM     69  C   UNL A   1      42.571  22.105  25.702  1.00  0.00     0.059 A 
ATOM     70  F   UNL A   1      42.951  24.383  25.287  1.00  0.00    -0.206 F 
ATOM     71  C   UNL A   1      42.400  21.066  26.618  1.00  0.00     0.060 A 
BRANCH  71  72
ATOM     72  S   UNL A   1      42.067  19.387  26.044  1.00  0.00     0.124 S 
ATOM     73  O   UNL A   1      42.906  19.310  24.854  1.00  0.00    -0.237 OA
ATOM     74  O   UNL A   1      42.499  18.583  27.184  1.00  0.00    -0.237 OA
ATOM     75  O   UNL A   1      40.627  19.394  25.802  1.00  0.00    -0.744 OA
ENDBRANCH  71  72
ENDBRANCH  39  64
BRANCH  51  76
ATOM     76  C   UNL A   1      48.368  27.276  29.821  1.00  0.00     0.058 A 
ATOM     77  C   UNL A   1      49.344  27.663  28.891  1.00  0.00     0.135 A 
ATOM     78  C   UNL A   1      48.797  26.622  30.989  1.00  0.00     0.135 A 
ATOM     79  F   UNL A   1      48.986  28.281  27.754  1.00  0.00    -0.206 F 
ATOM     80  C   UNL A   1      50.695  27.414  29.111  1.00  0.00     0.059 A 
ATOM     81  C   UNL A   1      50.144  26.387  31.242  1.00  0.00     0.059 A 
ATOM     82  F   UNL A   1      47.903  26.237  31.915  1.00  0.00    -0.206 F 
ATOM     83  C   UNL A   1      51.086  26.784  30.294  1.00  0.00     0.060 A 
BRANCH  83  84
ATOM     84  S   UNL A   1      52.848  26.535  30.602  1.00  0.00     0.124 S 
ATOM     85  O   UNL A   1      52.827  25.440  31.567  1.00  0.00    -0.237 OA
ATOM     86  O   UNL A   1      53.352  26.200  29.274  1.00  0.00    -0.237 OA
ATOM     87  O   UNL A   1      53.287  27.825  31.125  1.00  0.00    -0.744 OA
ENDBRANCH  83  84
ENDBRANCH  51  76
ENDBRANCH  25  26
ENDBRANCH   2  20
TORSDOF 13
ENDMDL
