MODEL 1
REMARK VINA RESULT:     -13.4      0.000      0.000
REMARK SMILES O=C(NCCCNC(=O)c1nn(Cc2ccc(F)cc2)c2ccccc12)c1ccc(-c2c3nc(c(-c4c(F)cc(S(=O)(=O)[O-])cc4F)c4ccc([nH]4)c(-c4c(F)cc(S(=O)(=O)[O-])cc4F)c4nc(c(-c5c(F)cc(S(=O)(=O)[O-])cc5F)c5ccc2[nH]5)C=C4)C=C3)cc1
REMARK SMILES IDX 4 1 3 2 1 3 2 4 27 6 28 7 92 8 29 9 91 10 30 11 31 12 32 13
REMARK SMILES IDX 85 14 33 15 90 16 84 17 86 18 34 19 89 20 83 21 82 22 35 24
REMARK SMILES IDX 69 25 48 26 68 27 49 28 52 29 67 30 87 31 50 32 51 33 66 35
REMARK SMILES IDX 88 36 53 37 36 38 37 39 46 40 38 41 39 42 45 43 47 44 40 45
REMARK SMILES IDX 41 46 42 47 43 48 44 49 70 50 71 51 80 52 72 53 73 54 79 55
REMARK SMILES IDX 81 56 74 57 75 58 76 59 77 60 78 61 54 62 55 63 64 64 56 65
REMARK SMILES IDX 57 66 63 67 65 68 58 69 59 70 60 71 61 72 62 73 5 74 6 75
REMARK SMILES IDX 7 76 8 77 9 79 10 80 11 81 26 82 12 83 21 84 25 85 22 86
REMARK SMILES IDX 24 87 23 88 13 89 14 90 15 91 20 92 16 93 19 94 17 95 18 96
REMARK H PARENT 3 5 86 23 52 34 7 78
REMARK Flexibility Score: inf
ROOT
ATOM      1  C   UNL A   1      39.716  21.626  26.370  1.00  0.00     0.118 C 
ENDROOT
BRANCH   1   2
ATOM      2  N   UNL A   1      41.082  21.798  25.850  1.00  0.00    -0.352 N 
ATOM      3  O   UNL A   1      42.841  23.077  25.192  1.00  0.00    -0.269 OA
ATOM      4  C   UNL A   1      41.860  22.952  25.875  1.00  0.00     0.251 C 
ATOM      5  H   UNL A   1      41.493  21.005  25.436  1.00  0.00     0.163 HD
BRANCH   4   6
ATOM      6  C   UNL A   1      41.397  24.036  26.779  1.00  0.00     0.039 A 
ATOM      7  C   UNL A   1      41.955  24.227  28.041  1.00  0.00     0.014 A 
ATOM      8  C   UNL A   1      40.569  24.987  26.210  1.00  0.00     0.014 A 
ATOM      9  C   UNL A   1      41.773  25.463  28.667  1.00  0.00     0.010 A 
ATOM     10  C   UNL A   1      40.616  26.262  26.718  1.00  0.00     0.010 A 
ATOM     11  C   UNL A   1      41.144  26.515  27.981  1.00  0.00    -0.014 A 
BRANCH  11  12
ATOM     12  C   UNL A   1      41.065  27.870  28.547  1.00  0.00     0.031 A 
ATOM     13  C   UNL A   1      42.153  28.835  28.195  1.00  0.00     0.074 A 
ATOM     14  C   UNL A   1      40.016  28.339  29.265  1.00  0.00     0.049 A 
ATOM     15  N   UNL A   1      43.080  29.293  28.973  1.00  0.00    -0.248 NA
ATOM     16  C   UNL A   1      42.271  29.300  26.804  1.00  0.00     0.031 C 
ATOM     17  C   UNL A   1      38.717  27.716  29.557  1.00  0.00     0.029 A 
ATOM     18  N   UNL A   1      39.880  29.567  29.840  1.00  0.00    -0.354 N 
ATOM     19  C   UNL A   1      43.789  30.242  28.239  1.00  0.00     0.074 A 
ATOM     20  C   UNL A   1      43.332  30.109  26.877  1.00  0.00     0.031 C 
ATOM     21  C   UNL A   1      37.851  28.643  30.013  1.00  0.00     0.029 A 
ATOM     22  C   UNL A   1      38.595  29.856  30.268  1.00  0.00     0.049 A 
ATOM     23  H   UNL A   1      40.631  30.196  29.942  1.00  0.00     0.167 HD
ATOM     24  C   UNL A   1      44.578  31.183  28.837  1.00  0.00     0.037 A 
ATOM     25  C   UNL A   1      38.150  30.994  30.844  1.00  0.00     0.037 A 
ATOM     26  C   UNL A   1      44.831  30.863  30.220  1.00  0.00     0.049 A 
ATOM     27  C   UNL A   1      39.327  31.645  31.465  1.00  0.00     0.074 A 
ATOM     28  C   UNL A   1      45.418  29.800  30.880  1.00  0.00     0.029 A 
ATOM     29  N   UNL A   1      44.133  31.549  31.184  1.00  0.00    -0.354 N 
ATOM     30  N   UNL A   1      39.990  31.142  32.473  1.00  0.00    -0.248 NA
ATOM     31  C   UNL A   1      40.034  32.656  30.697  1.00  0.00     0.031 C 
ATOM     32  C   UNL A   1      44.629  29.618  32.055  1.00  0.00     0.029 A 
ATOM     33  C   UNL A   1      43.648  30.612  32.062  1.00  0.00     0.049 A 
ATOM     34  H   UNL A   1      44.005  32.524  31.235  1.00  0.00     0.167 HD
ATOM     35  C   UNL A   1      41.317  31.454  32.218  1.00  0.00     0.074 A 
ATOM     36  C   UNL A   1      41.269  32.475  31.174  1.00  0.00     0.031 C 
ATOM     37  C   UNL A   1      42.341  30.675  32.682  1.00  0.00     0.037 A 
BRANCH  24  38
ATOM     38  C   UNL A   1      44.887  32.549  28.270  1.00  0.00     0.058 A 
ATOM     39  C   UNL A   1      46.210  32.878  27.902  1.00  0.00     0.135 A 
ATOM     40  C   UNL A   1      43.985  33.634  28.329  1.00  0.00     0.135 A 
ATOM     41  F   UNL A   1      47.155  31.928  27.825  1.00  0.00    -0.206 F 
ATOM     42  C   UNL A   1      46.620  34.195  27.674  1.00  0.00     0.059 A 
ATOM     43  C   UNL A   1      44.360  34.947  28.055  1.00  0.00     0.059 A 
ATOM     44  F   UNL A   1      42.725  33.480  28.753  1.00  0.00    -0.206 F 
ATOM     45  C   UNL A   1      45.689  35.224  27.773  1.00  0.00     0.060 A 
BRANCH  45  46
ATOM     46  S   UNL A   1      46.239  36.934  27.611  1.00  0.00     0.124 S 
ATOM     47  O   UNL A   1      47.466  36.771  26.840  1.00  0.00    -0.237 OA
ATOM     48  O   UNL A   1      45.118  37.551  26.909  1.00  0.00    -0.237 OA
ATOM     49  O   UNL A   1      46.414  37.363  28.996  1.00  0.00    -0.744 OA
ENDBRANCH  45  46
ENDBRANCH  24  38
BRANCH  25  50
ATOM     50  C   UNL A   1      36.855  31.665  30.585  1.00  0.00     0.058 A 
ATOM     51  C   UNL A   1      36.039  32.089  31.645  1.00  0.00     0.135 A 
ATOM     52  C   UNL A   1      36.521  32.151  29.303  1.00  0.00     0.135 A 
ATOM     53  F   UNL A   1      36.294  31.680  32.897  1.00  0.00    -0.206 F 
ATOM     54  C   UNL A   1      34.993  32.994  31.457  1.00  0.00     0.059 A 
ATOM     55  C   UNL A   1      35.475  33.045  29.088  1.00  0.00     0.059 A 
ATOM     56  F   UNL A   1      37.264  31.843  28.228  1.00  0.00    -0.206 F 
ATOM     57  C   UNL A   1      34.736  33.489  30.178  1.00  0.00     0.060 A 
BRANCH  57  58
ATOM     58  S   UNL A   1      33.525  34.813  29.970  1.00  0.00     0.124 S 
ATOM     59  O   UNL A   1      34.351  35.899  29.452  1.00  0.00    -0.237 OA
ATOM     60  O   UNL A   1      32.585  34.220  29.025  1.00  0.00    -0.237 OA
ATOM     61  O   UNL A   1      33.003  35.015  31.319  1.00  0.00    -0.744 OA
ENDBRANCH  57  58
ENDBRANCH  25  50
BRANCH  37  62
ATOM     62  C   UNL A   1      42.042  29.632  33.731  1.00  0.00     0.058 A 
ATOM     63  C   UNL A   1      41.626  28.318  33.448  1.00  0.00     0.135 A 
ATOM     64  C   UNL A   1      42.357  29.921  35.069  1.00  0.00     0.135 A 
ATOM     65  F   UNL A   1      41.403  27.923  32.188  1.00  0.00    -0.206 F 
ATOM     66  C   UNL A   1      41.497  27.351  34.448  1.00  0.00     0.059 A 
ATOM     67  C   UNL A   1      42.264  28.965  36.078  1.00  0.00     0.059 A 
ATOM     68  F   UNL A   1      42.819  31.138  35.401  1.00  0.00    -0.206 F 
ATOM     69  C   UNL A   1      41.824  27.682  35.762  1.00  0.00     0.060 A 
BRANCH  69  70
ATOM     70  S   UNL A   1      41.744  26.404  37.037  1.00  0.00     0.124 S 
ATOM     71  O   UNL A   1      42.921  26.700  37.845  1.00  0.00    -0.237 OA
ATOM     72  O   UNL A   1      40.456  26.669  37.673  1.00  0.00    -0.237 OA
ATOM     73  O   UNL A   1      41.807  25.157  36.276  1.00  0.00    -0.744 OA
ENDBRANCH  69  70
ENDBRANCH  37  62
ENDBRANCH  11  12
ENDBRANCH   4   6
ENDBRANCH   1   2
BRANCH   1  74
ATOM     74  C   UNL A   1      38.793  20.869  25.443  1.00  0.00     0.042 C 
BRANCH  74  75
ATOM     75  C   UNL A   1      37.544  21.664  25.080  1.00  0.00     0.118 C 
BRANCH  75  76
ATOM     76  N   UNL A   1      36.771  22.133  26.225  1.00  0.00    -0.351 N 
ATOM     77  C   UNL A   1      35.407  22.351  26.312  1.00  0.00     0.272 C 
ATOM     78  H   UNL A   1      37.286  22.320  27.042  1.00  0.00     0.163 HD
ATOM     79  O   UNL A   1      34.932  22.759  27.369  1.00  0.00    -0.267 OA
BRANCH  77  80
ATOM     80  C   UNL A   1      34.594  22.060  25.128  1.00  0.00     0.158 A 
ATOM     81  N   UNL A   1      34.016  20.861  24.941  1.00  0.00    -0.166 NA
ATOM     82  C   UNL A   1      34.222  22.980  24.103  1.00  0.00     0.033 A 
ATOM     83  N   UNL A   1      33.218  21.039  23.868  1.00  0.00    -0.260 N 
ATOM     84  C   UNL A   1      33.318  22.290  23.301  1.00  0.00     0.069 A 
ATOM     85  C   UNL A   1      34.494  24.337  23.832  1.00  0.00     0.013 A 
ATOM     86  C   UNL A   1      32.683  22.903  22.212  1.00  0.00     0.028 A 
ATOM     87  C   UNL A   1      33.784  24.984  22.819  1.00  0.00     0.001 A 
ATOM     88  C   UNL A   1      32.893  24.273  22.021  1.00  0.00     0.002 A 
BRANCH  83  89
ATOM     89  C   UNL A   1      32.359  19.937  23.443  1.00  0.00     0.180 C 
BRANCH  89  90
ATOM     90  C   UNL A   1      32.795  18.589  23.987  1.00  0.00    -0.026 A 
ATOM     91  C   UNL A   1      32.424  18.159  25.272  1.00  0.00     0.008 A 
ATOM     92  C   UNL A   1      33.546  17.710  23.186  1.00  0.00     0.008 A 
ATOM     93  C   UNL A   1      32.786  16.898  25.746  1.00  0.00     0.039 A 
ATOM     94  C   UNL A   1      33.900  16.440  23.656  1.00  0.00     0.039 A 
ATOM     95  C   UNL A   1      33.515  16.046  24.930  1.00  0.00     0.123 A 
ATOM     96  F   UNL A   1      33.842  14.827  25.378  1.00  0.00    -0.207 F 
ENDBRANCH  89  90
ENDBRANCH  83  89
ENDBRANCH  77  80
ENDBRANCH  75  76
ENDBRANCH  74  75
ENDBRANCH   1  74
TORSDOF 15
ENDMDL
MODEL 2
REMARK VINA RESULT:     -13.2      1.836      3.378
REMARK SMILES O=C(NCCCNC(=O)c1nn(Cc2ccc(F)cc2)c2ccccc12)c1ccc(-c2c3nc(c(-c4c(F)cc(S(=O)(=O)[O-])cc4F)c4ccc([nH]4)c(-c4c(F)cc(S(=O)(=O)[O-])cc4F)c4nc(c(-c5c(F)cc(S(=O)(=O)[O-])cc5F)c5ccc2[nH]5)C=C4)C=C3)cc1
REMARK SMILES IDX 4 1 3 2 1 3 2 4 27 6 28 7 92 8 29 9 91 10 30 11 31 12 32 13
REMARK SMILES IDX 85 14 33 15 90 16 84 17 86 18 34 19 89 20 83 21 82 22 35 24
REMARK SMILES IDX 69 25 48 26 68 27 49 28 52 29 67 30 87 31 50 32 51 33 66 35
REMARK SMILES IDX 88 36 53 37 36 38 37 39 46 40 38 41 39 42 45 43 47 44 40 45
REMARK SMILES IDX 41 46 42 47 43 48 44 49 70 50 71 51 80 52 72 53 73 54 79 55
REMARK SMILES IDX 81 56 74 57 75 58 76 59 77 60 78 61 54 62 55 63 64 64 56 65
REMARK SMILES IDX 57 66 63 67 65 68 58 69 59 70 60 71 61 72 62 73 5 74 6 75
REMARK SMILES IDX 7 76 8 77 9 79 10 80 11 81 26 82 12 83 21 84 25 85 22 86
REMARK SMILES IDX 24 87 23 88 13 89 14 90 15 91 20 92 16 93 19 94 17 95 18 96
REMARK H PARENT 3 5 86 23 52 34 7 78
REMARK Flexibility Score: inf
ROOT
ATOM      1  C   UNL A   1      39.148  21.834  26.289  1.00  0.00     0.118 C 
ENDROOT
BRANCH   1   2
ATOM      2  N   UNL A   1      40.553  21.782  25.852  1.00  0.00    -0.352 N 
ATOM      3  O   UNL A   1      42.559  22.748  25.399  1.00  0.00    -0.269 OA
ATOM      4  C   UNL A   1      41.529  22.759  26.021  1.00  0.00     0.251 C 
ATOM      5  H   UNL A   1      40.834  20.961  25.387  1.00  0.00     0.163 HD
BRANCH   4   6
ATOM      6  C   UNL A   1      41.220  23.834  26.998  1.00  0.00     0.039 A 
ATOM      7  C   UNL A   1      41.963  24.000  28.165  1.00  0.00     0.014 A 
ATOM      8  C   UNL A   1      40.329  24.802  26.572  1.00  0.00     0.014 A 
ATOM      9  C   UNL A   1      41.893  25.229  28.827  1.00  0.00     0.010 A 
ATOM     10  C   UNL A   1      40.467  26.068  27.084  1.00  0.00     0.010 A 
ATOM     11  C   UNL A   1      41.181  26.297  28.257  1.00  0.00    -0.014 A 
BRANCH  11  12
ATOM     12  C   UNL A   1      41.205  27.645  28.846  1.00  0.00     0.031 A 
ATOM     13  C   UNL A   1      42.223  28.612  28.330  1.00  0.00     0.074 A 
ATOM     14  C   UNL A   1      40.293  28.107  29.736  1.00  0.00     0.049 A 
ATOM     15  N   UNL A   1      43.270  29.056  28.948  1.00  0.00    -0.248 NA
ATOM     16  C   UNL A   1      42.110  29.096  26.946  1.00  0.00     0.031 C 
ATOM     17  C   UNL A   1      39.057  27.483  30.232  1.00  0.00     0.029 A 
ATOM     18  N   UNL A   1      40.261  29.327  30.342  1.00  0.00    -0.354 N 
ATOM     19  C   UNL A   1      43.851  30.013  28.119  1.00  0.00     0.074 A 
ATOM     20  C   UNL A   1      43.172  29.901  26.851  1.00  0.00     0.031 C 
ATOM     21  C   UNL A   1      38.285  28.406  30.838  1.00  0.00     0.029 A 
ATOM     22  C   UNL A   1      39.066  29.614  30.982  1.00  0.00     0.049 A 
ATOM     23  H   UNL A   1      41.022  29.952  30.325  1.00  0.00     0.167 HD
ATOM     24  C   UNL A   1      44.733  30.943  28.589  1.00  0.00     0.037 A 
ATOM     25  C   UNL A   1      38.729  30.744  31.639  1.00  0.00     0.037 A 
ATOM     26  C   UNL A   1      45.212  30.604  29.906  1.00  0.00     0.049 A 
ATOM     27  C   UNL A   1      39.997  31.384  32.063  1.00  0.00     0.074 A 
ATOM     28  C   UNL A   1      45.895  29.530  30.445  1.00  0.00     0.029 A 
ATOM     29  N   UNL A   1      44.689  31.278  30.982  1.00  0.00    -0.354 N 
ATOM     30  N   UNL A   1      40.817  30.865  32.939  1.00  0.00    -0.248 NA
ATOM     31  C   UNL A   1      40.572  32.403  31.202  1.00  0.00     0.031 C 
ATOM     32  C   UNL A   1      45.313  29.333  31.732  1.00  0.00     0.029 A 
ATOM     33  C   UNL A   1      44.352  30.330  31.917  1.00  0.00     0.049 A 
ATOM     34  H   UNL A   1      44.576  32.252  31.067  1.00  0.00     0.167 HD
ATOM     35  C   UNL A   1      42.085  31.176  32.471  1.00  0.00     0.074 A 
ATOM     36  C   UNL A   1      41.867  32.212  31.463  1.00  0.00     0.031 C 
ATOM     37  C   UNL A   1      43.167  30.388  32.747  1.00  0.00     0.037 A 
BRANCH  24  38
ATOM     38  C   UNL A   1      44.951  32.317  27.997  1.00  0.00     0.058 A 
ATOM     39  C   UNL A   1      46.209  32.662  27.457  1.00  0.00     0.135 A 
ATOM     40  C   UNL A   1      44.054  33.391  28.185  1.00  0.00     0.135 A 
ATOM     41  F   UNL A   1      47.144  31.722  27.247  1.00  0.00    -0.206 F 
ATOM     42  C   UNL A   1      46.572  33.985  27.187  1.00  0.00     0.059 A 
ATOM     43  C   UNL A   1      44.376  34.710  27.873  1.00  0.00     0.059 A 
ATOM     44  F   UNL A   1      42.864  33.221  28.773  1.00  0.00    -0.206 F 
ATOM     45  C   UNL A   1      45.653  35.003  27.418  1.00  0.00     0.060 A 
BRANCH  45  46
ATOM     46  S   UNL A   1      46.159  36.720  27.198  1.00  0.00     0.124 S 
ATOM     47  O   UNL A   1      44.870  37.385  27.048  1.00  0.00    -0.237 OA
ATOM     48  O   UNL A   1      46.877  36.989  28.440  1.00  0.00    -0.237 OA
ATOM     49  O   UNL A   1      46.991  36.673  25.999  1.00  0.00    -0.744 OA
ENDBRANCH  45  46
ENDBRANCH  24  38
BRANCH  25  50
ATOM     50  C   UNL A   1      37.413  31.423  31.609  1.00  0.00     0.058 A 
ATOM     51  C   UNL A   1      36.667  31.599  32.784  1.00  0.00     0.135 A 
ATOM     52  C   UNL A   1      36.987  32.153  30.479  1.00  0.00     0.135 A 
ATOM     53  F   UNL A   1      37.012  30.949  33.906  1.00  0.00    -0.206 F 
ATOM     54  C   UNL A   1      35.601  32.499  32.856  1.00  0.00     0.059 A 
ATOM     55  C   UNL A   1      35.920  33.047  30.522  1.00  0.00     0.059 A 
ATOM     56  F   UNL A   1      37.658  32.091  29.318  1.00  0.00    -0.206 F 
ATOM     57  C   UNL A   1      35.253  33.239  31.725  1.00  0.00     0.060 A 
BRANCH  57  58
ATOM     58  S   UNL A   1      34.017  34.548  31.875  1.00  0.00     0.124 S 
ATOM     59  O   UNL A   1      33.133  34.012  32.906  1.00  0.00    -0.237 OA
ATOM     60  O   UNL A   1      34.832  35.693  32.266  1.00  0.00    -0.237 OA
ATOM     61  O   UNL A   1      33.438  34.628  30.537  1.00  0.00    -0.744 OA
ENDBRANCH  57  58
ENDBRANCH  25  50
BRANCH  37  62
ATOM     62  C   UNL A   1      43.042  29.331  33.817  1.00  0.00     0.058 A 
ATOM     63  C   UNL A   1      43.203  29.572  35.194  1.00  0.00     0.135 A 
ATOM     64  C   UNL A   1      42.568  28.062  33.448  1.00  0.00     0.135 A 
ATOM     65  F   UNL A   1      43.552  30.783  35.645  1.00  0.00    -0.206 F 
ATOM     66  C   UNL A   1      42.940  28.589  36.152  1.00  0.00     0.059 A 
ATOM     67  C   UNL A   1      42.271  27.076  34.388  1.00  0.00     0.059 A 
ATOM     68  F   UNL A   1      42.332  27.783  32.155  1.00  0.00    -0.206 F 
ATOM     69  C   UNL A   1      42.468  27.344  35.740  1.00  0.00     0.060 A 
BRANCH  69  70
ATOM     70  S   UNL A   1      42.042  26.109  36.988  1.00  0.00     0.124 S 
ATOM     71  O   UNL A   1      42.219  24.859  36.258  1.00  0.00    -0.237 OA
ATOM     72  O   UNL A   1      43.019  26.371  38.041  1.00  0.00    -0.237 OA
ATOM     73  O   UNL A   1      40.661  26.436  37.337  1.00  0.00    -0.744 OA
ENDBRANCH  69  70
ENDBRANCH  37  62
ENDBRANCH  11  12
ENDBRANCH   4   6
ENDBRANCH   1   2
BRANCH   1  74
ATOM     74  C   UNL A   1      38.169  21.267  25.286  1.00  0.00     0.042 C 
BRANCH  74  75
ATOM     75  C   UNL A   1      36.945  22.155  25.095  1.00  0.00     0.118 C 
BRANCH  75  76
ATOM     76  N   UNL A   1      36.196  22.427  26.317  1.00  0.00    -0.351 N 
ATOM     77  C   UNL A   1      34.841  22.668  26.462  1.00  0.00     0.272 C 
ATOM     78  H   UNL A   1      36.725  22.441  27.148  1.00  0.00     0.163 HD
ATOM     79  O   UNL A   1      34.389  22.887  27.583  1.00  0.00    -0.267 OA
BRANCH  77  80
ATOM     80  C   UNL A   1      34.010  22.630  25.256  1.00  0.00     0.158 A 
ATOM     81  N   UNL A   1      33.834  23.714  24.481  1.00  0.00    -0.166 NA
ATOM     82  C   UNL A   1      33.384  21.481  24.689  1.00  0.00     0.033 A 
ATOM     83  N   UNL A   1      33.186  23.247  23.394  1.00  0.00    -0.260 N 
ATOM     84  C   UNL A   1      32.862  21.910  23.473  1.00  0.00     0.069 A 
ATOM     85  C   UNL A   1      33.285  20.119  25.044  1.00  0.00     0.013 A 
ATOM     86  C   UNL A   1      32.218  21.027  22.595  1.00  0.00     0.028 A 
ATOM     87  C   UNL A   1      32.744  19.215  24.128  1.00  0.00     0.001 A 
ATOM     88  C   UNL A   1      32.217  19.666  22.922  1.00  0.00     0.002 A 
BRANCH  83  89
ATOM     89  C   UNL A   1      32.915  24.164  22.291  1.00  0.00     0.180 C 
BRANCH  89  90
ATOM     90  C   UNL A   1      31.830  25.178  22.604  1.00  0.00    -0.026 A 
ATOM     91  C   UNL A   1      30.769  24.876  23.475  1.00  0.00     0.008 A 
ATOM     92  C   UNL A   1      31.892  26.473  22.061  1.00  0.00     0.008 A 
ATOM     93  C   UNL A   1      29.803  25.829  23.797  1.00  0.00     0.039 A 
ATOM     94  C   UNL A   1      30.929  27.434  22.392  1.00  0.00     0.039 A 
ATOM     95  C   UNL A   1      29.896  27.104  23.258  1.00  0.00     0.123 A 
ATOM     96  F   UNL A   1      28.981  28.024  23.587  1.00  0.00    -0.207 F 
ENDBRANCH  89  90
ENDBRANCH  83  89
ENDBRANCH  77  80
ENDBRANCH  75  76
ENDBRANCH  74  75
ENDBRANCH   1  74
TORSDOF 15
ENDMDL
MODEL 3
REMARK VINA RESULT:     -13.1      2.294      3.619
REMARK SMILES O=C(NCCCNC(=O)c1nn(Cc2ccc(F)cc2)c2ccccc12)c1ccc(-c2c3nc(c(-c4c(F)cc(S(=O)(=O)[O-])cc4F)c4ccc([nH]4)c(-c4c(F)cc(S(=O)(=O)[O-])cc4F)c4nc(c(-c5c(F)cc(S(=O)(=O)[O-])cc5F)c5ccc2[nH]5)C=C4)C=C3)cc1
REMARK SMILES IDX 4 1 3 2 1 3 2 4 27 6 28 7 92 8 29 9 91 10 30 11 31 12 32 13
REMARK SMILES IDX 85 14 33 15 90 16 84 17 86 18 34 19 89 20 83 21 82 22 35 24
REMARK SMILES IDX 69 25 48 26 68 27 49 28 52 29 67 30 87 31 50 32 51 33 66 35
REMARK SMILES IDX 88 36 53 37 36 38 37 39 46 40 38 41 39 42 45 43 47 44 40 45
REMARK SMILES IDX 41 46 42 47 43 48 44 49 70 50 71 51 80 52 72 53 73 54 79 55
REMARK SMILES IDX 81 56 74 57 75 58 76 59 77 60 78 61 54 62 55 63 64 64 56 65
REMARK SMILES IDX 57 66 63 67 65 68 58 69 59 70 60 71 61 72 62 73 5 74 6 75
REMARK SMILES IDX 7 76 8 77 9 79 10 80 11 81 26 82 12 83 21 84 25 85 22 86
REMARK SMILES IDX 24 87 23 88 13 89 14 90 15 91 20 92 16 93 19 94 17 95 18 96
REMARK H PARENT 3 5 86 23 52 34 7 78
REMARK Flexibility Score: inf
ROOT
ATOM      1  C   UNL A   1      38.621  23.565  26.357  1.00  0.00     0.118 C 
ENDROOT
BRANCH   1   2
ATOM      2  N   UNL A   1      39.732  22.599  26.350  1.00  0.00    -0.352 N 
ATOM      3  O   UNL A   1      41.921  22.048  26.086  1.00  0.00    -0.269 OA
ATOM      4  C   UNL A   1      41.095  22.876  26.369  1.00  0.00     0.251 C 
ATOM      5  H   UNL A   1      39.481  21.648  26.328  1.00  0.00     0.163 HD
BRANCH   4   6
ATOM      6  C   UNL A   1      41.479  24.263  26.738  1.00  0.00     0.039 A 
ATOM      7  C   UNL A   1      41.264  25.336  25.876  1.00  0.00     0.014 A 
ATOM      8  C   UNL A   1      41.823  24.465  28.063  1.00  0.00     0.014 A 
ATOM      9  C   UNL A   1      41.269  26.628  26.411  1.00  0.00     0.010 A 
ATOM     10  C   UNL A   1      41.574  25.700  28.607  1.00  0.00     0.010 A 
ATOM     11  C   UNL A   1      41.372  26.816  27.799  1.00  0.00    -0.014 A 
BRANCH  11  12
ATOM     12  C   UNL A   1      41.232  28.146  28.412  1.00  0.00     0.031 A 
ATOM     13  C   UNL A   1      42.299  29.157  28.131  1.00  0.00     0.074 A 
ATOM     14  C   UNL A   1      40.147  28.554  29.114  1.00  0.00     0.049 A 
ATOM     15  N   UNL A   1      43.187  29.612  28.956  1.00  0.00    -0.248 NA
ATOM     16  C   UNL A   1      42.445  29.678  26.764  1.00  0.00     0.031 C 
ATOM     17  C   UNL A   1      38.860  27.880  29.340  1.00  0.00     0.029 A 
ATOM     18  N   UNL A   1      39.955  29.754  29.730  1.00  0.00    -0.354 N 
ATOM     19  C   UNL A   1      43.888  30.610  28.281  1.00  0.00     0.074 A 
ATOM     20  C   UNL A   1      43.477  30.516  26.901  1.00  0.00     0.031 C 
ATOM     21  C   UNL A   1      37.952  28.763  29.802  1.00  0.00     0.029 A 
ATOM     22  C   UNL A   1      38.648  29.987  30.127  1.00  0.00     0.049 A 
ATOM     23  H   UNL A   1      40.682  30.401  29.879  1.00  0.00     0.167 HD
ATOM     24  C   UNL A   1      44.627  31.551  28.939  1.00  0.00     0.037 A 
ATOM     25  C   UNL A   1      38.149  31.088  30.730  1.00  0.00     0.037 A 
ATOM     26  C   UNL A   1      44.848  31.186  30.316  1.00  0.00     0.049 A 
ATOM     27  C   UNL A   1      39.285  31.751  31.413  1.00  0.00     0.074 A 
ATOM     28  C   UNL A   1      45.447  30.117  30.955  1.00  0.00     0.029 A 
ATOM     29  N   UNL A   1      44.099  31.812  31.283  1.00  0.00    -0.354 N 
ATOM     30  N   UNL A   1      39.933  31.230  32.422  1.00  0.00    -0.248 NA
ATOM     31  C   UNL A   1      39.984  32.811  30.706  1.00  0.00     0.031 C 
ATOM     32  C   UNL A   1      44.629  29.865  32.096  1.00  0.00     0.029 A 
ATOM     33  C   UNL A   1      43.617  30.828  32.109  1.00  0.00     0.049 A 
ATOM     34  H   UNL A   1      43.938  32.780  31.366  1.00  0.00     0.167 HD
ATOM     35  C   UNL A   1      41.257  31.592  32.221  1.00  0.00     0.074 A 
ATOM     36  C   UNL A   1      41.208  32.650  31.215  1.00  0.00     0.031 C 
ATOM     37  C   UNL A   1      42.290  30.827  32.689  1.00  0.00     0.037 A 
BRANCH  24  38
ATOM     38  C   UNL A   1      44.910  32.947  28.434  1.00  0.00     0.058 A 
ATOM     39  C   UNL A   1      46.243  33.369  28.233  1.00  0.00     0.135 A 
ATOM     40  C   UNL A   1      43.937  33.969  28.400  1.00  0.00     0.135 A 
ATOM     41  F   UNL A   1      47.251  32.483  28.256  1.00  0.00    -0.206 F 
ATOM     42  C   UNL A   1      46.588  34.714  28.076  1.00  0.00     0.059 A 
ATOM     43  C   UNL A   1      44.254  35.310  28.193  1.00  0.00     0.059 A 
ATOM     44  F   UNL A   1      42.648  33.726  28.667  1.00  0.00    -0.206 F 
ATOM     45  C   UNL A   1      45.585  35.679  28.077  1.00  0.00     0.060 A 
BRANCH  45  46
ATOM     46  S   UNL A   1      46.035  37.423  28.008  1.00  0.00     0.124 S 
ATOM     47  O   UNL A   1      47.472  37.342  27.770  1.00  0.00    -0.237 OA
ATOM     48  O   UNL A   1      45.227  37.904  26.892  1.00  0.00    -0.237 OA
ATOM     49  O   UNL A   1      45.639  37.924  29.321  1.00  0.00    -0.744 OA
ENDBRANCH  45  46
ENDBRANCH  24  38
BRANCH  25  50
ATOM     50  C   UNL A   1      36.843  31.728  30.455  1.00  0.00     0.058 A 
ATOM     51  C   UNL A   1      36.070  32.265  31.497  1.00  0.00     0.135 A 
ATOM     52  C   UNL A   1      36.453  32.072  29.143  1.00  0.00     0.135 A 
ATOM     53  F   UNL A   1      36.379  31.994  32.774  1.00  0.00    -0.206 F 
ATOM     54  C   UNL A   1      35.014  33.146  31.256  1.00  0.00     0.059 A 
ATOM     55  C   UNL A   1      35.396  32.939  28.878  1.00  0.00     0.059 A 
ATOM     56  F   UNL A   1      37.151  31.649  28.077  1.00  0.00    -0.206 F 
ATOM     57  C   UNL A   1      34.702  33.499  29.943  1.00  0.00     0.060 A 
BRANCH  57  58
ATOM     58  S   UNL A   1      33.478  34.795  29.645  1.00  0.00     0.124 S 
ATOM     59  O   UNL A   1      32.964  35.039  30.989  1.00  0.00    -0.237 OA
ATOM     60  O   UNL A   1      34.295  35.859  29.072  1.00  0.00    -0.237 OA
ATOM     61  O   UNL A   1      32.537  34.170  28.720  1.00  0.00    -0.744 OA
ENDBRANCH  57  58
ENDBRANCH  25  50
BRANCH  37  62
ATOM     62  C   UNL A   1      41.992  29.735  33.688  1.00  0.00     0.058 A 
ATOM     63  C   UNL A   1      41.677  28.408  33.343  1.00  0.00     0.135 A 
ATOM     64  C   UNL A   1      42.204  30.002  35.050  1.00  0.00     0.135 A 
ATOM     65  F   UNL A   1      41.558  28.040  32.060  1.00  0.00    -0.206 F 
ATOM     66  C   UNL A   1      41.547  27.405  34.306  1.00  0.00     0.059 A 
ATOM     67  C   UNL A   1      42.109  29.010  36.025  1.00  0.00     0.059 A 
ATOM     68  F   UNL A   1      42.568  31.233  35.444  1.00  0.00    -0.206 F 
ATOM     69  C   UNL A   1      41.771  27.714  35.647  1.00  0.00     0.060 A 
BRANCH  69  70
ATOM     70  S   UNL A   1      41.691  26.394  36.878  1.00  0.00     0.124 S 
ATOM     71  O   UNL A   1      40.456  26.708  37.587  1.00  0.00    -0.237 OA
ATOM     72  O   UNL A   1      41.659  25.190  36.052  1.00  0.00    -0.237 OA
ATOM     73  O   UNL A   1      42.917  26.574  37.653  1.00  0.00    -0.744 OA
ENDBRANCH  69  70
ENDBRANCH  37  62
ENDBRANCH  11  12
ENDBRANCH   4   6
ENDBRANCH   1   2
BRANCH   1  74
ATOM     74  C   UNL A   1      37.455  23.170  25.480  1.00  0.00     0.042 C 
BRANCH  74  75
ATOM     75  C   UNL A   1      36.108  23.396  26.158  1.00  0.00     0.118 C 
BRANCH  75  76
ATOM     76  N   UNL A   1      35.410  22.174  26.542  1.00  0.00    -0.351 N 
ATOM     77  C   UNL A   1      34.060  21.885  26.442  1.00  0.00     0.272 C 
ATOM     78  H   UNL A   1      35.973  21.461  26.921  1.00  0.00     0.163 HD
ATOM     79  O   UNL A   1      33.652  20.793  26.828  1.00  0.00    -0.267 OA
BRANCH  77  80
ATOM     80  C   UNL A   1      33.187  22.907  25.858  1.00  0.00     0.158 A 
ATOM     81  N   UNL A   1      32.487  23.763  26.622  1.00  0.00    -0.166 NA
ATOM     82  C   UNL A   1      33.035  23.205  24.472  1.00  0.00     0.033 A 
ATOM     83  N   UNL A   1      31.972  24.649  25.744  1.00  0.00    -0.260 N 
ATOM     84  C   UNL A   1      32.245  24.350  24.428  1.00  0.00     0.069 A 
ATOM     85  C   UNL A   1      33.554  22.675  23.272  1.00  0.00     0.013 A 
ATOM     86  C   UNL A   1      31.930  24.981  23.216  1.00  0.00     0.028 A 
ATOM     87  C   UNL A   1      33.336  23.359  22.075  1.00  0.00     0.001 A 
ATOM     88  C   UNL A   1      32.534  24.496  22.051  1.00  0.00     0.002 A 
BRANCH  83  89
ATOM     89  C   UNL A   1      31.218  25.788  26.259  1.00  0.00     0.180 C 
BRANCH  89  90
ATOM     90  C   UNL A   1      32.059  27.038  26.433  1.00  0.00    -0.026 A 
ATOM     91  C   UNL A   1      31.548  28.188  27.060  1.00  0.00     0.008 A 
ATOM     92  C   UNL A   1      33.400  27.056  26.011  1.00  0.00     0.008 A 
ATOM     93  C   UNL A   1      32.343  29.316  27.262  1.00  0.00     0.039 A 
ATOM     94  C   UNL A   1      34.202  28.183  26.224  1.00  0.00     0.039 A 
ATOM     95  C   UNL A   1      33.666  29.301  26.848  1.00  0.00     0.123 A 
ATOM     96  F   UNL A   1      34.434  30.377  27.064  1.00  0.00    -0.207 F 
ENDBRANCH  89  90
ENDBRANCH  83  89
ENDBRANCH  77  80
ENDBRANCH  75  76
ENDBRANCH  74  75
ENDBRANCH   1  74
TORSDOF 15
ENDMDL
