MODEL 1
REMARK VINA RESULT:     -14.9      0.000      0.000
REMARK SMILES Cc1c(CC(=O)N[C@H](CO)C(=O)NCCCNC(=O)c2ccc(-c3c4nc(c(-c5c(F)cc(S(=O)(=O)[O-])cc5F)c5ccc([nH]5)c(-c5c(F)cc(S(=O)(=O)[O-])cc5F)c5nc(c(-c6c(F)cc(S(=O)(=O)[O-])cc6F)c6ccc3[nH]6)C=C5)C=C4)cc2)cc(-c2ccc(S(C)(=O)=O)cc2)n1-c1cccc(F)c1
REMARK SMILES IDX 14 1 13 2 11 3 12 4 8 6 7 7 5 8 6 9 4 11 3 12 1 13 2 14
REMARK SMILES IDX 98 15 86 16 87 17 99 18 100 19 105 20 101 21 103 22 102 23
REMARK SMILES IDX 104 24 88 25 89 26 97 27 90 28 96 29 91 30 92 31 93 32 94 33
REMARK SMILES IDX 95 34 9 35 10 36 15 38 16 39 17 40 18 41 19 43 20 44 21 45
REMARK SMILES IDX 85 46 22 47 84 48 23 49 24 50 25 51 78 52 26 53 83 54 77 55
REMARK SMILES IDX 79 56 27 57 82 58 76 59 75 60 28 62 62 63 41 64 61 65 42 66
REMARK SMILES IDX 45 67 60 68 80 69 43 70 44 71 59 73 81 74 46 75 29 76 30 77
REMARK SMILES IDX 39 78 31 79 32 80 38 81 40 82 33 83 34 84 35 85 36 86 37 87
REMARK SMILES IDX 63 88 64 89 73 90 65 91 66 92 72 93 74 94 67 95 68 96 69 97
REMARK SMILES IDX 70 98 71 99 47 100 48 101 57 102 49 103 50 104 56 105 58 106
REMARK SMILES IDX 51 107 52 108 53 109 54 110 55 111
REMARK H PARENT 13 5 7 10 10 37 17 42 79 61 45 72
REMARK Flexibility Score: inf
ROOT
ATOM      1  C   UNL A   1      37.033  21.239  25.572  1.00  0.00     0.117 C 
ENDROOT
BRANCH   1   2
ATOM      2  N   UNL A   1      35.970  21.555  26.528  1.00  0.00    -0.354 N 
ATOM      3  C   UNL A   1      34.653  21.236  26.435  1.00  0.00     0.244 C 
ATOM      4  O   UNL A   1      33.888  21.431  27.372  1.00  0.00    -0.273 OA
ATOM      5  H   UNL A   1      36.240  22.057  27.331  1.00  0.00     0.163 HD
BRANCH   3   6
ATOM      6  C   UNL A   1      34.289  20.533  25.174  1.00  0.00     0.197 C 
BRANCH   6   7
ATOM      7  N   UNL A   1      34.434  21.553  24.058  1.00  0.00    -0.342 N 
ATOM      8  C   UNL A   1      33.653  22.392  23.274  1.00  0.00     0.225 C 
ATOM      9  O   UNL A   1      34.327  22.952  22.387  1.00  0.00    -0.275 OA
ATOM     10  H   UNL A   1      35.381  21.650  23.812  1.00  0.00     0.164 HD
BRANCH   8  11
ATOM     11  C   UNL A   1      32.102  22.827  23.395  1.00  0.00     0.137 C 
BRANCH  11  12
ATOM     12  C   UNL A   1      31.634  24.177  24.134  1.00  0.00    -0.017 A 
ATOM     13  C   UNL A   1      33.767  24.680  26.120  1.00  0.00     0.065 C 
ATOM     14  C   UNL A   1      32.511  25.078  25.418  1.00  0.00     0.024 A 
ATOM     15  N   UNL A   1      31.794  26.788  25.548  1.00  0.00    -0.313 N 
ATOM     16  C   UNL A   1      30.246  25.387  23.457  1.00  0.00     0.033 A 
ATOM     17  C   UNL A   1      30.377  26.965  24.337  1.00  0.00     0.053 A 
BRANCH  15  18
ATOM     18  C   UNL A   1      32.478  27.883  26.178  1.00  0.00     0.049 A 
ATOM     19  C   UNL A   1      31.746  28.968  26.653  1.00  0.00     0.027 A 
ATOM     20  C   UNL A   1      33.872  27.883  26.308  1.00  0.00     0.065 A 
ATOM     21  C   UNL A   1      32.389  30.038  27.283  1.00  0.00     0.005 A 
ATOM     22  C   UNL A   1      34.506  28.982  26.886  1.00  0.00     0.125 A 
ATOM     23  C   UNL A   1      33.777  30.052  27.388  1.00  0.00     0.039 A 
ATOM     24  F   UNL A   1      35.844  29.013  26.948  1.00  0.00    -0.207 F 
ENDBRANCH  15  18
BRANCH  17  25
ATOM     25  C   UNL A   1      29.909  28.195  23.681  1.00  0.00    -0.001 A 
ATOM     26  C   UNL A   1      30.736  29.021  22.915  1.00  0.00     0.011 A 
ATOM     27  C   UNL A   1      28.526  28.398  23.669  1.00  0.00     0.011 A 
ATOM     28  C   UNL A   1      30.193  30.117  22.252  1.00  0.00     0.021 A 
ATOM     29  C   UNL A   1      27.979  29.506  23.045  1.00  0.00     0.021 A 
ATOM     30  C   UNL A   1      28.829  30.382  22.380  1.00  0.00     0.067 A 
BRANCH  30  31
ATOM     31  S   UNL A   1      28.209  31.940  21.823  1.00  0.00     0.175 S 
ATOM     32  C   UNL A   1      27.884  31.628  20.102  1.00  0.00     0.163 C 
ATOM     33  O   UNL A   1      26.944  32.155  22.498  1.00  0.00    -0.224 OA
ATOM     34  O   UNL A   1      29.293  32.888  21.939  1.00  0.00    -0.224 OA
ENDBRANCH  30  31
ENDBRANCH  17  25
ENDBRANCH  11  12
ENDBRANCH   8  11
ENDBRANCH   6   7
BRANCH   6  35
ATOM     35  C   UNL A   1      32.909  19.813  25.392  1.00  0.00     0.191 C 
BRANCH  35  36
ATOM     36  O   UNL A   1      32.935  18.818  26.420  1.00  0.00    -0.394 OA
ATOM     37  H   UNL A   1      33.543  18.106  26.165  1.00  0.00     0.210 HD
ENDBRANCH  35  36
ENDBRANCH   6  35
ENDBRANCH   3   6
ENDBRANCH   1   2
BRANCH   1  38
ATOM     38  C   UNL A   1      38.563  21.733  25.783  1.00  0.00     0.042 C 
BRANCH  38  39
ATOM     39  C   UNL A   1      40.541  20.720  26.238  1.00  0.00     0.118 C 
BRANCH  39  40
ATOM     40  N   UNL A   1      42.110  21.182  25.765  1.00  0.00    -0.352 N 
ATOM     41  C   UNL A   1      43.084  22.196  25.922  1.00  0.00     0.251 C 
ATOM     42  H   UNL A   1      42.471  20.492  25.163  1.00  0.00     0.163 HD
ATOM     43  O   UNL A   1      44.199  21.851  25.500  1.00  0.00    -0.269 OA
BRANCH  41  44
ATOM     44  C   UNL A   1      42.937  23.700  26.267  1.00  0.00     0.039 A 
ATOM     45  C   UNL A   1      42.356  24.003  27.495  1.00  0.00     0.014 A 
ATOM     46  C   UNL A   1      43.021  24.850  25.448  1.00  0.00     0.014 A 
ATOM     47  C   UNL A   1      42.093  25.363  27.942  1.00  0.00     0.010 A 
ATOM     48  C   UNL A   1      42.687  26.273  25.905  1.00  0.00     0.010 A 
ATOM     49  C   UNL A   1      42.265  26.615  27.216  1.00  0.00    -0.014 A 
BRANCH  49  50
ATOM     50  C   UNL A   1      41.492  28.037  27.889  1.00  0.00     0.031 A 
ATOM     51  C   UNL A   1      42.685  28.947  27.806  1.00  0.00     0.074 A 
ATOM     52  C   UNL A   1      40.317  28.604  28.523  1.00  0.00     0.049 A 
ATOM     53  N   UNL A   1      43.797  28.484  28.317  1.00  0.00    -0.248 NA
ATOM     54  C   UNL A   1      42.919  30.030  26.841  1.00  0.00     0.031 C 
ATOM     55  C   UNL A   1      39.079  27.910  28.973  1.00  0.00     0.029 A 
ATOM     56  N   UNL A   1      39.903  29.974  28.953  1.00  0.00    -0.354 N 
ATOM     57  C   UNL A   1      44.769  29.416  28.106  1.00  0.00     0.074 A 
ATOM     58  C   UNL A   1      44.250  30.170  26.969  1.00  0.00     0.031 C 
ATOM     59  C   UNL A   1      38.075  28.751  29.402  1.00  0.00     0.029 A 
ATOM     60  C   UNL A   1      38.469  30.169  29.413  1.00  0.00     0.049 A 
ATOM     61  H   UNL A   1      40.539  30.725  28.939  1.00  0.00     0.167 HD
ATOM     62  C   UNL A   1      45.244  29.898  29.293  1.00  0.00     0.037 A 
ATOM     63  C   UNL A   1      37.727  31.314  29.886  1.00  0.00     0.037 A 
ATOM     64  C   UNL A   1      44.497  31.054  29.726  1.00  0.00     0.049 A 
ATOM     65  C   UNL A   1      38.757  32.121  30.545  1.00  0.00     0.074 A 
ATOM     66  C   UNL A   1      43.998  32.145  29.037  1.00  0.00     0.029 A 
ATOM     67  N   UNL A   1      43.758  30.941  30.884  1.00  0.00    -0.354 N 
ATOM     68  N   UNL A   1      39.281  31.794  31.685  1.00  0.00    -0.248 NA
ATOM     69  C   UNL A   1      39.240  33.353  29.940  1.00  0.00     0.031 C 
ATOM     70  C   UNL A   1      42.681  32.274  29.507  1.00  0.00     0.029 A 
ATOM     71  C   UNL A   1      42.608  31.685  30.760  1.00  0.00     0.049 A 
ATOM     72  H   UNL A   1      44.012  30.412  31.675  1.00  0.00     0.167 HD
ATOM     73  C   UNL A   1      40.503  32.382  31.598  1.00  0.00     0.074 A 
ATOM     74  C   UNL A   1      40.341  33.501  30.677  1.00  0.00     0.031 C 
ATOM     75  C   UNL A   1      41.572  31.560  31.747  1.00  0.00     0.037 A 
BRANCH  62  76
ATOM     76  C   UNL A   1      45.683  28.786  30.222  1.00  0.00     0.058 A 
ATOM     77  C   UNL A   1      44.700  28.034  30.867  1.00  0.00     0.135 A 
ATOM     78  C   UNL A   1      47.034  28.519  30.565  1.00  0.00     0.135 A 
ATOM     79  F   UNL A   1      43.403  28.237  30.582  1.00  0.00    -0.206 F 
ATOM     80  C   UNL A   1      45.034  27.060  31.803  1.00  0.00     0.059 A 
ATOM     81  C   UNL A   1      47.386  27.596  31.541  1.00  0.00     0.059 A 
ATOM     82  F   UNL A   1      48.043  29.141  29.932  1.00  0.00    -0.206 F 
ATOM     83  C   UNL A   1      46.376  26.852  32.135  1.00  0.00     0.060 A 
BRANCH  83  84
ATOM     84  S   UNL A   1      46.772  25.543  33.309  1.00  0.00     0.124 S 
ATOM     85  O   UNL A   1      48.044  25.040  32.794  1.00  0.00    -0.237 OA
ATOM     86  O   UNL A   1      46.858  26.296  34.556  1.00  0.00    -0.237 OA
ATOM     87  O   UNL A   1      45.652  24.616  33.189  1.00  0.00    -0.744 OA
ENDBRANCH  83  84
ENDBRANCH  62  76
BRANCH  63  88
ATOM     88  C   UNL A   1      36.295  32.081  30.254  1.00  0.00     0.058 A 
ATOM     89  C   UNL A   1      35.807  32.243  31.623  1.00  0.00     0.135 A 
ATOM     90  C   UNL A   1      35.664  33.012  29.403  1.00  0.00     0.135 A 
ATOM     91  F   UNL A   1      36.246  31.446  32.609  1.00  0.00    -0.206 F 
ATOM     92  C   UNL A   1      34.907  33.258  32.090  1.00  0.00     0.059 A 
ATOM     93  C   UNL A   1      34.740  34.031  29.850  1.00  0.00     0.059 A 
ATOM     94  F   UNL A   1      35.982  33.031  28.103  1.00  0.00    -0.206 F 
ATOM     95  C   UNL A   1      34.397  34.182  31.198  1.00  0.00     0.060 A 
BRANCH  95  96
ATOM     96  S   UNL A   1      33.432  35.628  31.816  1.00  0.00     0.124 S 
ATOM     97  O   UNL A   1      32.198  35.023  32.305  1.00  0.00    -0.237 OA
ATOM     98  O   UNL A   1      34.308  36.182  32.847  1.00  0.00    -0.237 OA
ATOM     99  O   UNL A   1      33.283  36.469  30.631  1.00  0.00    -0.744 OA
ENDBRANCH  95  96
ENDBRANCH  63  88
BRANCH  75 100
ATOM    100  C   UNL A   1      41.504  30.490  32.815  1.00  0.00     0.058 A 
ATOM    101  C   UNL A   1      41.642  30.683  34.206  1.00  0.00     0.135 A 
ATOM    102  C   UNL A   1      41.338  29.163  32.390  1.00  0.00     0.135 A 
ATOM    103  F   UNL A   1      41.721  31.908  34.741  1.00  0.00    -0.206 F 
ATOM    104  C   UNL A   1      41.691  29.616  35.108  1.00  0.00     0.059 A 
ATOM    105  C   UNL A   1      41.343  28.085  33.273  1.00  0.00     0.059 A 
ATOM    106  F   UNL A   1      41.159  28.904  31.084  1.00  0.00    -0.206 F 
ATOM    107  C   UNL A   1      41.556  28.318  34.629  1.00  0.00     0.060 A 
BRANCH 107 108
ATOM    108  S   UNL A   1      41.656  26.942  35.796  1.00  0.00     0.124 S 
ATOM    109  O   UNL A   1      43.057  26.550  35.678  1.00  0.00    -0.237 OA
ATOM    110  O   UNL A   1      41.285  27.570  37.059  1.00  0.00    -0.237 OA
ATOM    111  O   UNL A   1      40.699  25.978  35.263  1.00  0.00    -0.744 OA
ENDBRANCH 107 108
ENDBRANCH  75 100
ENDBRANCH  49  50
ENDBRANCH  41  44
ENDBRANCH  39  40
ENDBRANCH  38  39
ENDBRANCH   1  38
TORSDOF 21
ENDMDL
MODEL 2
REMARK VINA RESULT:     -13.0      9.829     15.747
REMARK SMILES Cc1c(CC(=O)N[C@H](CO)C(=O)NCCCNC(=O)c2ccc(-c3c4nc(c(-c5c(F)cc(S(=O)(=O)[O-])cc5F)c5ccc([nH]5)c(-c5c(F)cc(S(=O)(=O)[O-])cc5F)c5nc(c(-c6c(F)cc(S(=O)(=O)[O-])cc6F)c6ccc3[nH]6)C=C5)C=C4)cc2)cc(-c2ccc(S(C)(=O)=O)cc2)n1-c1cccc(F)c1
REMARK SMILES IDX 14 1 13 2 11 3 12 4 8 6 7 7 5 8 6 9 4 11 3 12 1 13 2 14
REMARK SMILES IDX 98 15 86 16 87 17 99 18 100 19 105 20 101 21 103 22 102 23
REMARK SMILES IDX 104 24 88 25 89 26 97 27 90 28 96 29 91 30 92 31 93 32 94 33
REMARK SMILES IDX 95 34 9 35 10 36 15 38 16 39 17 40 18 41 19 43 20 44 21 45
REMARK SMILES IDX 85 46 22 47 84 48 23 49 24 50 25 51 78 52 26 53 83 54 77 55
REMARK SMILES IDX 79 56 27 57 82 58 76 59 75 60 28 62 62 63 41 64 61 65 42 66
REMARK SMILES IDX 45 67 60 68 80 69 43 70 44 71 59 73 81 74 46 75 29 76 30 77
REMARK SMILES IDX 39 78 31 79 32 80 38 81 40 82 33 83 34 84 35 85 36 86 37 87
REMARK SMILES IDX 63 88 64 89 73 90 65 91 66 92 72 93 74 94 67 95 68 96 69 97
REMARK SMILES IDX 70 98 71 99 47 100 48 101 57 102 49 103 50 104 56 105 58 106
REMARK SMILES IDX 51 107 52 108 53 109 54 110 55 111
REMARK H PARENT 13 5 7 10 10 37 17 42 79 61 45 72
REMARK Flexibility Score: inf
ROOT
ATOM      1  C   UNL A   1      43.639  40.929  29.389  1.00  0.00     0.117 C 
ENDROOT
BRANCH   1   2
ATOM      2  N   UNL A   1      43.311  39.766  28.562  1.00  0.00    -0.354 N 
ATOM      3  C   UNL A   1      43.507  39.620  27.226  1.00  0.00     0.244 C 
ATOM      4  O   UNL A   1      43.323  38.542  26.675  1.00  0.00    -0.273 OA
ATOM      5  H   UNL A   1      42.901  39.001  29.027  1.00  0.00     0.163 HD
BRANCH   3   6
ATOM      6  C   UNL A   1      44.071  40.828  26.563  1.00  0.00     0.197 C 
BRANCH   6   7
ATOM      7  N   UNL A   1      43.113  41.188  25.441  1.00  0.00    -0.342 N 
ATOM      8  C   UNL A   1      42.829  42.240  24.580  1.00  0.00     0.225 C 
ATOM      9  O   UNL A   1      41.803  42.018  23.907  1.00  0.00    -0.275 OA
ATOM     10  H   UNL A   1      42.499  40.439  25.270  1.00  0.00     0.164 HD
BRANCH   8  11
ATOM     11  C   UNL A   1      43.643  43.593  24.245  1.00  0.00     0.137 C 
BRANCH  11  12
ATOM     12  C   UNL A   1      44.152  43.955  22.762  1.00  0.00    -0.017 A 
ATOM     13  C   UNL A   1      42.076  42.810  20.994  1.00  0.00     0.065 C 
ATOM     14  C   UNL A   1      43.322  43.605  21.207  1.00  0.00     0.024 A 
ATOM     15  N   UNL A   1      44.072  44.661  19.874  1.00  0.00    -0.313 N 
ATOM     16  C   UNL A   1      45.545  45.278  22.361  1.00  0.00     0.033 A 
ATOM     17  C   UNL A   1      45.463  45.686  20.598  1.00  0.00     0.053 A 
BRANCH  15  18
ATOM     18  C   UNL A   1      43.423  44.927  18.621  1.00  0.00     0.049 A 
ATOM     19  C   UNL A   1      42.486  45.953  18.536  1.00  0.00     0.027 A 
ATOM     20  C   UNL A   1      43.708  44.159  17.485  1.00  0.00     0.065 A 
ATOM     21  C   UNL A   1      41.853  46.239  17.323  1.00  0.00     0.005 A 
ATOM     22  C   UNL A   1      43.027  44.418  16.296  1.00  0.00     0.125 A 
ATOM     23  C   UNL A   1      42.114  45.459  16.200  1.00  0.00     0.039 A 
ATOM     24  F   UNL A   1      43.249  43.638  15.229  1.00  0.00    -0.207 F 
ENDBRANCH  15  18
BRANCH  17  25
ATOM     25  C   UNL A   1      45.937  47.000  20.140  1.00  0.00    -0.001 A 
ATOM     26  C   UNL A   1      45.140  48.148  20.141  1.00  0.00     0.011 A 
ATOM     27  C   UNL A   1      47.310  47.111  19.906  1.00  0.00     0.011 A 
ATOM     28  C   UNL A   1      45.694  49.372  19.780  1.00  0.00     0.021 A 
ATOM     29  C   UNL A   1      47.864  48.315  19.508  1.00  0.00     0.021 A 
ATOM     30  C   UNL A   1      47.037  49.427  19.404  1.00  0.00     0.067 A 
BRANCH  30  31
ATOM     31  S   UNL A   1      47.645  50.896  18.633  1.00  0.00     0.175 S 
ATOM     32  C   UNL A   1      48.519  51.692  19.963  1.00  0.00     0.163 C 
ATOM     33  O   UNL A   1      48.609  50.478  17.634  1.00  0.00    -0.224 OA
ATOM     34  O   UNL A   1      46.492  51.691  18.278  1.00  0.00    -0.224 OA
ENDBRANCH  30  31
ENDBRANCH  17  25
ENDBRANCH  11  12
ENDBRANCH   8  11
ENDBRANCH   6   7
BRANCH   6  35
ATOM     35  C   UNL A   1      45.582  40.547  26.232  1.00  0.00     0.191 C 
BRANCH  35  36
ATOM     36  O   UNL A   1      45.781  39.823  25.014  1.00  0.00    -0.394 OA
ATOM     37  H   UNL A   1      45.056  40.020  24.399  1.00  0.00     0.210 HD
ENDBRANCH  35  36
ENDBRANCH   6  35
ENDBRANCH   3   6
ENDBRANCH   1   2
BRANCH   1  38
ATOM     38  C   UNL A   1      45.112  41.148  30.031  1.00  0.00     0.042 C 
BRANCH  38  39
ATOM     39  C   UNL A   1      46.092  40.686  32.024  1.00  0.00     0.118 C 
BRANCH  39  40
ATOM     40  N   UNL A   1      45.566  39.630  33.252  1.00  0.00    -0.352 N 
ATOM     41  C   UNL A   1      45.060  38.330  33.483  1.00  0.00     0.251 C 
ATOM     42  H   UNL A   1      45.642  40.094  34.117  1.00  0.00     0.163 HD
ATOM     43  O   UNL A   1      45.091  38.016  34.683  1.00  0.00    -0.269 OA
BRANCH  41  44
ATOM     44  C   UNL A   1      44.254  37.376  32.564  1.00  0.00     0.039 A 
ATOM     45  C   UNL A   1      44.067  36.076  33.026  1.00  0.00     0.014 A 
ATOM     46  C   UNL A   1      43.906  37.483  31.197  1.00  0.00     0.014 A 
ATOM     47  C   UNL A   1      43.386  35.044  32.258  1.00  0.00     0.010 A 
ATOM     48  C   UNL A   1      43.243  36.373  30.376  1.00  0.00     0.010 A 
ATOM     49  C   UNL A   1      42.881  35.101  30.893  1.00  0.00    -0.014 A 
BRANCH  49  50
ATOM     50  C   UNL A   1      42.471  33.577  30.132  1.00  0.00     0.031 A 
ATOM     51  C   UNL A   1      40.992  33.823  30.021  1.00  0.00     0.074 A 
ATOM     52  C   UNL A   1      42.919  32.265  29.704  1.00  0.00     0.049 A 
ATOM     53  N   UNL A   1      40.391  34.209  31.118  1.00  0.00    -0.248 NA
ATOM     54  C   UNL A   1      40.230  34.166  28.813  1.00  0.00     0.031 C 
ATOM     55  C   UNL A   1      44.248  31.627  29.905  1.00  0.00     0.029 A 
ATOM     56  N   UNL A   1      42.298  31.122  28.967  1.00  0.00    -0.354 N 
ATOM     57  C   UNL A   1      39.080  34.430  30.815  1.00  0.00     0.074 A 
ATOM     58  C   UNL A   1      39.119  34.673  29.376  1.00  0.00     0.031 C 
ATOM     59  C   UNL A   1      44.415  30.430  29.245  1.00  0.00     0.029 A 
ATOM     60  C   UNL A   1      43.202  29.978  28.543  1.00  0.00     0.049 A 
ATOM     61  H   UNL A   1      41.336  31.112  28.764  1.00  0.00     0.167 HD
ATOM     62  C   UNL A   1      38.271  33.572  31.505  1.00  0.00     0.037 A 
ATOM     63  C   UNL A   1      42.970  28.742  27.835  1.00  0.00     0.037 A 
ATOM     64  C   UNL A   1      38.041  32.357  30.761  1.00  0.00     0.049 A 
ATOM     65  C   UNL A   1      41.595  28.404  28.211  1.00  0.00     0.074 A 
ATOM     66  C   UNL A   1      37.794  32.126  29.419  1.00  0.00     0.029 A 
ATOM     67  N   UNL A   1      38.536  31.181  31.285  1.00  0.00    -0.354 N 
ATOM     68  N   UNL A   1      41.276  27.970  29.390  1.00  0.00    -0.248 NA
ATOM     69  C   UNL A   1      40.505  28.538  27.254  1.00  0.00     0.031 C 
ATOM     70  C   UNL A   1      38.652  31.063  29.093  1.00  0.00     0.029 A 
ATOM     71  C   UNL A   1      38.940  30.365  30.256  1.00  0.00     0.049 A 
ATOM     72  H   UNL A   1      38.592  30.962  32.243  1.00  0.00     0.167 HD
ATOM     73  C   UNL A   1      39.983  28.379  29.488  1.00  0.00     0.074 A 
ATOM     74  C   UNL A   1      39.493  28.475  28.118  1.00  0.00     0.031 C 
ATOM     75  C   UNL A   1      39.688  29.174  30.547  1.00  0.00     0.037 A 
BRANCH  62  76
ATOM     76  C   UNL A   1      38.548  33.604  32.994  1.00  0.00     0.058 A 
ATOM     77  C   UNL A   1      39.609  32.846  33.487  1.00  0.00     0.135 A 
ATOM     78  C   UNL A   1      37.734  34.277  33.942  1.00  0.00     0.135 A 
ATOM     79  F   UNL A   1      40.419  32.189  32.640  1.00  0.00    -0.206 F 
ATOM     80  C   UNL A   1      39.861  32.758  34.853  1.00  0.00     0.059 A 
ATOM     81  C   UNL A   1      37.929  34.154  35.311  1.00  0.00     0.059 A 
ATOM     82  F   UNL A   1      36.743  35.093  33.545  1.00  0.00    -0.206 F 
ATOM     83  C   UNL A   1      39.015  33.411  35.754  1.00  0.00     0.060 A 
BRANCH  83  84
ATOM     84  S   UNL A   1      39.405  33.321  37.512  1.00  0.00     0.124 S 
ATOM     85  O   UNL A   1      40.846  33.569  37.521  1.00  0.00    -0.237 OA
ATOM     86  O   UNL A   1      38.583  34.403  38.043  1.00  0.00    -0.237 OA
ATOM     87  O   UNL A   1      39.014  31.967  37.887  1.00  0.00    -0.744 OA
ENDBRANCH  83  84
ENDBRANCH  62  76
BRANCH  63  88
ATOM     88  C   UNL A   1      43.514  27.409  26.998  1.00  0.00     0.058 A 
ATOM     89  C   UNL A   1      44.104  26.243  27.653  1.00  0.00     0.135 A 
ATOM     90  C   UNL A   1      43.073  27.063  25.703  1.00  0.00     0.135 A 
ATOM     91  F   UNL A   1      44.620  26.336  28.889  1.00  0.00    -0.206 F 
ATOM     92  C   UNL A   1      44.146  24.906  27.135  1.00  0.00     0.059 A 
ATOM     93  C   UNL A   1      43.123  25.726  25.154  1.00  0.00     0.059 A 
ATOM     94  F   UNL A   1      42.493  27.996  24.939  1.00  0.00    -0.206 F 
ATOM     95  C   UNL A   1      43.618  24.641  25.885  1.00  0.00     0.060 A 
BRANCH  95  96
ATOM     96  S   UNL A   1      43.449  22.898  25.304  1.00  0.00     0.124 S 
ATOM     97  O   UNL A   1      44.596  22.231  25.910  1.00  0.00    -0.237 OA
ATOM     98  O   UNL A   1      42.145  22.506  25.836  1.00  0.00    -0.237 OA
ATOM     99  O   UNL A   1      43.500  23.019  23.850  1.00  0.00    -0.744 OA
ENDBRANCH  95  96
ENDBRANCH  63  88
BRANCH  75 100
ATOM    100  C   UNL A   1      40.304  28.831  31.886  1.00  0.00     0.058 A 
ATOM    101  C   UNL A   1      41.545  29.286  32.380  1.00  0.00     0.135 A 
ATOM    102  C   UNL A   1      39.606  27.932  32.707  1.00  0.00     0.135 A 
ATOM    103  F   UNL A   1      42.264  30.210  31.730  1.00  0.00    -0.206 F 
ATOM    104  C   UNL A   1      42.091  28.815  33.577  1.00  0.00     0.059 A 
ATOM    105  C   UNL A   1      40.110  27.478  33.924  1.00  0.00     0.059 A 
ATOM    106  F   UNL A   1      38.398  27.487  32.323  1.00  0.00    -0.206 F 
ATOM    107  C   UNL A   1      41.372  27.897  34.335  1.00  0.00     0.060 A 
BRANCH 107 108
ATOM    108  S   UNL A   1      42.101  27.266  35.863  1.00  0.00     0.124 S 
ATOM    109  O   UNL A   1      43.478  27.006  35.454  1.00  0.00    -0.237 OA
ATOM    110  O   UNL A   1      41.922  28.382  36.785  1.00  0.00    -0.237 OA
ATOM    111  O   UNL A   1      41.307  26.075  36.149  1.00  0.00    -0.744 OA
ENDBRANCH 107 108
ENDBRANCH  75 100
ENDBRANCH  49  50
ENDBRANCH  41  44
ENDBRANCH  39  40
ENDBRANCH  38  39
ENDBRANCH   1  38
TORSDOF 21
ENDMDL
MODEL 3
REMARK VINA RESULT:     -12.7      3.795      7.234
REMARK SMILES Cc1c(CC(=O)N[C@H](CO)C(=O)NCCCNC(=O)c2ccc(-c3c4nc(c(-c5c(F)cc(S(=O)(=O)[O-])cc5F)c5ccc([nH]5)c(-c5c(F)cc(S(=O)(=O)[O-])cc5F)c5nc(c(-c6c(F)cc(S(=O)(=O)[O-])cc6F)c6ccc3[nH]6)C=C5)C=C4)cc2)cc(-c2ccc(S(C)(=O)=O)cc2)n1-c1cccc(F)c1
REMARK SMILES IDX 14 1 13 2 11 3 12 4 8 6 7 7 5 8 6 9 4 11 3 12 1 13 2 14
REMARK SMILES IDX 98 15 86 16 87 17 99 18 100 19 105 20 101 21 103 22 102 23
REMARK SMILES IDX 104 24 88 25 89 26 97 27 90 28 96 29 91 30 92 31 93 32 94 33
REMARK SMILES IDX 95 34 9 35 10 36 15 38 16 39 17 40 18 41 19 43 20 44 21 45
REMARK SMILES IDX 85 46 22 47 84 48 23 49 24 50 25 51 78 52 26 53 83 54 77 55
REMARK SMILES IDX 79 56 27 57 82 58 76 59 75 60 28 62 62 63 41 64 61 65 42 66
REMARK SMILES IDX 45 67 60 68 80 69 43 70 44 71 59 73 81 74 46 75 29 76 30 77
REMARK SMILES IDX 39 78 31 79 32 80 38 81 40 82 33 83 34 84 35 85 36 86 37 87
REMARK SMILES IDX 63 88 64 89 73 90 65 91 66 92 72 93 74 94 67 95 68 96 69 97
REMARK SMILES IDX 70 98 71 99 47 100 48 101 57 102 49 103 50 104 56 105 58 106
REMARK SMILES IDX 51 107 52 108 53 109 54 110 55 111
REMARK H PARENT 13 5 7 10 10 37 17 42 79 61 45 72
REMARK Flexibility Score: inf
ROOT
ATOM      1  C   UNL A   1      35.117  24.666  24.732  1.00  0.00     0.117 C 
ENDROOT
BRANCH   1   2
ATOM      2  N   UNL A   1      33.697  24.346  24.895  1.00  0.00    -0.354 N 
ATOM      3  C   UNL A   1      32.642  24.915  24.257  1.00  0.00     0.244 C 
ATOM      4  O   UNL A   1      31.512  24.459  24.374  1.00  0.00    -0.273 OA
ATOM      5  H   UNL A   1      33.482  23.636  25.543  1.00  0.00     0.163 HD
BRANCH   3   6
ATOM      6  C   UNL A   1      33.020  26.023  23.337  1.00  0.00     0.197 C 
BRANCH   6   7
ATOM      7  N   UNL A   1      32.209  27.232  23.768  1.00  0.00    -0.342 N 
ATOM      8  C   UNL A   1      32.004  28.036  24.882  1.00  0.00     0.225 C 
ATOM      9  O   UNL A   1      31.087  28.860  24.693  1.00  0.00    -0.275 OA
ATOM     10  H   UNL A   1      31.652  27.547  23.020  1.00  0.00     0.164 HD
BRANCH   8  11
ATOM     11  C   UNL A   1      32.804  28.144  26.281  1.00  0.00     0.137 C 
BRANCH  11  12
ATOM     12  C   UNL A   1      33.680  29.431  26.682  1.00  0.00    -0.017 A 
ATOM     13  C   UNL A   1      31.682  31.594  26.967  1.00  0.00     0.065 C 
ATOM     14  C   UNL A   1      33.081  31.082  27.067  1.00  0.00     0.024 A 
ATOM     15  N   UNL A   1      34.428  32.022  27.938  1.00  0.00    -0.313 N 
ATOM     16  C   UNL A   1      35.539  29.357  27.307  1.00  0.00     0.033 A 
ATOM     17  C   UNL A   1      35.956  30.947  28.068  1.00  0.00     0.053 A 
BRANCH  15  18
ATOM     18  C   UNL A   1      34.186  33.204  28.717  1.00  0.00     0.049 A 
ATOM     19  C   UNL A   1      34.238  33.133  30.107  1.00  0.00     0.027 A 
ATOM     20  C   UNL A   1      33.884  34.425  28.101  1.00  0.00     0.065 A 
ATOM     21  C   UNL A   1      34.021  34.273  30.885  1.00  0.00     0.005 A 
ATOM     22  C   UNL A   1      33.614  35.541  28.891  1.00  0.00     0.125 A 
ATOM     23  C   UNL A   1      33.694  35.481  30.276  1.00  0.00     0.039 A 
ATOM     24  F   UNL A   1      33.257  36.691  28.303  1.00  0.00    -0.207 F 
ENDBRANCH  15  18
BRANCH  17  25
ATOM     25  C   UNL A   1      37.000  30.998  29.102  1.00  0.00    -0.001 A 
ATOM     26  C   UNL A   1      37.544  29.859  29.702  1.00  0.00     0.011 A 
ATOM     27  C   UNL A   1      37.599  32.243  29.311  1.00  0.00     0.011 A 
ATOM     28  C   UNL A   1      38.593  29.989  30.605  1.00  0.00     0.021 A 
ATOM     29  C   UNL A   1      38.618  32.391  30.236  1.00  0.00     0.021 A 
ATOM     30  C   UNL A   1      39.074  31.264  30.910  1.00  0.00     0.067 A 
BRANCH  30  31
ATOM     31  S   UNL A   1      40.164  31.455  32.288  1.00  0.00     0.175 S 
ATOM     32  C   UNL A   1      39.341  32.702  33.255  1.00  0.00     0.163 C 
ATOM     33  O   UNL A   1      40.133  30.207  33.025  1.00  0.00    -0.224 OA
ATOM     34  O   UNL A   1      41.401  31.992  31.772  1.00  0.00    -0.224 OA
ENDBRANCH  30  31
ENDBRANCH  17  25
ENDBRANCH  11  12
ENDBRANCH   8  11
ENDBRANCH   6   7
BRANCH   6  35
ATOM     35  C   UNL A   1      32.904  25.498  21.860  1.00  0.00     0.191 C 
BRANCH  35  36
ATOM     36  O   UNL A   1      33.318  24.138  21.697  1.00  0.00    -0.394 OA
ATOM     37  H   UNL A   1      33.274  23.896  20.759  1.00  0.00     0.210 HD
ENDBRANCH  35  36
ENDBRANCH   6  35
ENDBRANCH   3   6
ENDBRANCH   1   2
BRANCH   1  38
ATOM     38  C   UNL A   1      36.292  23.719  25.325  1.00  0.00     0.042 C 
BRANCH  38  39
ATOM     39  C   UNL A   1      38.230  24.063  26.453  1.00  0.00     0.118 C 
BRANCH  39  40
ATOM     40  N   UNL A   1      39.416  22.928  26.906  1.00  0.00    -0.352 N 
ATOM     41  C   UNL A   1      40.629  22.787  27.620  1.00  0.00     0.251 C 
ATOM     42  H   UNL A   1      39.168  22.051  26.536  1.00  0.00     0.163 HD
ATOM     43  O   UNL A   1      40.924  21.598  27.821  1.00  0.00    -0.269 OA
BRANCH  41  44
ATOM     44  C   UNL A   1      41.744  23.815  27.942  1.00  0.00     0.039 A 
ATOM     45  C   UNL A   1      41.378  24.904  28.728  1.00  0.00     0.014 A 
ATOM     46  C   UNL A   1      43.013  24.019  27.351  1.00  0.00     0.014 A 
ATOM     47  C   UNL A   1      42.290  25.987  29.069  1.00  0.00     0.010 A 
ATOM     48  C   UNL A   1      43.945  25.191  27.670  1.00  0.00     0.010 A 
ATOM     49  C   UNL A   1      43.655  26.213  28.611  1.00  0.00    -0.014 A 
BRANCH  49  50
ATOM     50  C   UNL A   1      44.334  27.804  28.894  1.00  0.00     0.031 A 
ATOM     51  C   UNL A   1      45.720  27.346  29.253  1.00  0.00     0.074 A 
ATOM     52  C   UNL A   1      44.098  29.230  29.011  1.00  0.00     0.049 A 
ATOM     53  N   UNL A   1      45.798  26.411  30.166  1.00  0.00    -0.248 NA
ATOM     54  C   UNL A   1      46.931  27.422  28.424  1.00  0.00     0.031 C 
ATOM     55  C   UNL A   1      42.804  29.963  28.967  1.00  0.00     0.029 A 
ATOM     56  N   UNL A   1      44.962  30.434  29.210  1.00  0.00    -0.354 N 
ATOM     57  C   UNL A   1      47.114  26.093  30.321  1.00  0.00     0.074 A 
ATOM     58  C   UNL A   1      47.698  26.514  29.052  1.00  0.00     0.031 C 
ATOM     59  C   UNL A   1      42.923  31.336  28.953  1.00  0.00     0.029 A 
ATOM     60  C   UNL A   1      44.314  31.801  29.076  1.00  0.00     0.049 A 
ATOM     61  H   UNL A   1      45.918  30.343  29.422  1.00  0.00     0.167 HD
ATOM     62  C   UNL A   1      47.539  26.388  31.586  1.00  0.00     0.037 A 
ATOM     63  C   UNL A   1      44.814  33.150  29.195  1.00  0.00     0.037 A 
ATOM     64  C   UNL A   1      48.052  27.734  31.665  1.00  0.00     0.049 A 
ATOM     65  C   UNL A   1      45.891  33.014  30.179  1.00  0.00     0.074 A 
ATOM     66  C   UNL A   1      48.848  28.473  30.808  1.00  0.00     0.029 A 
ATOM     67  N   UNL A   1      47.367  28.635  32.452  1.00  0.00    -0.354 N 
ATOM     68  N   UNL A   1      45.668  32.818  31.440  1.00  0.00    -0.248 NA
ATOM     69  C   UNL A   1      47.286  33.100  29.774  1.00  0.00     0.031 C 
ATOM     70  C   UNL A   1      48.201  29.718  30.730  1.00  0.00     0.029 A 
ATOM     71  C   UNL A   1      47.434  29.880  31.874  1.00  0.00     0.049 A 
ATOM     72  H   UNL A   1      46.902  28.421  33.294  1.00  0.00     0.167 HD
ATOM     73  C   UNL A   1      46.798  32.163  31.816  1.00  0.00     0.074 A 
ATOM     74  C   UNL A   1      47.830  32.580  30.874  1.00  0.00     0.031 C 
ATOM     75  C   UNL A   1      46.620  30.946  32.388  1.00  0.00     0.037 A 
BRANCH  62  76
ATOM     76  C   UNL A   1      46.650  25.764  32.642  1.00  0.00     0.058 A 
ATOM     77  C   UNL A   1      47.165  24.719  33.409  1.00  0.00     0.135 A 
ATOM     78  C   UNL A   1      45.286  26.103  32.838  1.00  0.00     0.135 A 
ATOM     79  F   UNL A   1      48.451  24.354  33.272  1.00  0.00    -0.206 F 
ATOM     80  C   UNL A   1      46.373  24.042  34.332  1.00  0.00     0.059 A 
ATOM     81  C   UNL A   1      44.461  25.400  33.707  1.00  0.00     0.059 A 
ATOM     82  F   UNL A   1      44.735  27.149  32.199  1.00  0.00    -0.206 F 
ATOM     83  C   UNL A   1      45.025  24.386  34.469  1.00  0.00     0.060 A 
BRANCH  83  84
ATOM     84  S   UNL A   1      44.047  23.525  35.714  1.00  0.00     0.124 S 
ATOM     85  O   UNL A   1      42.829  23.194  34.975  1.00  0.00    -0.237 OA
ATOM     86  O   UNL A   1      44.914  22.393  36.025  1.00  0.00    -0.237 OA
ATOM     87  O   UNL A   1      43.874  24.516  36.770  1.00  0.00    -0.744 OA
ENDBRANCH  83  84
ENDBRANCH  62  76
BRANCH  63  88
ATOM     88  C   UNL A   1      44.666  34.792  28.962  1.00  0.00     0.058 A 
ATOM     89  C   UNL A   1      45.084  35.463  27.731  1.00  0.00     0.135 A 
ATOM     90  C   UNL A   1      43.756  35.605  29.669  1.00  0.00     0.135 A 
ATOM     91  F   UNL A   1      45.972  34.891  26.904  1.00  0.00    -0.206 F 
ATOM     92  C   UNL A   1      44.582  36.709  27.229  1.00  0.00     0.059 A 
ATOM     93  C   UNL A   1      43.252  36.874  29.190  1.00  0.00     0.059 A 
ATOM     94  F   UNL A   1      43.247  35.164  30.825  1.00  0.00    -0.206 F 
ATOM     95  C   UNL A   1      43.630  37.403  27.952  1.00  0.00     0.060 A 
BRANCH  95  96
ATOM     96  S   UNL A   1      42.804  38.879  27.214  1.00  0.00     0.124 S 
ATOM     97  O   UNL A   1      43.856  39.480  26.403  1.00  0.00    -0.237 OA
ATOM     98  O   UNL A   1      41.698  38.287  26.464  1.00  0.00    -0.237 OA
ATOM     99  O   UNL A   1      42.398  39.659  28.380  1.00  0.00    -0.744 OA
ENDBRANCH  95  96
ENDBRANCH  63  88
BRANCH  75 100
ATOM    100  C   UNL A   1      45.485  30.784  33.376  1.00  0.00     0.058 A 
ATOM    101  C   UNL A   1      44.228  30.194  33.122  1.00  0.00     0.135 A 
ATOM    102  C   UNL A   1      45.668  31.315  34.662  1.00  0.00     0.135 A 
ATOM    103  F   UNL A   1      43.963  29.579  31.963  1.00  0.00    -0.206 F 
ATOM    104  C   UNL A   1      43.195  30.203  34.062  1.00  0.00     0.059 A 
ATOM    105  C   UNL A   1      44.667  31.300  35.630  1.00  0.00     0.059 A 
ATOM    106  F   UNL A   1      46.852  31.856  34.992  1.00  0.00    -0.206 F 
ATOM    107  C   UNL A   1      43.419  30.774  35.310  1.00  0.00     0.060 A 
BRANCH 107 108
ATOM    108  S   UNL A   1      42.066  30.812  36.507  1.00  0.00     0.124 S 
ATOM    109  O   UNL A   1      41.381  29.555  36.226  1.00  0.00    -0.237 OA
ATOM    110  O   UNL A   1      42.772  30.870  37.783  1.00  0.00    -0.237 OA
ATOM    111  O   UNL A   1      41.325  32.015  36.139  1.00  0.00    -0.744 OA
ENDBRANCH 107 108
ENDBRANCH  75 100
ENDBRANCH  49  50
ENDBRANCH  41  44
ENDBRANCH  39  40
ENDBRANCH  38  39
ENDBRANCH   1  38
TORSDOF 21
ENDMDL
