MODEL 1
REMARK VINA RESULT:     -11.8      0.000      0.000
REMARK SMILES CS(=O)(=O)c1ccc(/C=C(/C(=O)NCCCNC(=O)c2ccc(-c3c4nc(c(-c5c(F)cc(S(=O)(=O)[O-])cc5F)c5ccc([nH]5)c(-c5c(F)cc(S(=O)(=O)[O-])cc5F)c5nc(c(-c6c(F)cc(S(=O)(=O)[O-])cc6F)c6ccc3[nH]6)C=C5)C=C4)cc2)c2ccccc2)cc1
REMARK SMILES IDX 15 1 14 2 13 3 11 4 12 5 10 7 9 8 8 9 5 10 6 11 93 12 7 13
REMARK SMILES IDX 92 14 2 15 1 16 3 17 4 18 86 19 87 20 91 21 88 22 90 23
REMARK SMILES IDX 89 24 16 25 17 26 18 27 19 29 20 30 21 31 85 32 22 33 84 34
REMARK SMILES IDX 23 35 24 36 25 37 78 38 26 39 83 40 77 41 79 42 27 43 82 44
REMARK SMILES IDX 76 45 75 46 28 48 62 49 41 50 61 51 42 52 45 53 60 54 80 55
REMARK SMILES IDX 43 56 44 57 59 59 81 60 46 61 29 62 30 63 39 64 31 65 32 66
REMARK SMILES IDX 38 67 40 68 33 69 34 70 35 71 36 72 37 73 63 74 64 75 73 76
REMARK SMILES IDX 65 77 66 78 72 79 74 80 67 81 68 82 69 83 70 84 71 85 47 86
REMARK SMILES IDX 48 87 57 88 49 89 50 90 56 91 58 92 51 93 52 94 53 95 54 96
REMARK SMILES IDX 55 97
REMARK H PARENT 13 6 17 28 79 47 45 58
REMARK Flexibility Score: inf
ROOT
ATOM      1  C   UNL A   1      33.119  27.063  26.372  1.00  0.00     0.042 C 
ENDROOT
BRANCH   1   2
ATOM      2  C   UNL A   1      32.125  26.867  25.225  1.00  0.00     0.118 C 
BRANCH   2   3
ATOM      3  N   UNL A   1      32.796  26.946  23.940  1.00  0.00    -0.352 N 
ATOM      4  C   UNL A   1      33.483  26.059  23.174  1.00  0.00     0.251 C 
ATOM      5  O   UNL A   1      33.935  26.501  22.113  1.00  0.00    -0.269 OA
ATOM      6  H   UNL A   1      32.739  27.841  23.533  1.00  0.00     0.163 HD
BRANCH   4   7
ATOM      7  C   UNL A   1      33.632  24.594  23.516  1.00  0.00     0.047 C 
ATOM      8  C   UNL A   1      32.578  23.746  23.494  1.00  0.00     0.022 C 
BRANCH   8   9
ATOM      9  C   UNL A   1      32.539  22.278  23.690  1.00  0.00    -0.025 A 
ATOM     10  C   UNL A   1      32.587  19.477  23.858  1.00  0.00     0.067 A 
ATOM     11  C   UNL A   1      32.874  20.246  24.985  1.00  0.00     0.021 A 
ATOM     12  C   UNL A   1      32.241  20.087  22.654  1.00  0.00     0.021 A 
ATOM     13  C   UNL A   1      32.812  21.640  24.905  1.00  0.00     0.009 A 
ATOM     14  C   UNL A   1      32.220  21.483  22.575  1.00  0.00     0.009 A 
BRANCH  10  15
ATOM     15  S   UNL A   1      32.699  17.709  23.971  1.00  0.00     0.175 S 
ATOM     16  C   UNL A   1      34.373  17.422  24.478  1.00  0.00     0.163 C 
ATOM     17  O   UNL A   1      32.530  17.188  22.629  1.00  0.00    -0.224 OA
ATOM     18  O   UNL A   1      31.829  17.275  25.050  1.00  0.00    -0.224 OA
ENDBRANCH  10  15
ENDBRANCH   8   9
BRANCH   7  19
ATOM     19  C   UNL A   1      34.950  24.166  24.053  1.00  0.00    -0.013 A 
ATOM     20  C   UNL A   1      35.269  24.483  25.385  1.00  0.00     0.009 A 
ATOM     21  C   UNL A   1      35.845  23.384  23.312  1.00  0.00     0.009 A 
ATOM     22  C   UNL A   1      36.439  24.005  25.975  1.00  0.00     0.001 A 
ATOM     23  C   UNL A   1      37.011  22.893  23.909  1.00  0.00     0.001 A 
ATOM     24  C   UNL A   1      37.303  23.200  25.239  1.00  0.00     0.000 A 
ENDBRANCH   7  19
ENDBRANCH   4   7
ENDBRANCH   2   3
ENDBRANCH   1   2
BRANCH   1  25
ATOM     25  C   UNL A   1      34.160  28.154  26.110  1.00  0.00     0.118 C 
BRANCH  25  26
ATOM     26  N   UNL A   1      33.802  29.417  26.741  1.00  0.00    -0.352 N 
ATOM     27  C   UNL A   1      34.480  30.162  27.673  1.00  0.00     0.251 C 
ATOM     28  H   UNL A   1      32.939  29.794  26.454  1.00  0.00     0.163 HD
ATOM     29  O   UNL A   1      33.898  31.084  28.240  1.00  0.00    -0.269 OA
BRANCH  27  30
ATOM     30  C   UNL A   1      35.891  29.865  28.007  1.00  0.00     0.039 A 
ATOM     31  C   UNL A   1      36.199  29.431  29.300  1.00  0.00     0.014 A 
ATOM     32  C   UNL A   1      36.918  30.065  27.079  1.00  0.00     0.014 A 
ATOM     33  C   UNL A   1      37.524  29.148  29.645  1.00  0.00     0.010 A 
ATOM     34  C   UNL A   1      38.230  29.724  27.405  1.00  0.00     0.010 A 
ATOM     35  C   UNL A   1      38.549  29.266  28.693  1.00  0.00    -0.014 A 
BRANCH  35  36
ATOM     36  C   UNL A   1      39.953  28.908  29.024  1.00  0.00     0.031 A 
ATOM     37  C   UNL A   1      40.884  29.936  29.608  1.00  0.00     0.074 A 
ATOM     38  C   UNL A   1      40.409  27.673  28.730  1.00  0.00     0.049 A 
ATOM     39  N   UNL A   1      42.159  29.833  29.885  1.00  0.00    -0.248 NA
ATOM     40  C   UNL A   1      40.316  31.264  29.893  1.00  0.00     0.031 C 
ATOM     41  C   UNL A   1      39.619  26.606  28.109  1.00  0.00     0.029 A 
ATOM     42  N   UNL A   1      41.651  27.112  28.893  1.00  0.00    -0.354 N 
ATOM     43  C   UNL A   1      42.551  31.083  30.350  1.00  0.00     0.074 A 
ATOM     44  C   UNL A   1      41.387  31.940  30.286  1.00  0.00     0.031 C 
ATOM     45  C   UNL A   1      40.393  25.521  27.950  1.00  0.00     0.029 A 
ATOM     46  C   UNL A   1      41.741  25.821  28.425  1.00  0.00     0.049 A 
ATOM     47  H   UNL A   1      42.407  27.588  29.307  1.00  0.00     0.167 HD
ATOM     48  C   UNL A   1      43.767  31.475  30.801  1.00  0.00     0.037 A 
ATOM     49  C   UNL A   1      42.791  24.981  28.369  1.00  0.00     0.037 A 
ATOM     50  C   UNL A   1      44.909  30.604  30.903  1.00  0.00     0.049 A 
ATOM     51  C   UNL A   1      44.120  25.429  28.913  1.00  0.00     0.074 A 
ATOM     52  C   UNL A   1      46.158  30.883  31.433  1.00  0.00     0.029 A 
ATOM     53  N   UNL A   1      44.947  29.288  30.467  1.00  0.00    -0.354 N 
ATOM     54  N   UNL A   1      44.450  26.590  29.427  1.00  0.00    -0.248 NA
ATOM     55  C   UNL A   1      45.218  24.451  28.883  1.00  0.00     0.031 C 
ATOM     56  C   UNL A   1      46.962  29.749  31.279  1.00  0.00     0.029 A 
ATOM     57  C   UNL A   1      46.201  28.749  30.696  1.00  0.00     0.049 A 
ATOM     58  H   UNL A   1      44.191  28.809  30.056  1.00  0.00     0.167 HD
ATOM     59  C   UNL A   1      45.784  26.474  29.802  1.00  0.00     0.074 A 
ATOM     60  C   UNL A   1      46.197  25.126  29.469  1.00  0.00     0.031 C 
ATOM     61  C   UNL A   1      46.593  27.401  30.370  1.00  0.00     0.037 A 
BRANCH  48  62
ATOM     62  C   UNL A   1      43.934  32.908  31.228  1.00  0.00     0.058 A 
ATOM     63  C   UNL A   1      43.828  33.296  32.573  1.00  0.00     0.135 A 
ATOM     64  C   UNL A   1      44.267  33.895  30.286  1.00  0.00     0.135 A 
ATOM     65  F   UNL A   1      43.498  32.395  33.513  1.00  0.00    -0.206 F 
ATOM     66  C   UNL A   1      44.029  34.615  32.967  1.00  0.00     0.059 A 
ATOM     67  C   UNL A   1      44.498  35.216  30.661  1.00  0.00     0.059 A 
ATOM     68  F   UNL A   1      44.381  33.579  28.986  1.00  0.00    -0.206 F 
ATOM     69  C   UNL A   1      44.366  35.567  32.004  1.00  0.00     0.060 A 
BRANCH  69  70
ATOM     70  S   UNL A   1      44.648  37.269  32.537  1.00  0.00     0.124 S 
ATOM     71  O   UNL A   1      43.334  37.633  33.057  1.00  0.00    -0.237 OA
ATOM     72  O   UNL A   1      45.704  37.115  33.533  1.00  0.00    -0.237 OA
ATOM     73  O   UNL A   1      45.046  37.949  31.307  1.00  0.00    -0.744 OA
ENDBRANCH  69  70
ENDBRANCH  48  62
BRANCH  49  74
ATOM     74  C   UNL A   1      42.628  23.624  27.781  1.00  0.00     0.058 A 
ATOM     75  C   UNL A   1      42.704  23.420  26.396  1.00  0.00     0.135 A 
ATOM     76  C   UNL A   1      42.396  22.504  28.595  1.00  0.00     0.135 A 
ATOM     77  F   UNL A   1      42.919  24.461  25.576  1.00  0.00    -0.206 F 
ATOM     78  C   UNL A   1      42.535  22.159  25.834  1.00  0.00     0.059 A 
ATOM     79  C   UNL A   1      42.249  21.229  28.059  1.00  0.00     0.059 A 
ATOM     80  F   UNL A   1      42.336  22.642  29.928  1.00  0.00    -0.206 F 
ATOM     81  C   UNL A   1      42.307  21.069  26.675  1.00  0.00     0.060 A 
BRANCH  81  82
ATOM     82  S   UNL A   1      42.126  19.428  25.942  1.00  0.00     0.124 S 
ATOM     83  O   UNL A   1      40.685  19.360  25.728  1.00  0.00    -0.237 OA
ATOM     84  O   UNL A   1      42.947  19.535  24.740  1.00  0.00    -0.237 OA
ATOM     85  O   UNL A   1      42.655  18.541  26.974  1.00  0.00    -0.744 OA
ENDBRANCH  81  82
ENDBRANCH  49  74
BRANCH  61  86
ATOM     86  C   UNL A   1      47.999  26.983  30.703  1.00  0.00     0.058 A 
ATOM     87  C   UNL A   1      49.058  27.177  29.805  1.00  0.00     0.135 A 
ATOM     88  C   UNL A   1      48.295  26.430  31.960  1.00  0.00     0.135 A 
ATOM     89  F   UNL A   1      48.827  27.695  28.588  1.00  0.00    -0.206 F 
ATOM     90  C   UNL A   1      50.362  26.817  30.133  1.00  0.00     0.059 A 
ATOM     91  C   UNL A   1      49.595  26.088  32.318  1.00  0.00     0.059 A 
ATOM     92  F   UNL A   1      47.318  26.234  32.859  1.00  0.00    -0.206 F 
ATOM     93  C   UNL A   1      50.620  26.275  31.393  1.00  0.00     0.060 A 
BRANCH  93  94
ATOM     94  S   UNL A   1      52.321  25.846  31.820  1.00  0.00     0.124 S 
ATOM     95  O   UNL A   1      52.602  26.792  32.894  1.00  0.00    -0.237 OA
ATOM     96  O   UNL A   1      52.202  24.448  32.221  1.00  0.00    -0.237 OA
ATOM     97  O   UNL A   1      53.050  26.074  30.575  1.00  0.00    -0.744 OA
ENDBRANCH  93  94
ENDBRANCH  61  86
ENDBRANCH  35  36
ENDBRANCH  27  30
ENDBRANCH  25  26
ENDBRANCH   1  25
TORSDOF 16
ENDMDL
MODEL 2
REMARK VINA RESULT:     -11.5      3.980      7.281
REMARK SMILES CS(=O)(=O)c1ccc(/C=C(/C(=O)NCCCNC(=O)c2ccc(-c3c4nc(c(-c5c(F)cc(S(=O)(=O)[O-])cc5F)c5ccc([nH]5)c(-c5c(F)cc(S(=O)(=O)[O-])cc5F)c5nc(c(-c6c(F)cc(S(=O)(=O)[O-])cc6F)c6ccc3[nH]6)C=C5)C=C4)cc2)c2ccccc2)cc1
REMARK SMILES IDX 15 1 14 2 13 3 11 4 12 5 10 7 9 8 8 9 5 10 6 11 93 12 7 13
REMARK SMILES IDX 92 14 2 15 1 16 3 17 4 18 86 19 87 20 91 21 88 22 90 23
REMARK SMILES IDX 89 24 16 25 17 26 18 27 19 29 20 30 21 31 85 32 22 33 84 34
REMARK SMILES IDX 23 35 24 36 25 37 78 38 26 39 83 40 77 41 79 42 27 43 82 44
REMARK SMILES IDX 76 45 75 46 28 48 62 49 41 50 61 51 42 52 45 53 60 54 80 55
REMARK SMILES IDX 43 56 44 57 59 59 81 60 46 61 29 62 30 63 39 64 31 65 32 66
REMARK SMILES IDX 38 67 40 68 33 69 34 70 35 71 36 72 37 73 63 74 64 75 73 76
REMARK SMILES IDX 65 77 66 78 72 79 74 80 67 81 68 82 69 83 70 84 71 85 47 86
REMARK SMILES IDX 48 87 57 88 49 89 50 90 56 91 58 92 51 93 52 94 53 95 54 96
REMARK SMILES IDX 55 97
REMARK H PARENT 13 6 17 28 79 47 45 58
REMARK Flexibility Score: inf
ROOT
ATOM      1  C   UNL A   1      34.390  32.933  29.912  1.00  0.00     0.042 C 
ENDROOT
BRANCH   1   2
ATOM      2  C   UNL A   1      35.597  32.682  30.820  1.00  0.00     0.118 C 
BRANCH   2   3
ATOM      3  N   UNL A   1      35.271  32.969  32.205  1.00  0.00    -0.352 N 
ATOM      4  C   UNL A   1      35.916  32.792  33.387  1.00  0.00     0.251 C 
ATOM      5  O   UNL A   1      35.305  33.157  34.395  1.00  0.00    -0.269 OA
ATOM      6  H   UNL A   1      34.385  33.386  32.311  1.00  0.00     0.163 HD
BRANCH   4   7
ATOM      7  C   UNL A   1      37.330  32.267  33.500  1.00  0.00     0.047 C 
ATOM      8  C   UNL A   1      37.593  30.945  33.620  1.00  0.00     0.022 C 
BRANCH   8   9
ATOM      9  C   UNL A   1      38.892  30.235  33.635  1.00  0.00    -0.025 A 
ATOM     10  C   UNL A   1      41.328  28.857  33.429  1.00  0.00     0.067 A 
ATOM     11  C   UNL A   1      41.259  30.040  34.165  1.00  0.00     0.021 A 
ATOM     12  C   UNL A   1      40.189  28.331  32.824  1.00  0.00     0.021 A 
ATOM     13  C   UNL A   1      40.035  30.702  34.295  1.00  0.00     0.009 A 
ATOM     14  C   UNL A   1      38.978  29.023  32.928  1.00  0.00     0.009 A 
BRANCH  10  15
ATOM     15  S   UNL A   1      42.897  28.044  33.251  1.00  0.00     0.175 S 
ATOM     16  C   UNL A   1      42.849  26.760  34.472  1.00  0.00     0.163 C 
ATOM     17  O   UNL A   1      43.915  29.002  33.633  1.00  0.00    -0.224 OA
ATOM     18  O   UNL A   1      42.926  27.411  31.945  1.00  0.00    -0.224 OA
ENDBRANCH  10  15
ENDBRANCH   8   9
BRANCH   7  19
ATOM     19  C   UNL A   1      38.406  33.280  33.653  1.00  0.00    -0.013 A 
ATOM     20  C   UNL A   1      38.736  33.719  34.948  1.00  0.00     0.009 A 
ATOM     21  C   UNL A   1      39.161  33.744  32.569  1.00  0.00     0.009 A 
ATOM     22  C   UNL A   1      39.814  34.578  35.160  1.00  0.00     0.001 A 
ATOM     23  C   UNL A   1      40.251  34.594  32.785  1.00  0.00     0.001 A 
ATOM     24  C   UNL A   1      40.579  35.005  34.078  1.00  0.00     0.000 A 
ENDBRANCH   7  19
ENDBRANCH   4   7
ENDBRANCH   2   3
ENDBRANCH   1   2
BRANCH   1  25
ATOM     25  C   UNL A   1      34.617  32.520  28.455  1.00  0.00     0.118 C 
BRANCH  25  26
ATOM     26  N   UNL A   1      33.983  31.247  28.141  1.00  0.00    -0.352 N 
ATOM     27  C   UNL A   1      34.542  30.013  27.916  1.00  0.00     0.251 C 
ATOM     28  H   UNL A   1      33.001  31.276  28.079  1.00  0.00     0.163 HD
ATOM     29  O   UNL A   1      33.844  29.118  27.446  1.00  0.00    -0.269 OA
BRANCH  27  30
ATOM     30  C   UNL A   1      35.966  29.754  28.224  1.00  0.00     0.039 A 
ATOM     31  C   UNL A   1      36.309  29.332  29.513  1.00  0.00     0.014 A 
ATOM     32  C   UNL A   1      36.970  29.977  27.277  1.00  0.00     0.014 A 
ATOM     33  C   UNL A   1      37.646  29.085  29.835  1.00  0.00     0.010 A 
ATOM     34  C   UNL A   1      38.296  29.672  27.581  1.00  0.00     0.010 A 
ATOM     35  C   UNL A   1      38.650  29.226  28.864  1.00  0.00    -0.014 A 
BRANCH  35  36
ATOM     36  C   UNL A   1      40.069  28.905  29.170  1.00  0.00     0.031 A 
ATOM     37  C   UNL A   1      40.974  29.948  29.770  1.00  0.00     0.074 A 
ATOM     38  C   UNL A   1      40.561  27.693  28.840  1.00  0.00     0.049 A 
ATOM     39  N   UNL A   1      42.254  29.878  30.030  1.00  0.00    -0.248 NA
ATOM     40  C   UNL A   1      40.367  31.249  30.095  1.00  0.00     0.031 C 
ATOM     41  C   UNL A   1      39.798  26.617  28.201  1.00  0.00     0.029 A 
ATOM     42  N   UNL A   1      41.821  27.168  28.975  1.00  0.00    -0.354 N 
ATOM     43  C   UNL A   1      42.612  31.128  30.522  1.00  0.00     0.074 A 
ATOM     44  C   UNL A   1      41.421  31.949  30.493  1.00  0.00     0.031 C 
ATOM     45  C   UNL A   1      40.604  25.562  28.005  1.00  0.00     0.029 A 
ATOM     46  C   UNL A   1      41.947  25.894  28.473  1.00  0.00     0.049 A 
ATOM     47  H   UNL A   1      42.566  27.658  29.393  1.00  0.00     0.167 HD
ATOM     48  C   UNL A   1      43.820  31.548  30.970  1.00  0.00     0.037 A 
ATOM     49  C   UNL A   1      43.023  25.089  28.384  1.00  0.00     0.037 A 
ATOM     50  C   UNL A   1      44.990  30.712  31.037  1.00  0.00     0.049 A 
ATOM     51  C   UNL A   1      44.343  25.565  28.925  1.00  0.00     0.074 A 
ATOM     52  C   UNL A   1      46.236  31.018  31.560  1.00  0.00     0.029 A 
ATOM     53  N   UNL A   1      45.065  29.409  30.567  1.00  0.00    -0.354 N 
ATOM     54  N   UNL A   1      44.642  26.724  29.464  1.00  0.00    -0.248 NA
ATOM     55  C   UNL A   1      45.471  24.625  28.858  1.00  0.00     0.031 C 
ATOM     56  C   UNL A   1      47.074  29.914  31.368  1.00  0.00     0.029 A 
ATOM     57  C   UNL A   1      46.338  28.905  30.768  1.00  0.00     0.049 A 
ATOM     58  H   UNL A   1      44.320  28.916  30.152  1.00  0.00     0.167 HD
ATOM     59  C   UNL A   1      45.984  26.641  29.821  1.00  0.00     0.074 A 
ATOM     60  C   UNL A   1      46.435  25.316  29.450  1.00  0.00     0.031 C 
ATOM     61  C   UNL A   1      46.769  27.580  30.404  1.00  0.00     0.037 A 
BRANCH  48  62
ATOM     62  C   UNL A   1      43.946  32.974  31.431  1.00  0.00     0.058 A 
ATOM     63  C   UNL A   1      43.790  33.332  32.779  1.00  0.00     0.135 A 
ATOM     64  C   UNL A   1      44.290  33.988  30.520  1.00  0.00     0.135 A 
ATOM     65  F   UNL A   1      43.449  32.405  33.689  1.00  0.00    -0.206 F 
ATOM     66  C   UNL A   1      43.954  34.645  33.207  1.00  0.00     0.059 A 
ATOM     67  C   UNL A   1      44.483  35.304  30.930  1.00  0.00     0.059 A 
ATOM     68  F   UNL A   1      44.450  33.701  29.219  1.00  0.00    -0.206 F 
ATOM     69  C   UNL A   1      44.303  35.624  32.275  1.00  0.00     0.060 A 
BRANCH  69  70
ATOM     70  S   UNL A   1      44.536  37.320  32.851  1.00  0.00     0.124 S 
ATOM     71  O   UNL A   1      45.990  37.439  32.824  1.00  0.00    -0.237 OA
ATOM     72  O   UNL A   1      43.817  38.094  31.844  1.00  0.00    -0.237 OA
ATOM     73  O   UNL A   1      43.932  37.313  34.180  1.00  0.00    -0.744 OA
ENDBRANCH  69  70
ENDBRANCH  48  62
BRANCH  49  74
ATOM     74  C   UNL A   1      42.896  23.742  27.764  1.00  0.00     0.058 A 
ATOM     75  C   UNL A   1      43.025  23.568  26.379  1.00  0.00     0.135 A 
ATOM     76  C   UNL A   1      42.648  22.604  28.546  1.00  0.00     0.135 A 
ATOM     77  F   UNL A   1      43.257  24.627  25.587  1.00  0.00    -0.206 F 
ATOM     78  C   UNL A   1      42.890  22.316  25.786  1.00  0.00     0.059 A 
ATOM     79  C   UNL A   1      42.534  21.338  27.980  1.00  0.00     0.059 A 
ATOM     80  F   UNL A   1      42.537  22.714  29.879  1.00  0.00    -0.206 F 
ATOM     81  C   UNL A   1      42.643  21.207  26.596  1.00  0.00     0.060 A 
BRANCH  81  82
ATOM     82  S   UNL A   1      42.507  19.580  25.825  1.00  0.00     0.124 S 
ATOM     83  O   UNL A   1      43.487  19.682  24.749  1.00  0.00    -0.237 OA
ATOM     84  O   UNL A   1      42.856  18.686  26.925  1.00  0.00    -0.237 OA
ATOM     85  O   UNL A   1      41.110  19.525  25.404  1.00  0.00    -0.744 OA
ENDBRANCH  81  82
ENDBRANCH  49  74
BRANCH  61  86
ATOM     86  C   UNL A   1      48.191  27.199  30.711  1.00  0.00     0.058 A 
ATOM     87  C   UNL A   1      48.524  26.444  31.846  1.00  0.00     0.135 A 
ATOM     88  C   UNL A   1      49.226  27.550  29.829  1.00  0.00     0.135 A 
ATOM     89  F   UNL A   1      47.573  26.090  32.725  1.00  0.00    -0.206 F 
ATOM     90  C   UNL A   1      49.838  26.068  32.107  1.00  0.00     0.059 A 
ATOM     91  C   UNL A   1      50.542  27.161  30.056  1.00  0.00     0.059 A 
ATOM     92  F   UNL A   1      48.959  28.262  28.723  1.00  0.00    -0.206 F 
ATOM     93  C   UNL A   1      50.840  26.430  31.204  1.00  0.00     0.060 A 
BRANCH  93  94
ATOM     94  S   UNL A   1      52.535  25.904  31.536  1.00  0.00     0.124 S 
ATOM     95  O   UNL A   1      52.984  26.932  32.468  1.00  0.00    -0.237 OA
ATOM     96  O   UNL A   1      52.346  24.573  32.102  1.00  0.00    -0.237 OA
ATOM     97  O   UNL A   1      53.162  25.934  30.217  1.00  0.00    -0.744 OA
ENDBRANCH  93  94
ENDBRANCH  61  86
ENDBRANCH  35  36
ENDBRANCH  27  30
ENDBRANCH  25  26
ENDBRANCH   1  25
TORSDOF 16
ENDMDL
MODEL 3
REMARK VINA RESULT:     -11.2      2.697      4.000
REMARK SMILES CS(=O)(=O)c1ccc(/C=C(/C(=O)NCCCNC(=O)c2ccc(-c3c4nc(c(-c5c(F)cc(S(=O)(=O)[O-])cc5F)c5ccc([nH]5)c(-c5c(F)cc(S(=O)(=O)[O-])cc5F)c5nc(c(-c6c(F)cc(S(=O)(=O)[O-])cc6F)c6ccc3[nH]6)C=C5)C=C4)cc2)c2ccccc2)cc1
REMARK SMILES IDX 15 1 14 2 13 3 11 4 12 5 10 7 9 8 8 9 5 10 6 11 93 12 7 13
REMARK SMILES IDX 92 14 2 15 1 16 3 17 4 18 86 19 87 20 91 21 88 22 90 23
REMARK SMILES IDX 89 24 16 25 17 26 18 27 19 29 20 30 21 31 85 32 22 33 84 34
REMARK SMILES IDX 23 35 24 36 25 37 78 38 26 39 83 40 77 41 79 42 27 43 82 44
REMARK SMILES IDX 76 45 75 46 28 48 62 49 41 50 61 51 42 52 45 53 60 54 80 55
REMARK SMILES IDX 43 56 44 57 59 59 81 60 46 61 29 62 30 63 39 64 31 65 32 66
REMARK SMILES IDX 38 67 40 68 33 69 34 70 35 71 36 72 37 73 63 74 64 75 73 76
REMARK SMILES IDX 65 77 66 78 72 79 74 80 67 81 68 82 69 83 70 84 71 85 47 86
REMARK SMILES IDX 48 87 57 88 49 89 50 90 56 91 58 92 51 93 52 94 53 95 54 96
REMARK SMILES IDX 55 97
REMARK H PARENT 13 6 17 28 79 47 45 58
REMARK Flexibility Score: inf
ROOT
ATOM      1  C   UNL A   1      34.207  30.197  27.118  1.00  0.00     0.042 C 
ENDROOT
BRANCH   1   2
ATOM      2  C   UNL A   1      33.531  29.072  26.333  1.00  0.00     0.118 C 
BRANCH   2   3
ATOM      3  N   UNL A   1      33.926  29.105  24.936  1.00  0.00    -0.352 N 
ATOM      4  C   UNL A   1      33.906  28.200  23.923  1.00  0.00     0.251 C 
ATOM      5  O   UNL A   1      34.347  28.593  22.840  1.00  0.00    -0.269 OA
ATOM      6  H   UNL A   1      34.289  29.979  24.662  1.00  0.00     0.163 HD
BRANCH   4   7
ATOM      7  C   UNL A   1      33.306  26.817  24.047  1.00  0.00     0.047 C 
ATOM      8  C   UNL A   1      34.043  25.700  23.849  1.00  0.00     0.022 C 
BRANCH   8   9
ATOM      9  C   UNL A   1      33.673  24.277  24.026  1.00  0.00    -0.025 A 
ATOM     10  C   UNL A   1      33.062  21.541  24.146  1.00  0.00     0.067 A 
ATOM     11  C   UNL A   1      33.645  22.171  25.245  1.00  0.00     0.021 A 
ATOM     12  C   UNL A   1      32.745  22.265  22.999  1.00  0.00     0.021 A 
ATOM     13  C   UNL A   1      33.912  23.542  25.193  1.00  0.00     0.009 A 
ATOM     14  C   UNL A   1      33.053  23.628  22.944  1.00  0.00     0.009 A 
BRANCH  10  15
ATOM     15  S   UNL A   1      32.755  19.793  24.219  1.00  0.00     0.175 S 
ATOM     16  C   UNL A   1      34.357  19.094  24.513  1.00  0.00     0.163 C 
ATOM     17  O   UNL A   1      32.311  19.386  22.901  1.00  0.00    -0.224 OA
ATOM     18  O   UNL A   1      31.937  19.532  25.391  1.00  0.00    -0.224 OA
ENDBRANCH  10  15
ENDBRANCH   8   9
BRANCH   7  19
ATOM     19  C   UNL A   1      31.832  26.743  24.216  1.00  0.00    -0.013 A 
ATOM     20  C   UNL A   1      31.011  27.242  23.190  1.00  0.00     0.009 A 
ATOM     21  C   UNL A   1      31.233  26.116  25.316  1.00  0.00     0.009 A 
ATOM     22  C   UNL A   1      29.625  27.091  23.244  1.00  0.00     0.001 A 
ATOM     23  C   UNL A   1      29.844  25.953  25.362  1.00  0.00     0.001 A 
ATOM     24  C   UNL A   1      29.044  26.436  24.325  1.00  0.00     0.000 A 
ENDBRANCH   7  19
ENDBRANCH   4   7
ENDBRANCH   2   3
ENDBRANCH   1   2
BRANCH   1  25
ATOM     25  C   UNL A   1      35.306  29.714  28.068  1.00  0.00     0.118 C 
BRANCH  25  26
ATOM     26  N   UNL A   1      35.390  30.530  29.271  1.00  0.00    -0.352 N 
ATOM     27  C   UNL A   1      36.435  30.716  30.142  1.00  0.00     0.251 C 
ATOM     28  H   UNL A   1      34.570  31.026  29.494  1.00  0.00     0.163 HD
ATOM     29  O   UNL A   1      36.224  31.272  31.218  1.00  0.00    -0.269 OA
BRANCH  27  30
ATOM     30  C   UNL A   1      37.799  30.251  29.806  1.00  0.00     0.039 A 
ATOM     31  C   UNL A   1      38.185  30.215  28.462  1.00  0.00     0.014 A 
ATOM     32  C   UNL A   1      38.679  29.797  30.794  1.00  0.00     0.014 A 
ATOM     33  C   UNL A   1      39.465  29.776  28.115  1.00  0.00     0.010 A 
ATOM     34  C   UNL A   1      39.976  29.417  30.451  1.00  0.00     0.010 A 
ATOM     35  C   UNL A   1      40.383  29.398  29.108  1.00  0.00    -0.014 A 
BRANCH  35  36
ATOM     36  C   UNL A   1      41.770  28.991  28.760  1.00  0.00     0.031 A 
ATOM     37  C   UNL A   1      42.874  30.012  28.711  1.00  0.00     0.074 A 
ATOM     38  C   UNL A   1      42.018  27.710  28.418  1.00  0.00     0.049 A 
ATOM     39  N   UNL A   1      44.123  29.861  28.351  1.00  0.00    -0.248 NA
ATOM     40  C   UNL A   1      42.524  31.391  29.088  1.00  0.00     0.031 C 
ATOM     41  C   UNL A   1      41.020  26.638  28.372  1.00  0.00     0.029 A 
ATOM     42  N   UNL A   1      43.180  27.095  28.025  1.00  0.00    -0.354 N 
ATOM     43  C   UNL A   1      44.700  31.123  28.432  1.00  0.00     0.074 A 
ATOM     44  C   UNL A   1      43.656  32.037  28.843  1.00  0.00     0.031 C 
ATOM     45  C   UNL A   1      41.613  25.500  27.979  1.00  0.00     0.029 A 
ATOM     46  C   UNL A   1      43.024  25.764  27.713  1.00  0.00     0.049 A 
ATOM     47  H   UNL A   1      44.045  27.562  27.971  1.00  0.00     0.167 HD
ATOM     48  C   UNL A   1      45.985  31.484  28.199  1.00  0.00     0.037 A 
ATOM     49  C   UNL A   1      43.911  24.862  27.250  1.00  0.00     0.037 A 
ATOM     50  C   UNL A   1      47.028  30.561  27.833  1.00  0.00     0.049 A 
ATOM     51  C   UNL A   1      45.340  25.280  27.038  1.00  0.00     0.074 A 
ATOM     52  C   UNL A   1      48.379  30.814  27.664  1.00  0.00     0.029 A 
ATOM     53  N   UNL A   1      46.841  29.211  27.577  1.00  0.00    -0.354 N 
ATOM     54  N   UNL A   1      45.885  26.462  27.201  1.00  0.00    -0.248 NA
ATOM     55  C   UNL A   1      46.280  24.242  26.590  1.00  0.00     0.031 C 
ATOM     56  C   UNL A   1      49.001  29.626  27.266  1.00  0.00     0.029 A 
ATOM     57  C   UNL A   1      48.046  28.623  27.232  1.00  0.00     0.049 A 
ATOM     58  H   UNL A   1      45.977  28.740  27.633  1.00  0.00     0.167 HD
ATOM     59  C   UNL A   1      47.233  26.304  26.899  1.00  0.00     0.074 A 
ATOM     60  C   UNL A   1      47.425  24.910  26.557  1.00  0.00     0.031 C 
ATOM     61  C   UNL A   1      48.223  27.231  26.905  1.00  0.00     0.037 A 
BRANCH  48  62
ATOM     62  C   UNL A   1      46.346  32.937  28.336  1.00  0.00     0.058 A 
ATOM     63  C   UNL A   1      46.276  33.822  27.249  1.00  0.00     0.135 A 
ATOM     64  C   UNL A   1      46.707  33.465  29.587  1.00  0.00     0.135 A 
ATOM     65  F   UNL A   1      45.949  33.369  26.028  1.00  0.00    -0.206 F 
ATOM     66  C   UNL A   1      46.567  35.175  27.392  1.00  0.00     0.059 A 
ATOM     67  C   UNL A   1      46.978  34.819  29.759  1.00  0.00     0.059 A 
ATOM     68  F   UNL A   1      46.791  32.663  30.660  1.00  0.00    -0.206 F 
ATOM     69  C   UNL A   1      46.915  35.664  28.652  1.00  0.00     0.060 A 
BRANCH  69  70
ATOM     70  S   UNL A   1      47.265  37.428  28.826  1.00  0.00     0.124 S 
ATOM     71  O   UNL A   1      46.805  37.683  30.186  1.00  0.00    -0.237 OA
ATOM     72  O   UNL A   1      48.710  37.481  28.625  1.00  0.00    -0.237 OA
ATOM     73  O   UNL A   1      46.465  38.039  27.768  1.00  0.00    -0.744 OA
ENDBRANCH  69  70
ENDBRANCH  48  62
BRANCH  49  74
ATOM     74  C   UNL A   1      43.474  23.469  26.964  1.00  0.00     0.058 A 
ATOM     75  C   UNL A   1      43.263  22.548  28.000  1.00  0.00     0.135 A 
ATOM     76  C   UNL A   1      43.255  23.034  25.647  1.00  0.00     0.135 A 
ATOM     77  F   UNL A   1      43.464  22.915  29.275  1.00  0.00    -0.206 F 
ATOM     78  C   UNL A   1      42.872  21.238  27.742  1.00  0.00     0.059 A 
ATOM     79  C   UNL A   1      42.839  21.737  25.365  1.00  0.00     0.059 A 
ATOM     80  F   UNL A   1      43.423  23.883  24.621  1.00  0.00    -0.206 F 
ATOM     81  C   UNL A   1      42.663  20.842  26.420  1.00  0.00     0.060 A 
BRANCH  81  82
ATOM     82  S   UNL A   1      42.119  19.151  26.095  1.00  0.00     0.124 S 
ATOM     83  O   UNL A   1      40.688  19.339  25.883  1.00  0.00    -0.237 OA
ATOM     84  O   UNL A   1      42.900  18.797  24.913  1.00  0.00    -0.237 OA
ATOM     85  O   UNL A   1      42.489  18.440  27.315  1.00  0.00    -0.744 OA
ENDBRANCH  81  82
ENDBRANCH  49  74
BRANCH  61  86
ATOM     86  C   UNL A   1      49.611  26.764  26.566  1.00  0.00     0.058 A 
ATOM     87  C   UNL A   1      50.479  26.258  27.545  1.00  0.00     0.135 A 
ATOM     88  C   UNL A   1      50.057  26.776  25.234  1.00  0.00     0.135 A 
ATOM     89  F   UNL A   1      50.103  26.232  28.833  1.00  0.00    -0.206 F 
ATOM     90  C   UNL A   1      51.750  25.797  27.218  1.00  0.00     0.059 A 
ATOM     91  C   UNL A   1      51.315  26.296  24.882  1.00  0.00     0.059 A 
ATOM     92  F   UNL A   1      49.261  27.241  24.258  1.00  0.00    -0.206 F 
ATOM     93  C   UNL A   1      52.159  25.819  25.883  1.00  0.00     0.060 A 
BRANCH  93  94
ATOM     94  S   UNL A   1      53.797  25.185  25.467  1.00  0.00     0.124 S 
ATOM     95  O   UNL A   1      53.465  23.954  24.759  1.00  0.00    -0.237 OA
ATOM     96  O   UNL A   1      54.350  26.258  24.648  1.00  0.00    -0.237 OA
ATOM     97  O   UNL A   1      54.432  25.009  26.771  1.00  0.00    -0.744 OA
ENDBRANCH  93  94
ENDBRANCH  61  86
ENDBRANCH  35  36
ENDBRANCH  27  30
ENDBRANCH  25  26
ENDBRANCH   1  25
TORSDOF 16
ENDMDL
