MODEL 1
REMARK VINA RESULT:     -11.8      0.000      0.000
REMARK SMILES Cc1cc(C)cc(C[N@@H+]2CCO[C@@H](CC(=O)NCCCNC(=O)c3ccc(-c4c5nc(c(-c6c(F)cc(S(=O)(=O)[O-])cc6F)c6ccc([nH]6)c(-c6c(F)cc(S(=O)(=O)[O-])cc6F)c6nc(c(-c7c(F)cc(S(=O)(=O)[O-])cc7F)c7ccc4[nH]7)C=C6)C=C5)cc3)C2)c1
REMARK SMILES IDX 19 1 18 2 17 3 15 4 16 5 14 7 13 8 9 9 10 10 90 11 11 13
REMARK SMILES IDX 12 14 8 15 7 16 1 17 2 18 3 19 91 20 4 21 5 22 6 23 20 24
REMARK SMILES IDX 21 25 22 26 23 28 24 29 25 30 89 31 26 32 88 33 27 34 28 35
REMARK SMILES IDX 29 36 82 37 30 38 87 39 81 40 83 41 31 42 86 43 80 44 79 45
REMARK SMILES IDX 32 47 66 48 45 49 65 50 46 51 49 52 64 53 84 54 47 55 48 56
REMARK SMILES IDX 63 58 85 59 50 60 33 61 34 62 43 63 35 64 36 65 42 66 44 67
REMARK SMILES IDX 37 68 38 69 39 70 40 71 41 72 67 73 68 74 77 75 69 76 70 77
REMARK SMILES IDX 76 78 78 79 71 80 72 81 73 82 74 83 75 84 51 85 52 86 61 87
REMARK SMILES IDX 53 88 54 89 60 90 62 91 55 92 56 93 57 94 58 95 59 96
REMARK H PARENT 17 6 9 12 21 27 83 46 49 57
REMARK Flexibility Score: inf
ROOT
ATOM      1  C   UNL A   1      38.742  22.359  26.129  1.00  0.00     0.042 C 
ENDROOT
BRANCH   1   2
ATOM      2  C   UNL A   1      37.545  23.142  25.584  1.00  0.00     0.117 C 
BRANCH   2   3
ATOM      3  N   UNL A   1      36.276  22.710  26.162  1.00  0.00    -0.356 N 
ATOM      4  C   UNL A   1      35.065  22.476  25.576  1.00  0.00     0.222 C 
ATOM      5  O   UNL A   1      34.129  22.124  26.296  1.00  0.00    -0.275 OA
ATOM      6  H   UNL A   1      36.297  22.562  27.135  1.00  0.00     0.163 HD
BRANCH   4   7
ATOM      7  C   UNL A   1      34.877  22.668  24.088  1.00  0.00     0.138 C 
BRANCH   7   8
ATOM      8  C   UNL A   1      33.939  23.830  23.746  1.00  0.00     0.182 C 
ATOM      9  N   UNL A   1      33.743  26.383  23.898  1.00  0.00    -0.327 N 
ATOM     10  C   UNL A   1      33.409  26.346  22.472  1.00  0.00     0.291 C 
ATOM     11  C   UNL A   1      34.451  25.171  24.305  1.00  0.00     0.295 C 
ATOM     12  H   UNL A   1      34.395  27.161  23.989  1.00  0.00     0.348 HD
ATOM     13  C   UNL A   1      32.986  24.972  21.912  1.00  0.00     0.222 C 
ATOM     14  O   UNL A   1      33.871  23.914  22.306  1.00  0.00    -0.366 OA
BRANCH   9  15
ATOM     15  C   UNL A   1      32.707  26.851  24.825  1.00  0.00     0.299 C 
BRANCH  15  16
ATOM     16  C   UNL A   1      32.995  28.172  25.493  1.00  0.00     0.007 A 
ATOM     17  C   UNL A   1      35.313  29.583  28.170  1.00  0.00     0.044 C 
ATOM     18  C   UNL A   1      34.211  29.467  27.158  1.00  0.00    -0.050 A 
ATOM     19  C   UNL A   1      33.254  30.485  27.042  1.00  0.00     0.006 A 
ATOM     20  C   UNL A   1      34.071  28.311  26.384  1.00  0.00     0.013 A 
ATOM     21  C   UNL A   1      32.193  30.372  26.135  1.00  0.00    -0.050 A 
ATOM     22  C   UNL A   1      31.114  31.411  26.090  1.00  0.00     0.044 C 
ATOM     23  C   UNL A   1      32.106  29.238  25.327  1.00  0.00     0.013 A 
ENDBRANCH  15  16
ENDBRANCH   9  15
ENDBRANCH   7   8
ENDBRANCH   4   7
ENDBRANCH   2   3
ENDBRANCH   1   2
BRANCH   1  24
ATOM     24  C   UNL A   1      39.703  23.185  26.969  1.00  0.00     0.118 C 
BRANCH  24  25
ATOM     25  N   UNL A   1      40.864  23.589  26.198  1.00  0.00    -0.352 N 
ATOM     26  C   UNL A   1      41.577  24.763  26.240  1.00  0.00     0.251 C 
ATOM     27  H   UNL A   1      41.188  22.924  25.550  1.00  0.00     0.163 HD
ATOM     28  O   UNL A   1      42.331  25.027  25.304  1.00  0.00    -0.269 OA
BRANCH  26  29
ATOM     29  C   UNL A   1      41.454  25.711  27.377  1.00  0.00     0.039 A 
ATOM     30  C   UNL A   1      40.362  25.584  28.241  1.00  0.00     0.014 A 
ATOM     31  C   UNL A   1      42.346  26.773  27.553  1.00  0.00     0.014 A 
ATOM     32  C   UNL A   1      40.183  26.494  29.290  1.00  0.00     0.010 A 
ATOM     33  C   UNL A   1      42.211  27.634  28.645  1.00  0.00     0.010 A 
ATOM     34  C   UNL A   1      41.116  27.519  29.513  1.00  0.00    -0.014 A 
BRANCH  34  35
ATOM     35  C   UNL A   1      40.936  28.501  30.617  1.00  0.00     0.031 A 
ATOM     36  C   UNL A   1      41.792  28.412  31.856  1.00  0.00     0.074 A 
ATOM     37  C   UNL A   1      39.980  29.446  30.531  1.00  0.00     0.049 A 
ATOM     38  N   UNL A   1      41.746  29.133  32.948  1.00  0.00    -0.248 NA
ATOM     39  C   UNL A   1      42.819  27.357  31.881  1.00  0.00     0.031 C 
ATOM     40  C   UNL A   1      39.058  29.616  29.407  1.00  0.00     0.029 A 
ATOM     41  N   UNL A   1      39.617  30.437  31.410  1.00  0.00    -0.354 N 
ATOM     42  C   UNL A   1      42.717  28.608  33.793  1.00  0.00     0.074 A 
ATOM     43  C   UNL A   1      43.307  27.480  33.106  1.00  0.00     0.031 C 
ATOM     44  C   UNL A   1      38.248  30.659  29.656  1.00  0.00     0.029 A 
ATOM     45  C   UNL A   1      38.570  31.212  30.969  1.00  0.00     0.049 A 
ATOM     46  H   UNL A   1      40.064  30.579  32.275  1.00  0.00     0.167 HD
ATOM     47  C   UNL A   1      43.102  29.040  35.019  1.00  0.00     0.037 A 
ATOM     48  C   UNL A   1      37.936  32.245  31.555  1.00  0.00     0.037 A 
ATOM     49  C   UNL A   1      42.540  30.186  35.686  1.00  0.00     0.049 A 
ATOM     50  C   UNL A   1      38.388  32.716  32.910  1.00  0.00     0.074 A 
ATOM     51  C   UNL A   1      42.905  30.738  36.901  1.00  0.00     0.029 A 
ATOM     52  N   UNL A   1      41.499  30.958  35.193  1.00  0.00    -0.354 N 
ATOM     53  N   UNL A   1      39.346  32.241  33.670  1.00  0.00    -0.248 NA
ATOM     54  C   UNL A   1      37.679  33.867  33.486  1.00  0.00     0.031 C 
ATOM     55  C   UNL A   1      42.060  31.824  37.160  1.00  0.00     0.029 A 
ATOM     56  C   UNL A   1      41.197  31.973  36.086  1.00  0.00     0.049 A 
ATOM     57  H   UNL A   1      41.042  30.807  34.333  1.00  0.00     0.167 HD
ATOM     58  C   UNL A   1      39.369  33.048  34.803  1.00  0.00     0.074 A 
ATOM     59  C   UNL A   1      38.337  34.049  34.623  1.00  0.00     0.031 C 
ATOM     60  C   UNL A   1      40.172  32.967  35.891  1.00  0.00     0.037 A 
BRANCH  47  61
ATOM     61  C   UNL A   1      44.188  28.270  35.720  1.00  0.00     0.058 A 
ATOM     62  C   UNL A   1      43.893  27.218  36.601  1.00  0.00     0.135 A 
ATOM     63  C   UNL A   1      45.540  28.567  35.485  1.00  0.00     0.135 A 
ATOM     64  F   UNL A   1      42.616  26.901  36.873  1.00  0.00    -0.206 F 
ATOM     65  C   UNL A   1      44.898  26.506  37.249  1.00  0.00     0.059 A 
ATOM     66  C   UNL A   1      46.563  27.851  36.102  1.00  0.00     0.059 A 
ATOM     67  F   UNL A   1      45.879  29.561  34.651  1.00  0.00    -0.206 F 
ATOM     68  C   UNL A   1      46.231  26.834  36.996  1.00  0.00     0.060 A 
BRANCH  68  69
ATOM     69  S   UNL A   1      47.526  25.906  37.843  1.00  0.00     0.124 S 
ATOM     70  O   UNL A   1      48.725  26.409  37.177  1.00  0.00    -0.237 OA
ATOM     71  O   UNL A   1      47.355  26.325  39.233  1.00  0.00    -0.237 OA
ATOM     72  O   UNL A   1      47.189  24.516  37.566  1.00  0.00    -0.744 OA
ENDBRANCH  68  69
ENDBRANCH  47  61
BRANCH  48  73
ATOM     73  C   UNL A   1      36.815  32.922  30.850  1.00  0.00     0.058 A 
ATOM     74  C   UNL A   1      35.481  32.613  31.152  1.00  0.00     0.135 A 
ATOM     75  C   UNL A   1      37.055  33.904  29.876  1.00  0.00     0.135 A 
ATOM     76  F   UNL A   1      35.203  31.676  32.071  1.00  0.00    -0.206 F 
ATOM     77  C   UNL A   1      34.422  33.242  30.505  1.00  0.00     0.059 A 
ATOM     78  C   UNL A   1      36.012  34.562  29.231  1.00  0.00     0.059 A 
ATOM     79  F   UNL A   1      38.313  34.246  29.561  1.00  0.00    -0.206 F 
ATOM     80  C   UNL A   1      34.698  34.218  29.547  1.00  0.00     0.060 A 
BRANCH  80  81
ATOM     81  S   UNL A   1      33.318  35.070  28.752  1.00  0.00     0.124 S 
ATOM     82  O   UNL A   1      34.010  36.099  27.987  1.00  0.00    -0.237 OA
ATOM     83  O   UNL A   1      32.703  33.999  27.974  1.00  0.00    -0.237 OA
ATOM     84  O   UNL A   1      32.525  35.546  29.881  1.00  0.00    -0.744 OA
ENDBRANCH  80  81
ENDBRANCH  48  73
BRANCH  60  85
ATOM     85  C   UNL A   1      39.990  34.004  36.964  1.00  0.00     0.058 A 
ATOM     86  C   UNL A   1      40.636  35.248  36.903  1.00  0.00     0.135 A 
ATOM     87  C   UNL A   1      39.118  33.768  38.040  1.00  0.00     0.135 A 
ATOM     88  F   UNL A   1      41.484  35.519  35.899  1.00  0.00    -0.206 F 
ATOM     89  C   UNL A   1      40.441  36.216  37.882  1.00  0.00     0.059 A 
ATOM     90  C   UNL A   1      38.889  34.731  39.017  1.00  0.00     0.059 A 
ATOM     91  F   UNL A   1      38.468  32.598  38.139  1.00  0.00    -0.206 F 
ATOM     92  C   UNL A   1      39.564  35.948  38.937  1.00  0.00     0.060 A 
BRANCH  92  93
ATOM     93  S   UNL A   1      39.292  37.225  40.183  1.00  0.00     0.124 S 
ATOM     94  O   UNL A   1      38.495  38.196  39.440  1.00  0.00    -0.237 OA
ATOM     95  O   UNL A   1      38.586  36.496  41.233  1.00  0.00    -0.237 OA
ATOM     96  O   UNL A   1      40.645  37.655  40.528  1.00  0.00    -0.744 OA
ENDBRANCH  92  93
ENDBRANCH  60  85
ENDBRANCH  34  35
ENDBRANCH  26  29
ENDBRANCH  24  25
ENDBRANCH   1  24
TORSDOF 16
ENDMDL
MODEL 2
REMARK VINA RESULT:     -11.8      4.752     11.130
REMARK SMILES Cc1cc(C)cc(C[N@@H+]2CCO[C@@H](CC(=O)NCCCNC(=O)c3ccc(-c4c5nc(c(-c6c(F)cc(S(=O)(=O)[O-])cc6F)c6ccc([nH]6)c(-c6c(F)cc(S(=O)(=O)[O-])cc6F)c6nc(c(-c7c(F)cc(S(=O)(=O)[O-])cc7F)c7ccc4[nH]7)C=C6)C=C5)cc3)C2)c1
REMARK SMILES IDX 19 1 18 2 17 3 15 4 16 5 14 7 13 8 9 9 10 10 90 11 11 13
REMARK SMILES IDX 12 14 8 15 7 16 1 17 2 18 3 19 91 20 4 21 5 22 6 23 20 24
REMARK SMILES IDX 21 25 22 26 23 28 24 29 25 30 89 31 26 32 88 33 27 34 28 35
REMARK SMILES IDX 29 36 82 37 30 38 87 39 81 40 83 41 31 42 86 43 80 44 79 45
REMARK SMILES IDX 32 47 66 48 45 49 65 50 46 51 49 52 64 53 84 54 47 55 48 56
REMARK SMILES IDX 63 58 85 59 50 60 33 61 34 62 43 63 35 64 36 65 42 66 44 67
REMARK SMILES IDX 37 68 38 69 39 70 40 71 41 72 67 73 68 74 77 75 69 76 70 77
REMARK SMILES IDX 76 78 78 79 71 80 72 81 73 82 74 83 75 84 51 85 52 86 61 87
REMARK SMILES IDX 53 88 54 89 60 90 62 91 55 92 56 93 57 94 58 95 59 96
REMARK H PARENT 17 6 9 12 21 27 83 46 49 57
REMARK Flexibility Score: inf
ROOT
ATOM      1  C   UNL A   1      34.453  33.292  29.406  1.00  0.00     0.042 C 
ENDROOT
BRANCH   1   2
ATOM      2  C   UNL A   1      35.197  32.537  30.511  1.00  0.00     0.117 C 
BRANCH   2   3
ATOM      3  N   UNL A   1      34.554  32.665  31.815  1.00  0.00    -0.356 N 
ATOM      4  C   UNL A   1      34.856  33.462  32.882  1.00  0.00     0.222 C 
ATOM      5  O   UNL A   1      34.156  33.373  33.892  1.00  0.00    -0.275 OA
ATOM      6  H   UNL A   1      33.774  32.079  31.948  1.00  0.00     0.163 HD
BRANCH   4   7
ATOM      7  C   UNL A   1      36.035  34.408  32.829  1.00  0.00     0.138 C 
BRANCH   7   8
ATOM      8  C   UNL A   1      37.201  33.967  33.719  1.00  0.00     0.182 C 
ATOM      9  N   UNL A   1      39.427  32.695  33.650  1.00  0.00    -0.327 N 
ATOM     10  C   UNL A   1      40.004  33.861  34.324  1.00  0.00     0.291 C 
ATOM     11  C   UNL A   1      38.181  33.042  32.971  1.00  0.00     0.295 C 
ATOM     12  H   UNL A   1      40.108  32.453  32.930  1.00  0.00     0.348 HD
ATOM     13  C   UNL A   1      38.997  34.822  34.990  1.00  0.00     0.222 C 
ATOM     14  O   UNL A   1      37.900  35.161  34.130  1.00  0.00    -0.366 OA
BRANCH   9  15
ATOM     15  C   UNL A   1      39.416  31.424  34.381  1.00  0.00     0.299 C 
BRANCH  15  16
ATOM     16  C   UNL A   1      39.959  30.241  33.620  1.00  0.00     0.007 A 
ATOM     17  C   UNL A   1      38.647  27.137  31.837  1.00  0.00     0.044 C 
ATOM     18  C   UNL A   1      39.581  28.138  32.452  1.00  0.00    -0.050 A 
ATOM     19  C   UNL A   1      40.943  27.837  32.589  1.00  0.00     0.006 A 
ATOM     20  C   UNL A   1      39.096  29.340  32.976  1.00  0.00     0.013 A 
ATOM     21  C   UNL A   1      41.820  28.739  33.202  1.00  0.00    -0.050 A 
ATOM     22  C   UNL A   1      43.252  28.369  33.442  1.00  0.00     0.044 C 
ATOM     23  C   UNL A   1      41.328  29.961  33.662  1.00  0.00     0.013 A 
ENDBRANCH  15  16
ENDBRANCH   9  15
ENDBRANCH   7   8
ENDBRANCH   4   7
ENDBRANCH   2   3
ENDBRANCH   1   2
BRANCH   1  24
ATOM     24  C   UNL A   1      34.553  32.651  28.031  1.00  0.00     0.118 C 
BRANCH  24  25
ATOM     25  N   UNL A   1      33.857  31.379  27.990  1.00  0.00    -0.352 N 
ATOM     26  C   UNL A   1      34.364  30.108  27.870  1.00  0.00     0.251 C 
ATOM     27  H   UNL A   1      32.876  31.436  28.058  1.00  0.00     0.163 HD
ATOM     28  O   UNL A   1      33.600  29.198  27.551  1.00  0.00    -0.269 OA
BRANCH  26  29
ATOM     29  C   UNL A   1      35.801  29.815  28.109  1.00  0.00     0.039 A 
ATOM     30  C   UNL A   1      36.199  29.408  29.387  1.00  0.00     0.014 A 
ATOM     31  C   UNL A   1      36.770  30.017  27.122  1.00  0.00     0.014 A 
ATOM     32  C   UNL A   1      37.552  29.178  29.663  1.00  0.00     0.010 A 
ATOM     33  C   UNL A   1      38.109  29.711  27.375  1.00  0.00     0.010 A 
ATOM     34  C   UNL A   1      38.519  29.311  28.655  1.00  0.00    -0.014 A 
BRANCH  34  35
ATOM     35  C   UNL A   1      39.963  29.078  28.934  1.00  0.00     0.031 A 
ATOM     36  C   UNL A   1      40.594  27.749  28.601  1.00  0.00     0.074 A 
ATOM     37  C   UNL A   1      40.700  30.040  29.522  1.00  0.00     0.049 A 
ATOM     38  N   UNL A   1      41.816  27.334  28.824  1.00  0.00    -0.248 NA
ATOM     39  C   UNL A   1      39.731  26.746  27.957  1.00  0.00     0.031 C 
ATOM     40  C   UNL A   1      40.203  31.355  29.932  1.00  0.00     0.029 A 
ATOM     41  N   UNL A   1      42.023  30.058  29.888  1.00  0.00    -0.354 N 
ATOM     42  C   UNL A   1      41.862  26.021  28.368  1.00  0.00     0.074 A 
ATOM     43  C   UNL A   1      40.533  25.693  27.897  1.00  0.00     0.031 C 
ATOM     44  C   UNL A   1      41.211  32.057  30.476  1.00  0.00     0.029 A 
ATOM     45  C   UNL A   1      42.417  31.233  30.484  1.00  0.00     0.049 A 
ATOM     46  H   UNL A   1      42.634  29.300  29.739  1.00  0.00     0.167 HD
ATOM     47  C   UNL A   1      42.918  25.173  28.321  1.00  0.00     0.037 A 
ATOM     48  C   UNL A   1      43.611  31.606  30.985  1.00  0.00     0.037 A 
ATOM     49  C   UNL A   1      44.248  25.513  28.755  1.00  0.00     0.049 A 
ATOM     50  C   UNL A   1      44.772  30.653  30.911  1.00  0.00     0.074 A 
ATOM     51  C   UNL A   1      45.397  24.743  28.691  1.00  0.00     0.029 A 
ATOM     52  N   UNL A   1      44.610  26.723  29.328  1.00  0.00    -0.354 N 
ATOM     53  N   UNL A   1      44.810  29.435  30.426  1.00  0.00    -0.248 NA
ATOM     54  C   UNL A   1      46.057  31.126  31.446  1.00  0.00     0.031 C 
ATOM     55  C   UNL A   1      46.446  25.475  29.259  1.00  0.00     0.029 A 
ATOM     56  C   UNL A   1      45.959  26.716  29.637  1.00  0.00     0.049 A 
ATOM     57  H   UNL A   1      43.996  27.477  29.491  1.00  0.00     0.167 HD
ATOM     58  C   UNL A   1      46.123  29.005  30.576  1.00  0.00     0.074 A 
ATOM     59  C   UNL A   1      46.853  30.098  31.187  1.00  0.00     0.031 C 
ATOM     60  C   UNL A   1      46.675  27.813  30.239  1.00  0.00     0.037 A 
BRANCH  47  61
ATOM     61  C   UNL A   1      42.678  23.791  27.777  1.00  0.00     0.058 A 
ATOM     62  C   UNL A   1      42.512  22.684  28.625  1.00  0.00     0.135 A 
ATOM     63  C   UNL A   1      42.581  23.574  26.393  1.00  0.00     0.135 A 
ATOM     64  F   UNL A   1      42.609  22.832  29.957  1.00  0.00    -0.206 F 
ATOM     65  C   UNL A   1      42.291  21.406  28.121  1.00  0.00     0.059 A 
ATOM     66  C   UNL A   1      42.334  22.308  25.867  1.00  0.00     0.059 A 
ATOM     67  F   UNL A   1      42.730  24.596  25.537  1.00  0.00    -0.206 F 
ATOM     68  C   UNL A   1      42.208  21.228  26.739  1.00  0.00     0.060 A 
BRANCH  68  69
ATOM     69  S   UNL A   1      41.922  19.566  26.096  1.00  0.00     0.124 S 
ATOM     70  O   UNL A   1      42.837  19.536  24.957  1.00  0.00    -0.237 OA
ATOM     71  O   UNL A   1      42.298  18.722  27.230  1.00  0.00    -0.237 OA
ATOM     72  O   UNL A   1      40.504  19.566  25.764  1.00  0.00    -0.744 OA
ENDBRANCH  68  69
ENDBRANCH  47  61
BRANCH  48  73
ATOM     73  C   UNL A   1      43.773  32.957  31.583  1.00  0.00     0.058 A 
ATOM     74  C   UNL A   1      44.084  34.067  30.784  1.00  0.00     0.135 A 
ATOM     75  C   UNL A   1      43.603  33.170  32.960  1.00  0.00     0.135 A 
ATOM     76  F   UNL A   1      44.264  33.912  29.463  1.00  0.00    -0.206 F 
ATOM     77  C   UNL A   1      44.233  35.339  31.328  1.00  0.00     0.059 A 
ATOM     78  C   UNL A   1      43.725  34.436  33.524  1.00  0.00     0.059 A 
ATOM     79  F   UNL A   1      43.290  32.143  33.765  1.00  0.00    -0.206 F 
ATOM     80  C   UNL A   1      44.049  35.514  32.701  1.00  0.00     0.060 A 
BRANCH  80  81
ATOM     81  S   UNL A   1      44.190  37.176  33.391  1.00  0.00     0.124 S 
ATOM     82  O   UNL A   1      43.524  37.018  34.678  1.00  0.00    -0.237 OA
ATOM     83  O   UNL A   1      45.636  37.368  33.439  1.00  0.00    -0.237 OA
ATOM     84  O   UNL A   1      43.489  38.004  32.414  1.00  0.00    -0.744 OA
ENDBRANCH  80  81
ENDBRANCH  48  73
BRANCH  60  85
ATOM     85  C   UNL A   1      48.145  27.634  30.495  1.00  0.00     0.058 A 
ATOM     86  C   UNL A   1      48.620  27.075  31.691  1.00  0.00     0.135 A 
ATOM     87  C   UNL A   1      49.085  27.980  29.511  1.00  0.00     0.135 A 
ATOM     88  F   UNL A   1      47.763  26.734  32.665  1.00  0.00    -0.206 F 
ATOM     89  C   UNL A   1      49.980  26.883  31.912  1.00  0.00     0.059 A 
ATOM     90  C   UNL A   1      50.448  27.774  29.700  1.00  0.00     0.059 A 
ATOM     91  F   UNL A   1      48.681  28.509  28.346  1.00  0.00    -0.206 F 
ATOM     92  C   UNL A   1      50.887  27.236  30.909  1.00  0.00     0.060 A 
BRANCH  92  93
ATOM     93  S   UNL A   1      52.647  26.949  31.193  1.00  0.00     0.124 S 
ATOM     94  O   UNL A   1      52.621  26.130  32.399  1.00  0.00    -0.237 OA
ATOM     95  O   UNL A   1      53.056  26.265  29.970  1.00  0.00    -0.237 OA
ATOM     96  O   UNL A   1      53.186  28.297  31.360  1.00  0.00    -0.744 OA
ENDBRANCH  92  93
ENDBRANCH  60  85
ENDBRANCH  34  35
ENDBRANCH  26  29
ENDBRANCH  24  25
ENDBRANCH   1  24
TORSDOF 16
ENDMDL
MODEL 3
REMARK VINA RESULT:     -11.7      6.399     12.057
REMARK SMILES Cc1cc(C)cc(C[N@@H+]2CCO[C@@H](CC(=O)NCCCNC(=O)c3ccc(-c4c5nc(c(-c6c(F)cc(S(=O)(=O)[O-])cc6F)c6ccc([nH]6)c(-c6c(F)cc(S(=O)(=O)[O-])cc6F)c6nc(c(-c7c(F)cc(S(=O)(=O)[O-])cc7F)c7ccc4[nH]7)C=C6)C=C5)cc3)C2)c1
REMARK SMILES IDX 19 1 18 2 17 3 15 4 16 5 14 7 13 8 9 9 10 10 90 11 11 13
REMARK SMILES IDX 12 14 8 15 7 16 1 17 2 18 3 19 91 20 4 21 5 22 6 23 20 24
REMARK SMILES IDX 21 25 22 26 23 28 24 29 25 30 89 31 26 32 88 33 27 34 28 35
REMARK SMILES IDX 29 36 82 37 30 38 87 39 81 40 83 41 31 42 86 43 80 44 79 45
REMARK SMILES IDX 32 47 66 48 45 49 65 50 46 51 49 52 64 53 84 54 47 55 48 56
REMARK SMILES IDX 63 58 85 59 50 60 33 61 34 62 43 63 35 64 36 65 42 66 44 67
REMARK SMILES IDX 37 68 38 69 39 70 40 71 41 72 67 73 68 74 77 75 69 76 70 77
REMARK SMILES IDX 76 78 78 79 71 80 72 81 73 82 74 83 75 84 51 85 52 86 61 87
REMARK SMILES IDX 53 88 54 89 60 90 62 91 55 92 56 93 57 94 58 95 59 96
REMARK H PARENT 17 6 9 12 21 27 83 46 49 57
REMARK Flexibility Score: inf
ROOT
ATOM      1  C   UNL A   1      34.126  31.396  27.652  1.00  0.00     0.042 C 
ENDROOT
BRANCH   1   2
ATOM      2  C   UNL A   1      33.452  30.075  27.272  1.00  0.00     0.117 C 
BRANCH   2   3
ATOM      3  N   UNL A   1      33.701  29.690  25.887  1.00  0.00    -0.356 N 
ATOM      4  C   UNL A   1      33.169  28.684  25.133  1.00  0.00     0.222 C 
ATOM      5  O   UNL A   1      33.561  28.558  23.971  1.00  0.00    -0.275 OA
ATOM      6  H   UNL A   1      34.363  30.249  25.418  1.00  0.00     0.163 HD
BRANCH   4   7
ATOM      7  C   UNL A   1      32.146  27.737  25.720  1.00  0.00     0.138 C 
BRANCH   7   8
ATOM      8  C   UNL A   1      32.261  26.312  25.172  1.00  0.00     0.182 C 
ATOM      9  N   UNL A   1      33.601  24.142  25.447  1.00  0.00    -0.327 N 
ATOM     10  C   UNL A   1      32.305  23.467  25.547  1.00  0.00     0.291 C 
ATOM     11  C   UNL A   1      33.479  25.566  25.751  1.00  0.00     0.295 C 
ATOM     12  H   UNL A   1      34.167  23.722  26.184  1.00  0.00     0.348 HD
ATOM     13  C   UNL A   1      31.086  24.268  25.044  1.00  0.00     0.222 C 
ATOM     14  O   UNL A   1      31.057  25.611  25.548  1.00  0.00    -0.366 OA
BRANCH   9  15
ATOM     15  C   UNL A   1      34.451  23.812  24.299  1.00  0.00     0.299 C 
BRANCH  15  16
ATOM     16  C   UNL A   1      35.755  23.133  24.640  1.00  0.00     0.007 A 
ATOM     17  C   UNL A   1      37.181  19.603  24.832  1.00  0.00     0.044 C 
ATOM     18  C   UNL A   1      37.044  21.092  24.959  1.00  0.00    -0.050 A 
ATOM     19  C   UNL A   1      38.002  21.828  25.669  1.00  0.00     0.006 A 
ATOM     20  C   UNL A   1      35.919  21.752  24.452  1.00  0.00     0.013 A 
ATOM     21  C   UNL A   1      37.865  23.211  25.837  1.00  0.00    -0.050 A 
ATOM     22  C   UNL A   1      38.833  23.977  26.686  1.00  0.00     0.044 C 
ATOM     23  C   UNL A   1      36.768  23.861  25.270  1.00  0.00     0.013 A 
ENDBRANCH  15  16
ENDBRANCH   9  15
ENDBRANCH   7   8
ENDBRANCH   4   7
ENDBRANCH   2   3
ENDBRANCH   1   2
BRANCH   1  24
ATOM     24  C   UNL A   1      35.518  31.243  28.244  1.00  0.00     0.118 C 
BRANCH  24  25
ATOM     25  N   UNL A   1      35.472  31.195  29.694  1.00  0.00    -0.352 N 
ATOM     26  C   UNL A   1      36.364  30.643  30.580  1.00  0.00     0.251 C 
ATOM     27  H   UNL A   1      34.684  31.622  30.102  1.00  0.00     0.163 HD
ATOM     28  O   UNL A   1      35.997  30.441  31.736  1.00  0.00    -0.269 OA
BRANCH  26  29
ATOM     29  C   UNL A   1      37.748  30.284  30.173  1.00  0.00     0.039 A 
ATOM     30  C   UNL A   1      38.047  30.207  28.809  1.00  0.00     0.014 A 
ATOM     31  C   UNL A   1      38.727  29.939  31.109  1.00  0.00     0.014 A 
ATOM     32  C   UNL A   1      39.324  29.817  28.388  1.00  0.00     0.010 A 
ATOM     33  C   UNL A   1      40.023  29.627  30.691  1.00  0.00     0.010 A 
ATOM     34  C   UNL A   1      40.331  29.539  29.326  1.00  0.00    -0.014 A 
BRANCH  34  35
ATOM     35  C   UNL A   1      41.691  29.115  28.897  1.00  0.00     0.031 A 
ATOM     36  C   UNL A   1      42.818  30.117  28.849  1.00  0.00     0.074 A 
ATOM     37  C   UNL A   1      41.910  27.843  28.510  1.00  0.00     0.049 A 
ATOM     38  N   UNL A   1      44.052  29.955  28.445  1.00  0.00    -0.248 NA
ATOM     39  C   UNL A   1      42.508  31.487  29.288  1.00  0.00     0.031 C 
ATOM     40  C   UNL A   1      40.900  26.785  28.470  1.00  0.00     0.029 A 
ATOM     41  N   UNL A   1      43.054  27.225  28.066  1.00  0.00    -0.354 N 
ATOM     42  C   UNL A   1      44.658  31.202  28.562  1.00  0.00     0.074 A 
ATOM     43  C   UNL A   1      43.643  32.120  29.031  1.00  0.00     0.031 C 
ATOM     44  C   UNL A   1      41.471  25.646  28.044  1.00  0.00     0.029 A 
ATOM     45  C   UNL A   1      42.879  25.898  27.749  1.00  0.00     0.049 A 
ATOM     46  H   UNL A   1      43.918  27.689  27.982  1.00  0.00     0.167 HD
ATOM     47  C   UNL A   1      45.947  31.548  28.324  1.00  0.00     0.037 A 
ATOM     48  C   UNL A   1      43.749  24.989  27.270  1.00  0.00     0.037 A 
ATOM     49  C   UNL A   1      46.965  30.626  27.893  1.00  0.00     0.049 A 
ATOM     50  C   UNL A   1      45.178  25.391  27.026  1.00  0.00     0.074 A 
ATOM     51  C   UNL A   1      48.312  30.867  27.684  1.00  0.00     0.029 A 
ATOM     52  N   UNL A   1      46.751  29.285  27.608  1.00  0.00    -0.354 N 
ATOM     53  N   UNL A   1      45.745  26.562  27.195  1.00  0.00    -0.248 NA
ATOM     54  C   UNL A   1      46.089  24.348  26.533  1.00  0.00     0.031 C 
ATOM     55  C   UNL A   1      48.906  29.680  27.239  1.00  0.00     0.029 A 
ATOM     56  C   UNL A   1      47.937  28.690  27.211  1.00  0.00     0.049 A 
ATOM     57  H   UNL A   1      45.883  28.824  27.679  1.00  0.00     0.167 HD
ATOM     58  C   UNL A   1      47.081  26.392  26.851  1.00  0.00     0.074 A 
ATOM     59  C   UNL A   1      47.241  25.001  26.475  1.00  0.00     0.031 C 
ATOM     60  C   UNL A   1      48.084  27.303  26.846  1.00  0.00     0.037 A 
BRANCH  47  61
ATOM     61  C   UNL A   1      46.331  32.987  28.530  1.00  0.00     0.058 A 
ATOM     62  C   UNL A   1      46.786  33.457  29.773  1.00  0.00     0.135 A 
ATOM     63  C   UNL A   1      46.276  33.902  27.467  1.00  0.00     0.135 A 
ATOM     64  F   UNL A   1      46.846  32.627  30.828  1.00  0.00    -0.206 F 
ATOM     65  C   UNL A   1      47.142  34.788  29.964  1.00  0.00     0.059 A 
ATOM     66  C   UNL A   1      46.652  35.234  27.627  1.00  0.00     0.059 A 
ATOM     67  F   UNL A   1      45.851  33.508  26.257  1.00  0.00    -0.206 F 
ATOM     68  C   UNL A   1      47.067  35.670  28.885  1.00  0.00     0.060 A 
BRANCH  68  69
ATOM     69  S   UNL A   1      47.529  37.396  29.144  1.00  0.00     0.124 S 
ATOM     70  O   UNL A   1      46.333  38.089  28.670  1.00  0.00    -0.237 OA
ATOM     71  O   UNL A   1      47.756  37.447  30.587  1.00  0.00    -0.237 OA
ATOM     72  O   UNL A   1      48.719  37.559  28.320  1.00  0.00    -0.744 OA
ENDBRANCH  68  69
ENDBRANCH  47  61
BRANCH  48  73
ATOM     73  C   UNL A   1      43.296  23.596  27.010  1.00  0.00     0.058 A 
ATOM     74  C   UNL A   1      43.041  23.153  25.704  1.00  0.00     0.135 A 
ATOM     75  C   UNL A   1      43.129  22.678  28.058  1.00  0.00     0.135 A 
ATOM     76  F   UNL A   1      43.180  23.998  24.671  1.00  0.00    -0.206 F 
ATOM     77  C   UNL A   1      42.623  21.852  25.445  1.00  0.00     0.059 A 
ATOM     78  C   UNL A   1      42.734  21.365  27.821  1.00  0.00     0.059 A 
ATOM     79  F   UNL A   1      43.375  23.048  29.323  1.00  0.00    -0.206 F 
ATOM     80  C   UNL A   1      42.474  20.963  26.511  1.00  0.00     0.060 A 
BRANCH  80  81
ATOM     81  S   UNL A   1      41.985  19.260  26.160  1.00  0.00     0.124 S 
ATOM     82  O   UNL A   1      42.788  18.960  24.982  1.00  0.00    -0.237 OA
ATOM     83  O   UNL A   1      42.370  18.571  27.389  1.00  0.00    -0.237 OA
ATOM     84  O   UNL A   1      40.546  19.365  25.936  1.00  0.00    -0.744 OA
ENDBRANCH  80  81
ENDBRANCH  48  73
BRANCH  60  85
ATOM     85  C   UNL A   1      49.452  26.825  26.450  1.00  0.00     0.058 A 
ATOM     86  C   UNL A   1      50.309  26.202  27.370  1.00  0.00     0.135 A 
ATOM     87  C   UNL A   1      49.890  26.946  25.121  1.00  0.00     0.135 A 
ATOM     88  F   UNL A   1      49.940  26.068  28.653  1.00  0.00    -0.206 F 
ATOM     89  C   UNL A   1      51.563  25.733  26.991  1.00  0.00     0.059 A 
ATOM     90  C   UNL A   1      51.130  26.463  24.715  1.00  0.00     0.059 A 
ATOM     91  F   UNL A   1      49.104  27.525  24.200  1.00  0.00    -0.206 F 
ATOM     92  C   UNL A   1      51.965  25.868  25.660  1.00  0.00     0.060 A 
BRANCH  92  93
ATOM     93  S   UNL A   1      53.580  25.225  25.173  1.00  0.00     0.124 S 
ATOM     94  O   UNL A   1      53.675  25.686  23.792  1.00  0.00    -0.237 OA
ATOM     95  O   UNL A   1      54.478  25.876  26.122  1.00  0.00    -0.237 OA
ATOM     96  O   UNL A   1      53.435  23.782  25.345  1.00  0.00    -0.744 OA
ENDBRANCH  92  93
ENDBRANCH  60  85
ENDBRANCH  34  35
ENDBRANCH  26  29
ENDBRANCH  24  25
ENDBRANCH   1  24
TORSDOF 16
ENDMDL
