MODEL 1
REMARK VINA RESULT:     -11.1      0.000      0.000
REMARK SMILES C[C@H]([NH3+])C(=O)N1CCC[C@H]1C(=O)NCCCNC(=O)c1ccc(-c2c3nc(c(-c4c(F)cc(S(=O)(=O)[O-])cc4F)c4ccc([nH]4)c(-c4c(F)cc(S(=O)(=O)[O-])cc4F)c4nc(c(-c5c(F)cc(S(=O)(=O)[O-])cc5F)c5ccc2[nH]5)C=C4)C=C3)cc1
REMARK SMILES IDX 15 1 14 2 13 3 11 4 12 5 10 7 6 8 7 9 8 10 9 11 4 12 5 13
REMARK SMILES IDX 2 14 1 15 3 16 16 20 17 21 18 22 19 24 20 25 21 26 85 27
REMARK SMILES IDX 22 28 84 29 23 30 24 31 25 32 78 33 26 34 83 35 77 36 79 37
REMARK SMILES IDX 27 38 82 39 76 40 75 41 28 43 62 44 41 45 61 46 42 47 45 48
REMARK SMILES IDX 60 49 80 50 43 51 44 52 59 54 81 55 46 56 29 57 30 58 39 59
REMARK SMILES IDX 31 60 32 61 38 62 40 63 33 64 34 65 35 66 36 67 37 68 63 69
REMARK SMILES IDX 64 70 73 71 65 72 66 73 72 74 74 75 67 76 68 77 69 78 70 79
REMARK SMILES IDX 71 80 47 81 48 82 57 83 49 84 50 85 56 86 58 87 51 88 52 89
REMARK SMILES IDX 53 90 54 91 55 92
REMARK H PARENT 13 6 3 17 3 18 3 19 17 23 79 42 45 53
REMARK Flexibility Score: inf
ROOT
ATOM      1  C   UNL A   1      33.564  28.947  27.233  1.00  0.00     0.042 C 
ENDROOT
BRANCH   1   2
ATOM      2  C   UNL A   1      32.831  29.853  26.257  1.00  0.00     0.117 C 
BRANCH   2   3
ATOM      3  N   UNL A   1      33.334  29.757  24.902  1.00  0.00    -0.354 N 
ATOM      4  C   UNL A   1      33.013  28.943  23.862  1.00  0.00     0.242 C 
ATOM      5  O   UNL A   1      33.524  29.253  22.778  1.00  0.00    -0.273 OA
ATOM      6  H   UNL A   1      34.045  30.405  24.695  1.00  0.00     0.163 HD
BRANCH   4   7
ATOM      7  C   UNL A   1      32.135  27.673  23.983  1.00  0.00     0.174 C 
ATOM      8  N   UNL A   1      31.139  27.492  22.928  1.00  0.00    -0.326 N 
ATOM      9  C   UNL A   1      31.601  26.516  21.968  1.00  0.00     0.120 C 
ATOM     10  C   UNL A   1      32.450  25.557  22.789  1.00  0.00     0.024 C 
ATOM     11  C   UNL A   1      32.848  26.323  24.058  1.00  0.00     0.037 C 
BRANCH   8  12
ATOM     12  C   UNL A   1      29.911  28.115  23.030  1.00  0.00     0.281 C 
ATOM     13  O   UNL A   1      28.895  27.464  23.299  1.00  0.00    -0.268 OA
BRANCH  12  14
ATOM     14  C   UNL A   1      29.746  29.592  22.608  1.00  0.00     0.268 C 
ATOM     15  C   UNL A   1      28.281  29.906  22.312  1.00  0.00     0.086 C 
BRANCH  14  16
ATOM     16  N   UNL A   1      30.666  30.020  21.545  1.00  0.00    -0.348 N 
ATOM     17  H   UNL A   1      30.585  31.027  21.410  1.00  0.00     0.345 HD
ATOM     18  H   UNL A   1      30.428  29.540  20.677  1.00  0.00     0.345 HD
ATOM     19  H   UNL A   1      31.624  29.788  21.810  1.00  0.00     0.345 HD
ENDBRANCH  14  16
ENDBRANCH  12  14
ENDBRANCH   8  12
ENDBRANCH   4   7
ENDBRANCH   2   3
ENDBRANCH   1   2
BRANCH   1  20
ATOM     20  C   UNL A   1      35.008  29.349  27.499  1.00  0.00     0.118 C 
BRANCH  20  21
ATOM     21  N   UNL A   1      35.155  30.241  28.642  1.00  0.00    -0.352 N 
ATOM     22  C   UNL A   1      36.216  30.444  29.493  1.00  0.00     0.251 C 
ATOM     23  H   UNL A   1      34.360  30.789  28.838  1.00  0.00     0.163 HD
ATOM     24  O   UNL A   1      36.055  31.123  30.505  1.00  0.00    -0.269 OA
BRANCH  22  25
ATOM     25  C   UNL A   1      37.531  29.823  29.223  1.00  0.00     0.039 A 
ATOM     26  C   UNL A   1      38.040  29.848  27.920  1.00  0.00     0.014 A 
ATOM     27  C   UNL A   1      38.269  29.219  30.242  1.00  0.00     0.014 A 
ATOM     28  C   UNL A   1      39.328  29.366  27.668  1.00  0.00     0.010 A 
ATOM     29  C   UNL A   1      39.586  28.833  30.011  1.00  0.00     0.010 A 
ATOM     30  C   UNL A   1      40.136  28.912  28.723  1.00  0.00    -0.014 A 
BRANCH  30  31
ATOM     31  C   UNL A   1      41.561  28.540  28.519  1.00  0.00     0.031 A 
ATOM     32  C   UNL A   1      42.633  29.597  28.570  1.00  0.00     0.074 A 
ATOM     33  C   UNL A   1      41.878  27.274  28.183  1.00  0.00     0.049 A 
ATOM     34  N   UNL A   1      43.905  29.497  28.278  1.00  0.00    -0.248 NA
ATOM     35  C   UNL A   1      42.214  30.950  28.968  1.00  0.00     0.031 C 
ATOM     36  C   UNL A   1      40.927  26.167  28.050  1.00  0.00     0.029 A 
ATOM     37  N   UNL A   1      43.089  26.703  27.874  1.00  0.00    -0.354 N 
ATOM     38  C   UNL A   1      44.429  30.776  28.427  1.00  0.00     0.074 A 
ATOM     39  C   UNL A   1      43.329  31.643  28.792  1.00  0.00     0.031 C 
ATOM     40  C   UNL A   1      41.589  25.051  27.710  1.00  0.00     0.029 A 
ATOM     41  C   UNL A   1      43.004  25.368  27.552  1.00  0.00     0.049 A 
ATOM     42  H   UNL A   1      43.936  27.202  27.882  1.00  0.00     0.167 HD
ATOM     43  C   UNL A   1      45.712  31.187  28.291  1.00  0.00     0.037 A 
ATOM     44  C   UNL A   1      43.955  24.499  27.155  1.00  0.00     0.037 A 
ATOM     45  C   UNL A   1      46.809  30.311  27.973  1.00  0.00     0.049 A 
ATOM     46  C   UNL A   1      45.372  24.980  27.009  1.00  0.00     0.074 A 
ATOM     47  C   UNL A   1      48.159  30.611  27.908  1.00  0.00     0.029 A 
ATOM     48  N   UNL A   1      46.683  28.965  27.664  1.00  0.00    -0.354 N 
ATOM     49  N   UNL A   1      45.861  26.178  27.222  1.00  0.00    -0.248 NA
ATOM     50  C   UNL A   1      46.366  23.994  26.561  1.00  0.00     0.031 C 
ATOM     51  C   UNL A   1      48.844  29.456  27.517  1.00  0.00     0.029 A 
ATOM     52  C   UNL A   1      47.927  28.427  27.377  1.00  0.00     0.049 A 
ATOM     53  H   UNL A   1      45.835  28.465  27.650  1.00  0.00     0.167 HD
ATOM     54  C   UNL A   1      47.220  26.088  26.945  1.00  0.00     0.074 A 
ATOM     55  C   UNL A   1      47.480  24.714  26.567  1.00  0.00     0.031 C 
ATOM     56  C   UNL A   1      48.166  27.057  26.995  1.00  0.00     0.037 A 
BRANCH  43  57
ATOM     57  C   UNL A   1      46.003  32.649  28.494  1.00  0.00     0.058 A 
ATOM     58  C   UNL A   1      46.319  33.170  29.758  1.00  0.00     0.135 A 
ATOM     59  C   UNL A   1      45.995  33.535  27.404  1.00  0.00     0.135 A 
ATOM     60  F   UNL A   1      46.327  32.369  30.836  1.00  0.00    -0.206 F 
ATOM     61  C   UNL A   1      46.587  34.522  29.942  1.00  0.00     0.059 A 
ATOM     62  C   UNL A   1      46.287  34.887  27.560  1.00  0.00     0.059 A 
ATOM     63  F   UNL A   1      45.700  33.090  26.173  1.00  0.00    -0.206 F 
ATOM     64  C   UNL A   1      46.566  35.373  28.837  1.00  0.00     0.060 A 
BRANCH  64  65
ATOM     65  S   UNL A   1      46.916  37.127  29.092  1.00  0.00     0.124 S 
ATOM     66  O   UNL A   1      45.611  37.724  28.826  1.00  0.00    -0.237 OA
ATOM     67  O   UNL A   1      47.355  37.158  30.484  1.00  0.00    -0.237 OA
ATOM     68  O   UNL A   1      47.952  37.414  28.105  1.00  0.00    -0.744 OA
ENDBRANCH  64  65
ENDBRANCH  43  57
BRANCH  44  69
ATOM     69  C   UNL A   1      43.598  23.083  26.879  1.00  0.00     0.058 A 
ATOM     70  C   UNL A   1      43.262  22.211  27.926  1.00  0.00     0.135 A 
ATOM     71  C   UNL A   1      43.563  22.577  25.569  1.00  0.00     0.135 A 
ATOM     72  F   UNL A   1      43.290  22.646  29.194  1.00  0.00    -0.206 F 
ATOM     73  C   UNL A   1      42.911  20.887  27.688  1.00  0.00     0.059 A 
ATOM     74  C   UNL A   1      43.193  21.261  25.305  1.00  0.00     0.059 A 
ATOM     75  F   UNL A   1      43.860  23.374  24.533  1.00  0.00    -0.206 F 
ATOM     76  C   UNL A   1      42.875  20.422  26.372  1.00  0.00     0.060 A 
BRANCH  76  77
ATOM     77  S   UNL A   1      42.356  18.719  26.067  1.00  0.00     0.124 S 
ATOM     78  O   UNL A   1      40.957  18.900  25.700  1.00  0.00    -0.237 OA
ATOM     79  O   UNL A   1      43.253  18.312  24.991  1.00  0.00    -0.237 OA
ATOM     80  O   UNL A   1      42.595  18.063  27.350  1.00  0.00    -0.744 OA
ENDBRANCH  76  77
ENDBRANCH  44  69
BRANCH  56  81
ATOM     81  C   UNL A   1      49.572  26.668  26.637  1.00  0.00     0.058 A 
ATOM     82  C   UNL A   1      50.454  26.150  27.598  1.00  0.00     0.135 A 
ATOM     83  C   UNL A   1      50.023  26.756  25.310  1.00  0.00     0.135 A 
ATOM     84  F   UNL A   1      50.073  26.057  28.883  1.00  0.00    -0.206 F 
ATOM     85  C   UNL A   1      51.739  25.743  27.259  1.00  0.00     0.059 A 
ATOM     86  C   UNL A   1      51.296  26.332  24.944  1.00  0.00     0.059 A 
ATOM     87  F   UNL A   1      49.216  27.237  24.352  1.00  0.00    -0.206 F 
ATOM     88  C   UNL A   1      52.151  25.834  25.928  1.00  0.00     0.060 A 
BRANCH  88  89
ATOM     89  S   UNL A   1      53.804  25.257  25.492  1.00  0.00     0.124 S 
ATOM     90  O   UNL A   1      53.501  24.092  24.667  1.00  0.00    -0.237 OA
ATOM     91  O   UNL A   1      54.361  26.407  24.786  1.00  0.00    -0.237 OA
ATOM     92  O   UNL A   1      54.416  24.968  26.786  1.00  0.00    -0.744 OA
ENDBRANCH  88  89
ENDBRANCH  56  81
ENDBRANCH  30  31
ENDBRANCH  22  25
ENDBRANCH  20  21
ENDBRANCH   1  20
TORSDOF 16
ENDMDL
MODEL 2
REMARK VINA RESULT:     -11.1      7.078     13.586
REMARK SMILES C[C@H]([NH3+])C(=O)N1CCC[C@H]1C(=O)NCCCNC(=O)c1ccc(-c2c3nc(c(-c4c(F)cc(S(=O)(=O)[O-])cc4F)c4ccc([nH]4)c(-c4c(F)cc(S(=O)(=O)[O-])cc4F)c4nc(c(-c5c(F)cc(S(=O)(=O)[O-])cc5F)c5ccc2[nH]5)C=C4)C=C3)cc1
REMARK SMILES IDX 15 1 14 2 13 3 11 4 12 5 10 7 6 8 7 9 8 10 9 11 4 12 5 13
REMARK SMILES IDX 2 14 1 15 3 16 16 20 17 21 18 22 19 24 20 25 21 26 85 27
REMARK SMILES IDX 22 28 84 29 23 30 24 31 25 32 78 33 26 34 83 35 77 36 79 37
REMARK SMILES IDX 27 38 82 39 76 40 75 41 28 43 62 44 41 45 61 46 42 47 45 48
REMARK SMILES IDX 60 49 80 50 43 51 44 52 59 54 81 55 46 56 29 57 30 58 39 59
REMARK SMILES IDX 31 60 32 61 38 62 40 63 33 64 34 65 35 66 36 67 37 68 63 69
REMARK SMILES IDX 64 70 73 71 65 72 66 73 72 74 74 75 67 76 68 77 69 78 70 79
REMARK SMILES IDX 71 80 47 81 48 82 57 83 49 84 50 85 56 86 58 87 51 88 52 89
REMARK SMILES IDX 53 90 54 91 55 92
REMARK H PARENT 13 6 3 17 3 18 3 19 17 23 79 42 45 53
REMARK Flexibility Score: inf
ROOT
ATOM      1  C   UNL A   1      44.314  24.720  26.383  1.00  0.00     0.042 C 
ENDROOT
BRANCH   1   2
ATOM      2  C   UNL A   1      45.482  24.394  25.466  1.00  0.00     0.117 C 
BRANCH   2   3
ATOM      3  N   UNL A   1      45.098  23.605  24.314  1.00  0.00    -0.354 N 
ATOM      4  C   UNL A   1      44.745  22.300  24.175  1.00  0.00     0.242 C 
ATOM      5  O   UNL A   1      44.301  21.995  23.061  1.00  0.00    -0.273 OA
ATOM      6  H   UNL A   1      45.092  24.111  23.470  1.00  0.00     0.163 HD
BRANCH   4   7
ATOM      7  C   UNL A   1      44.927  21.222  25.272  1.00  0.00     0.174 C 
ATOM      8  N   UNL A   1      43.796  20.313  25.456  1.00  0.00    -0.326 N 
ATOM      9  C   UNL A   1      44.068  19.045  24.819  1.00  0.00     0.120 C 
ATOM     10  C   UNL A   1      45.577  18.885  24.934  1.00  0.00     0.024 C 
ATOM     11  C   UNL A   1      46.137  20.295  25.162  1.00  0.00     0.037 C 
BRANCH   8  12
ATOM     12  C   UNL A   1      42.743  20.684  26.268  1.00  0.00     0.281 C 
ATOM     13  O   UNL A   1      42.737  21.787  26.827  1.00  0.00    -0.268 OA
BRANCH  12  14
ATOM     14  C   UNL A   1      41.659  19.656  26.660  1.00  0.00     0.268 C 
ATOM     15  C   UNL A   1      40.394  19.864  25.829  1.00  0.00     0.086 C 
BRANCH  14  16
ATOM     16  N   UNL A   1      41.405  19.572  28.106  1.00  0.00    -0.348 N 
ATOM     17  H   UNL A   1      41.686  20.444  28.552  1.00  0.00     0.345 HD
ATOM     18  H   UNL A   1      41.942  18.800  28.500  1.00  0.00     0.345 HD
ATOM     19  H   UNL A   1      40.410  19.412  28.267  1.00  0.00     0.345 HD
ENDBRANCH  14  16
ENDBRANCH  12  14
ENDBRANCH   8  12
ENDBRANCH   4   7
ENDBRANCH   2   3
ENDBRANCH   1   2
BRANCH   1  20
ATOM     20  C   UNL A   1      43.114  25.336  25.677  1.00  0.00     0.118 C 
BRANCH  20  21
ATOM     21  N   UNL A   1      41.922  24.500  25.734  1.00  0.00    -0.352 N 
ATOM     22  C   UNL A   1      40.816  24.566  26.549  1.00  0.00     0.251 C 
ATOM     23  H   UNL A   1      41.907  23.764  25.080  1.00  0.00     0.163 HD
ATOM     24  O   UNL A   1      40.005  23.643  26.540  1.00  0.00    -0.269 OA
BRANCH  22  25
ATOM     25  C   UNL A   1      40.616  25.715  27.460  1.00  0.00     0.039 A 
ATOM     26  C   UNL A   1      39.663  25.617  28.479  1.00  0.00     0.014 A 
ATOM     27  C   UNL A   1      41.362  26.886  27.321  1.00  0.00     0.014 A 
ATOM     28  C   UNL A   1      39.539  26.648  29.416  1.00  0.00     0.010 A 
ATOM     29  C   UNL A   1      41.309  27.864  28.310  1.00  0.00     0.010 A 
ATOM     30  C   UNL A   1      40.405  27.752  29.376  1.00  0.00    -0.014 A 
BRANCH  30  31
ATOM     31  C   UNL A   1      40.409  28.787  30.443  1.00  0.00     0.031 A 
ATOM     32  C   UNL A   1      41.348  28.663  31.614  1.00  0.00     0.074 A 
ATOM     33  C   UNL A   1      39.497  29.779  30.413  1.00  0.00     0.049 A 
ATOM     34  N   UNL A   1      41.402  29.379  32.708  1.00  0.00    -0.248 NA
ATOM     35  C   UNL A   1      42.332  27.570  31.564  1.00  0.00     0.031 C 
ATOM     36  C   UNL A   1      38.497  29.982  29.361  1.00  0.00     0.029 A 
ATOM     37  N   UNL A   1      39.247  30.797  31.301  1.00  0.00    -0.354 N 
ATOM     38  C   UNL A   1      42.401  28.805  33.487  1.00  0.00     0.074 A 
ATOM     39  C   UNL A   1      42.895  27.656  32.759  1.00  0.00     0.031 C 
ATOM     40  C   UNL A   1      37.761  31.066  29.650  1.00  0.00     0.029 A 
ATOM     41  C   UNL A   1      38.199  31.609  30.931  1.00  0.00     0.049 A 
ATOM     42  H   UNL A   1      39.768  30.933  32.124  1.00  0.00     0.167 HD
ATOM     43  C   UNL A   1      42.876  29.210  34.688  1.00  0.00     0.037 A 
ATOM     44  C   UNL A   1      37.640  32.661  31.561  1.00  0.00     0.037 A 
ATOM     45  C   UNL A   1      42.412  30.382  35.385  1.00  0.00     0.049 A 
ATOM     46  C   UNL A   1      38.183  33.090  32.896  1.00  0.00     0.074 A 
ATOM     47  C   UNL A   1      42.894  30.931  36.560  1.00  0.00     0.029 A 
ATOM     48  N   UNL A   1      41.356  31.181  34.973  1.00  0.00    -0.354 N 
ATOM     49  N   UNL A   1      39.175  32.577  33.584  1.00  0.00    -0.248 NA
ATOM     50  C   UNL A   1      37.527  34.234  33.544  1.00  0.00     0.031 C 
ATOM     51  C   UNL A   1      42.102  32.039  36.881  1.00  0.00     0.029 A 
ATOM     52  C   UNL A   1      41.152  32.202  35.886  1.00  0.00     0.049 A 
ATOM     53  H   UNL A   1      40.829  31.043  34.153  1.00  0.00     0.167 HD
ATOM     54  C   UNL A   1      39.270  33.342  34.741  1.00  0.00     0.074 A 
ATOM     55  C   UNL A   1      38.247  34.365  34.650  1.00  0.00     0.031 C 
ATOM     56  C   UNL A   1      40.123  33.208  35.784  1.00  0.00     0.037 A 
BRANCH  43  57
ATOM     57  C   UNL A   1      43.961  28.386  35.325  1.00  0.00     0.058 A 
ATOM     58  C   UNL A   1      43.668  27.354  36.231  1.00  0.00     0.135 A 
ATOM     59  C   UNL A   1      45.310  28.609  35.001  1.00  0.00     0.135 A 
ATOM     60  F   UNL A   1      42.398  27.107  36.585  1.00  0.00    -0.206 F 
ATOM     61  C   UNL A   1      44.674  26.594  36.817  1.00  0.00     0.059 A 
ATOM     62  C   UNL A   1      46.331  27.842  35.555  1.00  0.00     0.059 A 
ATOM     63  F   UNL A   1      45.646  29.583  34.140  1.00  0.00    -0.206 F 
ATOM     64  C   UNL A   1      46.003  26.847  36.475  1.00  0.00     0.060 A 
BRANCH  64  65
ATOM     65  S   UNL A   1      47.297  25.851  37.245  1.00  0.00     0.124 S 
ATOM     66  O   UNL A   1      47.532  24.839  36.220  1.00  0.00    -0.237 OA
ATOM     67  O   UNL A   1      48.370  26.823  37.433  1.00  0.00    -0.237 OA
ATOM     68  O   UNL A   1      46.670  25.368  38.472  1.00  0.00    -0.744 OA
ENDBRANCH  64  65
ENDBRANCH  43  57
BRANCH  44  69
ATOM     69  C   UNL A   1      36.507  33.388  30.930  1.00  0.00     0.058 A 
ATOM     70  C   UNL A   1      36.716  34.203  29.807  1.00  0.00     0.135 A 
ATOM     71  C   UNL A   1      35.196  33.269  31.417  1.00  0.00     0.135 A 
ATOM     72  F   UNL A   1      37.953  34.354  29.310  1.00  0.00    -0.206 F 
ATOM     73  C   UNL A   1      35.669  34.879  29.192  1.00  0.00     0.059 A 
ATOM     74  C   UNL A   1      34.128  33.919  30.805  1.00  0.00     0.059 A 
ATOM     75  F   UNL A   1      34.942  32.489  32.478  1.00  0.00    -0.206 F 
ATOM     76  C   UNL A   1      34.376  34.727  29.697  1.00  0.00     0.060 A 
BRANCH  76  77
ATOM     77  S   UNL A   1      33.012  35.559  28.853  1.00  0.00     0.124 S 
ATOM     78  O   UNL A   1      32.445  34.470  28.067  1.00  0.00    -0.237 OA
ATOM     79  O   UNL A   1      32.202  36.031  29.971  1.00  0.00    -0.237 OA
ATOM     80  O   UNL A   1      33.682  36.609  28.090  1.00  0.00    -0.744 OA
ENDBRANCH  76  77
ENDBRANCH  44  69
BRANCH  56  81
ATOM     81  C   UNL A   1      39.994  34.190  36.913  1.00  0.00     0.058 A 
ATOM     82  C   UNL A   1      40.586  35.461  36.847  1.00  0.00     0.135 A 
ATOM     83  C   UNL A   1      39.221  33.883  38.044  1.00  0.00     0.135 A 
ATOM     84  F   UNL A   1      41.344  35.798  35.791  1.00  0.00    -0.206 F 
ATOM     85  C   UNL A   1      40.426  36.390  37.868  1.00  0.00     0.059 A 
ATOM     86  C   UNL A   1      39.027  34.806  39.067  1.00  0.00     0.059 A 
ATOM     87  F   UNL A   1      38.627  32.684  38.152  1.00  0.00    -0.206 F 
ATOM     88  C   UNL A   1      39.641  36.055  38.973  1.00  0.00     0.060 A 
BRANCH  88  89
ATOM     89  S   UNL A   1      39.402  37.287  40.270  1.00  0.00     0.124 S 
ATOM     90  O   UNL A   1      38.678  36.517  41.277  1.00  0.00    -0.237 OA
ATOM     91  O   UNL A   1      40.773  37.651  40.614  1.00  0.00    -0.237 OA
ATOM     92  O   UNL A   1      38.631  38.334  39.607  1.00  0.00    -0.744 OA
ENDBRANCH  88  89
ENDBRANCH  56  81
ENDBRANCH  30  31
ENDBRANCH  22  25
ENDBRANCH  20  21
ENDBRANCH   1  20
TORSDOF 16
ENDMDL
MODEL 3
REMARK VINA RESULT:     -10.9      2.815      3.966
REMARK SMILES C[C@H]([NH3+])C(=O)N1CCC[C@H]1C(=O)NCCCNC(=O)c1ccc(-c2c3nc(c(-c4c(F)cc(S(=O)(=O)[O-])cc4F)c4ccc([nH]4)c(-c4c(F)cc(S(=O)(=O)[O-])cc4F)c4nc(c(-c5c(F)cc(S(=O)(=O)[O-])cc5F)c5ccc2[nH]5)C=C4)C=C3)cc1
REMARK SMILES IDX 15 1 14 2 13 3 11 4 12 5 10 7 6 8 7 9 8 10 9 11 4 12 5 13
REMARK SMILES IDX 2 14 1 15 3 16 16 20 17 21 18 22 19 24 20 25 21 26 85 27
REMARK SMILES IDX 22 28 84 29 23 30 24 31 25 32 78 33 26 34 83 35 77 36 79 37
REMARK SMILES IDX 27 38 82 39 76 40 75 41 28 43 62 44 41 45 61 46 42 47 45 48
REMARK SMILES IDX 60 49 80 50 43 51 44 52 59 54 81 55 46 56 29 57 30 58 39 59
REMARK SMILES IDX 31 60 32 61 38 62 40 63 33 64 34 65 35 66 36 67 37 68 63 69
REMARK SMILES IDX 64 70 73 71 65 72 66 73 72 74 74 75 67 76 68 77 69 78 70 79
REMARK SMILES IDX 71 80 47 81 48 82 57 83 49 84 50 85 56 86 58 87 51 88 52 89
REMARK SMILES IDX 53 90 54 91 55 92
REMARK H PARENT 13 6 3 17 3 18 3 19 17 23 79 42 45 53
REMARK Flexibility Score: inf
ROOT
ATOM      1  C   UNL A   1      32.318  28.040  27.365  1.00  0.00     0.042 C 
ENDROOT
BRANCH   1   2
ATOM      2  C   UNL A   1      31.830  27.221  26.180  1.00  0.00     0.117 C 
BRANCH   2   3
ATOM      3  N   UNL A   1      31.129  26.016  26.571  1.00  0.00    -0.354 N 
ATOM      4  C   UNL A   1      31.530  24.723  26.695  1.00  0.00     0.242 C 
ATOM      5  O   UNL A   1      30.705  23.969  27.228  1.00  0.00    -0.273 OA
ATOM      6  H   UNL A   1      30.180  26.161  26.788  1.00  0.00     0.163 HD
BRANCH   4   7
ATOM      7  C   UNL A   1      32.875  24.168  26.167  1.00  0.00     0.174 C 
ATOM      8  N   UNL A   1      32.772  23.169  25.105  1.00  0.00    -0.326 N 
ATOM      9  C   UNL A   1      33.051  23.773  23.823  1.00  0.00     0.120 C 
ATOM     10  C   UNL A   1      34.053  24.873  24.139  1.00  0.00     0.024 C 
ATOM     11  C   UNL A   1      33.897  25.174  25.635  1.00  0.00     0.037 C 
BRANCH   8  12
ATOM     12  C   UNL A   1      32.575  21.841  25.430  1.00  0.00     0.281 C 
ATOM     13  O   UNL A   1      31.459  21.322  25.309  1.00  0.00    -0.268 OA
BRANCH  12  14
ATOM     14  C   UNL A   1      33.684  21.039  26.145  1.00  0.00     0.268 C 
ATOM     15  C   UNL A   1      34.925  20.930  25.261  1.00  0.00     0.086 C 
BRANCH  14  16
ATOM     16  N   UNL A   1      33.236  19.749  26.690  1.00  0.00    -0.348 N 
ATOM     17  H   UNL A   1      33.937  19.393  27.340  1.00  0.00     0.345 HD
ATOM     18  H   UNL A   1      33.110  19.084  25.928  1.00  0.00     0.345 HD
ATOM     19  H   UNL A   1      32.351  19.877  27.181  1.00  0.00     0.345 HD
ENDBRANCH  14  16
ENDBRANCH  12  14
ENDBRANCH   8  12
ENDBRANCH   4   7
ENDBRANCH   2   3
ENDBRANCH   1   2
BRANCH   1  20
ATOM     20  C   UNL A   1      33.600  28.818  27.105  1.00  0.00     0.118 C 
BRANCH  20  21
ATOM     21  N   UNL A   1      33.616  30.129  27.742  1.00  0.00    -0.352 N 
ATOM     22  C   UNL A   1      34.587  30.753  28.491  1.00  0.00     0.251 C 
ATOM     23  H   UNL A   1      32.792  30.655  27.618  1.00  0.00     0.163 HD
ATOM     24  O   UNL A   1      34.314  31.794  29.083  1.00  0.00    -0.269 OA
BRANCH  22  25
ATOM     25  C   UNL A   1      35.938  30.163  28.619  1.00  0.00     0.039 A 
ATOM     26  C   UNL A   1      36.762  30.099  27.490  1.00  0.00     0.014 A 
ATOM     27  C   UNL A   1      36.400  29.674  29.841  1.00  0.00     0.014 A 
ATOM     28  C   UNL A   1      38.079  29.648  27.617  1.00  0.00     0.010 A 
ATOM     29  C   UNL A   1      37.738  29.321  29.986  1.00  0.00     0.010 A 
ATOM     30  C   UNL A   1      38.598  29.314  28.878  1.00  0.00    -0.014 A 
BRANCH  30  31
ATOM     31  C   UNL A   1      40.034  28.983  29.076  1.00  0.00     0.031 A 
ATOM     32  C   UNL A   1      40.997  30.040  29.546  1.00  0.00     0.074 A 
ATOM     33  C   UNL A   1      40.489  27.762  28.730  1.00  0.00     0.049 A 
ATOM     34  N   UNL A   1      42.301  29.987  29.641  1.00  0.00    -0.248 NA
ATOM     35  C   UNL A   1      40.422  31.340  29.929  1.00  0.00     0.031 C 
ATOM     36  C   UNL A   1      39.668  26.664  28.212  1.00  0.00     0.029 A 
ATOM     37  N   UNL A   1      41.760  27.240  28.744  1.00  0.00    -0.354 N 
ATOM     38  C   UNL A   1      42.703  31.249  30.061  1.00  0.00     0.074 A 
ATOM     39  C   UNL A   1      41.509  32.060  30.162  1.00  0.00     0.031 C 
ATOM     40  C   UNL A   1      40.448  25.597  27.981  1.00  0.00     0.029 A 
ATOM     41  C   UNL A   1      41.831  25.945  28.285  1.00  0.00     0.049 A 
ATOM     42  H   UNL A   1      42.546  27.746  29.053  1.00  0.00     0.167 HD
ATOM     43  C   UNL A   1      43.950  31.687  30.357  1.00  0.00     0.037 A 
ATOM     44  C   UNL A   1      42.893  25.134  28.110  1.00  0.00     0.037 A 
ATOM     45  C   UNL A   1      45.128  30.861  30.299  1.00  0.00     0.049 A 
ATOM     46  C   UNL A   1      44.268  25.643  28.441  1.00  0.00     0.074 A 
ATOM     47  C   UNL A   1      46.422  31.182  30.670  1.00  0.00     0.029 A 
ATOM     48  N   UNL A   1      45.157  29.553  29.838  1.00  0.00    -0.354 N 
ATOM     49  N   UNL A   1      44.621  26.818  28.905  1.00  0.00    -0.248 NA
ATOM     50  C   UNL A   1      45.391  24.722  28.219  1.00  0.00     0.031 C 
ATOM     51  C   UNL A   1      47.241  30.082  30.394  1.00  0.00     0.029 A 
ATOM     52  C   UNL A   1      46.451  29.063  29.887  1.00  0.00     0.049 A 
ATOM     53  H   UNL A   1      44.372  29.048  29.523  1.00  0.00     0.167 HD
ATOM     54  C   UNL A   1      46.003  26.774  29.041  1.00  0.00     0.074 A 
ATOM     55  C   UNL A   1      46.421  25.449  28.627  1.00  0.00     0.031 C 
ATOM     56  C   UNL A   1      46.850  27.743  29.465  1.00  0.00     0.037 A 
BRANCH  43  57
ATOM     57  C   UNL A   1      44.105  33.122  30.777  1.00  0.00     0.058 A 
ATOM     58  C   UNL A   1      43.998  33.514  32.120  1.00  0.00     0.135 A 
ATOM     59  C   UNL A   1      44.396  34.116  29.827  1.00  0.00     0.135 A 
ATOM     60  F   UNL A   1      43.708  32.607  33.067  1.00  0.00    -0.206 F 
ATOM     61  C   UNL A   1      44.142  34.843  32.504  1.00  0.00     0.059 A 
ATOM     62  C   UNL A   1      44.571  35.448  30.192  1.00  0.00     0.059 A 
ATOM     63  F   UNL A   1      44.509  33.796  28.528  1.00  0.00    -0.206 F 
ATOM     64  C   UNL A   1      44.426  35.803  31.533  1.00  0.00     0.060 A 
BRANCH  64  65
ATOM     65  S   UNL A   1      44.610  37.524  32.048  1.00  0.00     0.124 S 
ATOM     66  O   UNL A   1      46.057  37.697  31.966  1.00  0.00    -0.237 OA
ATOM     67  O   UNL A   1      43.829  38.237  31.042  1.00  0.00    -0.237 OA
ATOM     68  O   UNL A   1      44.052  37.536  33.397  1.00  0.00    -0.744 OA
ENDBRANCH  64  65
ENDBRANCH  43  57
BRANCH  44  69
ATOM     69  C   UNL A   1      42.695  23.750  27.604  1.00  0.00     0.058 A 
ATOM     70  C   UNL A   1      42.729  23.477  26.228  1.00  0.00     0.135 A 
ATOM     71  C   UNL A   1      42.490  22.671  28.480  1.00  0.00     0.135 A 
ATOM     72  F   UNL A   1      42.914  24.476  25.353  1.00  0.00    -0.206 F 
ATOM     73  C   UNL A   1      42.561  22.188  25.736  1.00  0.00     0.059 A 
ATOM     74  C   UNL A   1      42.341  21.369  28.012  1.00  0.00     0.059 A 
ATOM     75  F   UNL A   1      42.465  22.877  29.805  1.00  0.00    -0.206 F 
ATOM     76  C   UNL A   1      42.372  21.139  26.637  1.00  0.00     0.060 A 
BRANCH  76  77
ATOM     77  S   UNL A   1      42.218  19.458  25.992  1.00  0.00     0.124 S 
ATOM     78  O   UNL A   1      42.780  18.672  27.082  1.00  0.00    -0.237 OA
ATOM     79  O   UNL A   1      40.778  19.338  25.790  1.00  0.00    -0.237 OA
ATOM     80  O   UNL A   1      43.010  19.498  24.765  1.00  0.00    -0.744 OA
ENDBRANCH  76  77
ENDBRANCH  44  69
BRANCH  56  81
ATOM     81  C   UNL A   1      48.314  27.410  29.508  1.00  0.00     0.058 A 
ATOM     82  C   UNL A   1      49.170  27.739  28.446  1.00  0.00     0.135 A 
ATOM     83  C   UNL A   1      48.879  26.813  30.647  1.00  0.00     0.135 A 
ATOM     84  F   UNL A   1      48.676  28.300  27.331  1.00  0.00    -0.206 F 
ATOM     85  C   UNL A   1      50.534  27.476  28.505  1.00  0.00     0.059 A 
ATOM     86  C   UNL A   1      50.244  26.564  30.738  1.00  0.00     0.059 A 
ATOM     87  F   UNL A   1      48.105  26.487  31.694  1.00  0.00    -0.206 F 
ATOM     88  C   UNL A   1      51.063  26.892  29.657  1.00  0.00     0.060 A 
BRANCH  88  89
ATOM     89  S   UNL A   1      52.842  26.601  29.740  1.00  0.00     0.124 S 
ATOM     90  O   UNL A   1      53.104  26.003  28.435  1.00  0.00    -0.237 OA
ATOM     91  O   UNL A   1      53.371  27.947  29.939  1.00  0.00    -0.237 OA
ATOM     92  O   UNL A   1      52.987  25.703  30.882  1.00  0.00    -0.744 OA
ENDBRANCH  88  89
ENDBRANCH  56  81
ENDBRANCH  30  31
ENDBRANCH  22  25
ENDBRANCH  20  21
ENDBRANCH   1  20
TORSDOF 16
ENDMDL
