MODEL 1
REMARK VINA RESULT:     -12.8      0.000      0.000
REMARK SMILES O=C(/C=C/c1ccc(Br)cc1-n1ccnc1)NCCCNC(=O)c1ccc(-c2c3nc(c(-c4c(F)cc(S(=O)(=O)[O-])cc4F)c4ccc([nH]4)c(-c4c(F)cc(S(=O)(=O)[O-])cc4F)c4nc(c(-c5c(F)cc(S(=O)(=O)[O-])cc5F)c5ccc2[nH]5)C=C4)C=C3)cc1
REMARK SMILES IDX 19 1 18 2 17 3 1 4 2 5 3 7 4 8 5 9 6 10 11 11 7 12 10 13
REMARK SMILES IDX 8 14 9 15 12 16 13 17 16 18 14 19 15 20 20 21 21 22 22 23
REMARK SMILES IDX 23 25 24 26 25 27 89 28 26 29 88 30 27 31 28 32 29 33 82 34
REMARK SMILES IDX 30 35 87 36 81 37 83 38 31 39 86 40 80 41 79 42 32 44 66 45
REMARK SMILES IDX 45 46 65 47 46 48 49 49 64 50 84 51 47 52 48 53 63 55 85 56
REMARK SMILES IDX 50 57 33 58 34 59 43 60 35 61 36 62 42 63 44 64 37 65 38 66
REMARK SMILES IDX 39 67 40 68 41 69 67 70 68 71 77 72 69 73 70 74 76 75 78 76
REMARK SMILES IDX 71 77 72 78 73 79 74 80 75 81 51 82 52 83 61 84 53 85 54 86
REMARK SMILES IDX 60 87 62 88 55 89 56 90 57 91 58 92 59 93
REMARK H PARENT 17 6 21 24 83 43 49 54
REMARK Flexibility Score: inf
ROOT
ATOM      1  C   UNL A   1      37.168  21.632  24.886  1.00  0.00     0.042 C 
ENDROOT
BRANCH   1   2
ATOM      2  C   UNL A   1      35.797  21.750  25.561  1.00  0.00     0.118 C 
BRANCH   2   3
ATOM      3  N   UNL A   1      35.254  23.104  25.585  1.00  0.00    -0.352 N 
ATOM      4  O   UNL A   1      33.103  22.487  26.074  1.00  0.00    -0.270 OA
ATOM      5  C   UNL A   1      33.938  23.364  25.874  1.00  0.00     0.244 C 
ATOM      6  H   UNL A   1      35.854  23.860  25.387  1.00  0.00     0.163 HD
BRANCH   5   7
ATOM      7  C   UNL A   1      33.515  24.793  25.996  1.00  0.00     0.072 C 
ATOM      8  C   UNL A   1      32.376  25.355  25.567  1.00  0.00     0.016 C 
BRANCH   8   9
ATOM      9  C   UNL A   1      32.038  26.789  25.750  1.00  0.00    -0.001 A 
ATOM     10  C   UNL A   1      31.774  27.309  27.019  1.00  0.00     0.011 A 
ATOM     11  C   UNL A   1      32.138  27.715  24.693  1.00  0.00     0.055 A 
ATOM     12  C   UNL A   1      31.632  28.694  27.211  1.00  0.00     0.016 A 
ATOM     13  C   UNL A   1      32.047  29.100  24.870  1.00  0.00     0.043 A 
ATOM     14  C   UNL A   1      31.782  29.579  26.143  1.00  0.00     0.020 A 
ATOM     15  Br  UNL A   1      31.627  31.441  26.427  1.00  0.00    -0.051 Br
BRANCH  11  16
ATOM     16  N   UNL A   1      32.392  27.253  23.406  1.00  0.00    -0.306 N 
ATOM     17  C   UNL A   1      31.528  26.571  22.587  1.00  0.00     0.113 A 
ATOM     18  C   UNL A   1      33.639  27.157  22.871  1.00  0.00     0.204 A 
ATOM     19  C   UNL A   1      32.308  26.085  21.575  1.00  0.00     0.131 A 
ATOM     20  N   UNL A   1      33.618  26.373  21.826  1.00  0.00    -0.245 NA
ENDBRANCH  11  16
ENDBRANCH   8   9
ENDBRANCH   5   7
ENDBRANCH   2   3
ENDBRANCH   1   2
BRANCH   1  21
ATOM     21  C   UNL A   1      38.247  22.492  25.532  1.00  0.00     0.118 C 
BRANCH  21  22
ATOM     22  N   UNL A   1      39.091  21.783  26.498  1.00  0.00    -0.352 N 
ATOM     23  C   UNL A   1      40.143  22.288  27.257  1.00  0.00     0.251 C 
ATOM     24  H   UNL A   1      38.887  20.828  26.627  1.00  0.00     0.163 HD
ATOM     25  O   UNL A   1      40.965  21.532  27.749  1.00  0.00    -0.269 OA
BRANCH  23  26
ATOM     26  C   UNL A   1      40.252  23.752  27.459  1.00  0.00     0.039 A 
ATOM     27  C   UNL A   1      39.182  24.627  27.236  1.00  0.00     0.014 A 
ATOM     28  C   UNL A   1      41.461  24.254  27.908  1.00  0.00     0.014 A 
ATOM     29  C   UNL A   1      39.319  25.983  27.571  1.00  0.00     0.010 A 
ATOM     30  C   UNL A   1      41.521  25.536  28.392  1.00  0.00     0.010 A 
ATOM     31  C   UNL A   1      40.493  26.435  28.186  1.00  0.00    -0.014 A 
BRANCH  31  32
ATOM     32  C   UNL A   1      40.616  27.756  28.818  1.00  0.00     0.031 A 
ATOM     33  C   UNL A   1      41.663  28.595  28.198  1.00  0.00     0.074 A 
ATOM     34  C   UNL A   1      39.777  28.277  29.750  1.00  0.00     0.049 A 
ATOM     35  N   UNL A   1      42.833  28.804  28.698  1.00  0.00    -0.248 NA
ATOM     36  C   UNL A   1      41.513  29.084  26.819  1.00  0.00     0.031 C 
ATOM     37  C   UNL A   1      38.606  27.646  30.361  1.00  0.00     0.029 A 
ATOM     38  N   UNL A   1      39.746  29.530  30.307  1.00  0.00    -0.354 N 
ATOM     39  C   UNL A   1      43.454  29.700  27.844  1.00  0.00     0.074 A 
ATOM     40  C   UNL A   1      42.709  29.649  26.614  1.00  0.00     0.031 C 
ATOM     41  C   UNL A   1      37.847  28.574  30.993  1.00  0.00     0.029 A 
ATOM     42  C   UNL A   1      38.565  29.829  30.995  1.00  0.00     0.049 A 
ATOM     43  H   UNL A   1      40.493  30.166  30.230  1.00  0.00     0.167 HD
ATOM     44  C   UNL A   1      44.325  30.614  28.351  1.00  0.00     0.037 A 
ATOM     45  C   UNL A   1      38.239  30.956  31.682  1.00  0.00     0.037 A 
ATOM     46  C   UNL A   1      44.667  30.280  29.718  1.00  0.00     0.049 A 
ATOM     47  C   UNL A   1      39.526  31.531  32.122  1.00  0.00     0.074 A 
ATOM     48  C   UNL A   1      45.317  29.243  30.355  1.00  0.00     0.029 A 
ATOM     49  N   UNL A   1      43.905  30.915  30.667  1.00  0.00    -0.354 N 
ATOM     50  N   UNL A   1      40.312  30.946  32.984  1.00  0.00    -0.248 NA
ATOM     51  C   UNL A   1      40.144  32.563  31.308  1.00  0.00     0.031 C 
ATOM     52  C   UNL A   1      44.674  29.103  31.624  1.00  0.00     0.029 A 
ATOM     53  C   UNL A   1      43.703  30.099  31.748  1.00  0.00     0.049 A 
ATOM     54  H   UNL A   1      43.552  31.830  30.582  1.00  0.00     0.167 HD
ATOM     55  C   UNL A   1      41.584  31.182  32.494  1.00  0.00     0.074 A 
ATOM     56  C   UNL A   1      41.427  32.311  31.581  1.00  0.00     0.031 C 
ATOM     57  C   UNL A   1      42.572  30.250  32.644  1.00  0.00     0.037 A 
BRANCH  44  58
ATOM     58  C   UNL A   1      44.485  32.029  27.834  1.00  0.00     0.058 A 
ATOM     59  C   UNL A   1      45.661  32.365  27.128  1.00  0.00     0.135 A 
ATOM     60  C   UNL A   1      43.694  33.124  28.248  1.00  0.00     0.135 A 
ATOM     61  F   UNL A   1      46.498  31.408  26.700  1.00  0.00    -0.206 F 
ATOM     62  C   UNL A   1      46.051  33.687  26.907  1.00  0.00     0.059 A 
ATOM     63  C   UNL A   1      44.039  34.446  27.993  1.00  0.00     0.059 A 
ATOM     64  F   UNL A   1      42.600  32.977  29.001  1.00  0.00    -0.206 F 
ATOM     65  C   UNL A   1      45.235  34.722  27.353  1.00  0.00     0.060 A 
BRANCH  65  66
ATOM     66  S   UNL A   1      45.763  36.428  27.126  1.00  0.00     0.124 S 
ATOM     67  O   UNL A   1      44.489  37.097  26.884  1.00  0.00    -0.237 OA
ATOM     68  O   UNL A   1      46.406  36.715  28.403  1.00  0.00    -0.237 OA
ATOM     69  O   UNL A   1      46.664  36.350  25.980  1.00  0.00    -0.744 OA
ENDBRANCH  65  66
ENDBRANCH  44  58
BRANCH  45  70
ATOM     70  C   UNL A   1      36.977  31.754  31.646  1.00  0.00     0.058 A 
ATOM     71  C   UNL A   1      36.323  32.135  32.836  1.00  0.00     0.135 A 
ATOM     72  C   UNL A   1      36.553  32.415  30.477  1.00  0.00     0.135 A 
ATOM     73  F   UNL A   1      36.662  31.563  34.002  1.00  0.00    -0.206 F 
ATOM     74  C   UNL A   1      35.362  33.155  32.878  1.00  0.00     0.059 A 
ATOM     75  C   UNL A   1      35.596  33.436  30.494  1.00  0.00     0.059 A 
ATOM     76  F   UNL A   1      37.121  32.144  29.293  1.00  0.00    -0.206 F 
ATOM     77  C   UNL A   1      35.022  33.820  31.702  1.00  0.00     0.060 A 
BRANCH  77  78
ATOM     78  S   UNL A   1      33.912  35.251  31.776  1.00  0.00     0.124 S 
ATOM     79  O   UNL A   1      34.692  36.199  32.563  1.00  0.00    -0.237 OA
ATOM     80  O   UNL A   1      33.739  35.584  30.366  1.00  0.00    -0.237 OA
ATOM     81  O   UNL A   1      32.723  34.721  32.440  1.00  0.00    -0.744 OA
ENDBRANCH  77  78
ENDBRANCH  45  70
BRANCH  57  82
ATOM     82  C   UNL A   1      42.405  29.224  33.738  1.00  0.00     0.058 A 
ATOM     83  C   UNL A   1      41.796  27.964  33.598  1.00  0.00     0.135 A 
ATOM     84  C   UNL A   1      42.978  29.515  34.985  1.00  0.00     0.135 A 
ATOM     85  F   UNL A   1      41.292  27.566  32.424  1.00  0.00    -0.206 F 
ATOM     86  C   UNL A   1      41.728  27.054  34.659  1.00  0.00     0.059 A 
ATOM     87  C   UNL A   1      42.951  28.614  36.045  1.00  0.00     0.059 A 
ATOM     88  F   UNL A   1      43.614  30.683  35.176  1.00  0.00    -0.206 F 
ATOM     89  C   UNL A   1      42.310  27.390  35.881  1.00  0.00     0.060 A 
BRANCH  89  90
ATOM     90  S   UNL A   1      42.265  26.202  37.240  1.00  0.00     0.124 S 
ATOM     91  O   UNL A   1      43.247  26.755  38.167  1.00  0.00    -0.237 OA
ATOM     92  O   UNL A   1      40.873  26.268  37.676  1.00  0.00    -0.237 OA
ATOM     93  O   UNL A   1      42.648  24.942  36.606  1.00  0.00    -0.744 OA
ENDBRANCH  89  90
ENDBRANCH  57  82
ENDBRANCH  31  32
ENDBRANCH  23  26
ENDBRANCH  21  22
ENDBRANCH   1  21
TORSDOF 15
ENDMDL
MODEL 2
REMARK VINA RESULT:     -12.4      3.230      9.749
REMARK SMILES O=C(/C=C/c1ccc(Br)cc1-n1ccnc1)NCCCNC(=O)c1ccc(-c2c3nc(c(-c4c(F)cc(S(=O)(=O)[O-])cc4F)c4ccc([nH]4)c(-c4c(F)cc(S(=O)(=O)[O-])cc4F)c4nc(c(-c5c(F)cc(S(=O)(=O)[O-])cc5F)c5ccc2[nH]5)C=C4)C=C3)cc1
REMARK SMILES IDX 19 1 18 2 17 3 1 4 2 5 3 7 4 8 5 9 6 10 11 11 7 12 10 13
REMARK SMILES IDX 8 14 9 15 12 16 13 17 16 18 14 19 15 20 20 21 21 22 22 23
REMARK SMILES IDX 23 25 24 26 25 27 89 28 26 29 88 30 27 31 28 32 29 33 82 34
REMARK SMILES IDX 30 35 87 36 81 37 83 38 31 39 86 40 80 41 79 42 32 44 66 45
REMARK SMILES IDX 45 46 65 47 46 48 49 49 64 50 84 51 47 52 48 53 63 55 85 56
REMARK SMILES IDX 50 57 33 58 34 59 43 60 35 61 36 62 42 63 44 64 37 65 38 66
REMARK SMILES IDX 39 67 40 68 41 69 67 70 68 71 77 72 69 73 70 74 76 75 78 76
REMARK SMILES IDX 71 77 72 78 73 79 74 80 75 81 51 82 52 83 61 84 53 85 54 86
REMARK SMILES IDX 60 87 62 88 55 89 56 90 57 91 58 92 59 93
REMARK H PARENT 17 6 21 24 83 43 49 54
REMARK Flexibility Score: inf
ROOT
ATOM      1  C   UNL A   1      32.598  29.889  27.032  1.00  0.00     0.042 C 
ENDROOT
BRANCH   1   2
ATOM      2  C   UNL A   1      32.537  29.164  25.684  1.00  0.00     0.118 C 
BRANCH   2   3
ATOM      3  N   UNL A   1      33.175  27.852  25.677  1.00  0.00    -0.352 N 
ATOM      4  O   UNL A   1      32.672  27.355  23.498  1.00  0.00    -0.270 OA
ATOM      5  C   UNL A   1      33.215  27.058  24.558  1.00  0.00     0.244 C 
ATOM      6  H   UNL A   1      33.592  27.523  26.506  1.00  0.00     0.163 HD
BRANCH   5   7
ATOM      7  C   UNL A   1      34.002  25.789  24.625  1.00  0.00     0.072 C 
ATOM      8  C   UNL A   1      33.730  24.618  24.032  1.00  0.00     0.016 C 
BRANCH   8   9
ATOM      9  C   UNL A   1      34.587  23.411  24.148  1.00  0.00    -0.001 A 
ATOM     10  C   UNL A   1      35.811  23.332  23.480  1.00  0.00     0.011 A 
ATOM     11  C   UNL A   1      34.293  22.378  25.058  1.00  0.00     0.055 A 
ATOM     12  C   UNL A   1      36.698  22.271  23.732  1.00  0.00     0.016 A 
ATOM     13  C   UNL A   1      35.181  21.339  25.359  1.00  0.00     0.043 A 
ATOM     14  C   UNL A   1      36.385  21.291  24.675  1.00  0.00     0.020 A 
ATOM     15  Br  UNL A   1      37.607  19.894  25.029  1.00  0.00    -0.051 Br
BRANCH  11  16
ATOM     16  N   UNL A   1      33.084  22.400  25.746  1.00  0.00    -0.306 N 
ATOM     17  C   UNL A   1      31.870  21.946  25.298  1.00  0.00     0.113 A 
ATOM     18  C   UNL A   1      32.866  23.143  26.865  1.00  0.00     0.204 A 
ATOM     19  C   UNL A   1      30.956  22.445  26.184  1.00  0.00     0.131 A 
ATOM     20  N   UNL A   1      31.583  23.261  27.080  1.00  0.00    -0.245 NA
ENDBRANCH  11  16
ENDBRANCH   8   9
ENDBRANCH   5   7
ENDBRANCH   2   3
ENDBRANCH   1   2
BRANCH   1  21
ATOM     21  C   UNL A   1      33.868  30.707  27.232  1.00  0.00     0.118 C 
BRANCH  21  22
ATOM     22  N   UNL A   1      33.831  31.612  28.384  1.00  0.00    -0.352 N 
ATOM     23  C   UNL A   1      34.763  31.739  29.411  1.00  0.00     0.251 C 
ATOM     24  H   UNL A   1      33.048  32.207  28.439  1.00  0.00     0.163 HD
ATOM     25  O   UNL A   1      34.449  32.267  30.465  1.00  0.00    -0.269 OA
BRANCH  23  26
ATOM     26  C   UNL A   1      36.138  31.222  29.209  1.00  0.00     0.039 A 
ATOM     27  C   UNL A   1      37.270  32.043  29.272  1.00  0.00     0.014 A 
ATOM     28  C   UNL A   1      36.290  29.867  28.973  1.00  0.00     0.014 A 
ATOM     29  C   UNL A   1      38.546  31.465  29.198  1.00  0.00     0.010 A 
ATOM     30  C   UNL A   1      37.534  29.300  29.081  1.00  0.00     0.010 A 
ATOM     31  C   UNL A   1      38.679  30.071  29.134  1.00  0.00    -0.014 A 
BRANCH  31  32
ATOM     32  C   UNL A   1      39.955  29.371  29.335  1.00  0.00     0.031 A 
ATOM     33  C   UNL A   1      40.237  29.088  30.758  1.00  0.00     0.074 A 
ATOM     34  C   UNL A   1      40.746  28.857  28.359  1.00  0.00     0.049 A 
ATOM     35  N   UNL A   1      41.063  29.753  31.493  1.00  0.00    -0.248 NA
ATOM     36  C   UNL A   1      39.406  28.136  31.512  1.00  0.00     0.031 C 
ATOM     37  C   UNL A   1      40.541  28.912  26.910  1.00  0.00     0.029 A 
ATOM     38  N   UNL A   1      41.884  28.097  28.455  1.00  0.00    -0.354 N 
ATOM     39  C   UNL A   1      41.080  29.107  32.718  1.00  0.00     0.074 A 
ATOM     40  C   UNL A   1      39.895  28.291  32.749  1.00  0.00     0.031 C 
ATOM     41  C   UNL A   1      41.354  28.026  26.286  1.00  0.00     0.029 A 
ATOM     42  C   UNL A   1      42.266  27.474  27.262  1.00  0.00     0.049 A 
ATOM     43  H   UNL A   1      42.390  27.998  29.293  1.00  0.00     0.167 HD
ATOM     44  C   UNL A   1      42.232  29.079  33.443  1.00  0.00     0.037 A 
ATOM     45  C   UNL A   1      43.353  26.695  27.016  1.00  0.00     0.037 A 
ATOM     46  C   UNL A   1      43.193  30.014  32.897  1.00  0.00     0.049 A 
ATOM     47  C   UNL A   1      44.372  27.126  27.994  1.00  0.00     0.074 A 
ATOM     48  C   UNL A   1      43.273  31.383  32.743  1.00  0.00     0.029 A 
ATOM     49  N   UNL A   1      44.084  29.462  32.010  1.00  0.00    -0.354 N 
ATOM     50  N   UNL A   1      44.920  28.310  27.979  1.00  0.00    -0.248 NA
ATOM     51  C   UNL A   1      44.497  26.391  29.241  1.00  0.00     0.031 C 
ATOM     52  C   UNL A   1      44.001  31.596  31.532  1.00  0.00     0.029 A 
ATOM     53  C   UNL A   1      44.401  30.358  31.025  1.00  0.00     0.049 A 
ATOM     54  H   UNL A   1      44.444  28.548  32.073  1.00  0.00     0.167 HD
ATOM     55  C   UNL A   1      45.021  28.651  29.315  1.00  0.00     0.074 A 
ATOM     56  C   UNL A   1      44.914  27.383  30.033  1.00  0.00     0.031 C 
ATOM     57  C   UNL A   1      44.874  29.949  29.716  1.00  0.00     0.037 A 
BRANCH  44  58
ATOM     58  C   UNL A   1      42.681  27.913  34.299  1.00  0.00     0.058 A 
ATOM     59  C   UNL A   1      42.806  28.101  35.693  1.00  0.00     0.135 A 
ATOM     60  C   UNL A   1      43.269  26.733  33.793  1.00  0.00     0.135 A 
ATOM     61  F   UNL A   1      42.300  29.195  36.282  1.00  0.00    -0.206 F 
ATOM     62  C   UNL A   1      43.516  27.218  36.508  1.00  0.00     0.059 A 
ATOM     63  C   UNL A   1      43.937  25.814  34.596  1.00  0.00     0.059 A 
ATOM     64  F   UNL A   1      43.315  26.453  32.486  1.00  0.00    -0.206 F 
ATOM     65  C   UNL A   1      44.086  26.080  35.946  1.00  0.00     0.060 A 
BRANCH  65  66
ATOM     66  S   UNL A   1      45.053  24.969  36.981  1.00  0.00     0.124 S 
ATOM     67  O   UNL A   1      46.408  25.454  36.740  1.00  0.00    -0.237 OA
ATOM     68  O   UNL A   1      44.502  25.237  38.304  1.00  0.00    -0.237 OA
ATOM     69  O   UNL A   1      44.746  23.651  36.435  1.00  0.00    -0.744 OA
ENDBRANCH  65  66
ENDBRANCH  44  58
BRANCH  45  70
ATOM     70  C   UNL A   1      43.437  25.389  26.296  1.00  0.00     0.058 A 
ATOM     71  C   UNL A   1      44.418  25.164  25.308  1.00  0.00     0.135 A 
ATOM     72  C   UNL A   1      42.768  24.241  26.765  1.00  0.00     0.135 A 
ATOM     73  F   UNL A   1      45.111  26.196  24.803  1.00  0.00    -0.206 F 
ATOM     74  C   UNL A   1      44.765  23.880  24.864  1.00  0.00     0.059 A 
ATOM     75  C   UNL A   1      43.097  22.950  26.337  1.00  0.00     0.059 A 
ATOM     76  F   UNL A   1      41.831  24.337  27.718  1.00  0.00    -0.206 F 
ATOM     77  C   UNL A   1      44.115  22.773  25.406  1.00  0.00     0.060 A 
BRANCH  77  78
ATOM     78  S   UNL A   1      44.676  21.107  24.965  1.00  0.00     0.124 S 
ATOM     79  O   UNL A   1      43.717  20.267  25.673  1.00  0.00    -0.237 OA
ATOM     80  O   UNL A   1      44.563  21.115  23.510  1.00  0.00    -0.237 OA
ATOM     81  O   UNL A   1      46.042  21.063  25.481  1.00  0.00    -0.744 OA
ENDBRANCH  77  78
ENDBRANCH  45  70
BRANCH  57  82
ATOM     82  C   UNL A   1      45.092  31.028  28.683  1.00  0.00     0.058 A 
ATOM     83  C   UNL A   1      44.083  31.700  27.970  1.00  0.00     0.135 A 
ATOM     84  C   UNL A   1      46.411  31.458  28.471  1.00  0.00     0.135 A 
ATOM     85  F   UNL A   1      42.790  31.414  28.165  1.00  0.00    -0.206 F 
ATOM     86  C   UNL A   1      44.375  32.724  27.064  1.00  0.00     0.059 A 
ATOM     87  C   UNL A   1      46.723  32.495  27.597  1.00  0.00     0.059 A 
ATOM     88  F   UNL A   1      47.420  30.890  29.151  1.00  0.00    -0.206 F 
ATOM     89  C   UNL A   1      45.702  33.115  26.884  1.00  0.00     0.060 A 
BRANCH  89  90
ATOM     90  S   UNL A   1      46.082  34.467  25.748  1.00  0.00     0.124 S 
ATOM     91  O   UNL A   1      45.725  35.642  26.536  1.00  0.00    -0.237 OA
ATOM     92  O   UNL A   1      47.508  34.281  25.497  1.00  0.00    -0.237 OA
ATOM     93  O   UNL A   1      45.218  34.202  24.600  1.00  0.00    -0.744 OA
ENDBRANCH  89  90
ENDBRANCH  57  82
ENDBRANCH  31  32
ENDBRANCH  23  26
ENDBRANCH  21  22
ENDBRANCH   1  21
TORSDOF 15
ENDMDL
MODEL 3
REMARK VINA RESULT:     -12.4      2.959      4.305
REMARK SMILES O=C(/C=C/c1ccc(Br)cc1-n1ccnc1)NCCCNC(=O)c1ccc(-c2c3nc(c(-c4c(F)cc(S(=O)(=O)[O-])cc4F)c4ccc([nH]4)c(-c4c(F)cc(S(=O)(=O)[O-])cc4F)c4nc(c(-c5c(F)cc(S(=O)(=O)[O-])cc5F)c5ccc2[nH]5)C=C4)C=C3)cc1
REMARK SMILES IDX 19 1 18 2 17 3 1 4 2 5 3 7 4 8 5 9 6 10 11 11 7 12 10 13
REMARK SMILES IDX 8 14 9 15 12 16 13 17 16 18 14 19 15 20 20 21 21 22 22 23
REMARK SMILES IDX 23 25 24 26 25 27 89 28 26 29 88 30 27 31 28 32 29 33 82 34
REMARK SMILES IDX 30 35 87 36 81 37 83 38 31 39 86 40 80 41 79 42 32 44 66 45
REMARK SMILES IDX 45 46 65 47 46 48 49 49 64 50 84 51 47 52 48 53 63 55 85 56
REMARK SMILES IDX 50 57 33 58 34 59 43 60 35 61 36 62 42 63 44 64 37 65 38 66
REMARK SMILES IDX 39 67 40 68 41 69 67 70 68 71 77 72 69 73 70 74 76 75 78 76
REMARK SMILES IDX 71 77 72 78 73 79 74 80 75 81 51 82 52 83 61 84 53 85 54 86
REMARK SMILES IDX 60 87 62 88 55 89 56 90 57 91 58 92 59 93
REMARK H PARENT 17 6 21 24 83 43 49 54
REMARK Flexibility Score: inf
ROOT
ATOM      1  C   UNL A   1      41.387  20.809  26.695  1.00  0.00     0.042 C 
ENDROOT
BRANCH   1   2
ATOM      2  C   UNL A   1      40.228  20.319  25.820  1.00  0.00     0.118 C 
BRANCH   2   3
ATOM      3  N   UNL A   1      39.045  21.172  25.857  1.00  0.00    -0.352 N 
ATOM      4  O   UNL A   1      37.710  19.776  24.625  1.00  0.00    -0.270 OA
ATOM      5  C   UNL A   1      37.858  20.809  25.273  1.00  0.00     0.244 C 
ATOM      6  H   UNL A   1      39.099  22.040  26.319  1.00  0.00     0.163 HD
BRANCH   5   7
ATOM      7  C   UNL A   1      36.674  21.698  25.477  1.00  0.00     0.072 C 
ATOM      8  C   UNL A   1      35.809  22.146  24.556  1.00  0.00     0.016 C 
BRANCH   8   9
ATOM      9  C   UNL A   1      34.648  23.018  24.861  1.00  0.00    -0.001 A 
ATOM     10  C   UNL A   1      34.811  24.393  25.047  1.00  0.00     0.011 A 
ATOM     11  C   UNL A   1      33.325  22.537  24.808  1.00  0.00     0.055 A 
ATOM     12  C   UNL A   1      33.694  25.238  25.158  1.00  0.00     0.016 A 
ATOM     13  C   UNL A   1      32.200  23.368  24.868  1.00  0.00     0.043 A 
ATOM     14  C   UNL A   1      32.400  24.726  25.056  1.00  0.00     0.020 A 
ATOM     15  Br  UNL A   1      30.911  25.884  25.168  1.00  0.00    -0.051 Br
BRANCH  11  16
ATOM     16  N   UNL A   1      33.103  21.176  24.633  1.00  0.00    -0.306 N 
ATOM     17  C   UNL A   1      32.558  20.562  23.533  1.00  0.00     0.113 A 
ATOM     18  C   UNL A   1      33.129  20.270  25.648  1.00  0.00     0.204 A 
ATOM     19  C   UNL A   1      32.275  19.288  23.942  1.00  0.00     0.131 A 
ATOM     20  N   UNL A   1      32.541  19.164  25.275  1.00  0.00    -0.245 NA
ENDBRANCH  11  16
ENDBRANCH   8   9
ENDBRANCH   5   7
ENDBRANCH   2   3
ENDBRANCH   1   2
BRANCH   1  21
ATOM     21  C   UNL A   1      42.357  19.707  27.104  1.00  0.00     0.118 C 
BRANCH  21  22
ATOM     22  N   UNL A   1      43.382  19.400  26.102  1.00  0.00    -0.352 N 
ATOM     23  C   UNL A   1      44.032  20.276  25.237  1.00  0.00     0.251 C 
ATOM     24  H   UNL A   1      43.644  18.453  26.031  1.00  0.00     0.163 HD
ATOM     25  O   UNL A   1      44.593  19.853  24.240  1.00  0.00    -0.269 OA
BRANCH  23  26
ATOM     26  C   UNL A   1      44.031  21.727  25.542  1.00  0.00     0.039 A 
ATOM     27  C   UNL A   1      43.319  22.658  24.778  1.00  0.00     0.014 A 
ATOM     28  C   UNL A   1      44.749  22.155  26.644  1.00  0.00     0.014 A 
ATOM     29  C   UNL A   1      43.259  23.995  25.200  1.00  0.00     0.010 A 
ATOM     30  C   UNL A   1      44.538  23.417  27.138  1.00  0.00     0.010 A 
ATOM     31  C   UNL A   1      43.851  24.371  26.414  1.00  0.00    -0.014 A 
BRANCH  31  32
ATOM     32  C   UNL A   1      43.603  25.665  27.066  1.00  0.00     0.031 A 
ATOM     33  C   UNL A   1      44.575  26.705  26.667  1.00  0.00     0.074 A 
ATOM     34  C   UNL A   1      42.520  25.985  27.819  1.00  0.00     0.049 A 
ATOM     35  N   UNL A   1      45.569  27.101  27.387  1.00  0.00    -0.248 NA
ATOM     36  C   UNL A   1      44.602  27.217  25.288  1.00  0.00     0.031 C 
ATOM     37  C   UNL A   1      41.392  25.127  28.186  1.00  0.00     0.029 A 
ATOM     38  N   UNL A   1      42.151  27.187  28.367  1.00  0.00    -0.354 N 
ATOM     39  C   UNL A   1      46.163  28.130  26.676  1.00  0.00     0.074 A 
ATOM     40  C   UNL A   1      45.689  27.997  25.324  1.00  0.00     0.031 C 
ATOM     41  C   UNL A   1      40.368  25.874  28.663  1.00  0.00     0.029 A 
ATOM     42  C   UNL A   1      40.826  27.238  28.813  1.00  0.00     0.049 A 
ATOM     43  H   UNL A   1      42.767  27.951  28.441  1.00  0.00     0.167 HD
ATOM     44  C   UNL A   1      46.736  29.164  27.349  1.00  0.00     0.037 A 
ATOM     45  C   UNL A   1      40.172  28.257  29.430  1.00  0.00     0.037 A 
ATOM     46  C   UNL A   1      46.868  28.840  28.754  1.00  0.00     0.049 A 
ATOM     47  C   UNL A   1      41.221  29.036  30.117  1.00  0.00     0.074 A 
ATOM     48  C   UNL A   1      47.565  27.911  29.500  1.00  0.00     0.029 A 
ATOM     49  N   UNL A   1      45.834  29.285  29.541  1.00  0.00    -0.354 N 
ATOM     50  N   UNL A   1      41.923  28.567  31.111  1.00  0.00    -0.248 NA
ATOM     51  C   UNL A   1      41.781  30.196  29.445  1.00  0.00     0.031 C 
ATOM     52  C   UNL A   1      46.729  27.604  30.618  1.00  0.00     0.029 A 
ATOM     53  C   UNL A   1      45.585  28.401  30.556  1.00  0.00     0.049 A 
ATOM     54  H   UNL A   1      45.340  30.125  29.394  1.00  0.00     0.167 HD
ATOM     55  C   UNL A   1      43.199  29.050  30.881  1.00  0.00     0.074 A 
ATOM     56  C   UNL A   1      43.012  30.170  29.962  1.00  0.00     0.031 C 
ATOM     57  C   UNL A   1      44.295  28.307  31.215  1.00  0.00     0.037 A 
BRANCH  44  58
ATOM     58  C   UNL A   1      46.727  30.605  26.882  1.00  0.00     0.058 A 
ATOM     59  C   UNL A   1      47.923  31.352  26.956  1.00  0.00     0.135 A 
ATOM     60  C   UNL A   1      45.555  31.361  26.652  1.00  0.00     0.135 A 
ATOM     61  F   UNL A   1      49.095  30.741  27.187  1.00  0.00    -0.206 F 
ATOM     62  C   UNL A   1      47.944  32.744  26.871  1.00  0.00     0.059 A 
ATOM     63  C   UNL A   1      45.562  32.744  26.514  1.00  0.00     0.059 A 
ATOM     64  F   UNL A   1      44.335  30.814  26.645  1.00  0.00    -0.206 F 
ATOM     65  C   UNL A   1      46.754  33.433  26.658  1.00  0.00     0.060 A 
BRANCH  65  66
ATOM     66  S   UNL A   1      46.766  35.232  26.609  1.00  0.00     0.124 S 
ATOM     67  O   UNL A   1      45.420  35.519  26.126  1.00  0.00    -0.237 OA
ATOM     68  O   UNL A   1      47.033  35.568  28.003  1.00  0.00    -0.237 OA
ATOM     69  O   UNL A   1      47.850  35.534  25.679  1.00  0.00    -0.744 OA
ENDBRANCH  65  66
ENDBRANCH  44  58
BRANCH  45  70
ATOM     70  C   UNL A   1      38.814  28.814  29.154  1.00  0.00     0.058 A 
ATOM     71  C   UNL A   1      37.886  29.022  30.196  1.00  0.00     0.135 A 
ATOM     72  C   UNL A   1      38.504  29.435  27.928  1.00  0.00     0.135 A 
ATOM     73  F   UNL A   1      38.097  28.472  31.402  1.00  0.00    -0.206 F 
ATOM     74  C   UNL A   1      36.762  29.848  30.055  1.00  0.00     0.059 A 
ATOM     75  C   UNL A   1      37.389  30.264  27.764  1.00  0.00     0.059 A 
ATOM     76  F   UNL A   1      39.327  29.320  26.876  1.00  0.00    -0.206 F 
ATOM     77  C   UNL A   1      36.535  30.488  28.839  1.00  0.00     0.060 A 
BRANCH  77  78
ATOM     78  S   UNL A   1      35.185  31.690  28.703  1.00  0.00     0.124 S 
ATOM     79  O   UNL A   1      34.895  31.979  30.103  1.00  0.00    -0.237 OA
ATOM     80  O   UNL A   1      35.805  32.771  27.946  1.00  0.00    -0.237 OA
ATOM     81  O   UNL A   1      34.145  30.950  27.992  1.00  0.00    -0.744 OA
ENDBRANCH  77  78
ENDBRANCH  45  70
BRANCH  57  82
ATOM     82  C   UNL A   1      44.117  27.222  32.249  1.00  0.00     0.058 A 
ATOM     83  C   UNL A   1      43.908  27.424  33.625  1.00  0.00     0.135 A 
ATOM     84  C   UNL A   1      44.073  25.897  31.789  1.00  0.00     0.135 A 
ATOM     85  F   UNL A   1      43.853  28.656  34.143  1.00  0.00    -0.206 F 
ATOM     86  C   UNL A   1      43.703  26.356  34.505  1.00  0.00     0.059 A 
ATOM     87  C   UNL A   1      43.840  24.821  32.640  1.00  0.00     0.059 A 
ATOM     88  F   UNL A   1      44.221  25.636  30.480  1.00  0.00    -0.206 F 
ATOM     89  C   UNL A   1      43.671  25.055  34.002  1.00  0.00     0.060 A 
BRANCH  89  90
ATOM     90  S   UNL A   1      43.363  23.677  35.126  1.00  0.00     0.124 S 
ATOM     91  O   UNL A   1      43.796  22.530  34.335  1.00  0.00    -0.237 OA
ATOM     92  O   UNL A   1      44.202  24.008  36.275  1.00  0.00    -0.237 OA
ATOM     93  O   UNL A   1      41.925  23.754  35.375  1.00  0.00    -0.744 OA
ENDBRANCH  89  90
ENDBRANCH  57  82
ENDBRANCH  31  32
ENDBRANCH  23  26
ENDBRANCH  21  22
ENDBRANCH   1  21
TORSDOF 15
ENDMDL
