MODEL 1
REMARK VINA RESULT:     -12.6      0.000      0.000
REMARK SMILES O=C(COc1ccc(Br)cc1/C=C1\C(=O)Nc2ccc(Br)cc21)NCCCNC(=O)c1ccc(-c2c3nc(c(-c4c(F)cc(S(=O)(=O)[O-])cc4F)c4ccc([nH]4)c(-c4c(F)cc(S(=O)(=O)[O-])cc4F)c4nc(c(-c5c(F)cc(S(=O)(=O)[O-])cc5F)c5ccc2[nH]5)C=C4)C=C3)cc1
REMARK SMILES IDX 26 1 25 2 24 3 1 4 2 5 3 7 4 8 5 9 6 10 11 11 7 12 10 13
REMARK SMILES IDX 8 14 9 15 12 16 13 17 14 18 23 19 15 20 16 21 17 22 22 23
REMARK SMILES IDX 18 25 20 26 19 27 21 28 27 29 28 30 29 31 30 33 31 34 32 35
REMARK SMILES IDX 96 36 33 37 95 38 34 39 35 40 36 41 89 42 37 43 94 44 88 45
REMARK SMILES IDX 90 46 38 47 93 48 87 49 86 50 39 52 73 53 52 54 72 55 53 56
REMARK SMILES IDX 56 57 71 58 91 59 54 60 55 61 70 63 92 64 57 65 40 66 41 67
REMARK SMILES IDX 50 68 42 69 43 70 49 71 51 72 44 73 45 74 46 75 47 76 48 77
REMARK SMILES IDX 74 78 75 79 84 80 76 81 77 82 83 83 85 84 78 85 79 86 80 87
REMARK SMILES IDX 81 88 82 89 58 90 59 91 68 92 60 93 61 94 67 95 69 96 62 97
REMARK SMILES IDX 63 98 64 99 65 100 66 101
REMARK H PARENT 24 6 16 24 28 32 90 51 56 62
REMARK Flexibility Score: inf
ROOT
ATOM      1  C   UNL A   1      32.368  31.289  26.896  1.00  0.00     0.042 C 
ENDROOT
BRANCH   1   2
ATOM      2  C   UNL A   1      32.815  29.838  26.897  1.00  0.00     0.117 C 
BRANCH   2   3
ATOM      3  N   UNL A   1      33.596  29.432  25.738  1.00  0.00    -0.353 N 
ATOM      4  O   UNL A   1      33.478  27.175  26.145  1.00  0.00    -0.271 OA
ATOM      5  C   UNL A   1      33.705  28.103  25.372  1.00  0.00     0.257 C 
ATOM      6  H   UNL A   1      34.058  30.117  25.204  1.00  0.00     0.163 HD
BRANCH   5   7
ATOM      7  C   UNL A   1      34.034  27.857  23.878  1.00  0.00     0.329 C 
BRANCH   7   8
ATOM      8  O   UNL A   1      33.096  27.225  22.997  1.00  0.00    -0.483 OA
BRANCH   8   9
ATOM      9  C   UNL A   1      31.777  27.618  23.089  1.00  0.00     0.127 A 
ATOM     10  C   UNL A   1      31.423  28.974  22.913  1.00  0.00     0.048 A 
ATOM     11  C   UNL A   1      30.751  26.645  23.247  1.00  0.00     0.018 A 
ATOM     12  C   UNL A   1      30.106  29.413  22.911  1.00  0.00     0.019 A 
ATOM     13  C   UNL A   1      29.431  27.134  23.183  1.00  0.00     0.027 A 
ATOM     14  C   UNL A   1      29.108  28.483  23.050  1.00  0.00     0.018 A 
ATOM     15  Br  UNL A   1      27.300  29.032  23.071  1.00  0.00    -0.051 Br
BRANCH  11  16
ATOM     16  C   UNL A   1      31.023  25.188  23.557  1.00  0.00     0.026 C 
ATOM     17  C   UNL A   1      30.963  24.535  24.747  1.00  0.00     0.050 C 
ATOM     18  C   UNL A   1      30.599  25.121  26.091  1.00  0.00     0.256 C 
ATOM     19  C   UNL A   1      31.776  23.350  25.106  1.00  0.00     0.012 A 
ATOM     20  O   UNL A   1      29.548  25.598  26.462  1.00  0.00    -0.269 OA
ATOM     21  N   UNL A   1      31.647  24.762  26.915  1.00  0.00    -0.321 N 
ATOM     22  C   UNL A   1      32.309  23.667  26.372  1.00  0.00     0.049 A 
ATOM     23  C   UNL A   1      31.944  22.069  24.615  1.00  0.00     0.026 A 
ATOM     24  H   UNL A   1      31.889  25.212  27.757  1.00  0.00     0.170 HD
ATOM     25  C   UNL A   1      33.169  22.853  27.077  1.00  0.00     0.028 A 
ATOM     26  C   UNL A   1      32.725  21.180  25.378  1.00  0.00     0.018 A 
ATOM     27  C   UNL A   1      33.381  21.582  26.561  1.00  0.00     0.018 A 
ATOM     28  Br  UNL A   1      32.815  19.351  24.890  1.00  0.00    -0.051 Br
ENDBRANCH  11  16
ENDBRANCH   8   9
ENDBRANCH   7   8
ENDBRANCH   5   7
ENDBRANCH   2   3
ENDBRANCH   1   2
BRANCH   1  29
ATOM     29  C   UNL A   1      33.383  32.262  27.474  1.00  0.00     0.118 C 
BRANCH  29  30
ATOM     30  N   UNL A   1      32.858  33.603  27.717  1.00  0.00    -0.352 N 
ATOM     31  C   UNL A   1      33.263  34.552  28.631  1.00  0.00     0.251 C 
ATOM     32  H   UNL A   1      32.102  33.868  27.145  1.00  0.00     0.163 HD
ATOM     33  O   UNL A   1      32.650  35.613  28.725  1.00  0.00    -0.269 OA
BRANCH  31  34
ATOM     34  C   UNL A   1      34.400  34.267  29.534  1.00  0.00     0.039 A 
ATOM     35  C   UNL A   1      35.715  34.453  29.107  1.00  0.00     0.014 A 
ATOM     36  C   UNL A   1      34.143  33.737  30.802  1.00  0.00     0.014 A 
ATOM     37  C   UNL A   1      36.760  33.914  29.850  1.00  0.00     0.010 A 
ATOM     38  C   UNL A   1      35.203  33.281  31.589  1.00  0.00     0.010 A 
ATOM     39  C   UNL A   1      36.515  33.303  31.091  1.00  0.00    -0.014 A 
BRANCH  39  40
ATOM     40  C   UNL A   1      37.634  32.664  31.835  1.00  0.00     0.031 A 
ATOM     41  C   UNL A   1      38.358  31.475  31.255  1.00  0.00     0.074 A 
ATOM     42  C   UNL A   1      38.034  33.188  33.010  1.00  0.00     0.049 A 
ATOM     43  N   UNL A   1      39.326  30.764  31.777  1.00  0.00    -0.248 NA
ATOM     44  C   UNL A   1      37.941  31.022  29.918  1.00  0.00     0.031 C 
ATOM     45  C   UNL A   1      37.438  34.358  33.657  1.00  0.00     0.029 A 
ATOM     46  N   UNL A   1      39.045  32.818  33.859  1.00  0.00    -0.354 N 
ATOM     47  C   UNL A   1      39.620  29.774  30.845  1.00  0.00     0.074 A 
ATOM     48  C   UNL A   1      38.710  29.958  29.735  1.00  0.00     0.031 C 
ATOM     49  C   UNL A   1      38.120  34.634  34.779  1.00  0.00     0.029 A 
ATOM     50  C   UNL A   1      39.152  33.621  34.968  1.00  0.00     0.049 A 
ATOM     51  H   UNL A   1      39.637  32.048  33.690  1.00  0.00     0.167 HD
ATOM     52  C   UNL A   1      40.571  28.810  30.903  1.00  0.00     0.037 A 
ATOM     53  C   UNL A   1      39.973  33.540  36.034  1.00  0.00     0.037 A 
ATOM     54  C   UNL A   1      41.489  28.644  32.002  1.00  0.00     0.049 A 
ATOM     55  C   UNL A   1      40.976  32.426  36.103  1.00  0.00     0.074 A 
ATOM     56  C   UNL A   1      42.487  27.697  32.154  1.00  0.00     0.029 A 
ATOM     57  N   UNL A   1      41.526  29.445  33.134  1.00  0.00    -0.354 N 
ATOM     58  N   UNL A   1      41.219  31.480  35.226  1.00  0.00    -0.248 NA
ATOM     59  C   UNL A   1      41.810  32.360  37.310  1.00  0.00     0.031 C 
ATOM     60  C   UNL A   1      43.101  27.899  33.394  1.00  0.00     0.029 A 
ATOM     61  C   UNL A   1      42.519  29.005  33.994  1.00  0.00     0.049 A 
ATOM     62  H   UNL A   1      40.935  30.214  33.300  1.00  0.00     0.167 HD
ATOM     63  C   UNL A   1      42.245  30.716  35.769  1.00  0.00     0.074 A 
ATOM     64  C   UNL A   1      42.589  31.321  37.041  1.00  0.00     0.031 C 
ATOM     65  C   UNL A   1      42.847  29.613  35.260  1.00  0.00     0.037 A 
BRANCH  52  66
ATOM     66  C   UNL A   1      40.667  27.844  29.752  1.00  0.00     0.058 A 
ATOM     67  C   UNL A   1      39.728  26.817  29.568  1.00  0.00     0.135 A 
ATOM     68  C   UNL A   1      41.677  27.985  28.785  1.00  0.00     0.135 A 
ATOM     69  F   UNL A   1      38.752  26.624  30.469  1.00  0.00    -0.206 F 
ATOM     70  C   UNL A   1      39.795  25.956  28.476  1.00  0.00     0.059 A 
ATOM     71  C   UNL A   1      41.748  27.152  27.671  1.00  0.00     0.059 A 
ATOM     72  F   UNL A   1      42.602  28.949  28.910  1.00  0.00    -0.206 F 
ATOM     73  C   UNL A   1      40.807  26.133  27.531  1.00  0.00     0.060 A 
BRANCH  73  74
ATOM     74  S   UNL A   1      40.865  25.018  26.112  1.00  0.00     0.124 S 
ATOM     75  O   UNL A   1      39.501  24.496  26.095  1.00  0.00    -0.237 OA
ATOM     76  O   UNL A   1      41.210  25.922  25.020  1.00  0.00    -0.237 OA
ATOM     77  O   UNL A   1      41.899  24.054  26.477  1.00  0.00    -0.744 OA
ENDBRANCH  73  74
ENDBRANCH  52  66
BRANCH  53  78
ATOM     78  C   UNL A   1      39.864  34.548  37.121  1.00  0.00     0.058 A 
ATOM     79  C   UNL A   1      40.586  35.748  37.067  1.00  0.00     0.135 A 
ATOM     80  C   UNL A   1      39.007  34.348  38.214  1.00  0.00     0.135 A 
ATOM     81  F   UNL A   1      41.426  35.981  36.046  1.00  0.00    -0.206 F 
ATOM     82  C   UNL A   1      40.465  36.715  38.059  1.00  0.00     0.059 A 
ATOM     83  C   UNL A   1      38.846  35.312  39.204  1.00  0.00     0.059 A 
ATOM     84  F   UNL A   1      38.283  33.220  38.305  1.00  0.00    -0.206 F 
ATOM     85  C   UNL A   1      39.584  36.490  39.119  1.00  0.00     0.060 A 
BRANCH  85  86
ATOM     86  S   UNL A   1      39.381  37.785  40.362  1.00  0.00     0.124 S 
ATOM     87  O   UNL A   1      38.150  38.427  39.918  1.00  0.00    -0.237 OA
ATOM     88  O   UNL A   1      39.290  37.009  41.596  1.00  0.00    -0.237 OA
ATOM     89  O   UNL A   1      40.597  38.581  40.220  1.00  0.00    -0.744 OA
ENDBRANCH  85  86
ENDBRANCH  53  78
BRANCH  65  90
ATOM     90  C   UNL A   1      43.957  28.999  36.070  1.00  0.00     0.058 A 
ATOM     91  C   UNL A   1      45.262  29.515  36.038  1.00  0.00     0.135 A 
ATOM     92  C   UNL A   1      43.703  27.905  36.912  1.00  0.00     0.135 A 
ATOM     93  F   UNL A   1      45.559  30.555  35.244  1.00  0.00    -0.206 F 
ATOM     94  C   UNL A   1      46.284  28.947  36.790  1.00  0.00     0.059 A 
ATOM     95  C   UNL A   1      44.704  27.339  37.694  1.00  0.00     0.059 A 
ATOM     96  F   UNL A   1      42.469  27.382  36.988  1.00  0.00    -0.206 F 
ATOM     97  C   UNL A   1      45.995  27.858  37.616  1.00  0.00     0.060 A 
BRANCH  97  98
ATOM     98  S   UNL A   1      47.330  27.139  38.597  1.00  0.00     0.124 S 
ATOM     99  O   UNL A   1      48.363  28.163  38.482  1.00  0.00    -0.237 OA
ATOM    100  O   UNL A   1      46.713  27.007  39.914  1.00  0.00    -0.237 OA
ATOM    101  O   UNL A   1      47.615  25.881  37.915  1.00  0.00    -0.744 OA
ENDBRANCH  97  98
ENDBRANCH  65  90
ENDBRANCH  39  40
ENDBRANCH  31  34
ENDBRANCH  29  30
ENDBRANCH   1  29
TORSDOF 16
ENDMDL
MODEL 2
REMARK VINA RESULT:     -12.4      2.727      8.828
REMARK SMILES O=C(COc1ccc(Br)cc1/C=C1\C(=O)Nc2ccc(Br)cc21)NCCCNC(=O)c1ccc(-c2c3nc(c(-c4c(F)cc(S(=O)(=O)[O-])cc4F)c4ccc([nH]4)c(-c4c(F)cc(S(=O)(=O)[O-])cc4F)c4nc(c(-c5c(F)cc(S(=O)(=O)[O-])cc5F)c5ccc2[nH]5)C=C4)C=C3)cc1
REMARK SMILES IDX 26 1 25 2 24 3 1 4 2 5 3 7 4 8 5 9 6 10 11 11 7 12 10 13
REMARK SMILES IDX 8 14 9 15 12 16 13 17 14 18 23 19 15 20 16 21 17 22 22 23
REMARK SMILES IDX 18 25 20 26 19 27 21 28 27 29 28 30 29 31 30 33 31 34 32 35
REMARK SMILES IDX 96 36 33 37 95 38 34 39 35 40 36 41 89 42 37 43 94 44 88 45
REMARK SMILES IDX 90 46 38 47 93 48 87 49 86 50 39 52 73 53 52 54 72 55 53 56
REMARK SMILES IDX 56 57 71 58 91 59 54 60 55 61 70 63 92 64 57 65 40 66 41 67
REMARK SMILES IDX 50 68 42 69 43 70 49 71 51 72 44 73 45 74 46 75 47 76 48 77
REMARK SMILES IDX 74 78 75 79 84 80 76 81 77 82 83 83 85 84 78 85 79 86 80 87
REMARK SMILES IDX 81 88 82 89 58 90 59 91 68 92 60 93 61 94 67 95 69 96 62 97
REMARK SMILES IDX 63 98 64 99 65 100 66 101
REMARK H PARENT 24 6 16 24 28 32 90 51 56 62
REMARK Flexibility Score: inf
ROOT
ATOM      1  C   UNL A   1      42.749  22.005  26.535  1.00  0.00     0.042 C 
ENDROOT
BRANCH   1   2
ATOM      2  C   UNL A   1      41.849  21.296  27.530  1.00  0.00     0.117 C 
BRANCH   2   3
ATOM      3  N   UNL A   1      40.522  20.959  27.033  1.00  0.00    -0.353 N 
ATOM      4  O   UNL A   1      39.663  23.084  27.176  1.00  0.00    -0.271 OA
ATOM      5  C   UNL A   1      39.595  21.939  26.733  1.00  0.00     0.257 C 
ATOM      6  H   UNL A   1      40.281  20.013  26.909  1.00  0.00     0.163 HD
BRANCH   5   7
ATOM      7  C   UNL A   1      38.510  21.525  25.708  1.00  0.00     0.329 C 
BRANCH   7   8
ATOM      8  O   UNL A   1      37.205  22.119  25.716  1.00  0.00    -0.483 OA
BRANCH   8   9
ATOM      9  C   UNL A   1      36.149  21.332  25.306  1.00  0.00     0.127 A 
ATOM     10  C   UNL A   1      36.352  19.966  25.005  1.00  0.00     0.048 A 
ATOM     11  C   UNL A   1      34.827  21.859  25.292  1.00  0.00     0.018 A 
ATOM     12  C   UNL A   1      35.313  19.109  24.668  1.00  0.00     0.019 A 
ATOM     13  C   UNL A   1      33.805  20.936  24.999  1.00  0.00     0.027 A 
ATOM     14  C   UNL A   1      34.034  19.603  24.665  1.00  0.00     0.018 A 
ATOM     15  Br  UNL A   1      32.588  18.480  24.197  1.00  0.00    -0.051 Br
BRANCH  11  16
ATOM     16  C   UNL A   1      34.513  23.328  25.486  1.00  0.00     0.026 C 
ATOM     17  C   UNL A   1      33.567  23.910  26.270  1.00  0.00     0.050 C 
ATOM     18  C   UNL A   1      32.572  23.213  27.168  1.00  0.00     0.256 C 
ATOM     19  C   UNL A   1      32.914  25.209  25.988  1.00  0.00     0.012 A 
ATOM     20  O   UNL A   1      32.769  22.536  28.153  1.00  0.00    -0.269 OA
ATOM     21  N   UNL A   1      31.349  23.726  26.783  1.00  0.00    -0.321 N 
ATOM     22  C   UNL A   1      31.538  24.945  26.143  1.00  0.00     0.049 A 
ATOM     23  C   UNL A   1      33.326  26.517  25.821  1.00  0.00     0.026 A 
ATOM     24  H   UNL A   1      30.477  23.294  26.938  1.00  0.00     0.170 HD
ATOM     25  C   UNL A   1      30.542  25.874  25.935  1.00  0.00     0.028 A 
ATOM     26  C   UNL A   1      32.326  27.504  25.723  1.00  0.00     0.018 A 
ATOM     27  C   UNL A   1      30.952  27.182  25.717  1.00  0.00     0.018 A 
ATOM     28  Br  UNL A   1      32.809  29.336  25.721  1.00  0.00    -0.051 Br
ENDBRANCH  11  16
ENDBRANCH   8   9
ENDBRANCH   7   8
ENDBRANCH   5   7
ENDBRANCH   2   3
ENDBRANCH   1   2
BRANCH   1  29
ATOM     29  C   UNL A   1      42.957  23.485  26.815  1.00  0.00     0.118 C 
BRANCH  29  30
ATOM     30  N   UNL A   1      42.362  24.374  25.821  1.00  0.00    -0.352 N 
ATOM     31  C   UNL A   1      41.826  25.634  25.979  1.00  0.00     0.251 C 
ATOM     32  H   UNL A   1      42.339  24.020  24.903  1.00  0.00     0.163 HD
ATOM     33  O   UNL A   1      41.314  26.205  25.020  1.00  0.00    -0.269 OA
BRANCH  31  34
ATOM     34  C   UNL A   1      41.820  26.269  27.315  1.00  0.00     0.039 A 
ATOM     35  C   UNL A   1      40.862  25.921  28.268  1.00  0.00     0.014 A 
ATOM     36  C   UNL A   1      42.747  27.279  27.590  1.00  0.00     0.014 A 
ATOM     37  C   UNL A   1      40.692  26.721  29.392  1.00  0.00     0.010 A 
ATOM     38  C   UNL A   1      42.633  28.021  28.768  1.00  0.00     0.010 A 
ATOM     39  C   UNL A   1      41.563  27.792  29.647  1.00  0.00    -0.014 A 
BRANCH  39  40
ATOM     40  C   UNL A   1      41.320  28.683  30.813  1.00  0.00     0.031 A 
ATOM     41  C   UNL A   1      40.192  29.684  30.791  1.00  0.00     0.074 A 
ATOM     42  C   UNL A   1      42.082  28.554  31.917  1.00  0.00     0.049 A 
ATOM     43  N   UNL A   1      39.855  30.568  31.696  1.00  0.00    -0.248 NA
ATOM     44  C   UNL A   1      39.329  29.695  29.598  1.00  0.00     0.031 C 
ATOM     45  C   UNL A   1      43.181  27.599  32.076  1.00  0.00     0.029 A 
ATOM     46  N   UNL A   1      42.040  29.214  33.118  1.00  0.00    -0.354 N 
ATOM     47  C   UNL A   1      38.760  31.251  31.177  1.00  0.00     0.074 A 
ATOM     48  C   UNL A   1      38.503  30.696  29.865  1.00  0.00     0.031 C 
ATOM     49  C   UNL A   1      43.680  27.706  33.316  1.00  0.00     0.029 A 
ATOM     50  C   UNL A   1      42.988  28.783  34.014  1.00  0.00     0.049 A 
ATOM     51  H   UNL A   1      41.393  29.929  33.319  1.00  0.00     0.167 HD
ATOM     52  C   UNL A   1      38.028  32.239  31.747  1.00  0.00     0.037 A 
ATOM     53  C   UNL A   1      43.288  29.221  35.253  1.00  0.00     0.037 A 
ATOM     54  C   UNL A   1      38.275  32.773  33.063  1.00  0.00     0.049 A 
ATOM     55  C   UNL A   1      42.501  30.359  35.838  1.00  0.00     0.074 A 
ATOM     56  C   UNL A   1      37.589  33.774  33.728  1.00  0.00     0.029 A 
ATOM     57  N   UNL A   1      39.283  32.347  33.916  1.00  0.00    -0.354 N 
ATOM     58  N   UNL A   1      41.488  31.013  35.319  1.00  0.00    -0.248 NA
ATOM     59  C   UNL A   1      42.903  30.825  37.171  1.00  0.00     0.031 C 
ATOM     60  C   UNL A   1      38.206  33.983  34.966  1.00  0.00     0.029 A 
ATOM     61  C   UNL A   1      39.246  33.076  35.094  1.00  0.00     0.049 A 
ATOM     62  H   UNL A   1      39.928  31.632  33.715  1.00  0.00     0.167 HD
ATOM     63  C   UNL A   1      41.122  31.957  36.271  1.00  0.00     0.074 A 
ATOM     64  C   UNL A   1      42.010  31.777  37.402  1.00  0.00     0.031 C 
ATOM     65  C   UNL A   1      40.140  32.890  36.211  1.00  0.00     0.037 A 
BRANCH  52  66
ATOM     66  C   UNL A   1      36.890  32.823  30.951  1.00  0.00     0.058 A 
ATOM     67  C   UNL A   1      35.551  32.529  31.252  1.00  0.00     0.135 A 
ATOM     68  C   UNL A   1      37.141  33.737  29.914  1.00  0.00     0.135 A 
ATOM     69  F   UNL A   1      35.252  31.650  32.221  1.00  0.00    -0.206 F 
ATOM     70  C   UNL A   1      34.502  33.109  30.543  1.00  0.00     0.059 A 
ATOM     71  C   UNL A   1      36.108  34.348  29.210  1.00  0.00     0.059 A 
ATOM     72  F   UNL A   1      38.403  34.054  29.584  1.00  0.00    -0.206 F 
ATOM     73  C   UNL A   1      34.791  34.020  29.526  1.00  0.00     0.060 A 
BRANCH  73  74
ATOM     74  S   UNL A   1      33.416  34.776  28.631  1.00  0.00     0.124 S 
ATOM     75  O   UNL A   1      32.478  35.049  29.716  1.00  0.00    -0.237 OA
ATOM     76  O   UNL A   1      34.044  35.946  28.027  1.00  0.00    -0.237 OA
ATOM     77  O   UNL A   1      33.003  33.734  27.696  1.00  0.00    -0.744 OA
ENDBRANCH  73  74
ENDBRANCH  52  66
BRANCH  53  78
ATOM     78  C   UNL A   1      44.392  28.578  36.011  1.00  0.00     0.058 A 
ATOM     79  C   UNL A   1      44.151  27.474  36.841  1.00  0.00     0.135 A 
ATOM     80  C   UNL A   1      45.716  29.030  35.891  1.00  0.00     0.135 A 
ATOM     81  F   UNL A   1      42.901  27.012  36.995  1.00  0.00    -0.206 F 
ATOM     82  C   UNL A   1      45.181  26.840  37.526  1.00  0.00     0.059 A 
ATOM     83  C   UNL A   1      46.768  28.395  36.543  1.00  0.00     0.059 A 
ATOM     84  F   UNL A   1      46.001  30.076  35.098  1.00  0.00    -0.206 F 
ATOM     85  C   UNL A   1      46.488  27.303  37.363  1.00  0.00     0.060 A 
BRANCH  85  86
ATOM     86  S   UNL A   1      47.826  26.427  38.201  1.00  0.00     0.124 S 
ATOM     87  O   UNL A   1      48.388  25.638  37.111  1.00  0.00    -0.237 OA
ATOM     88  O   UNL A   1      48.653  27.527  38.687  1.00  0.00    -0.237 OA
ATOM     89  O   UNL A   1      47.133  25.668  39.238  1.00  0.00    -0.744 OA
ENDBRANCH  85  86
ENDBRANCH  53  78
BRANCH  65  90
ATOM     90  C   UNL A   1      39.958  33.775  37.414  1.00  0.00     0.058 A 
ATOM     91  C   UNL A   1      40.641  34.995  37.540  1.00  0.00     0.135 A 
ATOM     92  C   UNL A   1      39.064  33.415  38.435  1.00  0.00     0.135 A 
ATOM     93  F   UNL A   1      41.512  35.383  36.595  1.00  0.00    -0.206 F 
ATOM     94  C   UNL A   1      40.467  35.812  38.652  1.00  0.00     0.059 A 
ATOM     95  C   UNL A   1      38.854  34.230  39.542  1.00  0.00     0.059 A 
ATOM     96  F   UNL A   1      38.377  32.263  38.356  1.00  0.00    -0.206 F 
ATOM     97  C   UNL A   1      39.571  35.420  39.649  1.00  0.00     0.060 A 
BRANCH  97  98
ATOM     98  S   UNL A   1      39.346  36.496  41.080  1.00  0.00     0.124 S 
ATOM     99  O   UNL A   1      40.714  36.622  41.572  1.00  0.00    -0.237 OA
ATOM    100  O   UNL A   1      38.775  37.699  40.479  1.00  0.00    -0.237 OA
ATOM    101  O   UNL A   1      38.439  35.740  41.937  1.00  0.00    -0.744 OA
ENDBRANCH  97  98
ENDBRANCH  65  90
ENDBRANCH  39  40
ENDBRANCH  31  34
ENDBRANCH  29  30
ENDBRANCH   1  29
TORSDOF 16
ENDMDL
MODEL 3
REMARK VINA RESULT:     -12.4      2.445      8.632
REMARK SMILES O=C(COc1ccc(Br)cc1/C=C1\C(=O)Nc2ccc(Br)cc21)NCCCNC(=O)c1ccc(-c2c3nc(c(-c4c(F)cc(S(=O)(=O)[O-])cc4F)c4ccc([nH]4)c(-c4c(F)cc(S(=O)(=O)[O-])cc4F)c4nc(c(-c5c(F)cc(S(=O)(=O)[O-])cc5F)c5ccc2[nH]5)C=C4)C=C3)cc1
REMARK SMILES IDX 26 1 25 2 24 3 1 4 2 5 3 7 4 8 5 9 6 10 11 11 7 12 10 13
REMARK SMILES IDX 8 14 9 15 12 16 13 17 14 18 23 19 15 20 16 21 17 22 22 23
REMARK SMILES IDX 18 25 20 26 19 27 21 28 27 29 28 30 29 31 30 33 31 34 32 35
REMARK SMILES IDX 96 36 33 37 95 38 34 39 35 40 36 41 89 42 37 43 94 44 88 45
REMARK SMILES IDX 90 46 38 47 93 48 87 49 86 50 39 52 73 53 52 54 72 55 53 56
REMARK SMILES IDX 56 57 71 58 91 59 54 60 55 61 70 63 92 64 57 65 40 66 41 67
REMARK SMILES IDX 50 68 42 69 43 70 49 71 51 72 44 73 45 74 46 75 47 76 48 77
REMARK SMILES IDX 74 78 75 79 84 80 76 81 77 82 83 83 85 84 78 85 79 86 80 87
REMARK SMILES IDX 81 88 82 89 58 90 59 91 68 92 60 93 61 94 67 95 69 96 62 97
REMARK SMILES IDX 63 98 64 99 65 100 66 101
REMARK H PARENT 24 6 16 24 28 32 90 51 56 62
REMARK Flexibility Score: inf
ROOT
ATOM      1  C   UNL A   1      39.919  21.689  26.632  1.00  0.00     0.042 C 
ENDROOT
BRANCH   1   2
ATOM      2  C   UNL A   1      38.669  21.795  25.778  1.00  0.00     0.117 C 
BRANCH   2   3
ATOM      3  N   UNL A   1      37.728  22.829  26.186  1.00  0.00    -0.353 N 
ATOM      4  O   UNL A   1      37.131  23.465  24.061  1.00  0.00    -0.271 OA
ATOM      5  C   UNL A   1      36.904  23.456  25.269  1.00  0.00     0.257 C 
ATOM      6  H   UNL A   1      37.678  23.088  27.133  1.00  0.00     0.163 HD
BRANCH   5   7
ATOM      7  C   UNL A   1      35.607  24.063  25.859  1.00  0.00     0.329 C 
BRANCH   7   8
ATOM      8  O   UNL A   1      34.553  23.234  26.366  1.00  0.00    -0.483 OA
BRANCH   8   9
ATOM      9  C   UNL A   1      34.080  22.235  25.540  1.00  0.00     0.127 A 
ATOM     10  C   UNL A   1      34.474  20.894  25.747  1.00  0.00     0.048 A 
ATOM     11  C   UNL A   1      33.104  22.530  24.548  1.00  0.00     0.018 A 
ATOM     12  C   UNL A   1      33.965  19.839  25.001  1.00  0.00     0.019 A 
ATOM     13  C   UNL A   1      32.581  21.419  23.857  1.00  0.00     0.027 A 
ATOM     14  C   UNL A   1      33.015  20.109  24.050  1.00  0.00     0.018 A 
ATOM     15  Br  UNL A   1      32.305  18.710  22.998  1.00  0.00    -0.051 Br
BRANCH  11  16
ATOM     16  C   UNL A   1      32.699  23.939  24.168  1.00  0.00     0.026 C 
ATOM     17  C   UNL A   1      31.840  24.786  24.795  1.00  0.00     0.050 C 
ATOM     18  C   UNL A   1      31.060  24.521  26.061  1.00  0.00     0.256 C 
ATOM     19  C   UNL A   1      31.042  25.837  24.121  1.00  0.00     0.012 A 
ATOM     20  O   UNL A   1      31.465  24.326  27.187  1.00  0.00    -0.269 OA
ATOM     21  N   UNL A   1      29.752  24.809  25.722  1.00  0.00    -0.321 N 
ATOM     22  C   UNL A   1      29.735  25.646  24.613  1.00  0.00     0.049 A 
ATOM     23  C   UNL A   1      31.310  26.957  23.358  1.00  0.00     0.026 A 
ATOM     24  H   UNL A   1      28.955  24.472  26.193  1.00  0.00     0.170 HD
ATOM     25  C   UNL A   1      28.643  26.388  24.219  1.00  0.00     0.028 A 
ATOM     26  C   UNL A   1      30.227  27.797  23.039  1.00  0.00     0.018 A 
ATOM     27  C   UNL A   1      28.901  27.487  23.410  1.00  0.00     0.018 A 
ATOM     28  Br  UNL A   1      30.545  29.463  22.194  1.00  0.00    -0.051 Br
ENDBRANCH  11  16
ENDBRANCH   8   9
ENDBRANCH   7   8
ENDBRANCH   5   7
ENDBRANCH   2   3
ENDBRANCH   1   2
BRANCH   1  29
ATOM     29  C   UNL A   1      40.447  23.019  27.146  1.00  0.00     0.118 C 
BRANCH  29  30
ATOM     30  N   UNL A   1      40.817  23.964  26.097  1.00  0.00    -0.352 N 
ATOM     31  C   UNL A   1      41.111  25.308  26.189  1.00  0.00     0.251 C 
ATOM     32  H   UNL A   1      40.863  23.586  25.189  1.00  0.00     0.163 HD
ATOM     33  O   UNL A   1      41.346  25.954  25.172  1.00  0.00    -0.269 OA
BRANCH  31  34
ATOM     34  C   UNL A   1      41.087  25.977  27.508  1.00  0.00     0.039 A 
ATOM     35  C   UNL A   1      39.938  25.956  28.300  1.00  0.00     0.014 A 
ATOM     36  C   UNL A   1      42.211  26.697  27.924  1.00  0.00     0.014 A 
ATOM     37  C   UNL A   1      39.836  26.820  29.384  1.00  0.00     0.010 A 
ATOM     38  C   UNL A   1      42.138  27.492  29.070  1.00  0.00     0.010 A 
ATOM     39  C   UNL A   1      40.929  27.613  29.772  1.00  0.00    -0.014 A 
BRANCH  39  40
ATOM     40  C   UNL A   1      40.777  28.587  30.886  1.00  0.00     0.031 A 
ATOM     41  C   UNL A   1      41.702  28.538  32.077  1.00  0.00     0.074 A 
ATOM     42  C   UNL A   1      39.840  29.551  30.802  1.00  0.00     0.049 A 
ATOM     43  N   UNL A   1      41.694  29.277  33.158  1.00  0.00    -0.248 NA
ATOM     44  C   UNL A   1      42.774  27.529  32.053  1.00  0.00     0.031 C 
ATOM     45  C   UNL A   1      38.909  29.727  29.685  1.00  0.00     0.029 A 
ATOM     46  N   UNL A   1      39.526  30.575  31.659  1.00  0.00    -0.354 N 
ATOM     47  C   UNL A   1      42.741  28.812  33.947  1.00  0.00     0.074 A 
ATOM     48  C   UNL A   1      43.348  27.710  33.234  1.00  0.00     0.031 C 
ATOM     49  C   UNL A   1      38.158  30.816  29.907  1.00  0.00     0.029 A 
ATOM     50  C   UNL A   1      38.503  31.373  31.209  1.00  0.00     0.049 A 
ATOM     51  H   UNL A   1      39.990  30.723  32.516  1.00  0.00     0.167 HD
ATOM     52  C   UNL A   1      43.166  29.272  35.150  1.00  0.00     0.037 A 
ATOM     53  C   UNL A   1      37.889  32.423  31.789  1.00  0.00     0.037 A 
ATOM     54  C   UNL A   1      42.570  30.385  35.847  1.00  0.00     0.049 A 
ATOM     55  C   UNL A   1      38.338  32.874  33.150  1.00  0.00     0.074 A 
ATOM     56  C   UNL A   1      42.929  30.925  37.070  1.00  0.00     0.029 A 
ATOM     57  N   UNL A   1      41.497  31.131  35.382  1.00  0.00    -0.354 N 
ATOM     58  N   UNL A   1      39.310  32.402  33.895  1.00  0.00    -0.248 NA
ATOM     59  C   UNL A   1      37.602  33.992  33.752  1.00  0.00     0.031 C 
ATOM     60  C   UNL A   1      42.048  31.970  37.365  1.00  0.00     0.029 A 
ATOM     61  C   UNL A   1      41.172  32.116  36.301  1.00  0.00     0.049 A 
ATOM     62  H   UNL A   1      41.036  30.983  34.526  1.00  0.00     0.167 HD
ATOM     63  C   UNL A   1      39.312  33.178  35.048  1.00  0.00     0.074 A 
ATOM     64  C   UNL A   1      38.257  34.159  34.894  1.00  0.00     0.031 C 
ATOM     65  C   UNL A   1      40.114  33.083  36.137  1.00  0.00     0.037 A 
BRANCH  52  66
ATOM     66  C   UNL A   1      44.326  28.569  35.804  1.00  0.00     0.058 A 
ATOM     67  C   UNL A   1      45.653  28.964  35.577  1.00  0.00     0.135 A 
ATOM     68  C   UNL A   1      44.103  27.526  36.719  1.00  0.00     0.135 A 
ATOM     69  F   UNL A   1      45.926  29.944  34.701  1.00  0.00    -0.206 F 
ATOM     70  C   UNL A   1      46.719  28.342  36.221  1.00  0.00     0.059 A 
ATOM     71  C   UNL A   1      45.151  26.906  37.394  1.00  0.00     0.059 A 
ATOM     72  F   UNL A   1      42.854  27.106  36.974  1.00  0.00    -0.206 F 
ATOM     73  C   UNL A   1      46.458  27.315  37.131  1.00  0.00     0.060 A 
BRANCH  73  74
ATOM     74  S   UNL A   1      47.852  26.532  37.970  1.00  0.00     0.124 S 
ATOM     75  O   UNL A   1      47.916  27.304  39.209  1.00  0.00    -0.237 OA
ATOM     76  O   UNL A   1      47.399  25.153  38.106  1.00  0.00    -0.237 OA
ATOM     77  O   UNL A   1      48.965  26.738  37.047  1.00  0.00    -0.744 OA
ENDBRANCH  73  74
ENDBRANCH  52  66
BRANCH  53  78
ATOM     78  C   UNL A   1      36.779  33.109  31.079  1.00  0.00     0.058 A 
ATOM     79  C   UNL A   1      37.038  34.041  30.065  1.00  0.00     0.135 A 
ATOM     80  C   UNL A   1      35.437  32.815  31.372  1.00  0.00     0.135 A 
ATOM     81  F   UNL A   1      38.303  34.361  29.755  1.00  0.00    -0.206 F 
ATOM     82  C   UNL A   1      36.007  34.660  29.367  1.00  0.00     0.059 A 
ATOM     83  C   UNL A   1      34.390  33.400  30.669  1.00  0.00     0.059 A 
ATOM     84  F   UNL A   1      35.137  31.919  32.326  1.00  0.00    -0.206 F 
ATOM     85  C   UNL A   1      34.686  34.326  29.670  1.00  0.00     0.060 A 
BRANCH  85  86
ATOM     86  S   UNL A   1      33.359  35.083  28.707  1.00  0.00     0.124 S 
ATOM     87  O   UNL A   1      32.564  35.717  29.752  1.00  0.00    -0.237 OA
ATOM     88  O   UNL A   1      34.099  35.985  27.829  1.00  0.00    -0.237 OA
ATOM     89  O   UNL A   1      32.735  33.944  28.041  1.00  0.00    -0.744 OA
ENDBRANCH  85  86
ENDBRANCH  53  78
BRANCH  65  90
ATOM     90  C   UNL A   1      39.898  34.083  37.240  1.00  0.00     0.058 A 
ATOM     91  C   UNL A   1      40.444  35.374  37.180  1.00  0.00     0.135 A 
ATOM     92  C   UNL A   1      39.106  33.756  38.353  1.00  0.00     0.135 A 
ATOM     93  F   UNL A   1      41.215  35.735  36.142  1.00  0.00    -0.206 F 
ATOM     94  C   UNL A   1      40.239  36.297  38.201  1.00  0.00     0.059 A 
ATOM     95  C   UNL A   1      38.864  34.672  39.370  1.00  0.00     0.059 A 
ATOM     96  F   UNL A   1      38.550  32.538  38.452  1.00  0.00    -0.206 F 
ATOM     97  C   UNL A   1      39.447  35.936  39.293  1.00  0.00     0.060 A 
BRANCH  97  98
ATOM     98  S   UNL A   1      39.178  37.148  40.603  1.00  0.00     0.124 S 
ATOM     99  O   UNL A   1      40.533  37.640  40.832  1.00  0.00    -0.237 OA
ATOM    100  O   UNL A   1      38.260  38.091  39.972  1.00  0.00    -0.237 OA
ATOM    101  O   UNL A   1      38.607  36.357  41.688  1.00  0.00    -0.744 OA
ENDBRANCH  97  98
ENDBRANCH  65  90
ENDBRANCH  39  40
ENDBRANCH  31  34
ENDBRANCH  29  30
ENDBRANCH   1  29
TORSDOF 16
ENDMDL
