MODEL 1
REMARK VINA RESULT:     -12.9      0.000      0.000
REMARK SMILES COc1ccccc1C(=O)N/C(=C/c1ccc2c(c1)OCO2)C(=O)Nc1ccc(C(=O)NCCCNC(=O)c2ccc(-c3c4nc(c(-c5c(F)cc(S(=O)(=O)[O-])cc5F)c5ccc([nH]5)c(-c5c(F)cc(S(=O)(=O)[O-])cc5F)c5nc(c(-c6c(F)cc(S(=O)(=O)[O-])cc6F)c6ccc3[nH]6)C=C5)C=C4)cc2)cc1
REMARK SMILES IDX 33 1 32 2 30 3 31 4 29 6 26 7 27 8 106 9 28 10 105 11 25 12
REMARK SMILES IDX 23 13 24 14 12 16 13 17 11 18 9 19 10 20 8 22 3 23 4 24 5 25
REMARK SMILES IDX 7 26 6 27 2 28 1 29 14 30 15 31 19 32 16 33 18 34 17 35
REMARK SMILES IDX 20 36 22 37 21 38 34 39 35 40 36 41 37 42 38 44 39 45 40 46
REMARK SMILES IDX 104 47 41 48 103 49 42 50 43 51 44 52 97 53 45 54 102 55
REMARK SMILES IDX 96 56 98 57 46 58 101 59 95 60 94 61 47 63 81 64 60 65 80 66
REMARK SMILES IDX 61 67 64 68 79 69 99 70 62 71 63 72 78 74 100 75 65 76 48 77
REMARK SMILES IDX 49 78 58 79 50 80 51 81 57 82 59 83 52 84 53 85 54 86 55 87
REMARK SMILES IDX 56 88 82 89 83 90 92 91 84 92 85 93 91 94 93 95 86 96 87 97
REMARK SMILES IDX 88 98 89 99 90 100 66 101 67 102 76 103 68 104 69 105 75 106
REMARK SMILES IDX 77 107 70 108 71 109 72 110 73 111 74 112
REMARK H PARENT 32 5 25 15 11 21 36 43 98 62 64 73
REMARK Flexibility Score: inf
ROOT
ATOM      1  C   UNL A   1      37.550  20.746  24.833  1.00  0.00     0.118 C 
ENDROOT
BRANCH   1   2
ATOM      2  N   UNL A   1      37.782  21.784  25.822  1.00  0.00    -0.352 N 
ATOM      3  C   UNL A   1      37.488  23.128  25.812  1.00  0.00     0.251 C 
ATOM      4  O   UNL A   1      37.919  23.820  26.734  1.00  0.00    -0.269 OA
ATOM      5  H   UNL A   1      38.227  21.472  26.643  1.00  0.00     0.163 HD
BRANCH   3   6
ATOM      6  C   UNL A   1      36.512  23.699  24.837  1.00  0.00     0.039 A 
ATOM      7  C   UNL A   1      34.071  24.184  23.531  1.00  0.00     0.041 A 
ATOM      8  C   UNL A   1      34.447  24.928  24.665  1.00  0.00     0.027 A 
ATOM      9  C   UNL A   1      35.033  23.392  22.923  1.00  0.00     0.027 A 
ATOM     10  C   UNL A   1      35.646  24.668  25.337  1.00  0.00     0.016 A 
ATOM     11  C   UNL A   1      36.277  23.202  23.551  1.00  0.00     0.016 A 
BRANCH   7  12
ATOM     12  N   UNL A   1      32.744  24.325  23.094  1.00  0.00    -0.321 N 
ATOM     13  C   UNL A   1      31.485  23.967  23.503  1.00  0.00     0.272 C 
ATOM     14  O   UNL A   1      30.604  24.098  22.644  1.00  0.00    -0.267 OA
ATOM     15  H   UNL A   1      32.707  24.829  22.249  1.00  0.00     0.170 HD
BRANCH  13  16
ATOM     16  C   UNL A   1      31.046  23.679  24.935  1.00  0.00     0.108 C 
ATOM     17  C   UNL A   1      31.505  22.600  25.619  1.00  0.00     0.040 C 
BRANCH  16  18
ATOM     18  N   UNL A   1      30.457  24.638  25.758  1.00  0.00    -0.317 N 
ATOM     19  C   UNL A   1      30.622  25.963  26.084  1.00  0.00     0.259 C 
ATOM     20  O   UNL A   1      29.952  26.382  27.036  1.00  0.00    -0.269 OA
ATOM     21  H   UNL A   1      29.699  24.251  26.253  1.00  0.00     0.170 HD
BRANCH  19  22
ATOM     22  C   UNL A   1      31.556  26.903  25.454  1.00  0.00     0.082 A 
ATOM     23  C   UNL A   1      31.436  27.429  24.167  1.00  0.00     0.131 A 
ATOM     24  C   UNL A   1      32.517  28.170  23.658  1.00  0.00     0.047 A 
ATOM     25  C   UNL A   1      33.639  28.468  24.441  1.00  0.00     0.004 A 
ATOM     26  C   UNL A   1      32.640  27.291  26.274  1.00  0.00     0.018 A 
ATOM     27  C   UNL A   1      33.679  28.070  25.769  1.00  0.00     0.001 A 
BRANCH  23  28
ATOM     28  O   UNL A   1      30.408  27.295  23.277  1.00  0.00    -0.496 OA
ATOM     29  C   UNL A   1      29.974  28.439  22.552  1.00  0.00     0.278 C 
ENDBRANCH  23  28
ENDBRANCH  19  22
ENDBRANCH  16  18
BRANCH  17  30
ATOM     30  C   UNL A   1      32.474  21.624  25.130  1.00  0.00    -0.019 A 
ATOM     31  C   UNL A   1      33.667  21.403  25.843  1.00  0.00     0.012 A 
ATOM     32  C   UNL A   1      32.115  20.813  24.048  1.00  0.00     0.058 A 
ATOM     33  C   UNL A   1      34.416  20.248  25.605  1.00  0.00     0.051 A 
ATOM     34  C   UNL A   1      32.822  19.650  23.897  1.00  0.00     0.166 A 
ATOM     35  C   UNL A   1      33.917  19.357  24.678  1.00  0.00     0.165 A 
ATOM     36  O   UNL A   1      32.440  18.600  23.121  1.00  0.00    -0.454 OA
ATOM     37  O   UNL A   1      34.319  18.065  24.510  1.00  0.00    -0.454 OA
ATOM     38  C   UNL A   1      33.197  17.555  23.758  1.00  0.00     0.468 C 
ENDBRANCH  17  30
ENDBRANCH  13  16
ENDBRANCH   7  12
ENDBRANCH   3   6
ENDBRANCH   1   2
BRANCH   1  39
ATOM     39  C   UNL A   1      38.529  19.600  25.051  1.00  0.00     0.042 C 
BRANCH  39  40
ATOM     40  C   UNL A   1      39.752  20.048  25.835  1.00  0.00     0.118 C 
BRANCH  40  41
ATOM     41  N   UNL A   1      40.721  18.973  25.983  1.00  0.00    -0.352 N 
ATOM     42  C   UNL A   1      42.090  19.052  26.124  1.00  0.00     0.251 C 
ATOM     43  H   UNL A   1      40.347  18.062  25.984  1.00  0.00     0.163 HD
ATOM     44  O   UNL A   1      42.774  18.051  26.021  1.00  0.00    -0.269 OA
BRANCH  42  45
ATOM     45  C   UNL A   1      42.712  20.376  26.363  1.00  0.00     0.039 A 
ATOM     46  C   UNL A   1      43.306  21.046  25.293  1.00  0.00     0.014 A 
ATOM     47  C   UNL A   1      42.663  20.967  27.628  1.00  0.00     0.014 A 
ATOM     48  C   UNL A   1      43.777  22.349  25.476  1.00  0.00     0.010 A 
ATOM     49  C   UNL A   1      43.041  22.295  27.781  1.00  0.00     0.010 A 
ATOM     50  C   UNL A   1      43.600  23.002  26.707  1.00  0.00    -0.014 A 
BRANCH  50  51
ATOM     51  C   UNL A   1      43.971  24.428  26.892  1.00  0.00     0.031 A 
ATOM     52  C   UNL A   1      45.402  24.863  26.733  1.00  0.00     0.074 A 
ATOM     53  C   UNL A   1      43.034  25.313  27.284  1.00  0.00     0.049 A 
ATOM     54  N   UNL A   1      45.934  26.042  26.926  1.00  0.00    -0.248 NA
ATOM     55  C   UNL A   1      46.366  23.827  26.328  1.00  0.00     0.031 C 
ATOM     56  C   UNL A   1      41.619  25.007  27.507  1.00  0.00     0.029 A 
ATOM     57  N   UNL A   1      43.129  26.652  27.570  1.00  0.00    -0.354 N 
ATOM     58  C   UNL A   1      47.293  25.888  26.680  1.00  0.00     0.074 A 
ATOM     59  C   UNL A   1      47.512  24.488  26.387  1.00  0.00     0.031 C 
ATOM     60  C   UNL A   1      40.973  26.130  27.857  1.00  0.00     0.029 A 
ATOM     61  C   UNL A   1      41.934  27.226  27.934  1.00  0.00     0.049 A 
ATOM     62  H   UNL A   1      43.974  27.155  27.518  1.00  0.00     0.167 HD
ATOM     63  C   UNL A   1      48.267  26.830  26.674  1.00  0.00     0.037 A 
ATOM     64  C   UNL A   1      41.645  28.491  28.296  1.00  0.00     0.037 A 
ATOM     65  C   UNL A   1      48.037  28.222  26.967  1.00  0.00     0.049 A 
ATOM     66  C   UNL A   1      42.750  29.510  28.338  1.00  0.00     0.074 A 
ATOM     67  C   UNL A   1      48.942  29.267  26.941  1.00  0.00     0.029 A 
ATOM     68  N   UNL A   1      46.817  28.759  27.355  1.00  0.00    -0.354 N 
ATOM     69  N   UNL A   1      44.018  29.365  28.036  1.00  0.00    -0.248 NA
ATOM     70  C   UNL A   1      42.386  30.865  28.774  1.00  0.00     0.031 C 
ATOM     71  C   UNL A   1      48.284  30.424  27.372  1.00  0.00     0.029 A 
ATOM     72  C   UNL A   1      46.954  30.115  27.607  1.00  0.00     0.049 A 
ATOM     73  H   UNL A   1      45.977  28.252  27.438  1.00  0.00     0.167 HD
ATOM     74  C   UNL A   1      44.599  30.616  28.215  1.00  0.00     0.074 A 
ATOM     75  C   UNL A   1      43.541  31.507  28.646  1.00  0.00     0.031 C 
ATOM     76  C   UNL A   1      45.890  30.992  28.035  1.00  0.00     0.037 A 
BRANCH  63  77
ATOM     77  C   UNL A   1      49.667  26.374  26.358  1.00  0.00     0.058 A 
ATOM     78  C   UNL A   1      50.213  26.496  25.068  1.00  0.00     0.135 A 
ATOM     79  C   UNL A   1      50.473  25.795  27.352  1.00  0.00     0.135 A 
ATOM     80  F   UNL A   1      49.487  27.033  24.074  1.00  0.00    -0.206 F 
ATOM     81  C   UNL A   1      51.479  26.007  24.763  1.00  0.00     0.059 A 
ATOM     82  C   UNL A   1      51.757  25.332  27.078  1.00  0.00     0.059 A 
ATOM     83  F   UNL A   1      50.008  25.657  28.604  1.00  0.00    -0.206 F 
ATOM     84  C   UNL A   1      52.240  25.418  25.773  1.00  0.00     0.060 A 
BRANCH  84  85
ATOM     85  S   UNL A   1      53.862  24.748  25.350  1.00  0.00     0.124 S 
ATOM     86  O   UNL A   1      54.617  25.029  26.567  1.00  0.00    -0.237 OA
ATOM     87  O   UNL A   1      53.562  23.341  25.101  1.00  0.00    -0.237 OA
ATOM     88  O   UNL A   1      54.254  25.520  24.176  1.00  0.00    -0.744 OA
ENDBRANCH  84  85
ENDBRANCH  63  77
BRANCH  64  89
ATOM     89  C   UNL A   1      40.241  28.870  28.608  1.00  0.00     0.058 A 
ATOM     90  C   UNL A   1      39.777  28.854  29.932  1.00  0.00     0.135 A 
ATOM     91  C   UNL A   1      39.348  29.286  27.608  1.00  0.00     0.135 A 
ATOM     92  F   UNL A   1      40.590  28.456  30.922  1.00  0.00    -0.206 F 
ATOM     93  C   UNL A   1      38.479  29.235  30.254  1.00  0.00     0.059 A 
ATOM     94  C   UNL A   1      38.053  29.697  27.909  1.00  0.00     0.059 A 
ATOM     95  F   UNL A   1      39.746  29.332  26.327  1.00  0.00    -0.206 F 
ATOM     96  C   UNL A   1      37.626  29.664  29.236  1.00  0.00     0.060 A 
BRANCH  96  97
ATOM     97  S   UNL A   1      35.968  30.226  29.680  1.00  0.00     0.124 S 
ATOM     98  O   UNL A   1      35.162  29.632  28.619  1.00  0.00    -0.237 OA
ATOM     99  O   UNL A   1      35.799  29.650  31.010  1.00  0.00    -0.237 OA
ATOM    100  O   UNL A   1      36.087  31.680  29.645  1.00  0.00    -0.744 OA
ENDBRANCH  96  97
ENDBRANCH  64  89
BRANCH  76 101
ATOM    101  C   UNL A   1      46.233  32.436  28.277  1.00  0.00     0.058 A 
ATOM    102  C   UNL A   1      46.726  32.884  29.512  1.00  0.00     0.135 A 
ATOM    103  C   UNL A   1      46.129  33.375  27.236  1.00  0.00     0.135 A 
ATOM    104  F   UNL A   1      46.833  32.033  30.545  1.00  0.00    -0.206 F 
ATOM    105  C   UNL A   1      47.092  34.212  29.712  1.00  0.00     0.059 A 
ATOM    106  C   UNL A   1      46.519  34.699  27.403  1.00  0.00     0.059 A 
ATOM    107  F   UNL A   1      45.671  33.000  26.031  1.00  0.00    -0.206 F 
ATOM    108  C   UNL A   1      46.993  35.110  28.648  1.00  0.00     0.060 A 
BRANCH 108 109
ATOM    109  S   UNL A   1      47.525  36.816  28.906  1.00  0.00     0.124 S 
ATOM    110  O   UNL A   1      47.325  36.974  30.343  1.00  0.00    -0.237 OA
ATOM    111  O   UNL A   1      48.913  36.778  28.459  1.00  0.00    -0.237 OA
ATOM    112  O   UNL A   1      46.620  37.587  28.059  1.00  0.00    -0.744 OA
ENDBRANCH 108 109
ENDBRANCH  76 101
ENDBRANCH  50  51
ENDBRANCH  42  45
ENDBRANCH  40  41
ENDBRANCH  39  40
ENDBRANCH   1  39
TORSDOF 19
ENDMDL
MODEL 2
REMARK VINA RESULT:     -12.8      4.174      6.489
REMARK SMILES COc1ccccc1C(=O)N/C(=C/c1ccc2c(c1)OCO2)C(=O)Nc1ccc(C(=O)NCCCNC(=O)c2ccc(-c3c4nc(c(-c5c(F)cc(S(=O)(=O)[O-])cc5F)c5ccc([nH]5)c(-c5c(F)cc(S(=O)(=O)[O-])cc5F)c5nc(c(-c6c(F)cc(S(=O)(=O)[O-])cc6F)c6ccc3[nH]6)C=C5)C=C4)cc2)cc1
REMARK SMILES IDX 33 1 32 2 30 3 31 4 29 6 26 7 27 8 106 9 28 10 105 11 25 12
REMARK SMILES IDX 23 13 24 14 12 16 13 17 11 18 9 19 10 20 8 22 3 23 4 24 5 25
REMARK SMILES IDX 7 26 6 27 2 28 1 29 14 30 15 31 19 32 16 33 18 34 17 35
REMARK SMILES IDX 20 36 22 37 21 38 34 39 35 40 36 41 37 42 38 44 39 45 40 46
REMARK SMILES IDX 104 47 41 48 103 49 42 50 43 51 44 52 97 53 45 54 102 55
REMARK SMILES IDX 96 56 98 57 46 58 101 59 95 60 94 61 47 63 81 64 60 65 80 66
REMARK SMILES IDX 61 67 64 68 79 69 99 70 62 71 63 72 78 74 100 75 65 76 48 77
REMARK SMILES IDX 49 78 58 79 50 80 51 81 57 82 59 83 52 84 53 85 54 86 55 87
REMARK SMILES IDX 56 88 82 89 83 90 92 91 84 92 85 93 91 94 93 95 86 96 87 97
REMARK SMILES IDX 88 98 89 99 90 100 66 101 67 102 76 103 68 104 69 105 75 106
REMARK SMILES IDX 77 107 70 108 71 109 72 110 73 111 74 112
REMARK H PARENT 32 5 25 15 11 21 36 43 98 62 64 73
REMARK Flexibility Score: inf
ROOT
ATOM      1  C   UNL A   1      34.676  22.148  26.631  1.00  0.00     0.118 C 
ENDROOT
BRANCH   1   2
ATOM      2  N   UNL A   1      34.198  20.792  26.424  1.00  0.00    -0.352 N 
ATOM      3  C   UNL A   1      33.090  20.312  25.767  1.00  0.00     0.251 C 
ATOM      4  O   UNL A   1      32.841  19.111  25.855  1.00  0.00    -0.269 OA
ATOM      5  H   UNL A   1      34.767  20.096  26.824  1.00  0.00     0.163 HD
BRANCH   3   6
ATOM      6  C   UNL A   1      32.327  21.168  24.810  1.00  0.00     0.039 A 
ATOM      7  C   UNL A   1      31.787  23.207  22.953  1.00  0.00     0.041 A 
ATOM      8  C   UNL A   1      32.285  21.959  22.535  1.00  0.00     0.027 A 
ATOM      9  C   UNL A   1      31.329  23.324  24.257  1.00  0.00     0.027 A 
ATOM     10  C   UNL A   1      32.585  20.953  23.459  1.00  0.00     0.016 A 
ATOM     11  C   UNL A   1      31.547  22.274  25.166  1.00  0.00     0.016 A 
BRANCH   7  12
ATOM     12  N   UNL A   1      31.777  24.235  21.997  1.00  0.00    -0.321 N 
ATOM     13  C   UNL A   1      31.819  25.606  21.962  1.00  0.00     0.272 C 
ATOM     14  O   UNL A   1      31.526  26.106  20.869  1.00  0.00    -0.267 OA
ATOM     15  H   UNL A   1      31.725  23.864  21.086  1.00  0.00     0.170 HD
BRANCH  13  16
ATOM     16  C   UNL A   1      32.418  26.520  23.025  1.00  0.00     0.108 C 
ATOM     17  C   UNL A   1      31.807  27.671  23.405  1.00  0.00     0.040 C 
BRANCH  16  18
ATOM     18  N   UNL A   1      33.401  26.103  23.923  1.00  0.00    -0.317 N 
ATOM     19  C   UNL A   1      33.875  26.440  25.168  1.00  0.00     0.259 C 
ATOM     20  O   UNL A   1      34.924  25.889  25.524  1.00  0.00    -0.269 OA
ATOM     21  H   UNL A   1      33.904  25.341  23.555  1.00  0.00     0.170 HD
BRANCH  19  22
ATOM     22  C   UNL A   1      33.293  27.430  26.080  1.00  0.00     0.082 A 
ATOM     23  C   UNL A   1      32.139  27.251  26.846  1.00  0.00     0.131 A 
ATOM     24  C   UNL A   1      31.622  28.369  27.524  1.00  0.00     0.047 A 
ATOM     25  C   UNL A   1      32.287  29.601  27.526  1.00  0.00     0.004 A 
ATOM     26  C   UNL A   1      34.014  28.642  26.168  1.00  0.00     0.018 A 
ATOM     27  C   UNL A   1      33.513  29.725  26.888  1.00  0.00     0.001 A 
BRANCH  23  28
ATOM     28  O   UNL A   1      31.385  26.124  27.012  1.00  0.00    -0.496 OA
ATOM     29  C   UNL A   1      30.203  25.969  26.235  1.00  0.00     0.278 C 
ENDBRANCH  23  28
ENDBRANCH  19  22
ENDBRANCH  16  18
BRANCH  17  30
ATOM     30  C   UNL A   1      30.525  28.163  22.909  1.00  0.00    -0.019 A 
ATOM     31  C   UNL A   1      29.330  27.534  23.309  1.00  0.00     0.012 A 
ATOM     32  C   UNL A   1      30.506  29.354  22.176  1.00  0.00     0.058 A 
ATOM     33  C   UNL A   1      28.110  28.193  23.149  1.00  0.00     0.051 A 
ATOM     34  C   UNL A   1      29.306  30.010  22.110  1.00  0.00     0.166 A 
ATOM     35  C   UNL A   1      28.148  29.464  22.616  1.00  0.00     0.165 A 
ATOM     36  O   UNL A   1      29.145  31.305  21.723  1.00  0.00    -0.454 OA
ATOM     37  O   UNL A   1      27.136  30.377  22.644  1.00  0.00    -0.454 OA
ATOM     38  C   UNL A   1      27.882  31.579  22.355  1.00  0.00     0.468 C 
ENDBRANCH  17  30
ENDBRANCH  13  16
ENDBRANCH   7  12
ENDBRANCH   3   6
ENDBRANCH   1   2
BRANCH   1  39
ATOM     39  C   UNL A   1      35.591  22.552  25.483  1.00  0.00     0.042 C 
BRANCH  39  40
ATOM     40  C   UNL A   1      36.777  23.369  25.971  1.00  0.00     0.118 C 
BRANCH  40  41
ATOM     41  N   UNL A   1      38.000  22.582  25.995  1.00  0.00    -0.352 N 
ATOM     42  C   UNL A   1      39.274  22.970  26.354  1.00  0.00     0.251 C 
ATOM     43  H   UNL A   1      37.906  21.643  25.716  1.00  0.00     0.163 HD
ATOM     44  O   UNL A   1      40.223  22.248  26.113  1.00  0.00    -0.269 OA
BRANCH  42  45
ATOM     45  C   UNL A   1      39.467  24.289  27.001  1.00  0.00     0.039 A 
ATOM     46  C   UNL A   1      39.013  24.474  28.307  1.00  0.00     0.014 A 
ATOM     47  C   UNL A   1      40.136  25.319  26.332  1.00  0.00     0.014 A 
ATOM     48  C   UNL A   1      39.306  25.667  28.973  1.00  0.00     0.010 A 
ATOM     49  C   UNL A   1      40.510  26.460  27.029  1.00  0.00     0.010 A 
ATOM     50  C   UNL A   1      40.101  26.647  28.358  1.00  0.00    -0.014 A 
BRANCH  50  51
ATOM     51  C   UNL A   1      40.538  27.866  29.086  1.00  0.00     0.031 A 
ATOM     52  C   UNL A   1      41.899  27.916  29.725  1.00  0.00     0.074 A 
ATOM     53  C   UNL A   1      39.678  28.891  29.243  1.00  0.00     0.049 A 
ATOM     54  N   UNL A   1      42.431  28.855  30.464  1.00  0.00    -0.248 NA
ATOM     55  C   UNL A   1      42.766  26.743  29.527  1.00  0.00     0.031 C 
ATOM     56  C   UNL A   1      38.317  28.946  28.702  1.00  0.00     0.029 A 
ATOM     57  N   UNL A   1      39.816  30.084  29.907  1.00  0.00    -0.354 N 
ATOM     58  C   UNL A   1      43.686  28.382  30.829  1.00  0.00     0.074 A 
ATOM     59  C   UNL A   1      43.808  27.048  30.284  1.00  0.00     0.031 C 
ATOM     60  C   UNL A   1      37.763  30.125  29.023  1.00  0.00     0.029 A 
ATOM     61  C   UNL A   1      38.704  30.889  29.835  1.00  0.00     0.049 A 
ATOM     62  H   UNL A   1      40.636  30.339  30.390  1.00  0.00     0.167 HD
ATOM     63  C   UNL A   1      44.657  29.011  31.533  1.00  0.00     0.037 A 
ATOM     64  C   UNL A   1      38.467  32.103  30.369  1.00  0.00     0.037 A 
ATOM     65  C   UNL A   1      44.525  30.341  32.071  1.00  0.00     0.049 A 
ATOM     66  C   UNL A   1      39.538  32.761  31.195  1.00  0.00     0.074 A 
ATOM     67  C   UNL A   1      45.464  31.090  32.756  1.00  0.00     0.029 A 
ATOM     68  N   UNL A   1      43.374  31.114  31.997  1.00  0.00    -0.354 N 
ATOM     69  N   UNL A   1      40.745  32.331  31.473  1.00  0.00    -0.248 NA
ATOM     70  C   UNL A   1      39.213  34.068  31.782  1.00  0.00     0.031 C 
ATOM     71  C   UNL A   1      44.863  32.290  33.149  1.00  0.00     0.029 A 
ATOM     72  C   UNL A   1      43.568  32.318  32.656  1.00  0.00     0.049 A 
ATOM     73  H   UNL A   1      42.542  30.848  31.542  1.00  0.00     0.167 HD
ATOM     74  C   UNL A   1      41.337  33.327  32.244  1.00  0.00     0.074 A 
ATOM     75  C   UNL A   1      40.355  34.385  32.379  1.00  0.00     0.031 C 
ATOM     76  C   UNL A   1      42.580  33.363  32.784  1.00  0.00     0.037 A 
BRANCH  63  77
ATOM     77  C   UNL A   1      45.937  28.254  31.772  1.00  0.00     0.058 A 
ATOM     78  C   UNL A   1      46.123  27.452  32.912  1.00  0.00     0.135 A 
ATOM     79  C   UNL A   1      47.000  28.339  30.858  1.00  0.00     0.135 A 
ATOM     80  F   UNL A   1      45.147  27.340  33.827  1.00  0.00    -0.206 F 
ATOM     81  C   UNL A   1      47.333  26.814  33.165  1.00  0.00     0.059 A 
ATOM     82  C   UNL A   1      48.207  27.679  31.072  1.00  0.00     0.059 A 
ATOM     83  F   UNL A   1      46.879  29.085  29.747  1.00  0.00    -0.206 F 
ATOM     84  C   UNL A   1      48.373  26.941  32.243  1.00  0.00     0.060 A 
BRANCH  84  85
ATOM     85  S   UNL A   1      49.951  26.144  32.609  1.00  0.00     0.124 S 
ATOM     86  O   UNL A   1      49.873  26.002  34.060  1.00  0.00    -0.237 OA
ATOM     87  O   UNL A   1      49.858  24.903  31.845  1.00  0.00    -0.237 OA
ATOM     88  O   UNL A   1      50.937  27.104  32.124  1.00  0.00    -0.744 OA
ENDBRANCH  84  85
ENDBRANCH  63  77
BRANCH  64  89
ATOM     89  C   UNL A   1      37.175  32.789  30.102  1.00  0.00     0.058 A 
ATOM     90  C   UNL A   1      36.113  32.685  31.012  1.00  0.00     0.135 A 
ATOM     91  C   UNL A   1      36.982  33.586  28.962  1.00  0.00     0.135 A 
ATOM     92  F   UNL A   1      36.245  31.928  32.112  1.00  0.00    -0.206 F 
ATOM     93  C   UNL A   1      34.906  33.343  30.803  1.00  0.00     0.059 A 
ATOM     94  C   UNL A   1      35.793  34.275  28.744  1.00  0.00     0.059 A 
ATOM     95  F   UNL A   1      37.972  33.730  28.067  1.00  0.00    -0.206 F 
ATOM     96  C   UNL A   1      34.758  34.144  29.669  1.00  0.00     0.060 A 
BRANCH  96  97
ATOM     97  S   UNL A   1      33.212  35.051  29.450  1.00  0.00     0.124 S 
ATOM     98  O   UNL A   1      32.617  34.943  30.777  1.00  0.00    -0.237 OA
ATOM     99  O   UNL A   1      33.690  36.377  29.070  1.00  0.00    -0.237 OA
ATOM    100  O   UNL A   1      32.535  34.309  28.392  1.00  0.00    -0.744 OA
ENDBRANCH  96  97
ENDBRANCH  64  89
BRANCH  76 101
ATOM    101  C   UNL A   1      42.967  34.597  33.553  1.00  0.00     0.058 A 
ATOM    102  C   UNL A   1      42.938  34.634  34.956  1.00  0.00     0.135 A 
ATOM    103  C   UNL A   1      43.439  35.736  32.878  1.00  0.00     0.135 A 
ATOM    104  F   UNL A   1      42.485  33.578  35.651  1.00  0.00    -0.206 F 
ATOM    105  C   UNL A   1      43.349  35.761  35.663  1.00  0.00     0.059 A 
ATOM    106  C   UNL A   1      43.884  36.861  33.565  1.00  0.00     0.059 A 
ATOM    107  F   UNL A   1      43.495  35.752  31.538  1.00  0.00    -0.206 F 
ATOM    108  C   UNL A   1      43.829  36.866  34.958  1.00  0.00     0.060 A 
BRANCH 108 109
ATOM    109  S   UNL A   1      44.411  38.298  35.890  1.00  0.00     0.124 S 
ATOM    110  O   UNL A   1      43.674  38.156  37.141  1.00  0.00    -0.237 OA
ATOM    111  O   UNL A   1      45.848  38.053  35.969  1.00  0.00    -0.237 OA
ATOM    112  O   UNL A   1      44.020  39.431  35.056  1.00  0.00    -0.744 OA
ENDBRANCH 108 109
ENDBRANCH  76 101
ENDBRANCH  50  51
ENDBRANCH  42  45
ENDBRANCH  40  41
ENDBRANCH  39  40
ENDBRANCH   1  39
TORSDOF 19
ENDMDL
MODEL 3
REMARK VINA RESULT:     -12.8      6.163     11.819
REMARK SMILES COc1ccccc1C(=O)N/C(=C/c1ccc2c(c1)OCO2)C(=O)Nc1ccc(C(=O)NCCCNC(=O)c2ccc(-c3c4nc(c(-c5c(F)cc(S(=O)(=O)[O-])cc5F)c5ccc([nH]5)c(-c5c(F)cc(S(=O)(=O)[O-])cc5F)c5nc(c(-c6c(F)cc(S(=O)(=O)[O-])cc6F)c6ccc3[nH]6)C=C5)C=C4)cc2)cc1
REMARK SMILES IDX 33 1 32 2 30 3 31 4 29 6 26 7 27 8 106 9 28 10 105 11 25 12
REMARK SMILES IDX 23 13 24 14 12 16 13 17 11 18 9 19 10 20 8 22 3 23 4 24 5 25
REMARK SMILES IDX 7 26 6 27 2 28 1 29 14 30 15 31 19 32 16 33 18 34 17 35
REMARK SMILES IDX 20 36 22 37 21 38 34 39 35 40 36 41 37 42 38 44 39 45 40 46
REMARK SMILES IDX 104 47 41 48 103 49 42 50 43 51 44 52 97 53 45 54 102 55
REMARK SMILES IDX 96 56 98 57 46 58 101 59 95 60 94 61 47 63 81 64 60 65 80 66
REMARK SMILES IDX 61 67 64 68 79 69 99 70 62 71 63 72 78 74 100 75 65 76 48 77
REMARK SMILES IDX 49 78 58 79 50 80 51 81 57 82 59 83 52 84 53 85 54 86 55 87
REMARK SMILES IDX 56 88 82 89 83 90 92 91 84 92 85 93 91 94 93 95 86 96 87 97
REMARK SMILES IDX 88 98 89 99 90 100 66 101 67 102 76 103 68 104 69 105 75 106
REMARK SMILES IDX 77 107 70 108 71 109 72 110 73 111 74 112
REMARK H PARENT 32 5 25 15 11 21 36 43 98 62 64 73
REMARK Flexibility Score: inf
ROOT
ATOM      1  C   UNL A   1      31.989  31.073  26.688  1.00  0.00     0.118 C 
ENDROOT
BRANCH   1   2
ATOM      2  N   UNL A   1      33.418  30.817  26.734  1.00  0.00    -0.352 N 
ATOM      3  C   UNL A   1      34.126  29.682  27.053  1.00  0.00     0.251 C 
ATOM      4  O   UNL A   1      35.350  29.772  27.145  1.00  0.00    -0.269 OA
ATOM      5  H   UNL A   1      33.977  31.591  26.495  1.00  0.00     0.163 HD
BRANCH   3   6
ATOM      6  C   UNL A   1      33.467  28.342  27.084  1.00  0.00     0.039 A 
ATOM      7  C   UNL A   1      32.062  26.078  26.195  1.00  0.00     0.041 A 
ATOM      8  C   UNL A   1      33.459  26.169  26.045  1.00  0.00     0.027 A 
ATOM      9  C   UNL A   1      31.431  27.002  27.013  1.00  0.00     0.027 A 
ATOM     10  C   UNL A   1      34.157  27.308  26.457  1.00  0.00     0.016 A 
ATOM     11  C   UNL A   1      32.156  28.102  27.506  1.00  0.00     0.016 A 
BRANCH   7  12
ATOM     12  N   UNL A   1      31.422  25.031  25.511  1.00  0.00    -0.321 N 
ATOM     13  C   UNL A   1      31.120  24.681  24.220  1.00  0.00     0.272 C 
ATOM     14  O   UNL A   1      30.299  23.762  24.110  1.00  0.00    -0.267 OA
ATOM     15  H   UNL A   1      31.093  24.351  26.144  1.00  0.00     0.170 HD
BRANCH  13  16
ATOM     16  C   UNL A   1      31.865  25.124  22.965  1.00  0.00     0.108 C 
ATOM     17  C   UNL A   1      31.736  26.379  22.464  1.00  0.00     0.040 C 
BRANCH  16  18
ATOM     18  N   UNL A   1      32.970  24.444  22.455  1.00  0.00    -0.317 N 
ATOM     19  C   UNL A   1      33.644  23.264  22.661  1.00  0.00     0.259 C 
ATOM     20  O   UNL A   1      34.725  23.139  22.073  1.00  0.00    -0.269 OA
ATOM     21  H   UNL A   1      33.393  24.963  21.733  1.00  0.00     0.170 HD
BRANCH  19  22
ATOM     22  C   UNL A   1      33.234  22.174  23.554  1.00  0.00     0.082 A 
ATOM     23  C   UNL A   1      33.456  22.124  24.931  1.00  0.00     0.131 A 
ATOM     24  C   UNL A   1      33.162  20.923  25.599  1.00  0.00     0.047 A 
ATOM     25  C   UNL A   1      32.568  19.840  24.940  1.00  0.00     0.004 A 
ATOM     26  C   UNL A   1      32.542  21.121  22.914  1.00  0.00     0.018 A 
ATOM     27  C   UNL A   1      32.210  19.957  23.605  1.00  0.00     0.001 A 
BRANCH  23  28
ATOM     28  O   UNL A   1      33.973  23.086  25.752  1.00  0.00    -0.496 OA
ATOM     29  C   UNL A   1      34.648  22.685  26.939  1.00  0.00     0.278 C 
ENDBRANCH  23  28
ENDBRANCH  19  22
ENDBRANCH  16  18
BRANCH  17  30
ATOM     30  C   UNL A   1      30.938  27.455  23.045  1.00  0.00    -0.019 A 
ATOM     31  C   UNL A   1      31.576  28.593  23.574  1.00  0.00     0.012 A 
ATOM     32  C   UNL A   1      29.547  27.401  22.913  1.00  0.00     0.058 A 
ATOM     33  C   UNL A   1      30.845  29.763  23.793  1.00  0.00     0.051 A 
ATOM     34  C   UNL A   1      28.874  28.585  23.057  1.00  0.00     0.166 A 
ATOM     35  C   UNL A   1      29.510  29.741  23.448  1.00  0.00     0.165 A 
ATOM     36  O   UNL A   1      27.588  28.803  22.669  1.00  0.00    -0.454 OA
ATOM     37  O   UNL A   1      28.701  30.829  23.305  1.00  0.00    -0.454 OA
ATOM     38  C   UNL A   1      27.625  30.236  22.546  1.00  0.00     0.468 C 
ENDBRANCH  17  30
ENDBRANCH  13  16
ENDBRANCH   7  12
ENDBRANCH   3   6
ENDBRANCH   1   2
BRANCH   1  39
ATOM     39  C   UNL A   1      31.725  32.558  26.896  1.00  0.00     0.042 C 
BRANCH  39  40
ATOM     40  C   UNL A   1      32.891  33.245  27.589  1.00  0.00     0.118 C 
BRANCH  40  41
ATOM     41  N   UNL A   1      32.567  34.612  27.963  1.00  0.00    -0.352 N 
ATOM     42  C   UNL A   1      33.049  35.361  29.016  1.00  0.00     0.251 C 
ATOM     43  H   UNL A   1      31.912  35.066  27.385  1.00  0.00     0.163 HD
ATOM     44  O   UNL A   1      32.515  36.413  29.312  1.00  0.00    -0.269 OA
BRANCH  42  45
ATOM     45  C   UNL A   1      34.199  34.845  29.796  1.00  0.00     0.039 A 
ATOM     46  C   UNL A   1      33.974  34.350  31.082  1.00  0.00     0.014 A 
ATOM     47  C   UNL A   1      35.480  34.811  29.239  1.00  0.00     0.014 A 
ATOM     48  C   UNL A   1      35.023  33.741  31.775  1.00  0.00     0.010 A 
ATOM     49  C   UNL A   1      36.493  34.119  29.889  1.00  0.00     0.010 A 
ATOM     50  C   UNL A   1      36.277  33.574  31.163  1.00  0.00    -0.014 A 
BRANCH  50  51
ATOM     51  C   UNL A   1      37.371  32.816  31.823  1.00  0.00     0.031 A 
ATOM     52  C   UNL A   1      37.929  33.287  33.137  1.00  0.00     0.074 A 
ATOM     53  C   UNL A   1      37.915  31.753  31.197  1.00  0.00     0.049 A 
ATOM     54  N   UNL A   1      38.929  32.808  33.830  1.00  0.00    -0.248 NA
ATOM     55  C   UNL A   1      37.294  34.470  33.739  1.00  0.00     0.031 C 
ATOM     56  C   UNL A   1      37.484  31.220  29.902  1.00  0.00     0.029 A 
ATOM     57  N   UNL A   1      38.951  30.931  31.564  1.00  0.00    -0.354 N 
ATOM     58  C   UNL A   1      39.052  33.636  34.939  1.00  0.00     0.074 A 
ATOM     59  C   UNL A   1      38.066  34.684  34.792  1.00  0.00     0.031 C 
ATOM     60  C   UNL A   1      38.223  30.141  29.602  1.00  0.00     0.029 A 
ATOM     61  C   UNL A   1      39.214  29.934  30.654  1.00  0.00     0.049 A 
ATOM     62  H   UNL A   1      39.458  31.045  32.400  1.00  0.00     0.167 HD
ATOM     63  C   UNL A   1      39.893  33.520  35.995  1.00  0.00     0.037 A 
ATOM     64  C   UNL A   1      40.151  28.967  30.663  1.00  0.00     0.037 A 
ATOM     65  C   UNL A   1      40.870  32.471  36.131  1.00  0.00     0.049 A 
ATOM     66  C   UNL A   1      41.112  28.889  31.818  1.00  0.00     0.074 A 
ATOM     67  C   UNL A   1      41.736  32.233  37.182  1.00  0.00     0.029 A 
ATOM     68  N   UNL A   1      41.122  31.494  35.177  1.00  0.00    -0.354 N 
ATOM     69  N   UNL A   1      41.170  29.638  32.893  1.00  0.00    -0.248 NA
ATOM     70  C   UNL A   1      42.135  27.837  31.759  1.00  0.00     0.031 C 
ATOM     71  C   UNL A   1      42.553  31.150  36.838  1.00  0.00     0.029 A 
ATOM     72  C   UNL A   1      42.155  30.673  35.599  1.00  0.00     0.049 A 
ATOM     73  H   UNL A   1      40.637  31.398  34.325  1.00  0.00     0.167 HD
ATOM     74  C   UNL A   1      42.218  29.130  33.654  1.00  0.00     0.074 A 
ATOM     75  C   UNL A   1      42.758  28.005  32.919  1.00  0.00     0.031 C 
ATOM     76  C   UNL A   1      42.684  29.554  34.855  1.00  0.00     0.037 A 
BRANCH  63  77
ATOM     77  C   UNL A   1      39.796  34.569  37.073  1.00  0.00     0.058 A 
ATOM     78  C   UNL A   1      38.907  34.441  38.154  1.00  0.00     0.135 A 
ATOM     79  C   UNL A   1      40.593  35.724  37.020  1.00  0.00     0.135 A 
ATOM     80  F   UNL A   1      38.112  33.363  38.253  1.00  0.00    -0.206 F 
ATOM     81  C   UNL A   1      38.768  35.445  39.106  1.00  0.00     0.059 A 
ATOM     82  C   UNL A   1      40.497  36.726  37.983  1.00  0.00     0.059 A 
ATOM     83  F   UNL A   1      41.465  35.899  36.014  1.00  0.00    -0.206 F 
ATOM     84  C   UNL A   1      39.562  36.589  39.007  1.00  0.00     0.060 A 
BRANCH  84  85
ATOM     85  S   UNL A   1      39.337  37.902  40.224  1.00  0.00     0.124 S 
ATOM     86  O   UNL A   1      40.628  38.581  40.159  1.00  0.00    -0.237 OA
ATOM     87  O   UNL A   1      38.203  38.643  39.678  1.00  0.00    -0.237 OA
ATOM     88  O   UNL A   1      39.071  37.177  41.462  1.00  0.00    -0.744 OA
ENDBRANCH  84  85
ENDBRANCH  63  77
BRANCH  64  89
ATOM     89  C   UNL A   1      40.197  27.971  29.559  1.00  0.00     0.058 A 
ATOM     90  C   UNL A   1      41.066  28.152  28.473  1.00  0.00     0.135 A 
ATOM     91  C   UNL A   1      39.409  26.809  29.579  1.00  0.00     0.135 A 
ATOM     92  F   UNL A   1      41.833  29.251  28.405  1.00  0.00    -0.206 F 
ATOM     93  C   UNL A   1      41.153  27.220  27.445  1.00  0.00     0.059 A 
ATOM     94  C   UNL A   1      39.498  25.849  28.575  1.00  0.00     0.059 A 
ATOM     95  F   UNL A   1      38.571  26.581  30.602  1.00  0.00    -0.206 F 
ATOM     96  C   UNL A   1      40.370  26.066  27.509  1.00  0.00     0.060 A 
BRANCH  96  97
ATOM     97  S   UNL A   1      40.549  24.830  26.205  1.00  0.00     0.124 S 
ATOM     98  O   UNL A   1      41.096  25.630  25.114  1.00  0.00    -0.237 OA
ATOM     99  O   UNL A   1      41.465  23.873  26.817  1.00  0.00    -0.237 OA
ATOM    100  O   UNL A   1      39.186  24.346  26.012  1.00  0.00    -0.744 OA
ENDBRANCH  96  97
ENDBRANCH  64  89
BRANCH  76 101
ATOM    101  C   UNL A   1      43.823  28.786  35.468  1.00  0.00     0.058 A 
ATOM    102  C   UNL A   1      45.162  29.139  35.240  1.00  0.00     0.135 A 
ATOM    103  C   UNL A   1      43.569  27.722  36.351  1.00  0.00     0.135 A 
ATOM    104  F   UNL A   1      45.463  30.140  34.397  1.00  0.00    -0.206 F 
ATOM    105  C   UNL A   1      46.209  28.457  35.854  1.00  0.00     0.059 A 
ATOM    106  C   UNL A   1      44.598  27.048  37.000  1.00  0.00     0.059 A 
ATOM    107  F   UNL A   1      42.306  27.348  36.611  1.00  0.00    -0.206 F 
ATOM    108  C   UNL A   1      45.916  27.419  36.739  1.00  0.00     0.060 A 
BRANCH 108 109
ATOM    109  S   UNL A   1      47.282  26.582  37.571  1.00  0.00     0.124 S 
ATOM    110  O   UNL A   1      46.572  25.659  38.450  1.00  0.00    -0.237 OA
ATOM    111  O   UNL A   1      47.997  25.971  36.455  1.00  0.00    -0.237 OA
ATOM    112  O   UNL A   1      47.990  27.669  38.242  1.00  0.00    -0.744 OA
ENDBRANCH 108 109
ENDBRANCH  76 101
ENDBRANCH  50  51
ENDBRANCH  42  45
ENDBRANCH  40  41
ENDBRANCH  39  40
ENDBRANCH   1  39
TORSDOF 19
ENDMDL
