MODEL 1
REMARK VINA RESULT:     -11.1      0.000      0.000
REMARK SMILES COCC[C@@H](C)NC(=O)N[C@@H]1C=C[C@@H](C(=O)NCCCNC(=O)c2ccc(-c3c4nc(c(-c5c(F)cc(S(=O)(=O)[O-])cc5F)c5ccc([nH]5)c(-c5c(F)cc(S(=O)(=O)[O-])cc5F)c5nc(c(-c6c(F)cc(S(=O)(=O)[O-])cc6F)c6ccc3[nH]6)C=C5)C=C4)cc2)C1
REMARK SMILES IDX 18 1 17 2 15 3 16 4 14 6 11 7 12 8 90 9 13 10 10 11 7 12
REMARK SMILES IDX 8 13 9 15 5 17 6 18 4 19 3 20 2 21 1 22 19 23 20 24 21 25
REMARK SMILES IDX 22 26 23 28 24 29 25 30 89 31 26 32 88 33 27 34 28 35 29 36
REMARK SMILES IDX 82 37 30 38 87 39 81 40 83 41 31 42 86 43 80 44 79 45 32 47
REMARK SMILES IDX 66 48 45 49 65 50 46 51 49 52 64 53 84 54 47 55 48 56 63 58
REMARK SMILES IDX 85 59 50 60 33 61 34 62 43 63 35 64 36 65 42 66 44 67 37 68
REMARK SMILES IDX 38 69 39 70 40 71 41 72 67 73 68 74 77 75 69 76 70 77 76 78
REMARK SMILES IDX 78 79 71 80 72 81 73 82 74 83 75 84 51 85 52 86 61 87 53 88
REMARK SMILES IDX 54 89 60 90 62 91 55 92 56 93 57 94 58 95 59 96
REMARK H PARENT 17 5 7 14 10 16 21 27 83 46 49 57
REMARK Flexibility Score: inf
ROOT
ATOM      1  C   UNL A   1      38.871  22.961  26.557  1.00  0.00     0.117 C 
ENDROOT
BRANCH   1   2
ATOM      2  N   UNL A   1      38.378  22.625  25.242  1.00  0.00    -0.356 N 
ATOM      3  C   UNL A   1      37.154  22.260  24.792  1.00  0.00     0.227 C 
ATOM      4  O   UNL A   1      37.037  22.196  23.560  1.00  0.00    -0.274 OA
ATOM      5  H   UNL A   1      39.064  22.670  24.537  1.00  0.00     0.163 HD
BRANCH   3   6
ATOM      6  C   UNL A   1      35.921  22.022  25.671  1.00  0.00     0.103 C 
ATOM      7  C   UNL A   1      33.616  22.896  25.397  1.00  0.00     0.107 C 
ATOM      8  C   UNL A   1      33.769  21.496  24.905  1.00  0.00    -0.006 C 
ATOM      9  C   UNL A   1      34.981  23.164  26.083  1.00  0.00     0.047 C 
ATOM     10  C   UNL A   1      35.011  21.027  25.030  1.00  0.00    -0.016 C 
BRANCH   7  11
ATOM     11  N   UNL A   1      32.483  22.965  26.289  1.00  0.00    -0.332 N 
ATOM     12  N   UNL A   1      31.687  25.204  26.218  1.00  0.00    -0.336 N 
ATOM     13  C   UNL A   1      31.623  23.931  26.631  1.00  0.00     0.315 C 
ATOM     14  H   UNL A   1      30.866  25.705  26.429  1.00  0.00     0.165 HD
ATOM     15  O   UNL A   1      30.679  23.623  27.365  1.00  0.00    -0.249 OA
ATOM     16  H   UNL A   1      32.304  22.113  26.749  1.00  0.00     0.165 HD
BRANCH  12  17
ATOM     17  C   UNL A   1      32.678  26.034  25.529  1.00  0.00     0.083 C 
ATOM     18  C   UNL A   1      33.005  27.240  26.414  1.00  0.00     0.031 C 
BRANCH  17  19
ATOM     19  C   UNL A   1      32.154  26.484  24.155  1.00  0.00     0.053 C 
BRANCH  19  20
ATOM     20  C   UNL A   1      31.798  27.970  24.053  1.00  0.00     0.162 C 
BRANCH  20  21
ATOM     21  O   UNL A   1      30.391  28.191  24.088  1.00  0.00    -0.385 OA
ATOM     22  C   UNL A   1      29.626  27.207  23.412  1.00  0.00     0.194 C 
ENDBRANCH  20  21
ENDBRANCH  19  20
ENDBRANCH  17  19
ENDBRANCH  12  17
ENDBRANCH   7  11
ENDBRANCH   3   6
ENDBRANCH   1   2
BRANCH   1  23
ATOM     23  C   UNL A   1      40.133  22.199  26.925  1.00  0.00     0.042 C 
BRANCH  23  24
ATOM     24  C   UNL A   1      41.336  23.099  27.163  1.00  0.00     0.118 C 
BRANCH  24  25
ATOM     25  N   UNL A   1      41.598  24.021  26.062  1.00  0.00    -0.352 N 
ATOM     26  C   UNL A   1      41.652  25.398  26.055  1.00  0.00     0.251 C 
ATOM     27  H   UNL A   1      41.761  23.592  25.192  1.00  0.00     0.163 HD
ATOM     28  O   UNL A   1      41.755  25.991  24.989  1.00  0.00    -0.269 OA
BRANCH  26  29
ATOM     29  C   UNL A   1      41.541  26.152  27.326  1.00  0.00     0.039 A 
ATOM     30  C   UNL A   1      42.511  27.108  27.637  1.00  0.00     0.014 A 
ATOM     31  C   UNL A   1      40.467  25.945  28.193  1.00  0.00     0.014 A 
ATOM     32  C   UNL A   1      42.348  27.916  28.767  1.00  0.00     0.010 A 
ATOM     33  C   UNL A   1      40.242  26.831  29.240  1.00  0.00     0.010 A 
ATOM     34  C   UNL A   1      41.183  27.822  29.548  1.00  0.00    -0.014 A 
BRANCH  34  35
ATOM     35  C   UNL A   1      40.936  28.746  30.688  1.00  0.00     0.031 A 
ATOM     36  C   UNL A   1      41.762  28.639  31.945  1.00  0.00     0.074 A 
ATOM     37  C   UNL A   1      39.925  29.636  30.620  1.00  0.00     0.049 A 
ATOM     38  N   UNL A   1      41.667  29.323  33.057  1.00  0.00    -0.248 NA
ATOM     39  C   UNL A   1      42.803  27.599  31.977  1.00  0.00     0.031 C 
ATOM     40  C   UNL A   1      38.995  29.781  29.496  1.00  0.00     0.029 A 
ATOM     41  N   UNL A   1      39.506  30.589  31.515  1.00  0.00    -0.354 N 
ATOM     42  C   UNL A   1      42.615  28.782  33.919  1.00  0.00     0.074 A 
ATOM     43  C   UNL A   1      43.223  27.667  33.230  1.00  0.00     0.031 C 
ATOM     44  C   UNL A   1      38.149  30.791  29.749  1.00  0.00     0.029 A 
ATOM     45  C   UNL A   1      38.450  31.346  31.065  1.00  0.00     0.049 A 
ATOM     46  H   UNL A   1      39.923  30.718  32.398  1.00  0.00     0.167 HD
ATOM     47  C   UNL A   1      42.975  29.198  35.156  1.00  0.00     0.037 A 
ATOM     48  C   UNL A   1      37.803  32.378  31.641  1.00  0.00     0.037 A 
ATOM     49  C   UNL A   1      42.400  30.340  35.817  1.00  0.00     0.049 A 
ATOM     50  C   UNL A   1      38.259  32.861  32.992  1.00  0.00     0.074 A 
ATOM     51  C   UNL A   1      42.739  30.888  37.041  1.00  0.00     0.029 A 
ATOM     52  N   UNL A   1      41.371  31.114  35.303  1.00  0.00    -0.354 N 
ATOM     53  N   UNL A   1      39.209  32.382  33.760  1.00  0.00    -0.248 NA
ATOM     54  C   UNL A   1      37.569  34.033  33.545  1.00  0.00     0.031 C 
ATOM     55  C   UNL A   1      41.892  31.975  37.284  1.00  0.00     0.029 A 
ATOM     56  C   UNL A   1      41.058  32.132  36.188  1.00  0.00     0.049 A 
ATOM     57  H   UNL A   1      40.928  30.963  34.437  1.00  0.00     0.167 HD
ATOM     58  C   UNL A   1      39.252  33.215  34.873  1.00  0.00     0.074 A 
ATOM     59  C   UNL A   1      38.241  34.232  34.671  1.00  0.00     0.031 C 
ATOM     60  C   UNL A   1      40.057  33.145  35.962  1.00  0.00     0.037 A 
BRANCH  47  61
ATOM     61  C   UNL A   1      44.059  28.427  35.863  1.00  0.00     0.058 A 
ATOM     62  C   UNL A   1      45.418  28.736  35.684  1.00  0.00     0.135 A 
ATOM     63  C   UNL A   1      43.737  27.383  36.745  1.00  0.00     0.135 A 
ATOM     64  F   UNL A   1      45.785  29.713  34.840  1.00  0.00    -0.206 F 
ATOM     65  C   UNL A   1      46.419  28.014  36.325  1.00  0.00     0.059 A 
ATOM     66  C   UNL A   1      44.721  26.668  37.421  1.00  0.00     0.059 A 
ATOM     67  F   UNL A   1      42.455  27.044  36.953  1.00  0.00    -0.206 F 
ATOM     68  C   UNL A   1      46.061  26.980  37.192  1.00  0.00     0.060 A 
BRANCH  68  69
ATOM     69  S   UNL A   1      47.373  26.057  38.019  1.00  0.00     0.124 S 
ATOM     70  O   UNL A   1      48.255  27.135  38.455  1.00  0.00    -0.237 OA
ATOM     71  O   UNL A   1      46.648  25.366  39.080  1.00  0.00    -0.237 OA
ATOM     72  O   UNL A   1      47.904  25.200  36.964  1.00  0.00    -0.744 OA
ENDBRANCH  68  69
ENDBRANCH  47  61
BRANCH  48  73
ATOM     73  C   UNL A   1      36.695  33.061  30.919  1.00  0.00     0.058 A 
ATOM     74  C   UNL A   1      35.355  32.808  31.251  1.00  0.00     0.135 A 
ATOM     75  C   UNL A   1      36.950  33.988  29.897  1.00  0.00     0.135 A 
ATOM     76  F   UNL A   1      35.060  31.928  32.219  1.00  0.00    -0.206 F 
ATOM     77  C   UNL A   1      34.307  33.434  30.584  1.00  0.00     0.059 A 
ATOM     78  C   UNL A   1      35.920  34.646  29.233  1.00  0.00     0.059 A 
ATOM     79  F   UNL A   1      38.215  34.281  29.556  1.00  0.00    -0.206 F 
ATOM     80  C   UNL A   1      34.600  34.354  29.576  1.00  0.00     0.060 A 
BRANCH  80  81
ATOM     81  S   UNL A   1      33.234  35.199  28.752  1.00  0.00     0.124 S 
ATOM     82  O   UNL A   1      32.491  35.734  29.887  1.00  0.00    -0.237 OA
ATOM     83  O   UNL A   1      33.933  36.179  27.925  1.00  0.00    -0.237 OA
ATOM     84  O   UNL A   1      32.573  34.126  28.014  1.00  0.00    -0.744 OA
ENDBRANCH  80  81
ENDBRANCH  48  73
BRANCH  60  85
ATOM     85  C   UNL A   1      39.913  34.228  36.994  1.00  0.00     0.058 A 
ATOM     86  C   UNL A   1      40.567  35.463  36.871  1.00  0.00     0.135 A 
ATOM     87  C   UNL A   1      39.080  34.035  38.108  1.00  0.00     0.135 A 
ATOM     88  F   UNL A   1      41.378  35.697  35.826  1.00  0.00    -0.206 F 
ATOM     89  C   UNL A   1      40.430  36.457  37.834  1.00  0.00     0.059 A 
ATOM     90  C   UNL A   1      38.905  35.025  39.069  1.00  0.00     0.059 A 
ATOM     91  F   UNL A   1      38.419  32.876  38.267  1.00  0.00    -0.206 F 
ATOM     92  C   UNL A   1      39.599  36.226  38.932  1.00  0.00     0.060 A 
BRANCH  92  93
ATOM     93  S   UNL A   1      39.419  37.526  40.172  1.00  0.00     0.124 S 
ATOM     94  O   UNL A   1      38.429  38.394  39.544  1.00  0.00    -0.237 OA
ATOM     95  O   UNL A   1      38.961  36.783  41.342  1.00  0.00    -0.237 OA
ATOM     96  O   UNL A   1      40.765  38.081  40.278  1.00  0.00    -0.744 OA
ENDBRANCH  92  93
ENDBRANCH  60  85
ENDBRANCH  34  35
ENDBRANCH  26  29
ENDBRANCH  24  25
ENDBRANCH  23  24
ENDBRANCH   1  23
TORSDOF 18
ENDMDL
MODEL 2
REMARK VINA RESULT:     -10.9      6.638     12.285
REMARK SMILES COCC[C@@H](C)NC(=O)N[C@@H]1C=C[C@@H](C(=O)NCCCNC(=O)c2ccc(-c3c4nc(c(-c5c(F)cc(S(=O)(=O)[O-])cc5F)c5ccc([nH]5)c(-c5c(F)cc(S(=O)(=O)[O-])cc5F)c5nc(c(-c6c(F)cc(S(=O)(=O)[O-])cc6F)c6ccc3[nH]6)C=C5)C=C4)cc2)C1
REMARK SMILES IDX 18 1 17 2 15 3 16 4 14 6 11 7 12 8 90 9 13 10 10 11 7 12
REMARK SMILES IDX 8 13 9 15 5 17 6 18 4 19 3 20 2 21 1 22 19 23 20 24 21 25
REMARK SMILES IDX 22 26 23 28 24 29 25 30 89 31 26 32 88 33 27 34 28 35 29 36
REMARK SMILES IDX 82 37 30 38 87 39 81 40 83 41 31 42 86 43 80 44 79 45 32 47
REMARK SMILES IDX 66 48 45 49 65 50 46 51 49 52 64 53 84 54 47 55 48 56 63 58
REMARK SMILES IDX 85 59 50 60 33 61 34 62 43 63 35 64 36 65 42 66 44 67 37 68
REMARK SMILES IDX 38 69 39 70 40 71 41 72 67 73 68 74 77 75 69 76 70 77 76 78
REMARK SMILES IDX 78 79 71 80 72 81 73 82 74 83 75 84 51 85 52 86 61 87 53 88
REMARK SMILES IDX 54 89 60 90 62 91 55 92 56 93 57 94 58 95 59 96
REMARK H PARENT 17 5 7 14 10 16 21 27 83 46 49 57
REMARK Flexibility Score: inf
ROOT
ATOM      1  C   UNL A   1      33.569  30.400  27.226  1.00  0.00     0.117 C 
ENDROOT
BRANCH   1   2
ATOM      2  N   UNL A   1      32.581  29.425  27.626  1.00  0.00    -0.356 N 
ATOM      3  C   UNL A   1      31.882  28.496  26.933  1.00  0.00     0.227 C 
ATOM      4  O   UNL A   1      31.221  27.704  27.619  1.00  0.00    -0.274 OA
ATOM      5  H   UNL A   1      32.376  29.441  28.589  1.00  0.00     0.163 HD
BRANCH   3   6
ATOM      6  C   UNL A   1      31.930  28.303  25.412  1.00  0.00     0.103 C 
ATOM      7  C   UNL A   1      32.434  26.252  24.113  1.00  0.00     0.107 C 
ATOM      8  C   UNL A   1      30.972  26.525  24.223  1.00  0.00    -0.006 C 
ATOM      9  C   UNL A   1      33.064  27.531  24.723  1.00  0.00     0.047 C 
ATOM     10  C   UNL A   1      30.693  27.615  24.938  1.00  0.00    -0.016 C 
BRANCH   7  11
ATOM     11  N   UNL A   1      32.774  26.030  22.727  1.00  0.00    -0.332 N 
ATOM     12  N   UNL A   1      33.304  23.722  22.511  1.00  0.00    -0.336 N 
ATOM     13  C   UNL A   1      33.115  24.952  22.012  1.00  0.00     0.315 C 
ATOM     14  H   UNL A   1      33.366  23.040  21.804  1.00  0.00     0.165 HD
ATOM     15  O   UNL A   1      33.246  25.092  20.793  1.00  0.00    -0.249 OA
ATOM     16  H   UNL A   1      32.749  26.854  22.189  1.00  0.00     0.165 HD
BRANCH  12  17
ATOM     17  C   UNL A   1      33.438  23.142  23.849  1.00  0.00     0.083 C 
ATOM     18  C   UNL A   1      34.742  22.343  23.907  1.00  0.00     0.031 C 
BRANCH  17  19
ATOM     19  C   UNL A   1      32.230  22.252  24.182  1.00  0.00     0.053 C 
BRANCH  19  20
ATOM     20  C   UNL A   1      32.467  21.231  25.300  1.00  0.00     0.162 C 
BRANCH  20  21
ATOM     21  O   UNL A   1      32.096  19.912  24.913  1.00  0.00    -0.385 OA
ATOM     22  C   UNL A   1      32.371  19.599  23.557  1.00  0.00     0.194 C 
ENDBRANCH  20  21
ENDBRANCH  19  20
ENDBRANCH  17  19
ENDBRANCH  12  17
ENDBRANCH   7  11
ENDBRANCH   3   6
ENDBRANCH   1   2
BRANCH   1  23
ATOM     23  C   UNL A   1      34.984  29.989  27.596  1.00  0.00     0.042 C 
BRANCH  23  24
ATOM     24  C   UNL A   1      35.679  30.978  28.521  1.00  0.00     0.118 C 
BRANCH  24  25
ATOM     25  N   UNL A   1      35.596  30.609  29.930  1.00  0.00    -0.352 N 
ATOM     26  C   UNL A   1      36.556  30.079  30.765  1.00  0.00     0.251 C 
ATOM     27  H   UNL A   1      34.719  30.765  30.349  1.00  0.00     0.163 HD
ATOM     28  O   UNL A   1      36.242  29.715  31.891  1.00  0.00    -0.269 OA
BRANCH  26  29
ATOM     29  C   UNL A   1      37.947  29.912  30.284  1.00  0.00     0.039 A 
ATOM     30  C   UNL A   1      38.951  29.589  31.200  1.00  0.00     0.014 A 
ATOM     31  C   UNL A   1      38.259  30.036  28.929  1.00  0.00     0.014 A 
ATOM     32  C   UNL A   1      40.240  29.301  30.741  1.00  0.00     0.010 A 
ATOM     33  C   UNL A   1      39.503  29.627  28.464  1.00  0.00     0.010 A 
ATOM     34  C   UNL A   1      40.514  29.263  29.363  1.00  0.00    -0.014 A 
BRANCH  34  35
ATOM     35  C   UNL A   1      41.848  28.850  28.847  1.00  0.00     0.031 A 
ATOM     36  C   UNL A   1      42.963  29.859  28.734  1.00  0.00     0.074 A 
ATOM     37  C   UNL A   1      42.036  27.586  28.418  1.00  0.00     0.049 A 
ATOM     38  N   UNL A   1      44.176  29.700  28.269  1.00  0.00    -0.248 NA
ATOM     39  C   UNL A   1      42.666  31.237  29.157  1.00  0.00     0.031 C 
ATOM     40  C   UNL A   1      41.013  26.537  28.391  1.00  0.00     0.029 A 
ATOM     41  N   UNL A   1      43.154  26.964  27.919  1.00  0.00    -0.354 N 
ATOM     42  C   UNL A   1      44.772  30.955  28.324  1.00  0.00     0.074 A 
ATOM     43  C   UNL A   1      43.767  31.879  28.796  1.00  0.00     0.031 C 
ATOM     44  C   UNL A   1      41.561  25.395  27.946  1.00  0.00     0.029 A 
ATOM     45  C   UNL A   1      42.964  25.634  27.624  1.00  0.00     0.049 A 
ATOM     46  H   UNL A   1      44.012  27.428  27.783  1.00  0.00     0.167 HD
ATOM     47  C   UNL A   1      46.050  31.303  28.043  1.00  0.00     0.037 A 
ATOM     48  C   UNL A   1      43.824  24.709  27.157  1.00  0.00     0.037 A 
ATOM     49  C   UNL A   1      47.061  30.370  27.620  1.00  0.00     0.049 A 
ATOM     50  C   UNL A   1      45.255  25.104  26.908  1.00  0.00     0.074 A 
ATOM     51  C   UNL A   1      48.402  30.603  27.375  1.00  0.00     0.029 A 
ATOM     52  N   UNL A   1      46.841  29.020  27.387  1.00  0.00    -0.354 N 
ATOM     53  N   UNL A   1      45.819  26.282  27.037  1.00  0.00    -0.248 NA
ATOM     54  C   UNL A   1      46.170  24.043  26.468  1.00  0.00     0.031 C 
ATOM     55  C   UNL A   1      48.988  29.401  26.962  1.00  0.00     0.029 A 
ATOM     56  C   UNL A   1      48.021  28.409  26.996  1.00  0.00     0.049 A 
ATOM     57  H   UNL A   1      45.975  28.563  27.486  1.00  0.00     0.167 HD
ATOM     58  C   UNL A   1      47.161  26.096  26.726  1.00  0.00     0.074 A 
ATOM     59  C   UNL A   1      47.326  24.691  26.414  1.00  0.00     0.031 C 
ATOM     60  C   UNL A   1      48.167  27.006  26.704  1.00  0.00     0.037 A 
BRANCH  47  61
ATOM     61  C   UNL A   1      46.432  32.750  28.210  1.00  0.00     0.058 A 
ATOM     62  C   UNL A   1      46.944  33.241  29.423  1.00  0.00     0.135 A 
ATOM     63  C   UNL A   1      46.306  33.653  27.142  1.00  0.00     0.135 A 
ATOM     64  F   UNL A   1      47.070  32.427  30.484  1.00  0.00    -0.206 F 
ATOM     65  C   UNL A   1      47.283  34.580  29.583  1.00  0.00     0.059 A 
ATOM     66  C   UNL A   1      46.669  34.991  27.270  1.00  0.00     0.059 A 
ATOM     67  F   UNL A   1      45.822  33.239  25.961  1.00  0.00    -0.206 F 
ATOM     68  C   UNL A   1      47.140  35.449  28.499  1.00  0.00     0.060 A 
BRANCH  68  69
ATOM     69  S   UNL A   1      47.589  37.183  28.722  1.00  0.00     0.124 S 
ATOM     70  O   UNL A   1      48.235  37.481  27.448  1.00  0.00    -0.237 OA
ATOM     71  O   UNL A   1      46.291  37.816  28.936  1.00  0.00    -0.237 OA
ATOM     72  O   UNL A   1      48.471  37.160  29.884  1.00  0.00    -0.744 OA
ENDBRANCH  68  69
ENDBRANCH  47  61
BRANCH  48  73
ATOM     73  C   UNL A   1      43.371  23.307  26.950  1.00  0.00     0.058 A 
ATOM     74  C   UNL A   1      43.158  22.801  25.658  1.00  0.00     0.135 A 
ATOM     75  C   UNL A   1      43.159  22.440  28.033  1.00  0.00     0.135 A 
ATOM     76  F   UNL A   1      43.344  23.592  24.591  1.00  0.00    -0.206 F 
ATOM     77  C   UNL A   1      42.730  21.495  25.447  1.00  0.00     0.059 A 
ATOM     78  C   UNL A   1      42.757  21.121  27.846  1.00  0.00     0.059 A 
ATOM     79  F   UNL A   1      43.371  22.867  29.288  1.00  0.00    -0.206 F 
ATOM     80  C   UNL A   1      42.534  20.660  26.548  1.00  0.00     0.060 A 
BRANCH  80  81
ATOM     81  S   UNL A   1      42.029  18.950  26.261  1.00  0.00     0.124 S 
ATOM     82  O   UNL A   1      40.654  19.122  25.810  1.00  0.00    -0.237 OA
ATOM     83  O   UNL A   1      42.985  18.514  25.248  1.00  0.00    -0.237 OA
ATOM     84  O   UNL A   1      42.192  18.328  27.572  1.00  0.00    -0.744 OA
ENDBRANCH  80  81
ENDBRANCH  48  73
BRANCH  60  85
ATOM     85  C   UNL A   1      49.545  26.499  26.379  1.00  0.00     0.058 A 
ATOM     86  C   UNL A   1      50.028  26.455  25.063  1.00  0.00     0.135 A 
ATOM     87  C   UNL A   1      50.405  26.084  27.409  1.00  0.00     0.135 A 
ATOM     88  F   UNL A   1      49.245  26.838  24.041  1.00  0.00    -0.206 F 
ATOM     89  C   UNL A   1      51.304  25.981  24.774  1.00  0.00     0.059 A 
ATOM     90  C   UNL A   1      51.694  25.633  27.146  1.00  0.00     0.059 A 
ATOM     91  F   UNL A   1      49.996  26.120  28.688  1.00  0.00    -0.206 F 
ATOM     92  C   UNL A   1      52.128  25.569  25.823  1.00  0.00     0.060 A 
BRANCH  92  93
ATOM     93  S   UNL A   1      53.785  24.964  25.439  1.00  0.00     0.124 S 
ATOM     94  O   UNL A   1      54.149  25.812  24.308  1.00  0.00    -0.237 OA
ATOM     95  O   UNL A   1      54.508  25.219  26.681  1.00  0.00    -0.237 OA
ATOM     96  O   UNL A   1      53.567  23.555  25.124  1.00  0.00    -0.744 OA
ENDBRANCH  92  93
ENDBRANCH  60  85
ENDBRANCH  34  35
ENDBRANCH  26  29
ENDBRANCH  24  25
ENDBRANCH  23  24
ENDBRANCH   1  23
TORSDOF 18
ENDMDL
MODEL 3
REMARK VINA RESULT:     -10.9      1.365      2.389
REMARK SMILES COCC[C@@H](C)NC(=O)N[C@@H]1C=C[C@@H](C(=O)NCCCNC(=O)c2ccc(-c3c4nc(c(-c5c(F)cc(S(=O)(=O)[O-])cc5F)c5ccc([nH]5)c(-c5c(F)cc(S(=O)(=O)[O-])cc5F)c5nc(c(-c6c(F)cc(S(=O)(=O)[O-])cc6F)c6ccc3[nH]6)C=C5)C=C4)cc2)C1
REMARK SMILES IDX 18 1 17 2 15 3 16 4 14 6 11 7 12 8 90 9 13 10 10 11 7 12
REMARK SMILES IDX 8 13 9 15 5 17 6 18 4 19 3 20 2 21 1 22 19 23 20 24 21 25
REMARK SMILES IDX 22 26 23 28 24 29 25 30 89 31 26 32 88 33 27 34 28 35 29 36
REMARK SMILES IDX 82 37 30 38 87 39 81 40 83 41 31 42 86 43 80 44 79 45 32 47
REMARK SMILES IDX 66 48 45 49 65 50 46 51 49 52 64 53 84 54 47 55 48 56 63 58
REMARK SMILES IDX 85 59 50 60 33 61 34 62 43 63 35 64 36 65 42 66 44 67 37 68
REMARK SMILES IDX 38 69 39 70 40 71 41 72 67 73 68 74 77 75 69 76 70 77 76 78
REMARK SMILES IDX 78 79 71 80 72 81 73 82 74 83 75 84 51 85 52 86 61 87 53 88
REMARK SMILES IDX 54 89 60 90 62 91 55 92 56 93 57 94 58 95 59 96
REMARK H PARENT 17 5 7 14 10 16 21 27 83 46 49 57
REMARK Flexibility Score: inf
ROOT
ATOM      1  C   UNL A   1      39.346  22.838  26.537  1.00  0.00     0.117 C 
ENDROOT
BRANCH   1   2
ATOM      2  N   UNL A   1      38.428  21.819  26.084  1.00  0.00    -0.356 N 
ATOM      3  C   UNL A   1      37.395  21.845  25.208  1.00  0.00     0.227 C 
ATOM      4  O   UNL A   1      36.909  20.742  24.925  1.00  0.00    -0.274 OA
ATOM      5  H   UNL A   1      38.583  20.936  26.490  1.00  0.00     0.163 HD
BRANCH   3   6
ATOM      6  C   UNL A   1      36.870  23.096  24.493  1.00  0.00     0.103 C 
ATOM      7  C   UNL A   1      34.575  23.593  23.698  1.00  0.00     0.107 C 
ATOM      8  C   UNL A   1      34.890  24.240  25.005  1.00  0.00    -0.006 C 
ATOM      9  C   UNL A   1      35.946  23.009  23.271  1.00  0.00     0.047 C 
ATOM     10  C   UNL A   1      36.116  23.960  25.448  1.00  0.00    -0.016 C 
BRANCH   7  11
ATOM     11  N   UNL A   1      34.046  24.585  22.792  1.00  0.00    -0.332 N 
ATOM     12  N   UNL A   1      31.710  24.177  22.614  1.00  0.00    -0.336 N 
ATOM     13  C   UNL A   1      32.821  24.876  22.340  1.00  0.00     0.315 C 
ATOM     14  H   UNL A   1      30.895  24.656  22.342  1.00  0.00     0.165 HD
ATOM     15  O   UNL A   1      32.696  25.879  21.632  1.00  0.00    -0.249 OA
ATOM     16  H   UNL A   1      34.741  25.178  22.424  1.00  0.00     0.165 HD
BRANCH  12  17
ATOM     17  C   UNL A   1      31.411  22.878  23.220  1.00  0.00     0.083 C 
ATOM     18  C   UNL A   1      31.500  23.016  24.742  1.00  0.00     0.031 C 
BRANCH  17  19
ATOM     19  C   UNL A   1      32.379  21.800  22.705  1.00  0.00     0.053 C 
BRANCH  19  20
ATOM     20  C   UNL A   1      32.228  20.426  23.367  1.00  0.00     0.162 C 
BRANCH  20  21
ATOM     21  O   UNL A   1      33.326  20.115  24.218  1.00  0.00    -0.385 OA
ATOM     22  C   UNL A   1      32.968  19.440  25.414  1.00  0.00     0.194 C 
ENDBRANCH  20  21
ENDBRANCH  19  20
ENDBRANCH  17  19
ENDBRANCH  12  17
ENDBRANCH   7  11
ENDBRANCH   3   6
ENDBRANCH   1   2
BRANCH   1  23
ATOM     23  C   UNL A   1      40.497  22.272  27.352  1.00  0.00     0.042 C 
BRANCH  23  24
ATOM     24  C   UNL A   1      41.784  23.071  27.218  1.00  0.00     0.118 C 
BRANCH  24  25
ATOM     25  N   UNL A   1      41.774  24.004  26.095  1.00  0.00    -0.352 N 
ATOM     26  C   UNL A   1      41.587  25.370  26.080  1.00  0.00     0.251 C 
ATOM     27  H   UNL A   1      41.924  23.593  25.214  1.00  0.00     0.163 HD
ATOM     28  O   UNL A   1      41.482  25.951  25.009  1.00  0.00    -0.269 OA
BRANCH  26  29
ATOM     29  C   UNL A   1      41.472  26.117  27.354  1.00  0.00     0.039 A 
ATOM     30  C   UNL A   1      42.474  27.025  27.705  1.00  0.00     0.014 A 
ATOM     31  C   UNL A   1      40.363  25.953  28.186  1.00  0.00     0.014 A 
ATOM     32  C   UNL A   1      42.313  27.829  28.837  1.00  0.00     0.010 A 
ATOM     33  C   UNL A   1      40.146  26.839  29.234  1.00  0.00     0.010 A 
ATOM     34  C   UNL A   1      41.121  27.783  29.581  1.00  0.00    -0.014 A 
BRANCH  34  35
ATOM     35  C   UNL A   1      40.881  28.707  30.722  1.00  0.00     0.031 A 
ATOM     36  C   UNL A   1      41.705  28.592  31.979  1.00  0.00     0.074 A 
ATOM     37  C   UNL A   1      39.878  29.606  30.654  1.00  0.00     0.049 A 
ATOM     38  N   UNL A   1      41.615  29.276  33.092  1.00  0.00    -0.248 NA
ATOM     39  C   UNL A   1      42.738  27.543  32.010  1.00  0.00     0.031 C 
ATOM     40  C   UNL A   1      38.950  29.760  29.530  1.00  0.00     0.029 A 
ATOM     41  N   UNL A   1      39.466  30.562  31.550  1.00  0.00    -0.354 N 
ATOM     42  C   UNL A   1      42.558  28.726  33.953  1.00  0.00     0.074 A 
ATOM     43  C   UNL A   1      43.158  27.607  33.264  1.00  0.00     0.031 C 
ATOM     44  C   UNL A   1      38.112  30.777  29.784  1.00  0.00     0.029 A 
ATOM     45  C   UNL A   1      38.416  31.328  31.100  1.00  0.00     0.049 A 
ATOM     46  H   UNL A   1      39.883  30.686  32.433  1.00  0.00     0.167 HD
ATOM     47  C   UNL A   1      42.922  29.137  35.191  1.00  0.00     0.037 A 
ATOM     48  C   UNL A   1      37.777  32.364  31.677  1.00  0.00     0.037 A 
ATOM     49  C   UNL A   1      42.356  30.283  35.854  1.00  0.00     0.049 A 
ATOM     50  C   UNL A   1      38.237  32.842  33.028  1.00  0.00     0.074 A 
ATOM     51  C   UNL A   1      42.698  30.827  37.078  1.00  0.00     0.029 A 
ATOM     52  N   UNL A   1      41.333  31.067  35.340  1.00  0.00    -0.354 N 
ATOM     53  N   UNL A   1      39.182  32.354  33.797  1.00  0.00    -0.248 NA
ATOM     54  C   UNL A   1      37.556  34.019  33.583  1.00  0.00     0.031 C 
ATOM     55  C   UNL A   1      41.860  31.921  37.322  1.00  0.00     0.029 A 
ATOM     56  C   UNL A   1      41.028  32.086  36.225  1.00  0.00     0.049 A 
ATOM     57  H   UNL A   1      40.890  30.921  34.473  1.00  0.00     0.167 HD
ATOM     58  C   UNL A   1      39.231  33.185  34.911  1.00  0.00     0.074 A 
ATOM     59  C   UNL A   1      38.229  34.212  34.709  1.00  0.00     0.031 C 
ATOM     60  C   UNL A   1      40.036  33.108  36.000  1.00  0.00     0.037 A 
BRANCH  47  61
ATOM     61  C   UNL A   1      43.998  28.357  35.898  1.00  0.00     0.058 A 
ATOM     62  C   UNL A   1      45.359  28.661  35.728  1.00  0.00     0.135 A 
ATOM     63  C   UNL A   1      43.667  27.308  36.771  1.00  0.00     0.135 A 
ATOM     64  F   UNL A   1      45.735  29.642  34.893  1.00  0.00    -0.206 F 
ATOM     65  C   UNL A   1      46.354  27.931  36.369  1.00  0.00     0.059 A 
ATOM     66  C   UNL A   1      44.645  26.584  37.447  1.00  0.00     0.059 A 
ATOM     67  F   UNL A   1      42.383  26.973  36.970  1.00  0.00    -0.206 F 
ATOM     68  C   UNL A   1      45.987  26.892  37.226  1.00  0.00     0.060 A 
BRANCH  68  69
ATOM     69  S   UNL A   1      47.291  25.958  38.053  1.00  0.00     0.124 S 
ATOM     70  O   UNL A   1      48.396  26.910  38.020  1.00  0.00    -0.237 OA
ATOM     71  O   UNL A   1      46.711  25.708  39.369  1.00  0.00    -0.237 OA
ATOM     72  O   UNL A   1      47.453  24.779  37.208  1.00  0.00    -0.744 OA
ENDBRANCH  68  69
ENDBRANCH  47  61
BRANCH  48  73
ATOM     73  C   UNL A   1      36.676  33.057  30.955  1.00  0.00     0.058 A 
ATOM     74  C   UNL A   1      35.343  32.918  31.371  1.00  0.00     0.135 A 
ATOM     75  C   UNL A   1      36.932  33.883  29.850  1.00  0.00     0.135 A 
ATOM     76  F   UNL A   1      35.047  32.137  32.421  1.00  0.00    -0.206 F 
ATOM     77  C   UNL A   1      34.300  33.554  30.705  1.00  0.00     0.059 A 
ATOM     78  C   UNL A   1      35.909  34.550  29.183  1.00  0.00     0.059 A 
ATOM     79  F   UNL A   1      38.191  34.066  29.425  1.00  0.00    -0.206 F 
ATOM     80  C   UNL A   1      34.594  34.371  29.612  1.00  0.00     0.060 A 
BRANCH  80  81
ATOM     81  S   UNL A   1      33.239  35.234  28.787  1.00  0.00     0.124 S 
ATOM     82  O   UNL A   1      32.600  34.147  28.056  1.00  0.00    -0.237 OA
ATOM     83  O   UNL A   1      32.487  35.774  29.916  1.00  0.00    -0.237 OA
ATOM     84  O   UNL A   1      33.925  36.229  27.969  1.00  0.00    -0.744 OA
ENDBRANCH  80  81
ENDBRANCH  48  73
BRANCH  60  85
ATOM     85  C   UNL A   1      39.900  34.190  37.034  1.00  0.00     0.058 A 
ATOM     86  C   UNL A   1      39.077  34.042  38.161  1.00  0.00     0.135 A 
ATOM     87  C   UNL A   1      40.634  35.382  36.909  1.00  0.00     0.135 A 
ATOM     88  F   UNL A   1      38.353  32.923  38.326  1.00  0.00    -0.206 F 
ATOM     89  C   UNL A   1      38.956  35.052  39.109  1.00  0.00     0.059 A 
ATOM     90  C   UNL A   1      40.550  36.393  37.859  1.00  0.00     0.059 A 
ATOM     91  F   UNL A   1      41.447  35.568  35.857  1.00  0.00    -0.206 F 
ATOM     92  C   UNL A   1      39.695  36.226  38.947  1.00  0.00     0.060 A 
BRANCH  92  93
ATOM     93  S   UNL A   1      39.538  37.527  40.189  1.00  0.00     0.124 S 
ATOM     94  O   UNL A   1      40.898  38.056  40.230  1.00  0.00    -0.237 OA
ATOM     95  O   UNL A   1      38.534  38.406  39.598  1.00  0.00    -0.237 OA
ATOM     96  O   UNL A   1      39.108  36.806  41.383  1.00  0.00    -0.744 OA
ENDBRANCH  92  93
ENDBRANCH  60  85
ENDBRANCH  34  35
ENDBRANCH  26  29
ENDBRANCH  24  25
ENDBRANCH  23  24
ENDBRANCH   1  23
TORSDOF 18
ENDMDL
