MODEL 1
REMARK VINA RESULT:     -10.6      0.000      0.000
REMARK SMILES C[C@H](CC(=O)NCCCNC(=O)c1ccc(-c2c3nc(c(-c4c(F)cc(S(=O)(=O)[O-])cc4F)c4ccc([nH]4)c(-c4c(F)cc(S(=O)(=O)[O-])cc4F)c4nc(c(-c5c(F)cc(S(=O)(=O)[O-])cc5F)c5ccc2[nH]5)C=C4)C=C3)cc1)N1C(=O)CCCC1=O
REMARK SMILES IDX 8 1 7 2 6 3 4 4 5 5 3 7 2 8 1 9 79 10 80 11 85 12 81 13
REMARK SMILES IDX 82 14 84 15 86 16 83 17 9 18 10 19 11 20 12 22 13 23 14 24
REMARK SMILES IDX 78 25 15 26 77 27 16 28 17 29 18 30 71 31 19 32 76 33 70 34
REMARK SMILES IDX 72 35 20 36 75 37 69 38 68 39 21 41 55 42 34 43 54 44 35 45
REMARK SMILES IDX 38 46 53 47 73 48 36 49 37 50 52 52 74 53 39 54 22 55 23 56
REMARK SMILES IDX 32 57 24 58 25 59 31 60 33 61 26 62 27 63 28 64 29 65 30 66
REMARK SMILES IDX 56 67 57 68 66 69 58 70 59 71 65 72 67 73 60 74 61 75 62 76
REMARK SMILES IDX 63 77 64 78 40 79 41 80 50 81 42 82 43 83 49 84 51 85 44 86
REMARK SMILES IDX 45 87 46 88 47 89 48 90
REMARK H PARENT 6 6 10 21 72 40 38 51
REMARK Flexibility Score: inf
ROOT
ATOM      1  C   UNL A   1      34.003  34.187  28.078  1.00  0.00     0.042 C 
ENDROOT
BRANCH   1   2
ATOM      2  C   UNL A   1      34.771  35.443  28.479  1.00  0.00     0.117 C 
BRANCH   2   3
ATOM      3  N   UNL A   1      33.934  36.461  29.088  1.00  0.00    -0.356 N 
ATOM      4  C   UNL A   1      33.367  36.517  30.323  1.00  0.00     0.222 C 
ATOM      5  O   UNL A   1      32.742  37.532  30.634  1.00  0.00    -0.275 OA
ATOM      6  H   UNL A   1      33.747  37.237  28.513  1.00  0.00     0.163 HD
BRANCH   4   7
ATOM      7  C   UNL A   1      33.503  35.354  31.279  1.00  0.00     0.125 C 
BRANCH   7   8
ATOM      8  C   UNL A   1      34.728  35.373  32.245  1.00  0.00     0.099 C 
ATOM      9  C   UNL A   1      34.325  35.882  33.645  1.00  0.00     0.032 C 
BRANCH   8  10
ATOM     10  N   UNL A   1      35.500  34.082  32.237  1.00  0.00    -0.279 N 
ATOM     11  C   UNL A   1      34.816  32.875  32.383  1.00  0.00     0.229 C 
ATOM     12  C   UNL A   1      36.822  34.131  32.688  1.00  0.00     0.229 C 
ATOM     13  O   UNL A   1      33.647  32.773  32.748  1.00  0.00    -0.274 OA
ATOM     14  C   UNL A   1      35.614  31.617  32.116  1.00  0.00     0.101 C 
ATOM     15  C   UNL A   1      37.664  32.892  32.472  1.00  0.00     0.101 C 
ATOM     16  O   UNL A   1      37.325  35.112  33.239  1.00  0.00    -0.274 OA
ATOM     17  C   UNL A   1      36.904  31.658  32.898  1.00  0.00     0.020 C 
ENDBRANCH   8  10
ENDBRANCH   7   8
ENDBRANCH   4   7
ENDBRANCH   2   3
ENDBRANCH   1   2
BRANCH   1  18
ATOM     18  C   UNL A   1      34.600  32.880  28.596  1.00  0.00     0.118 C 
BRANCH  18  19
ATOM     19  N   UNL A   1      33.809  31.715  28.226  1.00  0.00    -0.352 N 
ATOM     20  C   UNL A   1      34.199  30.421  27.988  1.00  0.00     0.251 C 
ATOM     21  H   UNL A   1      32.844  31.881  28.133  1.00  0.00     0.163 HD
ATOM     22  O   UNL A   1      33.386  29.627  27.515  1.00  0.00    -0.269 OA
BRANCH  20  23
ATOM     23  C   UNL A   1      35.584  29.980  28.265  1.00  0.00     0.039 A 
ATOM     24  C   UNL A   1      36.530  30.063  27.240  1.00  0.00     0.014 A 
ATOM     25  C   UNL A   1      35.948  29.460  29.510  1.00  0.00     0.014 A 
ATOM     26  C   UNL A   1      37.856  29.693  27.483  1.00  0.00     0.010 A 
ATOM     27  C   UNL A   1      37.282  29.142  29.769  1.00  0.00     0.010 A 
ATOM     28  C   UNL A   1      38.250  29.264  28.761  1.00  0.00    -0.014 A 
BRANCH  28  29
ATOM     29  C   UNL A   1      39.677  28.979  29.066  1.00  0.00     0.031 A 
ATOM     30  C   UNL A   1      40.556  30.031  29.684  1.00  0.00     0.074 A 
ATOM     31  C   UNL A   1      40.197  27.784  28.726  1.00  0.00     0.049 A 
ATOM     32  N   UNL A   1      41.832  29.976  29.966  1.00  0.00    -0.248 NA
ATOM     33  C   UNL A   1      39.922  31.317  30.009  1.00  0.00     0.031 C 
ATOM     34  C   UNL A   1      39.459  26.694  28.087  1.00  0.00     0.029 A 
ATOM     35  N   UNL A   1      41.471  27.290  28.856  1.00  0.00    -0.354 N 
ATOM     36  C   UNL A   1      42.159  31.219  30.495  1.00  0.00     0.074 A 
ATOM     37  C   UNL A   1      40.954  32.021  30.454  1.00  0.00     0.031 C 
ATOM     38  C   UNL A   1      40.286  25.653  27.899  1.00  0.00     0.029 A 
ATOM     39  C   UNL A   1      41.621  26.015  28.367  1.00  0.00     0.049 A 
ATOM     40  H   UNL A   1      42.208  27.801  29.263  1.00  0.00     0.167 HD
ATOM     41  C   UNL A   1      43.348  31.646  30.986  1.00  0.00     0.037 A 
ATOM     42  C   UNL A   1      42.711  25.226  28.289  1.00  0.00     0.037 A 
ATOM     43  C   UNL A   1      44.541  30.842  31.036  1.00  0.00     0.049 A 
ATOM     44  C   UNL A   1      44.026  25.732  28.810  1.00  0.00     0.074 A 
ATOM     45  C   UNL A   1      45.775  31.163  31.576  1.00  0.00     0.029 A 
ATOM     46  N   UNL A   1      44.657  29.561  30.513  1.00  0.00    -0.354 N 
ATOM     47  N   UNL A   1      44.301  26.886  29.368  1.00  0.00    -0.248 NA
ATOM     48  C   UNL A   1      45.181  24.831  28.688  1.00  0.00     0.031 C 
ATOM     49  C   UNL A   1      46.648  30.094  31.342  1.00  0.00     0.029 A 
ATOM     50  C   UNL A   1      45.949  29.091  30.691  1.00  0.00     0.049 A 
ATOM     51  H   UNL A   1      43.929  29.060  30.081  1.00  0.00     0.167 HD
ATOM     52  C   UNL A   1      45.656  26.847  29.674  1.00  0.00     0.074 A 
ATOM     53  C   UNL A   1      46.142  25.548  29.254  1.00  0.00     0.031 C 
ATOM     54  C   UNL A   1      46.426  27.802  30.253  1.00  0.00     0.037 A 
BRANCH  41  55
ATOM     55  C   UNL A   1      43.413  33.057  31.504  1.00  0.00     0.058 A 
ATOM     56  C   UNL A   1      43.757  34.132  30.668  1.00  0.00     0.135 A 
ATOM     57  C   UNL A   1      43.116  33.341  32.846  1.00  0.00     0.135 A 
ATOM     58  F   UNL A   1      44.060  33.916  29.378  1.00  0.00    -0.206 F 
ATOM     59  C   UNL A   1      43.846  35.432  31.155  1.00  0.00     0.059 A 
ATOM     60  C   UNL A   1      43.174  34.638  33.349  1.00  0.00     0.059 A 
ATOM     61  F   UNL A   1      42.777  32.351  33.688  1.00  0.00    -0.206 F 
ATOM     62  C   UNL A   1      43.561  35.674  32.500  1.00  0.00     0.060 A 
BRANCH  62  63
ATOM     63  S   UNL A   1      43.707  37.361  33.124  1.00  0.00     0.124 S 
ATOM     64  O   UNL A   1      44.989  37.302  33.821  1.00  0.00    -0.237 OA
ATOM     65  O   UNL A   1      43.689  38.153  31.898  1.00  0.00    -0.237 OA
ATOM     66  O   UNL A   1      42.534  37.510  33.979  1.00  0.00    -0.744 OA
ENDBRANCH  62  63
ENDBRANCH  41  55
BRANCH  42  67
ATOM     67  C   UNL A   1      42.589  23.865  27.706  1.00  0.00     0.058 A 
ATOM     68  C   UNL A   1      42.652  23.671  26.319  1.00  0.00     0.135 A 
ATOM     69  C   UNL A   1      42.457  22.732  28.524  1.00  0.00     0.135 A 
ATOM     70  F   UNL A   1      42.768  24.725  25.499  1.00  0.00    -0.206 F 
ATOM     71  C   UNL A   1      42.595  22.398  25.761  1.00  0.00     0.059 A 
ATOM     72  C   UNL A   1      42.418  21.448  27.989  1.00  0.00     0.059 A 
ATOM     73  F   UNL A   1      42.408  22.867  29.858  1.00  0.00    -0.206 F 
ATOM     74  C   UNL A   1      42.487  21.292  26.605  1.00  0.00     0.060 A 
BRANCH  74  75
ATOM     75  S   UNL A   1      42.508  19.639  25.877  1.00  0.00     0.124 S 
ATOM     76  O   UNL A   1      43.519  19.788  24.838  1.00  0.00    -0.237 OA
ATOM     77  O   UNL A   1      42.878  18.807  27.018  1.00  0.00    -0.237 OA
ATOM     78  O   UNL A   1      41.136  19.466  25.406  1.00  0.00    -0.744 OA
ENDBRANCH  74  75
ENDBRANCH  42  67
BRANCH  54  79
ATOM     79  C   UNL A   1      47.879  27.479  30.466  1.00  0.00     0.058 A 
ATOM     80  C   UNL A   1      48.332  26.897  31.659  1.00  0.00     0.135 A 
ATOM     81  C   UNL A   1      48.819  27.709  29.448  1.00  0.00     0.135 A 
ATOM     82  F   UNL A   1      47.476  26.666  32.666  1.00  0.00    -0.206 F 
ATOM     83  C   UNL A   1      49.671  26.566  31.843  1.00  0.00     0.059 A 
ATOM     84  C   UNL A   1      50.160  27.366  29.602  1.00  0.00     0.059 A 
ATOM     85  F   UNL A   1      48.436  28.259  28.285  1.00  0.00    -0.206 F 
ATOM     86  C   UNL A   1      50.577  26.803  30.807  1.00  0.00     0.060 A 
BRANCH  86  87
ATOM     87  S   UNL A   1      52.305  26.335  31.044  1.00  0.00     0.124 S 
ATOM     88  O   UNL A   1      52.791  26.298  29.668  1.00  0.00    -0.237 OA
ATOM     89  O   UNL A   1      52.817  27.425  31.868  1.00  0.00    -0.237 OA
ATOM     90  O   UNL A   1      52.216  25.040  31.713  1.00  0.00    -0.744 OA
ENDBRANCH  86  87
ENDBRANCH  54  79
ENDBRANCH  28  29
ENDBRANCH  20  23
ENDBRANCH  18  19
ENDBRANCH   1  18
TORSDOF 15
ENDMDL
MODEL 2
REMARK VINA RESULT:     -10.3      3.599      5.839
REMARK SMILES C[C@H](CC(=O)NCCCNC(=O)c1ccc(-c2c3nc(c(-c4c(F)cc(S(=O)(=O)[O-])cc4F)c4ccc([nH]4)c(-c4c(F)cc(S(=O)(=O)[O-])cc4F)c4nc(c(-c5c(F)cc(S(=O)(=O)[O-])cc5F)c5ccc2[nH]5)C=C4)C=C3)cc1)N1C(=O)CCCC1=O
REMARK SMILES IDX 8 1 7 2 6 3 4 4 5 5 3 7 2 8 1 9 79 10 80 11 85 12 81 13
REMARK SMILES IDX 82 14 84 15 86 16 83 17 9 18 10 19 11 20 12 22 13 23 14 24
REMARK SMILES IDX 78 25 15 26 77 27 16 28 17 29 18 30 71 31 19 32 76 33 70 34
REMARK SMILES IDX 72 35 20 36 75 37 69 38 68 39 21 41 55 42 34 43 54 44 35 45
REMARK SMILES IDX 38 46 53 47 73 48 36 49 37 50 52 52 74 53 39 54 22 55 23 56
REMARK SMILES IDX 32 57 24 58 25 59 31 60 33 61 26 62 27 63 28 64 29 65 30 66
REMARK SMILES IDX 56 67 57 68 66 69 58 70 59 71 65 72 67 73 60 74 61 75 62 76
REMARK SMILES IDX 63 77 64 78 40 79 41 80 50 81 42 82 43 83 49 84 51 85 44 86
REMARK SMILES IDX 45 87 46 88 47 89 48 90
REMARK H PARENT 6 6 10 21 72 40 38 51
REMARK Flexibility Score: inf
ROOT
ATOM      1  C   UNL A   1      34.692  30.495  27.119  1.00  0.00     0.042 C 
ENDROOT
BRANCH   1   2
ATOM      2  C   UNL A   1      34.449  29.067  27.600  1.00  0.00     0.117 C 
BRANCH   2   3
ATOM      3  N   UNL A   1      33.061  28.798  27.929  1.00  0.00    -0.356 N 
ATOM      4  C   UNL A   1      32.177  27.919  27.384  1.00  0.00     0.222 C 
ATOM      5  O   UNL A   1      31.056  27.829  27.886  1.00  0.00    -0.275 OA
ATOM      6  H   UNL A   1      32.701  29.339  28.668  1.00  0.00     0.163 HD
BRANCH   4   7
ATOM      7  C   UNL A   1      32.572  27.084  26.187  1.00  0.00     0.125 C 
BRANCH   7   8
ATOM      8  C   UNL A   1      31.867  25.701  26.027  1.00  0.00     0.099 C 
ATOM      9  C   UNL A   1      31.232  25.559  24.628  1.00  0.00     0.032 C 
BRANCH   8  10
ATOM     10  N   UNL A   1      32.736  24.549  26.451  1.00  0.00    -0.279 N 
ATOM     11  C   UNL A   1      33.860  24.224  25.691  1.00  0.00     0.229 C 
ATOM     12  C   UNL A   1      32.116  23.515  27.159  1.00  0.00     0.229 C 
ATOM     13  O   UNL A   1      34.090  24.654  24.563  1.00  0.00    -0.274 OA
ATOM     14  C   UNL A   1      34.817  23.227  26.306  1.00  0.00     0.101 C 
ATOM     15  C   UNL A   1      33.023  22.472  27.776  1.00  0.00     0.101 C 
ATOM     16  O   UNL A   1      30.897  23.414  27.303  1.00  0.00    -0.274 OA
ATOM     17  C   UNL A   1      34.055  22.012  26.775  1.00  0.00     0.020 C 
ENDBRANCH   8  10
ENDBRANCH   7   8
ENDBRANCH   4   7
ENDBRANCH   2   3
ENDBRANCH   1   2
BRANCH   1  18
ATOM     18  C   UNL A   1      35.581  31.335  28.033  1.00  0.00     0.118 C 
BRANCH  18  19
ATOM     19  N   UNL A   1      35.424  30.994  29.439  1.00  0.00    -0.352 N 
ATOM     20  C   UNL A   1      36.295  30.380  30.303  1.00  0.00     0.251 C 
ATOM     21  H   UNL A   1      34.556  31.242  29.832  1.00  0.00     0.163 HD
ATOM     22  O   UNL A   1      35.893  30.028  31.412  1.00  0.00    -0.269 OA
BRANCH  20  23
ATOM     23  C   UNL A   1      37.697  30.115  29.909  1.00  0.00     0.039 A 
ATOM     24  C   UNL A   1      38.671  30.046  30.908  1.00  0.00     0.014 A 
ATOM     25  C   UNL A   1      38.061  29.965  28.568  1.00  0.00     0.014 A 
ATOM     26  C   UNL A   1      39.996  29.757  30.571  1.00  0.00     0.010 A 
ATOM     27  C   UNL A   1      39.373  29.622  28.237  1.00  0.00     0.010 A 
ATOM     28  C   UNL A   1      40.350  29.506  29.235  1.00  0.00    -0.014 A 
BRANCH  28  29
ATOM     29  C   UNL A   1      41.729  29.081  28.876  1.00  0.00     0.031 A 
ATOM     30  C   UNL A   1      42.862  30.070  28.869  1.00  0.00     0.074 A 
ATOM     31  C   UNL A   1      41.947  27.808  28.493  1.00  0.00     0.049 A 
ATOM     32  N   UNL A   1      44.112  29.888  28.531  1.00  0.00    -0.248 NA
ATOM     33  C   UNL A   1      42.543  31.446  29.280  1.00  0.00     0.031 C 
ATOM     34  C   UNL A   1      40.925  26.762  28.421  1.00  0.00     0.029 A 
ATOM     35  N   UNL A   1      43.095  27.179  28.081  1.00  0.00    -0.354 N 
ATOM     36  C   UNL A   1      44.730  31.124  28.678  1.00  0.00     0.074 A 
ATOM     37  C   UNL A   1      43.705  32.057  29.096  1.00  0.00     0.031 C 
ATOM     38  C   UNL A   1      41.495  25.618  28.010  1.00  0.00     0.029 A 
ATOM     39  C   UNL A   1      42.912  25.857  27.751  1.00  0.00     0.049 A 
ATOM     40  H   UNL A   1      43.967  27.631  28.027  1.00  0.00     0.167 HD
ATOM     41  C   UNL A   1      46.034  31.448  28.499  1.00  0.00     0.037 A 
ATOM     42  C   UNL A   1      43.781  24.942  27.280  1.00  0.00     0.037 A 
ATOM     43  C   UNL A   1      47.053  30.514  28.093  1.00  0.00     0.049 A 
ATOM     44  C   UNL A   1      45.215  25.330  27.057  1.00  0.00     0.074 A 
ATOM     45  C   UNL A   1      48.412  30.732  27.951  1.00  0.00     0.029 A 
ATOM     46  N   UNL A   1      46.824  29.189  27.751  1.00  0.00    -0.354 N 
ATOM     47  N   UNL A   1      45.795  26.487  27.267  1.00  0.00    -0.248 NA
ATOM     48  C   UNL A   1      46.111  24.291  26.533  1.00  0.00     0.031 C 
ATOM     49  C   UNL A   1      48.999  29.550  27.480  1.00  0.00     0.029 A 
ATOM     50  C   UNL A   1      48.011  28.585  27.367  1.00  0.00     0.049 A 
ATOM     51  H   UNL A   1      45.947  28.743  27.777  1.00  0.00     0.167 HD
ATOM     52  C   UNL A   1      47.127  26.313  26.910  1.00  0.00     0.074 A 
ATOM     53  C   UNL A   1      47.270  24.935  26.487  1.00  0.00     0.031 C 
ATOM     54  C   UNL A   1      48.140  27.216  26.933  1.00  0.00     0.037 A 
BRANCH  41  55
ATOM     55  C   UNL A   1      46.428  32.880  28.736  1.00  0.00     0.058 A 
ATOM     56  C   UNL A   1      46.819  33.335  30.006  1.00  0.00     0.135 A 
ATOM     57  C   UNL A   1      46.427  33.806  27.681  1.00  0.00     0.135 A 
ATOM     58  F   UNL A   1      46.828  32.494  31.052  1.00  0.00    -0.206 F 
ATOM     59  C   UNL A   1      47.154  34.666  30.229  1.00  0.00     0.059 A 
ATOM     60  C   UNL A   1      46.784  35.138  27.877  1.00  0.00     0.059 A 
ATOM     61  F   UNL A   1      46.066  33.424  26.445  1.00  0.00    -0.206 F 
ATOM     62  C   UNL A   1      47.126  35.563  29.160  1.00  0.00     0.060 A 
BRANCH  62  63
ATOM     63  S   UNL A   1      47.536  37.292  29.471  1.00  0.00     0.124 S 
ATOM     64  O   UNL A   1      47.758  37.283  30.914  1.00  0.00    -0.237 OA
ATOM     65  O   UNL A   1      48.726  37.487  28.648  1.00  0.00    -0.237 OA
ATOM     66  O   UNL A   1      46.346  38.010  29.024  1.00  0.00    -0.744 OA
ENDBRANCH  62  63
ENDBRANCH  41  55
BRANCH  42  67
ATOM     67  C   UNL A   1      43.309  23.559  27.006  1.00  0.00     0.058 A 
ATOM     68  C   UNL A   1      43.078  23.128  25.692  1.00  0.00     0.135 A 
ATOM     69  C   UNL A   1      43.128  22.633  28.044  1.00  0.00     0.135 A 
ATOM     70  F   UNL A   1      43.230  23.982  24.670  1.00  0.00    -0.206 F 
ATOM     71  C   UNL A   1      42.690  21.821  25.414  1.00  0.00     0.059 A 
ATOM     72  C   UNL A   1      42.760  21.315  27.789  1.00  0.00     0.059 A 
ATOM     73  F   UNL A   1      43.352  22.995  29.316  1.00  0.00    -0.206 F 
ATOM     74  C   UNL A   1      42.542  20.920  26.470  1.00  0.00     0.060 A 
BRANCH  74  75
ATOM     75  S   UNL A   1      42.130  19.203  26.092  1.00  0.00     0.124 S 
ATOM     76  O   UNL A   1      42.522  18.527  27.322  1.00  0.00    -0.237 OA
ATOM     77  O   UNL A   1      40.695  19.282  25.834  1.00  0.00    -0.237 OA
ATOM     78  O   UNL A   1      42.952  18.913  24.919  1.00  0.00    -0.744 OA
ENDBRANCH  74  75
ENDBRANCH  42  67
BRANCH  54  79
ATOM     79  C   UNL A   1      49.494  26.743  26.486  1.00  0.00     0.058 A 
ATOM     80  C   UNL A   1      50.349  26.045  27.353  1.00  0.00     0.135 A 
ATOM     81  C   UNL A   1      49.923  26.944  25.164  1.00  0.00     0.135 A 
ATOM     82  F   UNL A   1      49.990  25.835  28.629  1.00  0.00    -0.206 F 
ATOM     83  C   UNL A   1      51.588  25.577  26.930  1.00  0.00     0.059 A 
ATOM     84  C   UNL A   1      51.149  26.465  24.713  1.00  0.00     0.059 A 
ATOM     85  F   UNL A   1      49.140  27.601  24.292  1.00  0.00    -0.206 F 
ATOM     86  C   UNL A   1      51.979  25.790  25.607  1.00  0.00     0.060 A 
BRANCH  86  87
ATOM     87  S   UNL A   1      53.574  25.143  25.060  1.00  0.00     0.124 S 
ATOM     88  O   UNL A   1      53.406  23.713  25.293  1.00  0.00    -0.237 OA
ATOM     89  O   UNL A   1      53.618  25.556  23.660  1.00  0.00    -0.237 OA
ATOM     90  O   UNL A   1      54.530  25.815  25.935  1.00  0.00    -0.744 OA
ENDBRANCH  86  87
ENDBRANCH  54  79
ENDBRANCH  28  29
ENDBRANCH  20  23
ENDBRANCH  18  19
ENDBRANCH   1  18
TORSDOF 15
ENDMDL
MODEL 3
REMARK VINA RESULT:     -10.2      4.548      9.847
REMARK SMILES C[C@H](CC(=O)NCCCNC(=O)c1ccc(-c2c3nc(c(-c4c(F)cc(S(=O)(=O)[O-])cc4F)c4ccc([nH]4)c(-c4c(F)cc(S(=O)(=O)[O-])cc4F)c4nc(c(-c5c(F)cc(S(=O)(=O)[O-])cc5F)c5ccc2[nH]5)C=C4)C=C3)cc1)N1C(=O)CCCC1=O
REMARK SMILES IDX 8 1 7 2 6 3 4 4 5 5 3 7 2 8 1 9 79 10 80 11 85 12 81 13
REMARK SMILES IDX 82 14 84 15 86 16 83 17 9 18 10 19 11 20 12 22 13 23 14 24
REMARK SMILES IDX 78 25 15 26 77 27 16 28 17 29 18 30 71 31 19 32 76 33 70 34
REMARK SMILES IDX 72 35 20 36 75 37 69 38 68 39 21 41 55 42 34 43 54 44 35 45
REMARK SMILES IDX 38 46 53 47 73 48 36 49 37 50 52 52 74 53 39 54 22 55 23 56
REMARK SMILES IDX 32 57 24 58 25 59 31 60 33 61 26 62 27 63 28 64 29 65 30 66
REMARK SMILES IDX 56 67 57 68 66 69 58 70 59 71 65 72 67 73 60 74 61 75 62 76
REMARK SMILES IDX 63 77 64 78 40 79 41 80 50 81 42 82 43 83 49 84 51 85 44 86
REMARK SMILES IDX 45 87 46 88 47 89 48 90
REMARK H PARENT 6 6 10 21 72 40 38 51
REMARK Flexibility Score: inf
ROOT
ATOM      1  C   UNL A   1      38.011  20.028  24.989  1.00  0.00     0.042 C 
ENDROOT
BRANCH   1   2
ATOM      2  C   UNL A   1      36.757  20.852  25.267  1.00  0.00     0.117 C 
BRANCH   2   3
ATOM      3  N   UNL A   1      35.533  20.073  25.222  1.00  0.00    -0.356 N 
ATOM      4  C   UNL A   1      34.238  20.468  25.088  1.00  0.00     0.222 C 
ATOM      5  O   UNL A   1      33.367  19.600  25.011  1.00  0.00    -0.275 OA
ATOM      6  H   UNL A   1      35.661  19.100  25.300  1.00  0.00     0.163 HD
BRANCH   4   7
ATOM      7  C   UNL A   1      33.890  21.938  25.041  1.00  0.00     0.125 C 
BRANCH   7   8
ATOM      8  C   UNL A   1      33.105  22.518  26.258  1.00  0.00     0.099 C 
ATOM      9  C   UNL A   1      33.973  22.516  27.533  1.00  0.00     0.032 C 
BRANCH   8  10
ATOM     10  N   UNL A   1      32.431  23.827  25.949  1.00  0.00    -0.279 N 
ATOM     11  C   UNL A   1      33.212  24.944  25.650  1.00  0.00     0.229 C 
ATOM     12  C   UNL A   1      31.184  24.052  26.539  1.00  0.00     0.229 C 
ATOM     13  O   UNL A   1      34.424  25.020  25.836  1.00  0.00    -0.274 OA
ATOM     14  C   UNL A   1      32.475  26.150  25.110  1.00  0.00     0.101 C 
ATOM     15  C   UNL A   1      30.410  25.261  26.057  1.00  0.00     0.101 C 
ATOM     16  O   UNL A   1      30.695  23.333  27.411  1.00  0.00    -0.274 OA
ATOM     17  C   UNL A   1      31.305  26.475  26.007  1.00  0.00     0.020 C 
ENDBRANCH   8  10
ENDBRANCH   7   8
ENDBRANCH   4   7
ENDBRANCH   2   3
ENDBRANCH   1   2
BRANCH   1  18
ATOM     18  C   UNL A   1      39.246  20.455  25.779  1.00  0.00     0.118 C 
BRANCH  18  19
ATOM     19  N   UNL A   1      40.229  19.389  25.907  1.00  0.00    -0.352 N 
ATOM     20  C   UNL A   1      41.583  19.456  26.115  1.00  0.00     0.251 C 
ATOM     21  H   UNL A   1      39.865  18.478  25.832  1.00  0.00     0.163 HD
ATOM     22  O   UNL A   1      42.257  18.431  26.016  1.00  0.00    -0.269 OA
BRANCH  20  23
ATOM     23  C   UNL A   1      42.242  20.744  26.427  1.00  0.00     0.039 A 
ATOM     24  C   UNL A   1      42.781  21.492  25.377  1.00  0.00     0.014 A 
ATOM     25  C   UNL A   1      42.361  21.201  27.743  1.00  0.00     0.014 A 
ATOM     26  C   UNL A   1      43.374  22.731  25.636  1.00  0.00     0.010 A 
ATOM     27  C   UNL A   1      42.903  22.463  27.995  1.00  0.00     0.010 A 
ATOM     28  C   UNL A   1      43.406  23.243  26.943  1.00  0.00    -0.014 A 
BRANCH  28  29
ATOM     29  C   UNL A   1      43.926  24.609  27.217  1.00  0.00     0.031 A 
ATOM     30  C   UNL A   1      42.997  25.719  27.621  1.00  0.00     0.074 A 
ATOM     31  C   UNL A   1      45.237  24.862  27.040  1.00  0.00     0.049 A 
ATOM     32  N   UNL A   1      43.267  26.979  27.844  1.00  0.00    -0.248 NA
ATOM     33  C   UNL A   1      41.576  25.371  27.775  1.00  0.00     0.031 C 
ATOM     34  C   UNL A   1      46.236  23.879  26.614  1.00  0.00     0.029 A 
ATOM     35  N   UNL A   1      45.955  26.023  27.181  1.00  0.00    -0.354 N 
ATOM     36  C   UNL A   1      42.053  27.579  28.159  1.00  0.00     0.074 A 
ATOM     37  C   UNL A   1      41.039  26.551  28.054  1.00  0.00     0.031 C 
ATOM     38  C   UNL A   1      47.438  24.474  26.548  1.00  0.00     0.029 A 
ATOM     39  C   UNL A   1      47.290  25.887  26.888  1.00  0.00     0.049 A 
ATOM     40  H   UNL A   1      45.550  26.874  27.467  1.00  0.00     0.167 HD
ATOM     41  C   UNL A   1      41.809  28.863  28.518  1.00  0.00     0.037 A 
ATOM     42  C   UNL A   1      48.284  26.796  26.878  1.00  0.00     0.037 A 
ATOM     43  C   UNL A   1      42.822  29.880  28.631  1.00  0.00     0.049 A 
ATOM     44  C   UNL A   1      47.986  28.221  27.249  1.00  0.00     0.074 A 
ATOM     45  C   UNL A   1      42.682  31.191  29.054  1.00  0.00     0.029 A 
ATOM     46  N   UNL A   1      44.160  29.707  28.307  1.00  0.00    -0.354 N 
ATOM     47  N   UNL A   1      46.843  28.755  27.608  1.00  0.00    -0.248 NA
ATOM     48  C   UNL A   1      49.109  29.167  27.210  1.00  0.00     0.031 C 
ATOM     49  C   UNL A   1      43.928  31.822  28.944  1.00  0.00     0.029 A 
ATOM     50  C   UNL A   1      44.852  30.894  28.491  1.00  0.00     0.049 A 
ATOM     51  H   UNL A   1      44.560  28.864  27.995  1.00  0.00     0.167 HD
ATOM     52  C   UNL A   1      47.111  30.097  27.849  1.00  0.00     0.074 A 
ATOM     53  C   UNL A   1      48.527  30.290  27.610  1.00  0.00     0.031 C 
ATOM     54  C   UNL A   1      46.259  31.080  28.235  1.00  0.00     0.037 A 
BRANCH  41  55
ATOM     55  C   UNL A   1      40.381  29.238  28.808  1.00  0.00     0.058 A 
ATOM     56  C   UNL A   1      39.907  29.368  30.124  1.00  0.00     0.135 A 
ATOM     57  C   UNL A   1      39.479  29.484  27.761  1.00  0.00     0.135 A 
ATOM     58  F   UNL A   1      40.725  29.134  31.163  1.00  0.00    -0.206 F 
ATOM     59  C   UNL A   1      38.580  29.686  30.390  1.00  0.00     0.059 A 
ATOM     60  C   UNL A   1      38.153  29.828  28.005  1.00  0.00     0.059 A 
ATOM     61  F   UNL A   1      39.881  29.379  26.483  1.00  0.00    -0.206 F 
ATOM     62  C   UNL A   1      37.707  29.906  29.323  1.00  0.00     0.060 A 
BRANCH  62  63
ATOM     63  S   UNL A   1      35.981  30.290  29.684  1.00  0.00     0.124 S 
ATOM     64  O   UNL A   1      35.288  29.465  28.700  1.00  0.00    -0.237 OA
ATOM     65  O   UNL A   1      35.848  29.865  31.074  1.00  0.00    -0.237 OA
ATOM     66  O   UNL A   1      35.901  31.731  29.464  1.00  0.00    -0.744 OA
ENDBRANCH  62  63
ENDBRANCH  41  55
BRANCH  42  67
ATOM     67  C   UNL A   1      49.662  26.369  26.519  1.00  0.00     0.058 A 
ATOM     68  C   UNL A   1      50.502  25.780  27.475  1.00  0.00     0.135 A 
ATOM     69  C   UNL A   1      50.145  26.496  25.208  1.00  0.00     0.135 A 
ATOM     70  F   UNL A   1      50.085  25.647  28.743  1.00  0.00    -0.206 F 
ATOM     71  C   UNL A   1      51.774  25.325  27.142  1.00  0.00     0.059 A 
ATOM     72  C   UNL A   1      51.406  26.030  24.848  1.00  0.00     0.059 A 
ATOM     73  F   UNL A   1      49.372  27.040  24.256  1.00  0.00    -0.206 F 
ATOM     74  C   UNL A   1      52.212  25.446  25.823  1.00  0.00     0.060 A 
BRANCH  74  75
ATOM     75  S   UNL A   1      53.827  24.768  25.381  1.00  0.00     0.124 S 
ATOM     76  O   UNL A   1      54.200  25.609  24.250  1.00  0.00    -0.237 OA
ATOM     77  O   UNL A   1      54.591  24.968  26.608  1.00  0.00    -0.237 OA
ATOM     78  O   UNL A   1      53.526  23.374  25.062  1.00  0.00    -0.744 OA
ENDBRANCH  74  75
ENDBRANCH  42  67
BRANCH  54  79
ATOM     79  C   UNL A   1      46.834  32.456  28.422  1.00  0.00     0.058 A 
ATOM     80  C   UNL A   1      47.383  32.859  29.648  1.00  0.00     0.135 A 
ATOM     81  C   UNL A   1      46.881  33.363  27.351  1.00  0.00     0.135 A 
ATOM     82  F   UNL A   1      47.353  32.032  30.706  1.00  0.00    -0.206 F 
ATOM     83  C   UNL A   1      47.946  34.120  29.812  1.00  0.00     0.059 A 
ATOM     84  C   UNL A   1      47.460  34.622  27.486  1.00  0.00     0.059 A 
ATOM     85  F   UNL A   1      46.375  33.024  26.155  1.00  0.00    -0.206 F 
ATOM     86  C   UNL A   1      47.982  34.994  28.724  1.00  0.00     0.060 A 
BRANCH  86  87
ATOM     87  S   UNL A   1      48.750  36.614  28.939  1.00  0.00     0.124 S 
ATOM     88  O   UNL A   1      47.622  37.508  28.702  1.00  0.00    -0.237 OA
ATOM     89  O   UNL A   1      49.233  36.553  30.315  1.00  0.00    -0.237 OA
ATOM     90  O   UNL A   1      49.793  36.633  27.917  1.00  0.00    -0.744 OA
ENDBRANCH  86  87
ENDBRANCH  54  79
ENDBRANCH  28  29
ENDBRANCH  20  23
ENDBRANCH  18  19
ENDBRANCH   1  18
TORSDOF 15
ENDMDL
