MODEL 1
REMARK VINA RESULT:     -13.6      0.000      0.000
REMARK SMILES O=C(Cc1c(C(=O)c2cc3c(cn2)CCCC3)[nH]c2cc(Cl)ccc12)NCCCNC(=O)c1ccc(-c2c3nc(c(-c4c(F)cc(S(=O)(=O)[O-])cc4F)c4ccc([nH]4)c(-c4c(F)cc(S(=O)(=O)[O-])cc4F)c4nc(c(-c5c(F)cc(S(=O)(=O)[O-])cc5F)c5ccc2[nH]5)C=C4)C=C3)cc1
REMARK SMILES IDX 28 1 27 2 26 3 1 4 2 5 3 7 4 8 5 9 25 10 18 11 19 12 24 13
REMARK SMILES IDX 20 15 23 16 21 17 22 18 6 19 7 20 8 21 9 22 13 23 10 24
REMARK SMILES IDX 12 25 11 26 17 27 14 28 16 29 15 30 29 31 30 32 31 33 32 35
REMARK SMILES IDX 33 36 34 37 98 38 35 39 97 40 36 41 37 42 38 43 91 44 39 45
REMARK SMILES IDX 96 46 90 47 92 48 40 49 95 50 89 51 88 52 41 54 75 55 54 56
REMARK SMILES IDX 74 57 55 58 58 59 73 60 93 61 56 62 57 63 72 65 94 66 59 67
REMARK SMILES IDX 42 68 43 69 52 70 44 71 45 72 51 73 53 74 46 75 47 76 48 77
REMARK SMILES IDX 49 78 50 79 76 80 77 81 86 82 78 83 79 84 85 85 87 86 80 87
REMARK SMILES IDX 81 88 82 89 83 90 84 91 60 92 61 93 70 94 62 95 63 96 69 97
REMARK SMILES IDX 71 98 64 99 65 100 66 101 67 102 68 103
REMARK H PARENT 26 6 18 14 30 34 92 53 58 64
REMARK Flexibility Score: inf
ROOT
ATOM      1  C   UNL A   1      33.664  29.731  26.811  1.00  0.00     0.042 C 
ENDROOT
BRANCH   1   2
ATOM      2  C   UNL A   1      32.838  28.522  26.404  1.00  0.00     0.117 C 
BRANCH   2   3
ATOM      3  N   UNL A   1      33.651  27.449  25.869  1.00  0.00    -0.356 N 
ATOM      4  O   UNL A   1      32.286  25.730  26.548  1.00  0.00    -0.275 OA
ATOM      5  C   UNL A   1      33.276  26.121  25.937  1.00  0.00     0.224 C 
ATOM      6  H   UNL A   1      34.506  27.675  25.438  1.00  0.00     0.163 HD
BRANCH   5   7
ATOM      7  C   UNL A   1      34.195  25.176  25.182  1.00  0.00     0.138 C 
BRANCH   7   8
ATOM      8  C   UNL A   1      33.490  24.262  24.202  1.00  0.00    -0.002 A 
ATOM      9  C   UNL A   1      32.820  24.686  23.048  1.00  0.00     0.093 A 
ATOM     10  C   UNL A   1      33.393  22.825  24.246  1.00  0.00     0.004 A 
ATOM     11  N   UNL A   1      32.341  23.553  22.428  1.00  0.00    -0.351 N 
ATOM     12  C   UNL A   1      32.621  22.427  23.158  1.00  0.00     0.048 A 
ATOM     13  C   UNL A   1      33.873  21.817  25.115  1.00  0.00     0.012 A 
ATOM     14  H   UNL A   1      31.859  23.553  21.569  1.00  0.00     0.167 HD
ATOM     15  C   UNL A   1      32.266  21.092  22.917  1.00  0.00     0.047 A 
ATOM     16  C   UNL A   1      33.520  20.479  24.902  1.00  0.00     0.021 A 
ATOM     17  C   UNL A   1      32.721  20.130  23.821  1.00  0.00     0.043 A 
ATOM     18  Cl  UNL A   1      32.291  18.480  23.580  1.00  0.00    -0.084 Cl
BRANCH   9  19
ATOM     19  C   UNL A   1      32.670  26.048  22.532  1.00  0.00     0.227 C 
ATOM     20  O   UNL A   1      33.571  26.656  21.961  1.00  0.00    -0.285 OA
BRANCH  19  21
ATOM     21  C   UNL A   1      31.361  26.743  22.707  1.00  0.00     0.113 A 
ATOM     22  C   UNL A   1      31.167  28.019  22.184  1.00  0.00     0.036 A 
ATOM     23  N   UNL A   1      30.421  26.068  23.410  1.00  0.00    -0.252 NA
ATOM     24  C   UNL A   1      29.935  28.648  22.396  1.00  0.00    -0.041 A 
ATOM     25  C   UNL A   1      29.233  26.684  23.579  1.00  0.00     0.115 A 
ATOM     26  C   UNL A   1      28.943  27.966  23.118  1.00  0.00    -0.026 A 
ATOM     27  C   UNL A   1      29.718  30.056  21.903  1.00  0.00     0.036 C 
ATOM     28  C   UNL A   1      27.572  28.548  23.335  1.00  0.00     0.037 C 
ATOM     29  C   UNL A   1      28.246  30.463  21.862  1.00  0.00     0.005 C 
ATOM     30  C   UNL A   1      27.538  30.065  23.153  1.00  0.00     0.005 C 
ENDBRANCH  19  21
ENDBRANCH   9  19
ENDBRANCH   7   8
ENDBRANCH   5   7
ENDBRANCH   2   3
ENDBRANCH   1   2
BRANCH   1  31
ATOM     31  C   UNL A   1      34.866  29.402  27.689  1.00  0.00     0.118 C 
BRANCH  31  32
ATOM     32  N   UNL A   1      35.086  30.363  28.766  1.00  0.00    -0.352 N 
ATOM     33  C   UNL A   1      36.237  30.634  29.471  1.00  0.00     0.251 C 
ATOM     34  H   UNL A   1      34.299  30.894  29.024  1.00  0.00     0.163 HD
ATOM     35  O   UNL A   1      36.210  31.417  30.417  1.00  0.00    -0.269 OA
BRANCH  33  36
ATOM     36  C   UNL A   1      37.493  29.944  29.111  1.00  0.00     0.039 A 
ATOM     37  C   UNL A   1      38.301  29.375  30.098  1.00  0.00     0.014 A 
ATOM     38  C   UNL A   1      37.893  29.920  27.772  1.00  0.00     0.014 A 
ATOM     39  C   UNL A   1      39.584  28.948  29.772  1.00  0.00     0.010 A 
ATOM     40  C   UNL A   1      39.155  29.423  27.437  1.00  0.00     0.010 A 
ATOM     41  C   UNL A   1      40.034  28.988  28.442  1.00  0.00    -0.014 A 
BRANCH  41  42
ATOM     42  C   UNL A   1      41.438  28.617  28.128  1.00  0.00     0.031 A 
ATOM     43  C   UNL A   1      42.538  29.642  28.234  1.00  0.00     0.074 A 
ATOM     44  C   UNL A   1      41.733  27.344  27.804  1.00  0.00     0.049 A 
ATOM     45  N   UNL A   1      43.813  29.513  27.972  1.00  0.00    -0.248 NA
ATOM     46  C   UNL A   1      42.155  30.988  28.692  1.00  0.00     0.031 C 
ATOM     47  C   UNL A   1      40.762  26.254  27.699  1.00  0.00     0.029 A 
ATOM     48  N   UNL A   1      42.936  26.748  27.528  1.00  0.00    -0.354 N 
ATOM     49  C   UNL A   1      44.382  30.759  28.211  1.00  0.00     0.074 A 
ATOM     50  C   UNL A   1      43.309  31.640  28.621  1.00  0.00     0.031 C 
ATOM     51  C   UNL A   1      41.413  25.113  27.427  1.00  0.00     0.029 A 
ATOM     52  C   UNL A   1      42.837  25.399  27.281  1.00  0.00     0.049 A 
ATOM     53  H   UNL A   1      43.790  27.238  27.508  1.00  0.00     0.167 HD
ATOM     54  C   UNL A   1      45.680  31.133  28.107  1.00  0.00     0.037 A 
ATOM     55  C   UNL A   1      43.783  24.497  26.960  1.00  0.00     0.037 A 
ATOM     56  C   UNL A   1      46.751  30.250  27.725  1.00  0.00     0.049 A 
ATOM     57  C   UNL A   1      45.209  24.942  26.824  1.00  0.00     0.074 A 
ATOM     58  C   UNL A   1      48.098  30.539  27.584  1.00  0.00     0.029 A 
ATOM     59  N   UNL A   1      46.601  28.902  27.437  1.00  0.00    -0.354 N 
ATOM     60  N   UNL A   1      45.719  26.136  27.007  1.00  0.00    -0.248 NA
ATOM     61  C   UNL A   1      46.187  23.920  26.425  1.00  0.00     0.031 C 
ATOM     62  C   UNL A   1      48.758  29.370  27.189  1.00  0.00     0.029 A 
ATOM     63  C   UNL A   1      47.828  28.346  27.115  1.00  0.00     0.049 A 
ATOM     64  H   UNL A   1      45.747  28.412  27.459  1.00  0.00     0.167 HD
ATOM     65  C   UNL A   1      47.078  26.011  26.747  1.00  0.00     0.074 A 
ATOM     66  C   UNL A   1      47.314  24.620  26.414  1.00  0.00     0.031 C 
ATOM     67  C   UNL A   1      48.043  26.963  26.776  1.00  0.00     0.037 A 
BRANCH  54  68
ATOM     68  C   UNL A   1      46.016  32.568  28.400  1.00  0.00     0.058 A 
ATOM     69  C   UNL A   1      46.329  33.001  29.698  1.00  0.00     0.135 A 
ATOM     70  C   UNL A   1      46.069  33.514  27.363  1.00  0.00     0.135 A 
ATOM     71  F   UNL A   1      46.276  32.141  30.728  1.00  0.00    -0.206 F 
ATOM     72  C   UNL A   1      46.669  34.324  29.962  1.00  0.00     0.059 A 
ATOM     73  C   UNL A   1      46.424  34.839  27.600  1.00  0.00     0.059 A 
ATOM     74  F   UNL A   1      45.775  33.153  26.105  1.00  0.00    -0.206 F 
ATOM     75  C   UNL A   1      46.713  35.237  28.905  1.00  0.00     0.060 A 
BRANCH  75  76
ATOM     76  S   UNL A   1      47.163  36.949  29.259  1.00  0.00     0.124 S 
ATOM     77  O   UNL A   1      45.851  37.570  29.406  1.00  0.00    -0.237 OA
ATOM     78  O   UNL A   1      47.944  36.821  30.485  1.00  0.00    -0.237 OA
ATOM     79  O   UNL A   1      47.920  37.352  28.077  1.00  0.00    -0.744 OA
ENDBRANCH  75  76
ENDBRANCH  54  68
BRANCH  55  80
ATOM     80  C   UNL A   1      43.397  23.079  26.746  1.00  0.00     0.058 A 
ATOM     81  C   UNL A   1      43.387  22.524  25.459  1.00  0.00     0.135 A 
ATOM     82  C   UNL A   1      43.077  22.244  27.826  1.00  0.00     0.135 A 
ATOM     83  F   UNL A   1      43.678  23.288  24.396  1.00  0.00    -0.206 F 
ATOM     84  C   UNL A   1      43.078  21.185  25.249  1.00  0.00     0.059 A 
ATOM     85  C   UNL A   1      42.786  20.896  27.644  1.00  0.00     0.059 A 
ATOM     86  F   UNL A   1      43.087  22.728  29.078  1.00  0.00    -0.206 F 
ATOM     87  C   UNL A   1      42.785  20.377  26.350  1.00  0.00     0.060 A 
BRANCH  87  88
ATOM     88  S   UNL A   1      42.470  18.620  26.079  1.00  0.00     0.124 S 
ATOM     89  O   UNL A   1      43.359  18.331  24.960  1.00  0.00    -0.237 OA
ATOM     90  O   UNL A   1      42.846  18.035  27.362  1.00  0.00    -0.237 OA
ATOM     91  O   UNL A   1      41.041  18.580  25.778  1.00  0.00    -0.744 OA
ENDBRANCH  87  88
ENDBRANCH  55  80
BRANCH  67  92
ATOM     92  C   UNL A   1      49.441  26.529  26.445  1.00  0.00     0.058 A 
ATOM     93  C   UNL A   1      50.251  25.892  27.397  1.00  0.00     0.135 A 
ATOM     94  C   UNL A   1      49.963  26.725  25.158  1.00  0.00     0.135 A 
ATOM     95  F   UNL A   1      49.797  25.687  28.643  1.00  0.00    -0.206 F 
ATOM     96  C   UNL A   1      51.544  25.483  27.089  1.00  0.00     0.059 A 
ATOM     97  C   UNL A   1      51.248  26.308  24.822  1.00  0.00     0.059 A 
ATOM     98  F   UNL A   1      49.223  27.324  24.212  1.00  0.00    -0.206 F 
ATOM     99  C   UNL A   1      52.035  25.698  25.799  1.00  0.00     0.060 A 
BRANCH  99 100
ATOM    100  S   UNL A   1      53.709  25.151  25.406  1.00  0.00     0.124 S 
ATOM    101  O   UNL A   1      54.486  25.812  26.449  1.00  0.00    -0.237 OA
ATOM    102  O   UNL A   1      53.602  23.699  25.520  1.00  0.00    -0.237 OA
ATOM    103  O   UNL A   1      53.920  25.652  24.051  1.00  0.00    -0.744 OA
ENDBRANCH  99 100
ENDBRANCH  67  92
ENDBRANCH  41  42
ENDBRANCH  33  36
ENDBRANCH  31  32
ENDBRANCH   1  31
TORSDOF 16
ENDMDL
MODEL 2
REMARK VINA RESULT:     -13.6      2.743      3.378
REMARK SMILES O=C(Cc1c(C(=O)c2cc3c(cn2)CCCC3)[nH]c2cc(Cl)ccc12)NCCCNC(=O)c1ccc(-c2c3nc(c(-c4c(F)cc(S(=O)(=O)[O-])cc4F)c4ccc([nH]4)c(-c4c(F)cc(S(=O)(=O)[O-])cc4F)c4nc(c(-c5c(F)cc(S(=O)(=O)[O-])cc5F)c5ccc2[nH]5)C=C4)C=C3)cc1
REMARK SMILES IDX 28 1 27 2 26 3 1 4 2 5 3 7 4 8 5 9 25 10 18 11 19 12 24 13
REMARK SMILES IDX 20 15 23 16 21 17 22 18 6 19 7 20 8 21 9 22 13 23 10 24
REMARK SMILES IDX 12 25 11 26 17 27 14 28 16 29 15 30 29 31 30 32 31 33 32 35
REMARK SMILES IDX 33 36 34 37 98 38 35 39 97 40 36 41 37 42 38 43 91 44 39 45
REMARK SMILES IDX 96 46 90 47 92 48 40 49 95 50 89 51 88 52 41 54 75 55 54 56
REMARK SMILES IDX 74 57 55 58 58 59 73 60 93 61 56 62 57 63 72 65 94 66 59 67
REMARK SMILES IDX 42 68 43 69 52 70 44 71 45 72 51 73 53 74 46 75 47 76 48 77
REMARK SMILES IDX 49 78 50 79 76 80 77 81 86 82 78 83 79 84 85 85 87 86 80 87
REMARK SMILES IDX 81 88 82 89 83 90 84 91 60 92 61 93 70 94 62 95 63 96 69 97
REMARK SMILES IDX 71 98 64 99 65 100 66 101 67 102 68 103
REMARK H PARENT 26 6 18 14 30 34 92 53 58 64
REMARK Flexibility Score: inf
ROOT
ATOM      1  C   UNL A   1      31.864  28.180  27.669  1.00  0.00     0.042 C 
ENDROOT
BRANCH   1   2
ATOM      2  C   UNL A   1      31.372  27.302  26.529  1.00  0.00     0.117 C 
BRANCH   2   3
ATOM      3  N   UNL A   1      32.436  26.522  25.931  1.00  0.00    -0.356 N 
ATOM      4  O   UNL A   1      31.856  24.518  26.891  1.00  0.00    -0.275 OA
ATOM      5  C   UNL A   1      32.561  25.160  26.120  1.00  0.00     0.224 C 
ATOM      6  H   UNL A   1      33.098  26.982  25.366  1.00  0.00     0.163 HD
BRANCH   5   7
ATOM      7  C   UNL A   1      33.652  24.514  25.284  1.00  0.00     0.138 C 
BRANCH   7   8
ATOM      8  C   UNL A   1      33.146  23.697  24.113  1.00  0.00    -0.002 A 
ATOM      9  C   UNL A   1      32.715  24.226  22.891  1.00  0.00     0.093 A 
ATOM     10  C   UNL A   1      33.036  22.263  24.018  1.00  0.00     0.004 A 
ATOM     11  N   UNL A   1      32.360  23.157  22.098  1.00  0.00    -0.351 N 
ATOM     12  C   UNL A   1      32.488  21.970  22.772  1.00  0.00     0.048 A 
ATOM     13  C   UNL A   1      33.334  21.178  24.876  1.00  0.00     0.012 A 
ATOM     14  H   UNL A   1      32.054  23.236  21.166  1.00  0.00     0.167 HD
ATOM     15  C   UNL A   1      32.180  20.667  22.357  1.00  0.00     0.047 A 
ATOM     16  C   UNL A   1      33.022  19.869  24.488  1.00  0.00     0.021 A 
ATOM     17  C   UNL A   1      32.447  19.625  23.249  1.00  0.00     0.043 A 
ATOM     18  Cl  UNL A   1      32.063  18.009  22.793  1.00  0.00    -0.084 Cl
BRANCH   9  19
ATOM     19  C   UNL A   1      32.674  25.628  22.471  1.00  0.00     0.227 C 
ATOM     20  O   UNL A   1      33.630  26.208  21.962  1.00  0.00    -0.285 OA
BRANCH  19  21
ATOM     21  C   UNL A   1      31.414  26.402  22.669  1.00  0.00     0.113 A 
ATOM     22  C   UNL A   1      31.289  27.688  22.150  1.00  0.00     0.036 A 
ATOM     23  N   UNL A   1      30.447  25.785  23.390  1.00  0.00    -0.252 NA
ATOM     24  C   UNL A   1      30.102  28.391  22.384  1.00  0.00    -0.041 A 
ATOM     25  C   UNL A   1      29.302  26.473  23.581  1.00  0.00     0.115 A 
ATOM     26  C   UNL A   1      29.083  27.771  23.124  1.00  0.00    -0.026 A 
ATOM     27  C   UNL A   1      29.963  29.810  21.894  1.00  0.00     0.036 C 
ATOM     28  C   UNL A   1      27.755  28.436  23.367  1.00  0.00     0.037 C 
ATOM     29  C   UNL A   1      28.517  30.306  21.881  1.00  0.00     0.005 C 
ATOM     30  C   UNL A   1      27.811  29.952  23.184  1.00  0.00     0.005 C 
ENDBRANCH  19  21
ENDBRANCH   9  19
ENDBRANCH   7   8
ENDBRANCH   5   7
ENDBRANCH   2   3
ENDBRANCH   1   2
BRANCH   1  31
ATOM     31  C   UNL A   1      33.261  28.753  27.461  1.00  0.00     0.118 C 
BRANCH  31  32
ATOM     32  N   UNL A   1      33.353  30.186  27.722  1.00  0.00    -0.352 N 
ATOM     33  C   UNL A   1      34.430  30.928  28.150  1.00  0.00     0.251 C 
ATOM     34  H   UNL A   1      32.525  30.695  27.569  1.00  0.00     0.163 HD
ATOM     35  O   UNL A   1      34.293  32.120  28.409  1.00  0.00    -0.269 OA
BRANCH  33  36
ATOM     36  C   UNL A   1      35.740  30.270  28.337  1.00  0.00     0.039 A 
ATOM     37  C   UNL A   1      36.090  29.719  29.572  1.00  0.00     0.014 A 
ATOM     38  C   UNL A   1      36.651  30.259  27.277  1.00  0.00     0.014 A 
ATOM     39  C   UNL A   1      37.404  29.325  29.799  1.00  0.00     0.010 A 
ATOM     40  C   UNL A   1      37.951  29.795  27.488  1.00  0.00     0.010 A 
ATOM     41  C   UNL A   1      38.355  29.379  28.767  1.00  0.00    -0.014 A 
BRANCH  41  42
ATOM     42  C   UNL A   1      39.775  29.044  29.053  1.00  0.00     0.031 A 
ATOM     43  C   UNL A   1      40.647  30.011  29.811  1.00  0.00     0.074 A 
ATOM     44  C   UNL A   1      40.262  27.845  28.685  1.00  0.00     0.049 A 
ATOM     45  N   UNL A   1      41.912  29.907  30.127  1.00  0.00    -0.248 NA
ATOM     46  C   UNL A   1      40.017  31.260  30.272  1.00  0.00     0.031 C 
ATOM     47  C   UNL A   1      39.509  26.810  27.975  1.00  0.00     0.029 A 
ATOM     48  N   UNL A   1      41.498  27.285  28.878  1.00  0.00    -0.354 N 
ATOM     49  C   UNL A   1      42.236  31.079  30.803  1.00  0.00     0.074 A 
ATOM     50  C   UNL A   1      41.039  31.892  30.834  1.00  0.00     0.031 C 
ATOM     51  C   UNL A   1      40.284  25.724  27.832  1.00  0.00     0.029 A 
ATOM     52  C   UNL A   1      41.604  26.005  28.387  1.00  0.00     0.049 A 
ATOM     53  H   UNL A   1      42.240  27.754  29.324  1.00  0.00     0.167 HD
ATOM     54  C   UNL A   1      43.420  31.441  31.353  1.00  0.00     0.037 A 
ATOM     55  C   UNL A   1      42.650  25.157  28.374  1.00  0.00     0.037 A 
ATOM     56  C   UNL A   1      44.604  30.621  31.345  1.00  0.00     0.049 A 
ATOM     57  C   UNL A   1      43.958  25.592  28.966  1.00  0.00     0.074 A 
ATOM     58  C   UNL A   1      45.853  30.904  31.871  1.00  0.00     0.029 A 
ATOM     59  N   UNL A   1      44.682  29.350  30.797  1.00  0.00    -0.354 N 
ATOM     60  N   UNL A   1      44.258  26.723  29.556  1.00  0.00    -0.248 NA
ATOM     61  C   UNL A   1      45.074  24.640  28.877  1.00  0.00     0.031 C 
ATOM     62  C   UNL A   1      46.693  29.813  31.620  1.00  0.00     0.029 A 
ATOM     63  C   UNL A   1      45.957  28.837  30.966  1.00  0.00     0.049 A 
ATOM     64  H   UNL A   1      43.939  28.880  30.352  1.00  0.00     0.167 HD
ATOM     65  C   UNL A   1      45.597  26.621  29.913  1.00  0.00     0.074 A 
ATOM     66  C   UNL A   1      46.044  25.309  29.489  1.00  0.00     0.031 C 
ATOM     67  C   UNL A   1      46.387  27.534  30.530  1.00  0.00     0.037 A 
BRANCH  54  68
ATOM     68  C   UNL A   1      43.501  32.793  32.004  1.00  0.00     0.058 A 
ATOM     69  C   UNL A   1      43.718  33.959  31.253  1.00  0.00     0.135 A 
ATOM     70  C   UNL A   1      43.313  32.930  33.389  1.00  0.00     0.135 A 
ATOM     71  F   UNL A   1      43.922  33.881  29.928  1.00  0.00    -0.206 F 
ATOM     72  C   UNL A   1      43.762  35.213  31.854  1.00  0.00     0.059 A 
ATOM     73  C   UNL A   1      43.334  34.176  34.009  1.00  0.00     0.059 A 
ATOM     74  F   UNL A   1      43.104  31.847  34.152  1.00  0.00    -0.206 F 
ATOM     75  C   UNL A   1      43.570  35.312  33.234  1.00  0.00     0.060 A 
BRANCH  75  76
ATOM     76  S   UNL A   1      43.621  36.946  34.000  1.00  0.00     0.124 S 
ATOM     77  O   UNL A   1      42.249  37.085  34.479  1.00  0.00    -0.237 OA
ATOM     78  O   UNL A   1      44.638  36.777  35.031  1.00  0.00    -0.237 OA
ATOM     79  O   UNL A   1      43.992  37.827  32.896  1.00  0.00    -0.744 OA
ENDBRANCH  75  76
ENDBRANCH  54  68
BRANCH  55  80
ATOM     80  C   UNL A   1      42.489  23.809  27.773  1.00  0.00     0.058 A 
ATOM     81  C   UNL A   1      42.544  23.630  26.384  1.00  0.00     0.135 A 
ATOM     82  C   UNL A   1      42.324  22.672  28.578  1.00  0.00     0.135 A 
ATOM     83  F   UNL A   1      42.692  24.691  25.576  1.00  0.00    -0.206 F 
ATOM     84  C   UNL A   1      42.447  22.367  25.811  1.00  0.00     0.059 A 
ATOM     85  C   UNL A   1      42.246  21.396  28.030  1.00  0.00     0.059 A 
ATOM     86  F   UNL A   1      42.279  22.793  29.914  1.00  0.00    -0.206 F 
ATOM     87  C   UNL A   1      42.305  21.255  26.643  1.00  0.00     0.060 A 
BRANCH  87  88
ATOM     88  S   UNL A   1      42.266  19.611  25.897  1.00  0.00     0.124 S 
ATOM     89  O   UNL A   1      43.264  19.743  24.843  1.00  0.00    -0.237 OA
ATOM     90  O   UNL A   1      42.632  18.752  27.020  1.00  0.00    -0.237 OA
ATOM     91  O   UNL A   1      40.883  19.482  25.447  1.00  0.00    -0.744 OA
ENDBRANCH  87  88
ENDBRANCH  55  80
BRANCH  67  92
ATOM     92  C   UNL A   1      47.812  27.139  30.788  1.00  0.00     0.058 A 
ATOM     93  C   UNL A   1      48.186  26.497  31.977  1.00  0.00     0.135 A 
ATOM     94  C   UNL A   1      48.805  27.380  29.826  1.00  0.00     0.135 A 
ATOM     95  F   UNL A   1      47.272  26.250  32.929  1.00  0.00    -0.206 F 
ATOM     96  C   UNL A   1      49.505  26.125  32.215  1.00  0.00     0.059 A 
ATOM     97  C   UNL A   1      50.127  27.000  30.035  1.00  0.00     0.059 A 
ATOM     98  F   UNL A   1      48.493  27.986  28.670  1.00  0.00    -0.206 F 
ATOM     99  C   UNL A   1      50.470  26.384  31.239  1.00  0.00     0.060 A 
BRANCH  99 100
ATOM    100  S   UNL A   1      52.175  25.884  31.551  1.00  0.00     0.124 S 
ATOM    101  O   UNL A   1      52.794  26.129  30.252  1.00  0.00    -0.237 OA
ATOM    102  O   UNL A   1      52.578  26.787  32.625  1.00  0.00    -0.237 OA
ATOM    103  O   UNL A   1      52.052  24.481  31.935  1.00  0.00    -0.744 OA
ENDBRANCH  99 100
ENDBRANCH  67  92
ENDBRANCH  41  42
ENDBRANCH  33  36
ENDBRANCH  31  32
ENDBRANCH   1  31
TORSDOF 16
ENDMDL
MODEL 3
REMARK VINA RESULT:     -13.5      6.481     12.038
REMARK SMILES O=C(Cc1c(C(=O)c2cc3c(cn2)CCCC3)[nH]c2cc(Cl)ccc12)NCCCNC(=O)c1ccc(-c2c3nc(c(-c4c(F)cc(S(=O)(=O)[O-])cc4F)c4ccc([nH]4)c(-c4c(F)cc(S(=O)(=O)[O-])cc4F)c4nc(c(-c5c(F)cc(S(=O)(=O)[O-])cc5F)c5ccc2[nH]5)C=C4)C=C3)cc1
REMARK SMILES IDX 28 1 27 2 26 3 1 4 2 5 3 7 4 8 5 9 25 10 18 11 19 12 24 13
REMARK SMILES IDX 20 15 23 16 21 17 22 18 6 19 7 20 8 21 9 22 13 23 10 24
REMARK SMILES IDX 12 25 11 26 17 27 14 28 16 29 15 30 29 31 30 32 31 33 32 35
REMARK SMILES IDX 33 36 34 37 98 38 35 39 97 40 36 41 37 42 38 43 91 44 39 45
REMARK SMILES IDX 96 46 90 47 92 48 40 49 95 50 89 51 88 52 41 54 75 55 54 56
REMARK SMILES IDX 74 57 55 58 58 59 73 60 93 61 56 62 57 63 72 65 94 66 59 67
REMARK SMILES IDX 42 68 43 69 52 70 44 71 45 72 51 73 53 74 46 75 47 76 48 77
REMARK SMILES IDX 49 78 50 79 76 80 77 81 86 82 78 83 79 84 85 85 87 86 80 87
REMARK SMILES IDX 81 88 82 89 83 90 84 91 60 92 61 93 70 94 62 95 63 96 69 97
REMARK SMILES IDX 71 98 64 99 65 100 66 101 67 102 68 103
REMARK H PARENT 26 6 18 14 30 34 92 53 58 64
REMARK Flexibility Score: inf
ROOT
ATOM      1  C   UNL A   1      37.740  22.750  25.747  1.00  0.00     0.042 C 
ENDROOT
BRANCH   1   2
ATOM      2  C   UNL A   1      36.664  23.194  24.769  1.00  0.00     0.117 C 
BRANCH   2   3
ATOM      3  N   UNL A   1      35.763  24.173  25.342  1.00  0.00    -0.356 N 
ATOM      4  O   UNL A   1      34.480  24.473  23.461  1.00  0.00    -0.275 OA
ATOM      5  C   UNL A   1      34.693  24.701  24.648  1.00  0.00     0.224 C 
ATOM      6  H   UNL A   1      35.920  24.474  26.266  1.00  0.00     0.163 HD
BRANCH   5   7
ATOM      7  C   UNL A   1      33.789  25.592  25.482  1.00  0.00     0.138 C 
BRANCH   7   8
ATOM      8  C   UNL A   1      32.311  25.435  25.194  1.00  0.00    -0.002 A 
ATOM      9  C   UNL A   1      31.562  24.280  25.447  1.00  0.00     0.093 A 
ATOM     10  C   UNL A   1      31.408  26.415  24.646  1.00  0.00     0.004 A 
ATOM     11  N   UNL A   1      30.267  24.554  25.066  1.00  0.00    -0.351 N 
ATOM     12  C   UNL A   1      30.160  25.810  24.527  1.00  0.00     0.048 A 
ATOM     13  C   UNL A   1      31.529  27.760  24.221  1.00  0.00     0.012 A 
ATOM     14  H   UNL A   1      29.515  23.928  25.168  1.00  0.00     0.167 HD
ATOM     15  C   UNL A   1      29.046  26.453  23.968  1.00  0.00     0.047 A 
ATOM     16  C   UNL A   1      30.434  28.417  23.648  1.00  0.00     0.021 A 
ATOM     17  C   UNL A   1      29.215  27.765  23.520  1.00  0.00     0.043 A 
ATOM     18  Cl  UNL A   1      27.881  28.587  22.805  1.00  0.00    -0.084 Cl
BRANCH   9  19
ATOM     19  C   UNL A   1      32.009  23.018  26.042  1.00  0.00     0.227 C 
ATOM     20  O   UNL A   1      32.283  22.894  27.232  1.00  0.00    -0.285 OA
BRANCH  19  21
ATOM     21  C   UNL A   1      32.145  21.818  25.165  1.00  0.00     0.113 A 
ATOM     22  C   UNL A   1      32.469  20.580  25.713  1.00  0.00     0.036 A 
ATOM     23  N   UNL A   1      31.958  22.028  23.840  1.00  0.00    -0.252 NA
ATOM     24  C   UNL A   1      32.616  19.486  24.854  1.00  0.00    -0.041 A 
ATOM     25  C   UNL A   1      32.080  20.953  23.034  1.00  0.00     0.115 A 
ATOM     26  C   UNL A   1      32.424  19.678  23.477  1.00  0.00    -0.026 A 
ATOM     27  C   UNL A   1      33.034  18.148  25.409  1.00  0.00     0.036 C 
ATOM     28  C   UNL A   1      32.503  18.541  22.494  1.00  0.00     0.037 C 
ATOM     29  C   UNL A   1      32.787  16.989  24.444  1.00  0.00     0.005 C 
ATOM     30  C   UNL A   1      33.272  17.339  23.041  1.00  0.00     0.005 C 
ENDBRANCH  19  21
ENDBRANCH   9  19
ENDBRANCH   7   8
ENDBRANCH   5   7
ENDBRANCH   2   3
ENDBRANCH   1   2
BRANCH   1  31
ATOM     31  C   UNL A   1      38.552  23.892  26.346  1.00  0.00     0.118 C 
BRANCH  31  32
ATOM     32  N   UNL A   1      39.995  23.715  26.221  1.00  0.00    -0.352 N 
ATOM     33  C   UNL A   1      41.017  24.477  26.740  1.00  0.00     0.251 C 
ATOM     34  H   UNL A   1      40.279  22.938  25.688  1.00  0.00     0.163 HD
ATOM     35  O   UNL A   1      42.183  24.227  26.448  1.00  0.00    -0.269 OA
BRANCH  33  36
ATOM     36  C   UNL A   1      40.698  25.623  27.618  1.00  0.00     0.039 A 
ATOM     37  C   UNL A   1      41.469  26.786  27.577  1.00  0.00     0.014 A 
ATOM     38  C   UNL A   1      39.648  25.505  28.532  1.00  0.00     0.014 A 
ATOM     39  C   UNL A   1      41.309  27.750  28.567  1.00  0.00     0.010 A 
ATOM     40  C   UNL A   1      39.441  26.509  29.481  1.00  0.00     0.010 A 
ATOM     41  C   UNL A   1      40.308  27.612  29.543  1.00  0.00    -0.014 A 
BRANCH  41  42
ATOM     42  C   UNL A   1      40.214  28.603  30.647  1.00  0.00     0.031 A 
ATOM     43  C   UNL A   1      41.187  28.557  31.796  1.00  0.00     0.074 A 
ATOM     44  C   UNL A   1      39.290  29.580  30.586  1.00  0.00     0.049 A 
ATOM     45  N   UNL A   1      41.242  29.316  32.861  1.00  0.00    -0.248 NA
ATOM     46  C   UNL A   1      42.235  27.523  31.745  1.00  0.00     0.031 C 
ATOM     47  C   UNL A   1      38.312  29.750  29.510  1.00  0.00     0.029 A 
ATOM     48  N   UNL A   1      39.039  30.627  31.434  1.00  0.00    -0.354 N 
ATOM     49  C   UNL A   1      42.311  28.842  33.615  1.00  0.00     0.074 A 
ATOM     50  C   UNL A   1      42.866  27.715  32.896  1.00  0.00     0.031 C 
ATOM     51  C   UNL A   1      37.597  30.862  29.740  1.00  0.00     0.029 A 
ATOM     52  C   UNL A   1      38.026  31.451  31.005  1.00  0.00     0.049 A 
ATOM     53  H   UNL A   1      39.536  30.775  32.271  1.00  0.00     0.167 HD
ATOM     54  C   UNL A   1      42.790  29.308  34.793  1.00  0.00     0.037 A 
ATOM     55  C   UNL A   1      37.493  32.550  31.571  1.00  0.00     0.037 A 
ATOM     56  C   UNL A   1      42.254  30.445  35.495  1.00  0.00     0.049 A 
ATOM     57  C   UNL A   1      38.023  33.030  32.890  1.00  0.00     0.074 A 
ATOM     58  C   UNL A   1      42.667  30.989  36.699  1.00  0.00     0.029 A 
ATOM     59  N   UNL A   1      41.197  31.224  35.049  1.00  0.00    -0.354 N 
ATOM     60  N   UNL A   1      39.001  32.538  33.611  1.00  0.00    -0.248 NA
ATOM     61  C   UNL A   1      37.367  34.205  33.480  1.00  0.00     0.031 C 
ATOM     62  C   UNL A   1      41.845  32.082  36.992  1.00  0.00     0.029 A 
ATOM     63  C   UNL A   1      40.941  32.239  35.955  1.00  0.00     0.049 A 
ATOM     64  H   UNL A   1      40.702  31.077  34.210  1.00  0.00     0.167 HD
ATOM     65  C   UNL A   1      39.082  33.345  34.739  1.00  0.00     0.074 A 
ATOM     66  C   UNL A   1      38.066  34.368  34.596  1.00  0.00     0.031 C 
ATOM     67  C   UNL A   1      39.919  33.243  35.801  1.00  0.00     0.037 A 
BRANCH  54  68
ATOM     68  C   UNL A   1      43.950  28.578  35.409  1.00  0.00     0.058 A 
ATOM     69  C   UNL A   1      43.759  27.525  36.317  1.00  0.00     0.135 A 
ATOM     70  C   UNL A   1      45.269  28.907  35.053  1.00  0.00     0.135 A 
ATOM     71  F   UNL A   1      42.520  27.183  36.704  1.00  0.00    -0.206 F 
ATOM     72  C   UNL A   1      44.835  26.831  36.863  1.00  0.00     0.059 A 
ATOM     73  C   UNL A   1      46.359  28.215  35.573  1.00  0.00     0.059 A 
ATOM     74  F   UNL A   1      45.506  29.907  34.192  1.00  0.00    -0.206 F 
ATOM     75  C   UNL A   1      46.132  27.184  36.485  1.00  0.00     0.060 A 
BRANCH  75  76
ATOM     76  S   UNL A   1      47.519  26.270  37.194  1.00  0.00     0.124 S 
ATOM     77  O   UNL A   1      47.675  25.186  36.231  1.00  0.00    -0.237 OA
ATOM     78  O   UNL A   1      48.582  27.270  37.202  1.00  0.00    -0.237 OA
ATOM     79  O   UNL A   1      47.026  25.874  38.511  1.00  0.00    -0.744 OA
ENDBRANCH  75  76
ENDBRANCH  54  68
BRANCH  55  80
ATOM     80  C   UNL A   1      36.389  33.265  30.881  1.00  0.00     0.058 A 
ATOM     81  C   UNL A   1      35.082  33.224  31.383  1.00  0.00     0.135 A 
ATOM     82  C   UNL A   1      36.631  34.037  29.735  1.00  0.00     0.135 A 
ATOM     83  F   UNL A   1      34.803  32.491  32.472  1.00  0.00    -0.206 F 
ATOM     84  C   UNL A   1      34.049  33.931  30.777  1.00  0.00     0.059 A 
ATOM     85  C   UNL A   1      35.620  34.770  29.124  1.00  0.00     0.059 A 
ATOM     86  F   UNL A   1      37.871  34.117  29.226  1.00  0.00    -0.206 F 
ATOM     87  C   UNL A   1      34.330  34.707  29.651  1.00  0.00     0.060 A 
BRANCH  87  88
ATOM     88  S   UNL A   1      33.003  35.690  28.920  1.00  0.00     0.124 S 
ATOM     89  O   UNL A   1      32.248  36.089  30.102  1.00  0.00    -0.237 OA
ATOM     90  O   UNL A   1      33.741  36.752  28.243  1.00  0.00    -0.237 OA
ATOM     91  O   UNL A   1      32.335  34.741  28.033  1.00  0.00    -0.744 OA
ENDBRANCH  87  88
ENDBRANCH  55  80
BRANCH  67  92
ATOM     92  C   UNL A   1      39.772  34.270  36.886  1.00  0.00     0.058 A 
ATOM     93  C   UNL A   1      38.975  34.028  38.014  1.00  0.00     0.135 A 
ATOM     94  C   UNL A   1      40.457  35.492  36.810  1.00  0.00     0.135 A 
ATOM     95  F   UNL A   1      38.295  32.876  38.128  1.00  0.00    -0.206 F 
ATOM     96  C   UNL A   1      38.843  34.976  39.024  1.00  0.00     0.059 A 
ATOM     97  C   UNL A   1      40.355  36.447  37.817  1.00  0.00     0.059 A 
ATOM     98  F   UNL A   1      41.238  35.765  35.753  1.00  0.00    -0.206 F 
ATOM     99  C   UNL A   1      39.534  36.184  38.915  1.00  0.00     0.060 A 
BRANCH  99 100
ATOM    100  S   UNL A   1      39.368  37.401  40.237  1.00  0.00     0.124 S 
ATOM    101  O   UNL A   1      38.741  36.607  41.289  1.00  0.00    -0.237 OA
ATOM    102  O   UNL A   1      40.753  37.794  40.480  1.00  0.00    -0.237 OA
ATOM    103  O   UNL A   1      38.526  38.434  39.642  1.00  0.00    -0.744 OA
ENDBRANCH  99 100
ENDBRANCH  67  92
ENDBRANCH  41  42
ENDBRANCH  33  36
ENDBRANCH  31  32
ENDBRANCH   1  31
TORSDOF 16
ENDMDL
