MODEL 1
REMARK VINA RESULT:     -12.7      0.000      0.000
REMARK SMILES CC(C)C(=O)Nc1ccc(NC(=O)[C@@H]2[C@@H](C(=O)NCCCNC(=O)c3ccc(-c4c5nc(c(-c6c(F)cc(S(=O)(=O)[O-])cc6F)c6ccc([nH]6)c(-c6c(F)cc(S(=O)(=O)[O-])cc6F)c6nc(c(-c7c(F)cc(S(=O)(=O)[O-])cc7F)c7ccc4[nH]7)C=C6)C=C5)cc3)C2(C)C)cc1Cl
REMARK SMILES IDX 19 1 18 2 16 3 17 4 15 6 14 7 91 8 92 9 93 10 12 11 11 12
REMARK SMILES IDX 13 14 10 15 7 16 8 17 95 18 9 19 94 20 96 21 6 22 4 23 5 24
REMARK SMILES IDX 2 26 1 27 3 28 20 29 21 30 22 31 23 32 24 34 25 35 26 36
REMARK SMILES IDX 90 37 27 38 89 39 28 40 29 41 30 42 83 43 31 44 88 45 82 46
REMARK SMILES IDX 84 47 32 48 87 49 81 50 80 51 33 53 67 54 46 55 66 56 47 57
REMARK SMILES IDX 50 58 65 59 85 60 48 61 49 62 64 64 86 65 51 66 34 67 35 68
REMARK SMILES IDX 44 69 36 70 37 71 43 72 45 73 38 74 39 75 40 76 41 77 42 78
REMARK SMILES IDX 68 79 69 80 78 81 70 82 71 83 77 84 79 85 72 86 73 87 74 88
REMARK SMILES IDX 75 89 76 90 52 91 53 92 62 93 54 94 55 95 61 96 63 97 56 98
REMARK SMILES IDX 57 99 58 100 59 101 60 102
REMARK H PARENT 18 5 11 13 6 25 22 33 84 52 50 63
REMARK Flexibility Score: inf
ROOT
ATOM      1  C   UNL A   1      33.267  30.457  26.861  1.00  0.00     0.117 C 
ENDROOT
BRANCH   1   2
ATOM      2  N   UNL A   1      32.506  29.474  27.629  1.00  0.00    -0.356 N 
ATOM      3  C   UNL A   1      31.724  28.377  27.347  1.00  0.00     0.224 C 
ATOM      4  O   UNL A   1      31.195  27.823  28.310  1.00  0.00    -0.275 OA
ATOM      5  H   UNL A   1      32.571  29.637  28.598  1.00  0.00     0.163 HD
BRANCH   3   6
ATOM      6  C   UNL A   1      31.487  27.773  25.996  1.00  0.00     0.098 C 
ATOM      7  C   UNL A   1      31.265  26.309  25.771  1.00  0.00     0.098 C 
ATOM      8  C   UNL A   1      32.540  26.990  25.221  1.00  0.00    -0.011 C 
ATOM      9  C   UNL A   1      33.905  26.738  25.814  1.00  0.00     0.013 C 
ATOM     10  C   UNL A   1      32.622  27.192  23.720  1.00  0.00     0.013 C 
BRANCH   7  11
ATOM     11  C   UNL A   1      30.278  25.718  24.835  1.00  0.00     0.228 C 
ATOM     12  N   UNL A   1      30.487  24.429  24.382  1.00  0.00    -0.326 N 
ATOM     13  H   UNL A   1      29.729  24.056  23.876  1.00  0.00     0.169 HD
ATOM     14  O   UNL A   1      29.265  26.329  24.519  1.00  0.00    -0.274 OA
BRANCH  12  15
ATOM     15  C   UNL A   1      31.581  23.544  24.509  1.00  0.00     0.042 A 
ATOM     16  C   UNL A   1      33.605  21.611  24.862  1.00  0.00     0.060 A 
ATOM     17  C   UNL A   1      33.391  22.172  23.612  1.00  0.00     0.030 A 
ATOM     18  C   UNL A   1      32.910  22.118  25.966  1.00  0.00     0.066 A 
ATOM     19  C   UNL A   1      32.368  23.102  23.445  1.00  0.00     0.028 A 
ATOM     20  C   UNL A   1      31.882  23.055  25.783  1.00  0.00     0.048 A 
ATOM     21  Cl  UNL A   1      33.345  21.695  27.584  1.00  0.00    -0.082 Cl
BRANCH  16  22
ATOM     22  N   UNL A   1      34.512  20.551  24.927  1.00  0.00    -0.325 N 
ATOM     23  C   UNL A   1      34.259  19.237  24.645  1.00  0.00     0.226 C 
ATOM     24  O   UNL A   1      35.245  18.509  24.477  1.00  0.00    -0.274 OA
ATOM     25  H   UNL A   1      35.431  20.775  25.204  1.00  0.00     0.169 HD
BRANCH  23  26
ATOM     26  C   UNL A   1      32.851  18.644  24.507  1.00  0.00     0.072 C 
ATOM     27  C   UNL A   1      32.511  18.193  23.095  1.00  0.00     0.018 C 
ATOM     28  C   UNL A   1      32.491  17.584  25.545  1.00  0.00     0.018 C 
ENDBRANCH  23  26
ENDBRANCH  16  22
ENDBRANCH  12  15
ENDBRANCH   7  11
ENDBRANCH   3   6
ENDBRANCH   1   2
BRANCH   1  29
ATOM     29  C   UNL A   1      34.775  30.348  27.055  1.00  0.00     0.042 C 
BRANCH  29  30
ATOM     30  C   UNL A   1      35.189  29.641  28.329  1.00  0.00     0.118 C 
BRANCH  30  31
ATOM     31  N   UNL A   1      35.366  30.565  29.437  1.00  0.00    -0.352 N 
ATOM     32  C   UNL A   1      36.471  30.818  30.215  1.00  0.00     0.251 C 
ATOM     33  H   UNL A   1      34.568  31.093  29.669  1.00  0.00     0.163 HD
ATOM     34  O   UNL A   1      36.335  31.473  31.245  1.00  0.00    -0.269 OA
BRANCH  32  35
ATOM     35  C   UNL A   1      37.806  30.293  29.840  1.00  0.00     0.039 A 
ATOM     36  C   UNL A   1      38.154  30.238  28.487  1.00  0.00     0.014 A 
ATOM     37  C   UNL A   1      38.706  29.826  30.800  1.00  0.00     0.014 A 
ATOM     38  C   UNL A   1      39.419  29.777  28.111  1.00  0.00     0.010 A 
ATOM     39  C   UNL A   1      40.001  29.476  30.435  1.00  0.00     0.010 A 
ATOM     40  C   UNL A   1      40.370  29.428  29.085  1.00  0.00    -0.014 A 
BRANCH  40  41
ATOM     41  C   UNL A   1      41.743  29.001  28.707  1.00  0.00     0.031 A 
ATOM     42  C   UNL A   1      42.866  30.003  28.651  1.00  0.00     0.074 A 
ATOM     43  C   UNL A   1      41.967  27.721  28.348  1.00  0.00     0.049 A 
ATOM     44  N   UNL A   1      44.116  29.826  28.306  1.00  0.00    -0.248 NA
ATOM     45  C   UNL A   1      42.533  31.395  28.996  1.00  0.00     0.031 C 
ATOM     46  C   UNL A   1      40.949  26.670  28.291  1.00  0.00     0.029 A 
ATOM     47  N   UNL A   1      43.118  27.088  27.952  1.00  0.00    -0.354 N 
ATOM     48  C   UNL A   1      44.710  31.082  28.371  1.00  0.00     0.074 A 
ATOM     49  C   UNL A   1      43.670  32.020  28.730  1.00  0.00     0.031 C 
ATOM     50  C   UNL A   1      41.524  25.521  27.905  1.00  0.00     0.029 A 
ATOM     51  C   UNL A   1      42.941  25.760  27.647  1.00  0.00     0.049 A 
ATOM     52  H   UNL A   1      43.989  27.543  27.890  1.00  0.00     0.167 HD
ATOM     53  C   UNL A   1      46.008  31.419  28.171  1.00  0.00     0.037 A 
ATOM     54  C   UNL A   1      43.813  24.837  27.198  1.00  0.00     0.037 A 
ATOM     55  C   UNL A   1      47.039  30.473  27.832  1.00  0.00     0.049 A 
ATOM     56  C   UNL A   1      45.253  25.223  27.003  1.00  0.00     0.074 A 
ATOM     57  C   UNL A   1      48.398  30.695  27.696  1.00  0.00     0.029 A 
ATOM     58  N   UNL A   1      46.826  29.128  27.561  1.00  0.00    -0.354 N 
ATOM     59  N   UNL A   1      45.819  26.396  27.165  1.00  0.00    -0.248 NA
ATOM     60  C   UNL A   1      46.174  24.164  26.575  1.00  0.00     0.031 C 
ATOM     61  C   UNL A   1      48.996  29.501  27.278  1.00  0.00     0.029 A 
ATOM     62  C   UNL A   1      48.022  28.518  27.218  1.00  0.00     0.049 A 
ATOM     63  H   UNL A   1      45.954  28.676  27.605  1.00  0.00     0.167 HD
ATOM     64  C   UNL A   1      47.166  26.213  26.872  1.00  0.00     0.074 A 
ATOM     65  C   UNL A   1      47.331  24.810  26.544  1.00  0.00     0.031 C 
ATOM     66  C   UNL A   1      48.172  27.123  26.875  1.00  0.00     0.037 A 
BRANCH  53  67
ATOM     67  C   UNL A   1      46.375  32.876  28.296  1.00  0.00     0.058 A 
ATOM     68  C   UNL A   1      46.790  33.441  29.513  1.00  0.00     0.135 A 
ATOM     69  C   UNL A   1      46.310  33.723  27.176  1.00  0.00     0.135 A 
ATOM     70  F   UNL A   1      46.862  32.685  30.621  1.00  0.00    -0.206 F 
ATOM     71  C   UNL A   1      47.075  34.799  29.629  1.00  0.00     0.059 A 
ATOM     72  C   UNL A   1      46.625  35.076  27.260  1.00  0.00     0.059 A 
ATOM     73  F   UNL A   1      45.925  33.240  25.984  1.00  0.00    -0.206 F 
ATOM     74  C   UNL A   1      46.982  35.609  28.498  1.00  0.00     0.060 A 
BRANCH  74  75
ATOM     75  S   UNL A   1      47.323  37.373  28.670  1.00  0.00     0.124 S 
ATOM     76  O   UNL A   1      46.203  37.958  27.938  1.00  0.00    -0.237 OA
ATOM     77  O   UNL A   1      47.298  37.556  30.117  1.00  0.00    -0.237 OA
ATOM     78  O   UNL A   1      48.632  37.531  28.043  1.00  0.00    -0.744 OA
ENDBRANCH  74  75
ENDBRANCH  53  67
BRANCH  54  79
ATOM     79  C   UNL A   1      43.335  23.456  26.920  1.00  0.00     0.058 A 
ATOM     80  C   UNL A   1      43.141  23.003  25.608  1.00  0.00     0.135 A 
ATOM     81  C   UNL A   1      43.125  22.542  27.965  1.00  0.00     0.135 A 
ATOM     82  F   UNL A   1      43.321  23.840  24.575  1.00  0.00    -0.206 F 
ATOM     83  C   UNL A   1      42.761  21.692  25.339  1.00  0.00     0.059 A 
ATOM     84  C   UNL A   1      42.771  21.219  27.721  1.00  0.00     0.059 A 
ATOM     85  F   UNL A   1      43.314  22.923  29.239  1.00  0.00    -0.206 F 
ATOM     86  C   UNL A   1      42.590  20.803  26.403  1.00  0.00     0.060 A 
BRANCH  86  87
ATOM     87  S   UNL A   1      42.188  19.080  26.039  1.00  0.00     0.124 S 
ATOM     88  O   UNL A   1      40.747  19.152  25.830  1.00  0.00    -0.237 OA
ATOM     89  O   UNL A   1      42.995  18.825  24.850  1.00  0.00    -0.237 OA
ATOM     90  O   UNL A   1      42.616  18.374  27.243  1.00  0.00    -0.744 OA
ENDBRANCH  86  87
ENDBRANCH  54  79
BRANCH  66  91
ATOM     91  C   UNL A   1      49.550  26.631  26.522  1.00  0.00     0.058 A 
ATOM     92  C   UNL A   1      50.364  25.974  27.460  1.00  0.00     0.135 A 
ATOM     93  C   UNL A   1      50.048  26.783  25.217  1.00  0.00     0.135 A 
ATOM     94  F   UNL A   1      49.941  25.806  28.722  1.00  0.00    -0.206 F 
ATOM     95  C   UNL A   1      51.633  25.512  27.124  1.00  0.00     0.059 A 
ATOM     96  C   UNL A   1      51.301  26.300  24.851  1.00  0.00     0.059 A 
ATOM     97  F   UNL A   1      49.309  27.392  24.277  1.00  0.00    -0.206 F 
ATOM     98  C   UNL A   1      52.093  25.679  25.816  1.00  0.00     0.060 A 
BRANCH  98  99
ATOM     99  S   UNL A   1      53.734  25.059  25.390  1.00  0.00     0.124 S 
ATOM    100  O   UNL A   1      53.507  23.618  25.371  1.00  0.00    -0.237 OA
ATOM    101  O   UNL A   1      53.973  25.680  24.090  1.00  0.00    -0.237 OA
ATOM    102  O   UNL A   1      54.576  25.548  26.476  1.00  0.00    -0.744 OA
ENDBRANCH  98  99
ENDBRANCH  66  91
ENDBRANCH  40  41
ENDBRANCH  32  35
ENDBRANCH  30  31
ENDBRANCH  29  30
ENDBRANCH   1  29
TORSDOF 17
ENDMDL
MODEL 2
REMARK VINA RESULT:     -12.6      6.541     12.165
REMARK SMILES CC(C)C(=O)Nc1ccc(NC(=O)[C@@H]2[C@@H](C(=O)NCCCNC(=O)c3ccc(-c4c5nc(c(-c6c(F)cc(S(=O)(=O)[O-])cc6F)c6ccc([nH]6)c(-c6c(F)cc(S(=O)(=O)[O-])cc6F)c6nc(c(-c7c(F)cc(S(=O)(=O)[O-])cc7F)c7ccc4[nH]7)C=C6)C=C5)cc3)C2(C)C)cc1Cl
REMARK SMILES IDX 19 1 18 2 16 3 17 4 15 6 14 7 91 8 92 9 93 10 12 11 11 12
REMARK SMILES IDX 13 14 10 15 7 16 8 17 95 18 9 19 94 20 96 21 6 22 4 23 5 24
REMARK SMILES IDX 2 26 1 27 3 28 20 29 21 30 22 31 23 32 24 34 25 35 26 36
REMARK SMILES IDX 90 37 27 38 89 39 28 40 29 41 30 42 83 43 31 44 88 45 82 46
REMARK SMILES IDX 84 47 32 48 87 49 81 50 80 51 33 53 67 54 46 55 66 56 47 57
REMARK SMILES IDX 50 58 65 59 85 60 48 61 49 62 64 64 86 65 51 66 34 67 35 68
REMARK SMILES IDX 44 69 36 70 37 71 43 72 45 73 38 74 39 75 40 76 41 77 42 78
REMARK SMILES IDX 68 79 69 80 78 81 70 82 71 83 77 84 79 85 72 86 73 87 74 88
REMARK SMILES IDX 75 89 76 90 52 91 53 92 62 93 54 94 55 95 61 96 63 97 56 98
REMARK SMILES IDX 57 99 58 100 59 101 60 102
REMARK H PARENT 18 5 11 13 6 25 22 33 84 52 50 63
REMARK Flexibility Score: inf
ROOT
ATOM      1  C   UNL A   1      37.518  22.299  25.866  1.00  0.00     0.117 C 
ENDROOT
BRANCH   1   2
ATOM      2  N   UNL A   1      37.376  22.609  24.445  1.00  0.00    -0.356 N 
ATOM      3  C   UNL A   1      36.338  22.717  23.547  1.00  0.00     0.224 C 
ATOM      4  O   UNL A   1      36.650  22.953  22.380  1.00  0.00    -0.275 OA
ATOM      5  H   UNL A   1      38.246  22.788  24.020  1.00  0.00     0.163 HD
BRANCH   3   6
ATOM      6  C   UNL A   1      34.876  22.615  23.856  1.00  0.00     0.098 C 
ATOM      7  C   UNL A   1      33.831  23.476  23.215  1.00  0.00     0.098 C 
ATOM      8  C   UNL A   1      34.122  23.611  24.728  1.00  0.00    -0.011 C 
ATOM      9  C   UNL A   1      34.825  24.814  25.308  1.00  0.00     0.013 C 
ATOM     10  C   UNL A   1      33.072  23.076  25.683  1.00  0.00     0.013 C 
BRANCH   7  11
ATOM     11  C   UNL A   1      32.498  23.021  22.754  1.00  0.00     0.228 C 
ATOM     12  N   UNL A   1      31.470  23.943  22.688  1.00  0.00    -0.326 N 
ATOM     13  H   UNL A   1      30.657  23.604  22.249  1.00  0.00     0.169 HD
ATOM     14  O   UNL A   1      32.321  21.869  22.376  1.00  0.00    -0.274 OA
BRANCH  12  15
ATOM     15  C   UNL A   1      31.367  25.281  23.130  1.00  0.00     0.042 A 
ATOM     16  C   UNL A   1      31.123  28.017  23.773  1.00  0.00     0.060 A 
ATOM     17  C   UNL A   1      30.322  27.080  24.408  1.00  0.00     0.030 A 
ATOM     18  C   UNL A   1      32.147  27.577  22.925  1.00  0.00     0.066 A 
ATOM     19  C   UNL A   1      30.431  25.737  24.059  1.00  0.00     0.028 A 
ATOM     20  C   UNL A   1      32.245  26.220  22.582  1.00  0.00     0.048 A 
ATOM     21  Cl  UNL A   1      33.373  28.650  22.352  1.00  0.00    -0.082 Cl
BRANCH  16  22
ATOM     22  N   UNL A   1      30.838  29.361  24.025  1.00  0.00    -0.325 N 
ATOM     23  C   UNL A   1      29.744  30.061  23.594  1.00  0.00     0.226 C 
ATOM     24  O   UNL A   1      29.525  31.141  24.156  1.00  0.00    -0.274 OA
ATOM     25  H   UNL A   1      31.493  29.855  24.569  1.00  0.00     0.169 HD
BRANCH  23  26
ATOM     26  C   UNL A   1      28.790  29.574  22.497  1.00  0.00     0.072 C 
ATOM     27  C   UNL A   1      27.402  29.219  23.004  1.00  0.00     0.018 C 
ATOM     28  C   UNL A   1      28.732  30.456  21.253  1.00  0.00     0.018 C 
ENDBRANCH  23  26
ENDBRANCH  16  22
ENDBRANCH  12  15
ENDBRANCH   7  11
ENDBRANCH   3   6
ENDBRANCH   1   2
BRANCH   1  29
ATOM     29  C   UNL A   1      38.967  22.148  26.315  1.00  0.00     0.042 C 
BRANCH  29  30
ATOM     30  C   UNL A   1      39.584  23.417  26.864  1.00  0.00     0.118 C 
BRANCH  30  31
ATOM     31  N   UNL A   1      40.760  23.826  26.113  1.00  0.00    -0.352 N 
ATOM     32  C   UNL A   1      41.544  24.949  26.233  1.00  0.00     0.251 C 
ATOM     33  H   UNL A   1      41.038  23.201  25.406  1.00  0.00     0.163 HD
ATOM     34  O   UNL A   1      42.353  25.206  25.345  1.00  0.00    -0.269 OA
BRANCH  32  35
ATOM     35  C   UNL A   1      41.407  25.856  27.399  1.00  0.00     0.039 A 
ATOM     36  C   UNL A   1      42.297  26.926  27.529  1.00  0.00     0.014 A 
ATOM     37  C   UNL A   1      40.435  25.647  28.379  1.00  0.00     0.014 A 
ATOM     38  C   UNL A   1      42.168  27.813  28.601  1.00  0.00     0.010 A 
ATOM     39  C   UNL A   1      40.237  26.592  29.381  1.00  0.00     0.010 A 
ATOM     40  C   UNL A   1      41.111  27.677  29.517  1.00  0.00    -0.014 A 
BRANCH  40  41
ATOM     41  C   UNL A   1      40.917  28.650  30.624  1.00  0.00     0.031 A 
ATOM     42  C   UNL A   1      41.733  28.543  31.887  1.00  0.00     0.074 A 
ATOM     43  C   UNL A   1      39.960  29.592  30.521  1.00  0.00     0.049 A 
ATOM     44  N   UNL A   1      41.677  29.273  32.971  1.00  0.00    -0.248 NA
ATOM     45  C   UNL A   1      42.717  27.451  31.952  1.00  0.00     0.031 C 
ATOM     46  C   UNL A   1      39.055  29.756  29.382  1.00  0.00     0.029 A 
ATOM     47  N   UNL A   1      39.577  30.582  31.392  1.00  0.00    -0.354 N 
ATOM     48  C   UNL A   1      42.599  28.718  33.852  1.00  0.00     0.074 A 
ATOM     49  C   UNL A   1      43.156  27.554  33.197  1.00  0.00     0.031 C 
ATOM     50  C   UNL A   1      38.239  30.795  29.613  1.00  0.00     0.029 A 
ATOM     51  C   UNL A   1      38.531  31.347  30.933  1.00  0.00     0.049 A 
ATOM     52  H   UNL A   1      40.009  30.729  32.264  1.00  0.00     0.167 HD
ATOM     53  C   UNL A   1      42.964  29.149  35.084  1.00  0.00     0.037 A 
ATOM     54  C   UNL A   1      37.871  32.370  31.509  1.00  0.00     0.037 A 
ATOM     55  C   UNL A   1      42.416  30.320  35.718  1.00  0.00     0.049 A 
ATOM     56  C   UNL A   1      38.304  32.849  32.867  1.00  0.00     0.074 A 
ATOM     57  C   UNL A   1      42.780  30.894  36.924  1.00  0.00     0.029 A 
ATOM     58  N   UNL A   1      41.379  31.088  35.208  1.00  0.00    -0.354 N 
ATOM     59  N   UNL A   1      39.247  32.372  33.646  1.00  0.00    -0.248 NA
ATOM     60  C   UNL A   1      37.594  34.008  33.420  1.00  0.00     0.031 C 
ATOM     61  C   UNL A   1      41.919  31.968  37.173  1.00  0.00     0.029 A 
ATOM     62  C   UNL A   1      41.062  32.107  36.093  1.00  0.00     0.049 A 
ATOM     63  H   UNL A   1      40.933  30.932  34.345  1.00  0.00     0.167 HD
ATOM     64  C   UNL A   1      39.252  33.181  34.776  1.00  0.00     0.074 A 
ATOM     65  C   UNL A   1      38.233  34.191  34.568  1.00  0.00     0.031 C 
ATOM     66  C   UNL A   1      40.031  33.096  35.884  1.00  0.00     0.037 A 
BRANCH  53  67
ATOM     67  C   UNL A   1      43.991  28.335  35.830  1.00  0.00     0.058 A 
ATOM     68  C   UNL A   1      43.629  27.314  36.725  1.00  0.00     0.135 A 
ATOM     69  C   UNL A   1      45.362  28.581  35.645  1.00  0.00     0.135 A 
ATOM     70  F   UNL A   1      42.334  27.040  36.951  1.00  0.00    -0.206 F 
ATOM     71  C   UNL A   1      44.583  26.606  37.449  1.00  0.00     0.059 A 
ATOM     72  C   UNL A   1      46.335  27.860  36.331  1.00  0.00     0.059 A 
ATOM     73  F   UNL A   1      45.770  29.540  34.799  1.00  0.00    -0.206 F 
ATOM     74  C   UNL A   1      45.934  26.891  37.250  1.00  0.00     0.060 A 
BRANCH  74  75
ATOM     75  S   UNL A   1      47.159  25.985  38.219  1.00  0.00     0.124 S 
ATOM     76  O   UNL A   1      47.468  26.951  39.270  1.00  0.00    -0.237 OA
ATOM     77  O   UNL A   1      46.411  24.807  38.643  1.00  0.00    -0.237 OA
ATOM     78  O   UNL A   1      48.233  25.735  37.263  1.00  0.00    -0.744 OA
ENDBRANCH  74  75
ENDBRANCH  53  67
BRANCH  54  79
ATOM     79  C   UNL A   1      36.741  33.009  30.783  1.00  0.00     0.058 A 
ATOM     80  C   UNL A   1      35.411  32.784  31.164  1.00  0.00     0.135 A 
ATOM     81  C   UNL A   1      36.977  33.911  29.734  1.00  0.00     0.135 A 
ATOM     82  F   UNL A   1      35.133  31.925  32.156  1.00  0.00    -0.206 F 
ATOM     83  C   UNL A   1      34.353  33.433  30.534  1.00  0.00     0.059 A 
ATOM     84  C   UNL A   1      35.939  34.592  29.106  1.00  0.00     0.059 A 
ATOM     85  F   UNL A   1      38.234  34.174  29.343  1.00  0.00    -0.206 F 
ATOM     86  C   UNL A   1      34.629  34.345  29.513  1.00  0.00     0.060 A 
BRANCH  86  87
ATOM     87  S   UNL A   1      33.257  35.251  28.766  1.00  0.00     0.124 S 
ATOM     88  O   UNL A   1      32.597  34.204  27.995  1.00  0.00    -0.237 OA
ATOM     89  O   UNL A   1      32.536  35.732  29.940  1.00  0.00    -0.237 OA
ATOM     90  O   UNL A   1      33.925  36.285  27.981  1.00  0.00    -0.744 OA
ENDBRANCH  86  87
ENDBRANCH  54  79
BRANCH  66  91
ATOM     91  C   UNL A   1      39.820  34.129  36.959  1.00  0.00     0.058 A 
ATOM     92  C   UNL A   1      39.048  33.860  38.101  1.00  0.00     0.135 A 
ATOM     93  C   UNL A   1      40.430  35.390  36.864  1.00  0.00     0.135 A 
ATOM     94  F   UNL A   1      38.437  32.673  38.240  1.00  0.00    -0.206 F 
ATOM     95  C   UNL A   1      38.864  34.816  39.096  1.00  0.00     0.059 A 
ATOM     96  C   UNL A   1      40.287  36.349  37.862  1.00  0.00     0.059 A 
ATOM     97  F   UNL A   1      41.188  35.698  35.800  1.00  0.00    -0.206 F 
ATOM     98  C   UNL A   1      39.489  36.058  38.968  1.00  0.00     0.060 A 
BRANCH  98  99
ATOM     99  S   UNL A   1      39.257  37.282  40.274  1.00  0.00     0.124 S 
ATOM    100  O   UNL A   1      38.366  38.238  39.626  1.00  0.00    -0.237 OA
ATOM    101  O   UNL A   1      38.664  36.486  41.345  1.00  0.00    -0.237 OA
ATOM    102  O   UNL A   1      40.610  37.762  40.536  1.00  0.00    -0.744 OA
ENDBRANCH  98  99
ENDBRANCH  66  91
ENDBRANCH  40  41
ENDBRANCH  32  35
ENDBRANCH  30  31
ENDBRANCH  29  30
ENDBRANCH   1  29
TORSDOF 17
ENDMDL
MODEL 3
REMARK VINA RESULT:     -12.6      1.257      2.130
REMARK SMILES CC(C)C(=O)Nc1ccc(NC(=O)[C@@H]2[C@@H](C(=O)NCCCNC(=O)c3ccc(-c4c5nc(c(-c6c(F)cc(S(=O)(=O)[O-])cc6F)c6ccc([nH]6)c(-c6c(F)cc(S(=O)(=O)[O-])cc6F)c6nc(c(-c7c(F)cc(S(=O)(=O)[O-])cc7F)c7ccc4[nH]7)C=C6)C=C5)cc3)C2(C)C)cc1Cl
REMARK SMILES IDX 19 1 18 2 16 3 17 4 15 6 14 7 91 8 92 9 93 10 12 11 11 12
REMARK SMILES IDX 13 14 10 15 7 16 8 17 95 18 9 19 94 20 96 21 6 22 4 23 5 24
REMARK SMILES IDX 2 26 1 27 3 28 20 29 21 30 22 31 23 32 24 34 25 35 26 36
REMARK SMILES IDX 90 37 27 38 89 39 28 40 29 41 30 42 83 43 31 44 88 45 82 46
REMARK SMILES IDX 84 47 32 48 87 49 81 50 80 51 33 53 67 54 46 55 66 56 47 57
REMARK SMILES IDX 50 58 65 59 85 60 48 61 49 62 64 64 86 65 51 66 34 67 35 68
REMARK SMILES IDX 44 69 36 70 37 71 43 72 45 73 38 74 39 75 40 76 41 77 42 78
REMARK SMILES IDX 68 79 69 80 78 81 70 82 71 83 77 84 79 85 72 86 73 87 74 88
REMARK SMILES IDX 75 89 76 90 52 91 53 92 62 93 54 94 55 95 61 96 63 97 56 98
REMARK SMILES IDX 57 99 58 100 59 101 60 102
REMARK H PARENT 18 5 11 13 6 25 22 33 84 52 50 63
REMARK Flexibility Score: inf
ROOT
ATOM      1  C   UNL A   1      33.530  28.243  26.294  1.00  0.00     0.117 C 
ENDROOT
BRANCH   1   2
ATOM      2  N   UNL A   1      33.063  28.511  24.935  1.00  0.00    -0.356 N 
ATOM      3  C   UNL A   1      32.191  27.924  24.047  1.00  0.00     0.224 C 
ATOM      4  O   UNL A   1      32.111  28.447  22.936  1.00  0.00    -0.275 OA
ATOM      5  H   UNL A   1      33.479  29.320  24.558  1.00  0.00     0.163 HD
BRANCH   3   6
ATOM      6  C   UNL A   1      31.307  26.743  24.311  1.00  0.00     0.098 C 
ATOM      7  C   UNL A   1      31.619  25.686  25.325  1.00  0.00     0.098 C 
ATOM      8  C   UNL A   1      31.608  25.333  23.819  1.00  0.00    -0.011 C 
ATOM      9  C   UNL A   1      32.875  25.037  23.054  1.00  0.00     0.013 C 
ATOM     10  C   UNL A   1      30.453  24.488  23.318  1.00  0.00     0.013 C 
BRANCH   7  11
ATOM     11  C   UNL A   1      30.642  25.051  26.242  1.00  0.00     0.228 C 
ATOM     12  N   UNL A   1      30.959  23.829  26.803  1.00  0.00    -0.326 N 
ATOM     13  H   UNL A   1      30.329  23.535  27.501  1.00  0.00     0.169 HD
ATOM     14  O   UNL A   1      29.604  25.624  26.551  1.00  0.00    -0.274 OA
BRANCH  12  15
ATOM     15  C   UNL A   1      32.016  22.922  26.567  1.00  0.00     0.042 A 
ATOM     16  C   UNL A   1      34.153  21.217  25.869  1.00  0.00     0.060 A 
ATOM     17  C   UNL A   1      34.207  21.955  27.042  1.00  0.00     0.030 A 
ATOM     18  C   UNL A   1      32.971  21.216  25.118  1.00  0.00     0.066 A 
ATOM     19  C   UNL A   1      33.159  22.816  27.359  1.00  0.00     0.028 A 
ATOM     20  C   UNL A   1      31.923  22.088  25.449  1.00  0.00     0.048 A 
ATOM     21  Cl  UNL A   1      32.716  20.090  23.832  1.00  0.00    -0.082 Cl
BRANCH  16  22
ATOM     22  N   UNL A   1      35.309  20.521  25.511  1.00  0.00    -0.325 N 
ATOM     23  C   UNL A   1      36.495  21.061  25.095  1.00  0.00     0.226 C 
ATOM     24  O   UNL A   1      37.477  20.310  25.108  1.00  0.00    -0.274 OA
ATOM     25  H   UNL A   1      35.266  19.539  25.565  1.00  0.00     0.169 HD
BRANCH  23  26
ATOM     26  C   UNL A   1      36.666  22.519  24.650  1.00  0.00     0.072 C 
ATOM     27  C   UNL A   1      37.719  23.282  25.438  1.00  0.00     0.018 C 
ATOM     28  C   UNL A   1      36.824  22.721  23.145  1.00  0.00     0.018 C 
ENDBRANCH  23  26
ENDBRANCH  16  22
ENDBRANCH  12  15
ENDBRANCH   7  11
ENDBRANCH   3   6
ENDBRANCH   1   2
BRANCH   1  29
ATOM     29  C   UNL A   1      34.025  29.485  27.024  1.00  0.00     0.042 C 
BRANCH  29  30
ATOM     30  C   UNL A   1      35.237  29.251  27.901  1.00  0.00     0.118 C 
BRANCH  30  31
ATOM     31  N   UNL A   1      35.268  30.145  29.047  1.00  0.00    -0.352 N 
ATOM     32  C   UNL A   1      36.313  30.503  29.866  1.00  0.00     0.251 C 
ATOM     33  H   UNL A   1      34.405  30.560  29.273  1.00  0.00     0.163 HD
ATOM     34  O   UNL A   1      36.069  31.095  30.915  1.00  0.00    -0.269 OA
BRANCH  32  35
ATOM     35  C   UNL A   1      37.712  30.163  29.513  1.00  0.00     0.039 A 
ATOM     36  C   UNL A   1      38.631  29.934  30.542  1.00  0.00     0.014 A 
ATOM     37  C   UNL A   1      38.137  30.097  28.185  1.00  0.00     0.014 A 
ATOM     38  C   UNL A   1      39.948  29.581  30.234  1.00  0.00     0.010 A 
ATOM     39  C   UNL A   1      39.414  29.636  27.880  1.00  0.00     0.010 A 
ATOM     40  C   UNL A   1      40.343  29.390  28.899  1.00  0.00    -0.014 A 
BRANCH  40  41
ATOM     41  C   UNL A   1      41.720  28.948  28.556  1.00  0.00     0.031 A 
ATOM     42  C   UNL A   1      42.849  29.943  28.497  1.00  0.00     0.074 A 
ATOM     43  C   UNL A   1      41.943  27.659  28.231  1.00  0.00     0.049 A 
ATOM     44  N   UNL A   1      44.104  29.752  28.179  1.00  0.00    -0.248 NA
ATOM     45  C   UNL A   1      42.518  31.344  28.805  1.00  0.00     0.031 C 
ATOM     46  C   UNL A   1      40.921  26.613  28.179  1.00  0.00     0.029 A 
ATOM     47  N   UNL A   1      43.098  27.012  27.869  1.00  0.00    -0.354 N 
ATOM     48  C   UNL A   1      44.704  31.006  28.227  1.00  0.00     0.074 A 
ATOM     49  C   UNL A   1      43.663  31.957  28.546  1.00  0.00     0.031 C 
ATOM     50  C   UNL A   1      41.496  25.452  27.829  1.00  0.00     0.029 A 
ATOM     51  C   UNL A   1      42.919  25.678  27.591  1.00  0.00     0.049 A 
ATOM     52  H   UNL A   1      43.972  27.461  27.812  1.00  0.00     0.167 HD
ATOM     53  C   UNL A   1      46.007  31.332  28.043  1.00  0.00     0.037 A 
ATOM     54  C   UNL A   1      43.794  24.741  27.179  1.00  0.00     0.037 A 
ATOM     55  C   UNL A   1      47.039  30.374  27.744  1.00  0.00     0.049 A 
ATOM     56  C   UNL A   1      45.239  25.115  27.001  1.00  0.00     0.074 A 
ATOM     57  C   UNL A   1      48.401  30.586  27.627  1.00  0.00     0.029 A 
ATOM     58  N   UNL A   1      46.824  29.024  27.500  1.00  0.00    -0.354 N 
ATOM     59  N   UNL A   1      45.809  26.289  27.147  1.00  0.00    -0.248 NA
ATOM     60  C   UNL A   1      46.162  24.042  26.614  1.00  0.00     0.031 C 
ATOM     61  C   UNL A   1      49.000  29.380  27.247  1.00  0.00     0.029 A 
ATOM     62  C   UNL A   1      48.022  28.400  27.192  1.00  0.00     0.049 A 
ATOM     63  H   UNL A   1      45.948  28.577  27.537  1.00  0.00     0.167 HD
ATOM     64  C   UNL A   1      47.159  26.092  26.882  1.00  0.00     0.074 A 
ATOM     65  C   UNL A   1      47.323  24.682  26.589  1.00  0.00     0.031 C 
ATOM     66  C   UNL A   1      48.171  26.997  26.883  1.00  0.00     0.037 A 
BRANCH  53  67
ATOM     67  C   UNL A   1      46.379  32.790  28.141  1.00  0.00     0.058 A 
ATOM     68  C   UNL A   1      46.844  33.364  29.336  1.00  0.00     0.135 A 
ATOM     69  C   UNL A   1      46.270  33.627  27.018  1.00  0.00     0.135 A 
ATOM     70  F   UNL A   1      46.959  32.616  30.446  1.00  0.00    -0.206 F 
ATOM     71  C   UNL A   1      47.133  34.722  29.430  1.00  0.00     0.059 A 
ATOM     72  C   UNL A   1      46.589  34.981  27.079  1.00  0.00     0.059 A 
ATOM     73  F   UNL A   1      45.837  33.136  25.846  1.00  0.00    -0.206 F 
ATOM     74  C   UNL A   1      46.996  35.523  28.297  1.00  0.00     0.060 A 
BRANCH  74  75
ATOM     75  S   UNL A   1      47.345  37.289  28.442  1.00  0.00     0.124 S 
ATOM     76  O   UNL A   1      48.597  37.275  29.192  1.00  0.00    -0.237 OA
ATOM     77  O   UNL A   1      47.446  37.702  27.047  1.00  0.00    -0.237 OA
ATOM     78  O   UNL A   1      46.188  37.807  29.165  1.00  0.00    -0.744 OA
ENDBRANCH  74  75
ENDBRANCH  53  67
BRANCH  54  79
ATOM     79  C   UNL A   1      43.313  23.356  26.924  1.00  0.00     0.058 A 
ATOM     80  C   UNL A   1      43.177  22.861  25.619  1.00  0.00     0.135 A 
ATOM     81  C   UNL A   1      43.043  22.480  27.987  1.00  0.00     0.135 A 
ATOM     82  F   UNL A   1      43.416  23.662  24.570  1.00  0.00    -0.206 F 
ATOM     83  C   UNL A   1      42.795  21.546  25.376  1.00  0.00     0.059 A 
ATOM     84  C   UNL A   1      42.686  21.153  27.770  1.00  0.00     0.059 A 
ATOM     85  F   UNL A   1      43.175  22.901  29.255  1.00  0.00    -0.206 F 
ATOM     86  C   UNL A   1      42.563  20.696  26.459  1.00  0.00     0.060 A 
BRANCH  86  87
ATOM     87  S   UNL A   1      42.158  18.966  26.132  1.00  0.00     0.124 S 
ATOM     88  O   UNL A   1      40.750  19.057  25.763  1.00  0.00    -0.237 OA
ATOM     89  O   UNL A   1      43.082  18.637  25.052  1.00  0.00    -0.237 OA
ATOM     90  O   UNL A   1      42.435  18.310  27.407  1.00  0.00    -0.744 OA
ENDBRANCH  86  87
ENDBRANCH  54  79
BRANCH  66  91
ATOM     91  C   UNL A   1      49.552  26.490  26.566  1.00  0.00     0.058 A 
ATOM     92  C   UNL A   1      50.069  26.520  25.260  1.00  0.00     0.135 A 
ATOM     93  C   UNL A   1      50.385  26.004  27.587  1.00  0.00     0.135 A 
ATOM     94  F   UNL A   1      49.314  26.968  24.244  1.00  0.00    -0.206 F 
ATOM     95  C   UNL A   1      51.350  26.058  24.974  1.00  0.00     0.059 A 
ATOM     96  C   UNL A   1      51.681  25.569  27.329  1.00  0.00     0.059 A 
ATOM     97  F   UNL A   1      49.948  25.963  28.855  1.00  0.00    -0.206 F 
ATOM     98  C   UNL A   1      52.150  25.585  26.016  1.00  0.00     0.060 A 
BRANCH  98  99
ATOM     99  S   UNL A   1      53.816  25.007  25.635  1.00  0.00     0.124 S 
ATOM    100  O   UNL A   1      53.573  23.606  25.305  1.00  0.00    -0.237 OA
ATOM    101  O   UNL A   1      54.196  25.865  24.516  1.00  0.00    -0.237 OA
ATOM    102  O   UNL A   1      54.551  25.242  26.873  1.00  0.00    -0.744 OA
ENDBRANCH  98  99
ENDBRANCH  66  91
ENDBRANCH  40  41
ENDBRANCH  32  35
ENDBRANCH  30  31
ENDBRANCH  29  30
ENDBRANCH   1  29
TORSDOF 17
ENDMDL
