MODEL 1
REMARK VINA RESULT:     -12.0      0.000      0.000
REMARK SMILES O=C(NCCCNC(=O)[C@H]1C[C@H]2CCCC[C@@H]2[N@@H+]1C1CCSCC1)c1ccc(-c2c3nc(c(-c4c(F)cc(S(=O)(=O)[O-])cc4F)c4ccc([nH]4)c(-c4c(F)cc(S(=O)(=O)[O-])cc4F)c4nc(c(-c5c(F)cc(S(=O)(=O)[O-])cc5F)c5ccc2[nH]5)C=C4)C=C3)cc1
REMARK SMILES IDX 4 1 3 2 1 3 2 4 25 6 26 7 90 8 27 9 89 10 28 11 29 12 30 13
REMARK SMILES IDX 83 14 31 15 88 16 82 17 84 18 32 19 87 20 81 21 80 22 33 24
REMARK SMILES IDX 67 25 46 26 66 27 47 28 50 29 65 30 85 31 48 32 49 33 64 35
REMARK SMILES IDX 86 36 51 37 34 38 35 39 44 40 36 41 37 42 43 43 45 44 38 45
REMARK SMILES IDX 39 46 40 47 41 48 42 49 68 50 69 51 78 52 70 53 71 54 77 55
REMARK SMILES IDX 79 56 72 57 73 58 74 59 75 60 76 61 52 62 53 63 62 64 54 65
REMARK SMILES IDX 55 66 61 67 63 68 56 69 57 70 58 71 59 72 60 73 5 74 6 75
REMARK SMILES IDX 7 76 8 77 9 79 10 80 11 81 18 82 12 83 17 84 13 86 16 87
REMARK SMILES IDX 14 88 15 89 19 90 20 91 24 92 21 93 23 94 22 95
REMARK H PARENT 3 5 84 23 50 34 7 78 18 85
REMARK Flexibility Score: inf
ROOT
ATOM      1  C   UNL A   1      33.774  28.225  26.937  1.00  0.00     0.118 C 
ENDROOT
BRANCH   1   2
ATOM      2  N   UNL A   1      33.617  29.625  27.323  1.00  0.00    -0.352 N 
ATOM      3  O   UNL A   1      33.987  31.499  28.500  1.00  0.00    -0.269 OA
ATOM      4  C   UNL A   1      34.438  30.448  28.056  1.00  0.00     0.251 C 
ATOM      5  H   UNL A   1      32.786  30.048  27.007  1.00  0.00     0.163 HD
BRANCH   4   6
ATOM      6  C   UNL A   1      35.845  30.071  28.314  1.00  0.00     0.039 A 
ATOM      7  C   UNL A   1      36.816  30.218  27.323  1.00  0.00     0.014 A 
ATOM      8  C   UNL A   1      36.210  29.609  29.582  1.00  0.00     0.014 A 
ATOM      9  C   UNL A   1      38.105  29.749  27.535  1.00  0.00     0.010 A 
ATOM     10  C   UNL A   1      37.538  29.254  29.834  1.00  0.00     0.010 A 
ATOM     11  C   UNL A   1      38.490  29.297  28.803  1.00  0.00    -0.014 A 
BRANCH  11  12
ATOM     12  C   UNL A   1      39.912  28.959  29.059  1.00  0.00     0.031 A 
ATOM     13  C   UNL A   1      40.865  29.992  29.584  1.00  0.00     0.074 A 
ATOM     14  C   UNL A   1      40.337  27.710  28.787  1.00  0.00     0.049 A 
ATOM     15  N   UNL A   1      42.156  29.901  29.767  1.00  0.00    -0.248 NA
ATOM     16  C   UNL A   1      40.297  31.302  29.937  1.00  0.00     0.031 C 
ATOM     17  C   UNL A   1      39.493  26.626  28.275  1.00  0.00     0.029 A 
ATOM     18  N   UNL A   1      41.579  27.140  28.889  1.00  0.00    -0.354 N 
ATOM     19  C   UNL A   1      42.564  31.149  30.224  1.00  0.00     0.074 A 
ATOM     20  C   UNL A   1      41.383  31.985  30.270  1.00  0.00     0.031 C 
ATOM     21  C   UNL A   1      40.235  25.522  28.124  1.00  0.00     0.029 A 
ATOM     22  C   UNL A   1      41.621  25.841  28.443  1.00  0.00     0.049 A 
ATOM     23  H   UNL A   1      42.364  27.614  29.247  1.00  0.00     0.167 HD
ATOM     24  C   UNL A   1      43.811  31.554  30.568  1.00  0.00     0.037 A 
ATOM     25  C   UNL A   1      42.662  25.007  28.259  1.00  0.00     0.037 A 
ATOM     26  C   UNL A   1      44.971  30.699  30.513  1.00  0.00     0.049 A 
ATOM     27  C   UNL A   1      44.038  25.485  28.608  1.00  0.00     0.074 A 
ATOM     28  C   UNL A   1      46.274  30.995  30.872  1.00  0.00     0.029 A 
ATOM     29  N   UNL A   1      44.971  29.387  30.057  1.00  0.00    -0.354 N 
ATOM     30  N   UNL A   1      44.407  26.658  29.064  1.00  0.00    -0.248 NA
ATOM     31  C   UNL A   1      45.141  24.534  28.422  1.00  0.00     0.031 C 
ATOM     32  C   UNL A   1      47.070  29.884  30.575  1.00  0.00     0.029 A 
ATOM     33  C   UNL A   1      46.254  28.870  30.096  1.00  0.00     0.049 A 
ATOM     34  H   UNL A   1      44.174  28.897  29.750  1.00  0.00     0.167 HD
ATOM     35  C   UNL A   1      45.781  26.581  29.244  1.00  0.00     0.074 A 
ATOM     36  C   UNL A   1      46.178  25.245  28.846  1.00  0.00     0.031 C 
ATOM     37  C   UNL A   1      46.631  27.531  29.708  1.00  0.00     0.037 A 
BRANCH  24  38
ATOM     38  C   UNL A   1      43.987  32.991  30.981  1.00  0.00     0.058 A 
ATOM     39  C   UNL A   1      43.799  33.419  32.305  1.00  0.00     0.135 A 
ATOM     40  C   UNL A   1      44.346  33.961  30.030  1.00  0.00     0.135 A 
ATOM     41  F   UNL A   1      43.448  32.538  33.257  1.00  0.00    -0.206 F 
ATOM     42  C   UNL A   1      43.901  34.761  32.660  1.00  0.00     0.059 A 
ATOM     43  C   UNL A   1      44.487  35.304  30.369  1.00  0.00     0.059 A 
ATOM     44  F   UNL A   1      44.548  33.612  28.750  1.00  0.00    -0.206 F 
ATOM     45  C   UNL A   1      44.235  35.698  31.681  1.00  0.00     0.060 A 
BRANCH  45  46
ATOM     46  S   UNL A   1      44.309  37.441  32.144  1.00  0.00     0.124 S 
ATOM     47  O   UNL A   1      43.359  37.486  33.253  1.00  0.00    -0.237 OA
ATOM     48  O   UNL A   1      45.712  37.610  32.507  1.00  0.00    -0.237 OA
ATOM     49  O   UNL A   1      43.889  38.134  30.931  1.00  0.00    -0.744 OA
ENDBRANCH  45  46
ENDBRANCH  24  38
BRANCH  25  50
ATOM     50  C   UNL A   1      42.408  23.656  27.696  1.00  0.00     0.058 A 
ATOM     51  C   UNL A   1      42.386  23.439  26.313  1.00  0.00     0.135 A 
ATOM     52  C   UNL A   1      42.293  22.537  28.538  1.00  0.00     0.135 A 
ATOM     53  F   UNL A   1      42.491  24.477  25.469  1.00  0.00    -0.206 F 
ATOM     54  C   UNL A   1      42.270  22.159  25.780  1.00  0.00     0.059 A 
ATOM     55  C   UNL A   1      42.203  21.245  28.031  1.00  0.00     0.059 A 
ATOM     56  F   UNL A   1      42.333  22.691  29.871  1.00  0.00    -0.206 F 
ATOM     57  C   UNL A   1      42.194  21.067  26.648  1.00  0.00     0.060 A 
BRANCH  57  58
ATOM     58  S   UNL A   1      42.149  19.405  25.945  1.00  0.00     0.124 S 
ATOM     59  O   UNL A   1      40.723  19.227  25.698  1.00  0.00    -0.237 OA
ATOM     60  O   UNL A   1      42.988  19.553  24.760  1.00  0.00    -0.237 OA
ATOM     61  O   UNL A   1      42.716  18.575  27.004  1.00  0.00    -0.744 OA
ENDBRANCH  57  58
ENDBRANCH  25  50
BRANCH  37  62
ATOM     62  C   UNL A   1      48.078  27.155  29.864  1.00  0.00     0.058 A 
ATOM     63  C   UNL A   1      49.029  27.434  28.871  1.00  0.00     0.135 A 
ATOM     64  C   UNL A   1      48.531  26.604  31.074  1.00  0.00     0.135 A 
ATOM     65  F   UNL A   1      48.645  27.946  27.691  1.00  0.00    -0.206 F 
ATOM     66  C   UNL A   1      50.382  27.186  29.077  1.00  0.00     0.059 A 
ATOM     67  C   UNL A   1      49.881  26.376  31.311  1.00  0.00     0.059 A 
ATOM     68  F   UNL A   1      47.659  26.323  32.056  1.00  0.00    -0.206 F 
ATOM     69  C   UNL A   1      50.800  26.671  30.306  1.00  0.00     0.060 A 
BRANCH  69  70
ATOM     70  S   UNL A   1      52.568  26.444  30.593  1.00  0.00     0.124 S 
ATOM     71  O   UNL A   1      52.577  25.280  31.473  1.00  0.00    -0.237 OA
ATOM     72  O   UNL A   1      53.076  26.223  29.242  1.00  0.00    -0.237 OA
ATOM     73  O   UNL A   1      52.976  27.701  31.212  1.00  0.00    -0.744 OA
ENDBRANCH  69  70
ENDBRANCH  37  62
ENDBRANCH  11  12
ENDBRANCH   4   6
ENDBRANCH   1   2
BRANCH   1  74
ATOM     74  C   UNL A   1      34.109  28.092  25.463  1.00  0.00     0.042 C 
BRANCH  74  75
ATOM     75  C   UNL A   1      32.921  27.593  24.656  1.00  0.00     0.118 C 
BRANCH  75  76
ATOM     76  N   UNL A   1      33.284  27.239  23.310  1.00  0.00    -0.351 N 
ATOM     77  C   UNL A   1      33.507  25.996  22.791  1.00  0.00     0.278 C 
ATOM     78  H   UNL A   1      33.383  27.990  22.681  1.00  0.00     0.163 HD
ATOM     79  O   UNL A   1      33.853  25.963  21.606  1.00  0.00    -0.268 OA
BRANCH  77  80
ATOM     80  C   UNL A   1      33.273  24.699  23.654  1.00  0.00     0.275 C 
ATOM     81  C   UNL A   1      33.973  23.512  22.933  1.00  0.00     0.085 C 
ATOM     82  N   UNL A   1      33.934  24.839  24.991  1.00  0.00    -0.320 N 
ATOM     83  C   UNL A   1      35.046  23.057  23.903  1.00  0.00     0.054 C 
ATOM     84  C   UNL A   1      35.298  24.305  24.746  1.00  0.00     0.188 C 
ATOM     85  H   UNL A   1      33.886  25.820  25.267  1.00  0.00     0.349 HD
ATOM     86  C   UNL A   1      36.335  22.490  23.330  1.00  0.00     0.010 C 
ATOM     87  C   UNL A   1      36.265  24.021  25.900  1.00  0.00     0.065 C 
ATOM     88  C   UNL A   1      37.286  22.158  24.487  1.00  0.00     0.001 C 
ATOM     89  C   UNL A   1      37.555  23.376  25.377  1.00  0.00     0.006 C 
BRANCH  82  90
ATOM     90  C   UNL A   1      33.278  24.354  26.242  1.00  0.00     0.186 C 
ATOM     91  C   UNL A   1      31.953  25.036  26.659  1.00  0.00     0.076 C 
ATOM     92  C   UNL A   1      33.145  22.847  26.546  1.00  0.00     0.076 C 
ATOM     93  C   UNL A   1      30.657  24.494  26.060  1.00  0.00     0.075 C 
ATOM     94  C   UNL A   1      32.038  22.134  25.792  1.00  0.00     0.075 C 
ATOM     95  S   UNL A   1      30.413  22.721  26.334  1.00  0.00    -0.162 SA
ENDBRANCH  82  90
ENDBRANCH  77  80
ENDBRANCH  75  76
ENDBRANCH  74  75
ENDBRANCH   1  74
TORSDOF 14
ENDMDL
MODEL 2
REMARK VINA RESULT:     -11.6      5.098     10.573
REMARK SMILES O=C(NCCCNC(=O)[C@H]1C[C@H]2CCCC[C@@H]2[N@@H+]1C1CCSCC1)c1ccc(-c2c3nc(c(-c4c(F)cc(S(=O)(=O)[O-])cc4F)c4ccc([nH]4)c(-c4c(F)cc(S(=O)(=O)[O-])cc4F)c4nc(c(-c5c(F)cc(S(=O)(=O)[O-])cc5F)c5ccc2[nH]5)C=C4)C=C3)cc1
REMARK SMILES IDX 4 1 3 2 1 3 2 4 25 6 26 7 90 8 27 9 89 10 28 11 29 12 30 13
REMARK SMILES IDX 83 14 31 15 88 16 82 17 84 18 32 19 87 20 81 21 80 22 33 24
REMARK SMILES IDX 67 25 46 26 66 27 47 28 50 29 65 30 85 31 48 32 49 33 64 35
REMARK SMILES IDX 86 36 51 37 34 38 35 39 44 40 36 41 37 42 43 43 45 44 38 45
REMARK SMILES IDX 39 46 40 47 41 48 42 49 68 50 69 51 78 52 70 53 71 54 77 55
REMARK SMILES IDX 79 56 72 57 73 58 74 59 75 60 76 61 52 62 53 63 62 64 54 65
REMARK SMILES IDX 55 66 61 67 63 68 56 69 57 70 58 71 59 72 60 73 5 74 6 75
REMARK SMILES IDX 7 76 8 77 9 79 10 80 11 81 18 82 12 83 17 84 13 86 16 87
REMARK SMILES IDX 14 88 15 89 19 90 20 91 24 92 21 93 23 94 22 95
REMARK H PARENT 3 5 84 23 50 34 7 78 18 85
REMARK Flexibility Score: inf
ROOT
ATOM      1  C   UNL A   1      39.594  23.478  27.059  1.00  0.00     0.118 C 
ENDROOT
BRANCH   1   2
ATOM      2  N   UNL A   1      40.650  23.971  26.179  1.00  0.00    -0.352 N 
ATOM      3  O   UNL A   1      41.919  25.488  25.120  1.00  0.00    -0.269 OA
ATOM      4  C   UNL A   1      41.258  25.201  26.113  1.00  0.00     0.251 C 
ATOM      5  H   UNL A   1      40.980  23.313  25.525  1.00  0.00     0.163 HD
BRANCH   4   6
ATOM      6  C   UNL A   1      41.114  26.171  27.221  1.00  0.00     0.039 A 
ATOM      7  C   UNL A   1      40.291  25.890  28.312  1.00  0.00     0.014 A 
ATOM      8  C   UNL A   1      41.851  27.359  27.193  1.00  0.00     0.014 A 
ATOM      9  C   UNL A   1      40.069  26.856  29.284  1.00  0.00     0.010 A 
ATOM     10  C   UNL A   1      41.722  28.279  28.237  1.00  0.00     0.010 A 
ATOM     11  C   UNL A   1      40.809  28.045  29.278  1.00  0.00    -0.014 A 
BRANCH  11  12
ATOM     12  C   UNL A   1      40.684  28.991  30.414  1.00  0.00     0.031 A 
ATOM     13  C   UNL A   1      41.548  28.849  31.631  1.00  0.00     0.074 A 
ATOM     14  C   UNL A   1      39.758  29.967  30.341  1.00  0.00     0.049 A 
ATOM     15  N   UNL A   1      41.504  29.518  32.753  1.00  0.00    -0.248 NA
ATOM     16  C   UNL A   1      42.591  27.812  31.589  1.00  0.00     0.031 C 
ATOM     17  C   UNL A   1      38.864  30.197  29.202  1.00  0.00     0.029 A 
ATOM     18  N   UNL A   1      39.403  30.939  31.239  1.00  0.00    -0.354 N 
ATOM     19  C   UNL A   1      42.487  28.964  33.565  1.00  0.00     0.074 A 
ATOM     20  C   UNL A   1      43.097  27.890  32.811  1.00  0.00     0.031 C 
ATOM     21  C   UNL A   1      38.078  31.249  29.461  1.00  0.00     0.029 A 
ATOM     22  C   UNL A   1      38.350  31.714  30.816  1.00  0.00     0.049 A 
ATOM     23  H   UNL A   1      39.858  31.071  32.102  1.00  0.00     0.167 HD
ATOM     24  C   UNL A   1      42.840  29.322  34.824  1.00  0.00     0.037 A 
ATOM     25  C   UNL A   1      37.640  32.661  31.459  1.00  0.00     0.037 A 
ATOM     26  C   UNL A   1      42.215  30.398  35.553  1.00  0.00     0.049 A 
ATOM     27  C   UNL A   1      38.020  33.016  32.864  1.00  0.00     0.074 A 
ATOM     28  C   UNL A   1      42.518  30.868  36.818  1.00  0.00     0.029 A 
ATOM     29  N   UNL A   1      41.152  31.160  35.088  1.00  0.00    -0.354 N 
ATOM     30  N   UNL A   1      38.968  32.504  33.611  1.00  0.00    -0.248 NA
ATOM     31  C   UNL A   1      37.241  34.075  33.517  1.00  0.00     0.031 C 
ATOM     32  C   UNL A   1      41.599  31.872  37.141  1.00  0.00     0.029 A 
ATOM     33  C   UNL A   1      40.767  32.077  36.051  1.00  0.00     0.049 A 
ATOM     34  H   UNL A   1      40.733  31.063  34.202  1.00  0.00     0.167 HD
ATOM     35  C   UNL A   1      38.919  33.193  34.814  1.00  0.00     0.074 A 
ATOM     36  C   UNL A   1      37.845  34.160  34.696  1.00  0.00     0.031 C 
ATOM     37  C   UNL A   1      39.701  33.043  35.912  1.00  0.00     0.037 A 
BRANCH  24  38
ATOM     38  C   UNL A   1      43.911  28.511  35.504  1.00  0.00     0.058 A 
ATOM     39  C   UNL A   1      45.278  28.793  35.348  1.00  0.00     0.135 A 
ATOM     40  C   UNL A   1      43.562  27.424  36.324  1.00  0.00     0.135 A 
ATOM     41  F   UNL A   1      45.673  29.815  34.570  1.00  0.00    -0.206 F 
ATOM     42  C   UNL A   1      46.258  27.995  35.929  1.00  0.00     0.059 A 
ATOM     43  C   UNL A   1      44.525  26.632  36.943  1.00  0.00     0.059 A 
ATOM     44  F   UNL A   1      42.271  27.110  36.518  1.00  0.00    -0.206 F 
ATOM     45  C   UNL A   1      45.871  26.909  36.717  1.00  0.00     0.060 A 
BRANCH  45  46
ATOM     46  S   UNL A   1      47.154  25.851  37.419  1.00  0.00     0.124 S 
ATOM     47  O   UNL A   1      48.059  25.702  36.281  1.00  0.00    -0.237 OA
ATOM     48  O   UNL A   1      47.657  26.658  38.525  1.00  0.00    -0.237 OA
ATOM     49  O   UNL A   1      46.429  24.645  37.803  1.00  0.00    -0.744 OA
ENDBRANCH  45  46
ENDBRANCH  24  38
BRANCH  25  50
ATOM     50  C   UNL A   1      36.495  33.298  30.759  1.00  0.00     0.058 A 
ATOM     51  C   UNL A   1      35.176  33.065  31.165  1.00  0.00     0.135 A 
ATOM     52  C   UNL A   1      36.712  34.240  29.739  1.00  0.00     0.135 A 
ATOM     53  F   UNL A   1      34.920  32.173  32.134  1.00  0.00    -0.206 F 
ATOM     54  C   UNL A   1      34.109  33.751  30.594  1.00  0.00     0.059 A 
ATOM     55  C   UNL A   1      35.664  34.959  29.171  1.00  0.00     0.059 A 
ATOM     56  F   UNL A   1      37.961  34.516  29.332  1.00  0.00    -0.206 F 
ATOM     57  C   UNL A   1      34.365  34.706  29.608  1.00  0.00     0.060 A 
BRANCH  57  58
ATOM     58  S   UNL A   1      32.982  35.663  28.950  1.00  0.00     0.124 S 
ATOM     59  O   UNL A   1      32.237  35.976  30.164  1.00  0.00    -0.237 OA
ATOM     60  O   UNL A   1      33.664  36.785  28.312  1.00  0.00    -0.237 OA
ATOM     61  O   UNL A   1      32.333  34.731  28.032  1.00  0.00    -0.744 OA
ENDBRANCH  57  58
ENDBRANCH  25  50
BRANCH  37  62
ATOM     62  C   UNL A   1      39.469  33.976  37.066  1.00  0.00     0.058 A 
ATOM     63  C   UNL A   1      38.737  33.588  38.199  1.00  0.00     0.135 A 
ATOM     64  C   UNL A   1      40.083  35.239  37.080  1.00  0.00     0.135 A 
ATOM     65  F   UNL A   1      38.119  32.397  38.229  1.00  0.00    -0.206 F 
ATOM     66  C   UNL A   1      38.628  34.419  39.309  1.00  0.00     0.059 A 
ATOM     67  C   UNL A   1      40.010  36.074  38.189  1.00  0.00     0.059 A 
ATOM     68  F   UNL A   1      40.797  35.654  36.021  1.00  0.00    -0.206 F 
ATOM     69  C   UNL A   1      39.280  35.654  39.300  1.00  0.00     0.060 A 
BRANCH  69  70
ATOM     70  S   UNL A   1      39.209  36.681  40.783  1.00  0.00     0.124 S 
ATOM     71  O   UNL A   1      38.364  35.876  41.659  1.00  0.00    -0.237 OA
ATOM     72  O   UNL A   1      40.615  36.773  41.165  1.00  0.00    -0.237 OA
ATOM     73  O   UNL A   1      38.612  37.925  40.306  1.00  0.00    -0.744 OA
ENDBRANCH  69  70
ENDBRANCH  37  62
ENDBRANCH  11  12
ENDBRANCH   4   6
ENDBRANCH   1   2
BRANCH   1  74
ATOM     74  C   UNL A   1      38.225  23.632  26.423  1.00  0.00     0.042 C 
BRANCH  74  75
ATOM     75  C   UNL A   1      37.805  22.378  25.673  1.00  0.00     0.118 C 
BRANCH  75  76
ATOM     76  N   UNL A   1      37.564  22.630  24.277  1.00  0.00    -0.351 N 
ATOM     77  C   UNL A   1      36.378  22.897  23.657  1.00  0.00     0.278 C 
ATOM     78  H   UNL A   1      38.358  22.606  23.694  1.00  0.00     0.163 HD
ATOM     79  O   UNL A   1      36.433  23.033  22.430  1.00  0.00    -0.268 OA
BRANCH  77  80
ATOM     80  C   UNL A   1      35.049  23.078  24.483  1.00  0.00     0.275 C 
ATOM     81  C   UNL A   1      34.984  24.553  24.970  1.00  0.00     0.085 C 
ATOM     82  N   UNL A   1      33.858  22.864  23.600  1.00  0.00    -0.320 N 
ATOM     83  C   UNL A   1      33.755  25.124  24.290  1.00  0.00     0.054 C 
ATOM     84  C   UNL A   1      33.589  24.224  23.068  1.00  0.00     0.188 C 
ATOM     85  H   UNL A   1      34.100  22.157  22.906  1.00  0.00     0.349 HD
ATOM     86  C   UNL A   1      33.764  26.597  23.912  1.00  0.00     0.010 C 
ATOM     87  C   UNL A   1      32.300  24.543  22.302  1.00  0.00     0.065 C 
ATOM     88  C   UNL A   1      32.454  26.930  23.189  1.00  0.00     0.001 C 
ATOM     89  C   UNL A   1      32.230  26.038  21.963  1.00  0.00     0.006 C 
BRANCH  82  90
ATOM     90  C   UNL A   1      32.654  22.121  24.079  1.00  0.00     0.186 C 
ATOM     91  C   UNL A   1      32.174  20.921  23.226  1.00  0.00     0.076 C 
ATOM     92  C   UNL A   1      32.484  21.737  25.564  1.00  0.00     0.076 C 
ATOM     93  C   UNL A   1      32.817  19.561  23.491  1.00  0.00     0.075 C 
ATOM     94  C   UNL A   1      33.296  20.538  26.015  1.00  0.00     0.075 C 
ATOM     95  S   UNL A   1      32.701  19.024  25.217  1.00  0.00    -0.162 SA
ENDBRANCH  82  90
ENDBRANCH  77  80
ENDBRANCH  75  76
ENDBRANCH  74  75
ENDBRANCH   1  74
TORSDOF 14
ENDMDL
MODEL 3
REMARK VINA RESULT:     -11.6      2.898      3.935
REMARK SMILES O=C(NCCCNC(=O)[C@H]1C[C@H]2CCCC[C@@H]2[N@@H+]1C1CCSCC1)c1ccc(-c2c3nc(c(-c4c(F)cc(S(=O)(=O)[O-])cc4F)c4ccc([nH]4)c(-c4c(F)cc(S(=O)(=O)[O-])cc4F)c4nc(c(-c5c(F)cc(S(=O)(=O)[O-])cc5F)c5ccc2[nH]5)C=C4)C=C3)cc1
REMARK SMILES IDX 4 1 3 2 1 3 2 4 25 6 26 7 90 8 27 9 89 10 28 11 29 12 30 13
REMARK SMILES IDX 83 14 31 15 88 16 82 17 84 18 32 19 87 20 81 21 80 22 33 24
REMARK SMILES IDX 67 25 46 26 66 27 47 28 50 29 65 30 85 31 48 32 49 33 64 35
REMARK SMILES IDX 86 36 51 37 34 38 35 39 44 40 36 41 37 42 43 43 45 44 38 45
REMARK SMILES IDX 39 46 40 47 41 48 42 49 68 50 69 51 78 52 70 53 71 54 77 55
REMARK SMILES IDX 79 56 72 57 73 58 74 59 75 60 76 61 52 62 53 63 62 64 54 65
REMARK SMILES IDX 55 66 61 67 63 68 56 69 57 70 58 71 59 72 60 73 5 74 6 75
REMARK SMILES IDX 7 76 8 77 9 79 10 80 11 81 18 82 12 83 17 84 13 86 16 87
REMARK SMILES IDX 14 88 15 89 19 90 20 91 24 92 21 93 23 94 22 95
REMARK H PARENT 3 5 84 23 50 34 7 78 18 85
REMARK Flexibility Score: inf
ROOT
ATOM      1  C   UNL A   1      35.598  31.027  27.990  1.00  0.00     0.118 C 
ENDROOT
BRANCH   1   2
ATOM      2  N   UNL A   1      35.495  30.909  29.442  1.00  0.00    -0.352 N 
ATOM      3  O   UNL A   1      35.903  30.070  31.483  1.00  0.00    -0.269 OA
ATOM      4  C   UNL A   1      36.319  30.290  30.350  1.00  0.00     0.251 C 
ATOM      5  H   UNL A   1      34.704  31.346  29.835  1.00  0.00     0.163 HD
BRANCH   4   6
ATOM      6  C   UNL A   1      37.690  29.885  29.967  1.00  0.00     0.039 A 
ATOM      7  C   UNL A   1      38.143  30.052  28.658  1.00  0.00     0.014 A 
ATOM      8  C   UNL A   1      38.553  29.376  30.942  1.00  0.00     0.014 A 
ATOM      9  C   UNL A   1      39.385  29.559  28.282  1.00  0.00     0.010 A 
ATOM     10  C   UNL A   1      39.850  28.994  30.588  1.00  0.00     0.010 A 
ATOM     11  C   UNL A   1      40.266  29.059  29.248  1.00  0.00    -0.014 A 
BRANCH  11  12
ATOM     12  C   UNL A   1      41.650  28.693  28.858  1.00  0.00     0.031 A 
ATOM     13  C   UNL A   1      42.732  29.730  28.801  1.00  0.00     0.074 A 
ATOM     14  C   UNL A   1      41.911  27.413  28.531  1.00  0.00     0.049 A 
ATOM     15  N   UNL A   1      43.965  29.610  28.384  1.00  0.00    -0.248 NA
ATOM     16  C   UNL A   1      42.381  31.084  29.259  1.00  0.00     0.031 C 
ATOM     17  C   UNL A   1      40.932  26.321  28.554  1.00  0.00     0.029 A 
ATOM     18  N   UNL A   1      43.065  26.810  28.106  1.00  0.00    -0.354 N 
ATOM     19  C   UNL A   1      44.530  30.875  28.496  1.00  0.00     0.074 A 
ATOM     20  C   UNL A   1      43.496  31.752  29.002  1.00  0.00     0.031 C 
ATOM     21  C   UNL A   1      41.528  25.184  28.178  1.00  0.00     0.029 A 
ATOM     22  C   UNL A   1      42.906  25.479  27.803  1.00  0.00     0.049 A 
ATOM     23  H   UNL A   1      43.925  27.283  28.025  1.00  0.00     0.167 HD
ATOM     24  C   UNL A   1      45.794  31.262  28.199  1.00  0.00     0.037 A 
ATOM     25  C   UNL A   1      43.753  24.598  27.239  1.00  0.00     0.037 A 
ATOM     26  C   UNL A   1      46.806  30.367  27.696  1.00  0.00     0.049 A 
ATOM     27  C   UNL A   1      45.135  25.053  26.881  1.00  0.00     0.074 A 
ATOM     28  C   UNL A   1      48.128  30.644  27.396  1.00  0.00     0.029 A 
ATOM     29  N   UNL A   1      46.605  29.023  27.405  1.00  0.00    -0.354 N 
ATOM     30  N   UNL A   1      45.665  26.245  27.016  1.00  0.00    -0.248 NA
ATOM     31  C   UNL A   1      46.036  24.053  26.296  1.00  0.00     0.031 C 
ATOM     32  C   UNL A   1      48.707  29.487  26.867  1.00  0.00     0.029 A 
ATOM     33  C   UNL A   1      47.768  28.467  26.901  1.00  0.00     0.049 A 
ATOM     34  H   UNL A   1      45.758  28.538  27.538  1.00  0.00     0.167 HD
ATOM     35  C   UNL A   1      46.970  26.135  26.558  1.00  0.00     0.074 A 
ATOM     36  C   UNL A   1      47.149  24.759  26.140  1.00  0.00     0.031 C 
ATOM     37  C   UNL A   1      47.933  27.089  26.500  1.00  0.00     0.037 A 
BRANCH  24  38
ATOM     38  C   UNL A   1      46.132  32.721  28.362  1.00  0.00     0.058 A 
ATOM     39  C   UNL A   1      45.978  33.647  27.318  1.00  0.00     0.135 A 
ATOM     40  C   UNL A   1      46.626  33.200  29.587  1.00  0.00     0.135 A 
ATOM     41  F   UNL A   1      45.517  33.247  26.122  1.00  0.00    -0.206 F 
ATOM     42  C   UNL A   1      46.355  34.979  27.463  1.00  0.00     0.059 A 
ATOM     43  C   UNL A   1      46.978  34.535  29.766  1.00  0.00     0.059 A 
ATOM     44  F   UNL A   1      46.787  32.363  30.625  1.00  0.00    -0.206 F 
ATOM     45  C   UNL A   1      46.865  35.410  28.689  1.00  0.00     0.060 A 
BRANCH  45  46
ATOM     46  S   UNL A   1      47.402  37.127  28.844  1.00  0.00     0.124 S 
ATOM     47  O   UNL A   1      47.100  37.398  30.247  1.00  0.00    -0.237 OA
ATOM     48  O   UNL A   1      48.820  37.045  28.508  1.00  0.00    -0.237 OA
ATOM     49  O   UNL A   1      46.570  37.833  27.876  1.00  0.00    -0.744 OA
ENDBRANCH  45  46
ENDBRANCH  24  38
BRANCH  25  50
ATOM     50  C   UNL A   1      43.277  23.216  26.971  1.00  0.00     0.058 A 
ATOM     51  C   UNL A   1      43.052  22.767  25.664  1.00  0.00     0.135 A 
ATOM     52  C   UNL A   1      43.145  22.287  28.017  1.00  0.00     0.135 A 
ATOM     53  F   UNL A   1      43.164  23.618  24.633  1.00  0.00    -0.206 F 
ATOM     54  C   UNL A   1      42.725  21.441  25.398  1.00  0.00     0.059 A 
ATOM     55  C   UNL A   1      42.845  20.950  27.775  1.00  0.00     0.059 A 
ATOM     56  F   UNL A   1      43.374  22.664  29.285  1.00  0.00    -0.206 F 
ATOM     57  C   UNL A   1      42.637  20.537  26.460  1.00  0.00     0.060 A 
BRANCH  57  58
ATOM     58  S   UNL A   1      42.314  18.799  26.092  1.00  0.00     0.124 S 
ATOM     59  O   UNL A   1      40.897  18.829  25.752  1.00  0.00    -0.237 OA
ATOM     60  O   UNL A   1      43.231  18.547  24.984  1.00  0.00    -0.237 OA
ATOM     61  O   UNL A   1      42.652  18.121  27.340  1.00  0.00    -0.744 OA
ENDBRANCH  57  58
ENDBRANCH  25  50
BRANCH  37  62
ATOM     62  C   UNL A   1      49.293  26.676  26.014  1.00  0.00     0.058 A 
ATOM     63  C   UNL A   1      49.685  26.842  24.677  1.00  0.00     0.135 A 
ATOM     64  C   UNL A   1      50.252  26.210  26.928  1.00  0.00     0.135 A 
ATOM     65  F   UNL A   1      48.802  27.270  23.761  1.00  0.00    -0.206 F 
ATOM     66  C   UNL A   1      50.985  26.564  24.265  1.00  0.00     0.059 A 
ATOM     67  C   UNL A   1      51.563  25.953  26.543  1.00  0.00     0.059 A 
ATOM     68  F   UNL A   1      49.926  26.038  28.220  1.00  0.00    -0.206 F 
ATOM     69  C   UNL A   1      51.920  26.135  25.209  1.00  0.00     0.060 A 
BRANCH  69  70
ATOM     70  S   UNL A   1      53.626  25.870  24.678  1.00  0.00     0.124 S 
ATOM     71  O   UNL A   1      53.641  26.548  23.387  1.00  0.00    -0.237 OA
ATOM     72  O   UNL A   1      54.385  26.516  25.744  1.00  0.00    -0.237 OA
ATOM     73  O   UNL A   1      53.743  24.416  24.625  1.00  0.00    -0.744 OA
ENDBRANCH  69  70
ENDBRANCH  37  62
ENDBRANCH  11  12
ENDBRANCH   4   6
ENDBRANCH   1   2
BRANCH   1  74
ATOM     74  C   UNL A   1      34.879  29.889  27.290  1.00  0.00     0.042 C 
BRANCH  74  75
ATOM     75  C   UNL A   1      33.449  30.259  26.931  1.00  0.00     0.118 C 
BRANCH  75  76
ATOM     76  N   UNL A   1      32.483  29.451  27.626  1.00  0.00    -0.351 N 
ATOM     77  C   UNL A   1      31.864  28.313  27.197  1.00  0.00     0.278 C 
ATOM     78  H   UNL A   1      32.237  29.759  28.529  1.00  0.00     0.163 HD
ATOM     79  O   UNL A   1      31.033  27.828  27.973  1.00  0.00    -0.268 OA
BRANCH  77  80
ATOM     80  C   UNL A   1      32.246  27.646  25.822  1.00  0.00     0.275 C 
ATOM     81  C   UNL A   1      33.430  26.671  26.075  1.00  0.00     0.085 C 
ATOM     82  N   UNL A   1      31.107  26.816  25.314  1.00  0.00    -0.320 N 
ATOM     83  C   UNL A   1      32.876  25.302  25.730  1.00  0.00     0.054 C 
ATOM     84  C   UNL A   1      31.371  25.484  25.915  1.00  0.00     0.188 C 
ATOM     85  H   UNL A   1      30.236  27.266  25.599  1.00  0.00     0.349 HD
ATOM     86  C   UNL A   1      33.400  24.101  26.501  1.00  0.00     0.010 C 
ATOM     87  C   UNL A   1      30.593  24.239  25.475  1.00  0.00     0.065 C 
ATOM     88  C   UNL A   1      32.658  22.846  26.028  1.00  0.00     0.001 C 
ATOM     89  C   UNL A   1      31.139  22.987  26.174  1.00  0.00     0.006 C 
BRANCH  82  90
ATOM     90  C   UNL A   1      30.738  26.797  23.868  1.00  0.00     0.186 C 
ATOM     91  C   UNL A   1      29.271  27.132  23.504  1.00  0.00     0.076 C 
ATOM     92  C   UNL A   1      31.643  27.444  22.798  1.00  0.00     0.076 C 
ATOM     93  C   UNL A   1      28.902  28.603  23.328  1.00  0.00     0.075 C 
ATOM     94  C   UNL A   1      31.556  28.956  22.711  1.00  0.00     0.075 C 
ATOM     95  S   UNL A   1      29.926  29.470  22.112  1.00  0.00    -0.162 SA
ENDBRANCH  82  90
ENDBRANCH  77  80
ENDBRANCH  75  76
ENDBRANCH  74  75
ENDBRANCH   1  74
TORSDOF 14
ENDMDL
