MODEL 1
REMARK VINA RESULT:     -12.9      0.000      0.000
REMARK SMILES Cc1cccc(C(=O)NCCCNC(=O)c2ccc(-c3c4nc(c(-c5c(F)cc(S(=O)(=O)[O-])cc5F)c5ccc([nH]5)c(-c5c(F)cc(S(=O)(=O)[O-])cc5F)c5nc(c(-c6c(F)cc(S(=O)(=O)[O-])cc6F)c6ccc3[nH]6)C=C5)C=C4)cc2)c1O[C@H](C)[C@H](C)O
REMARK SMILES IDX 10 1 9 2 7 3 8 4 6 6 1 7 2 8 3 9 82 10 4 11 5 12 83 13 84 14
REMARK SMILES IDX 85 15 86 16 87 17 88 18 11 20 12 21 13 22 14 23 15 25 16 26
REMARK SMILES IDX 17 27 81 28 18 29 80 30 19 31 20 32 21 33 74 34 22 35 79 36
REMARK SMILES IDX 73 37 75 38 23 39 78 40 72 41 71 42 24 44 58 45 37 46 57 47
REMARK SMILES IDX 38 48 41 49 56 50 76 51 39 52 40 53 55 55 77 56 42 57 25 58
REMARK SMILES IDX 26 59 35 60 27 61 28 62 34 63 36 64 29 65 30 66 31 67 32 68
REMARK SMILES IDX 33 69 59 70 60 71 69 72 61 73 62 74 68 75 70 76 63 77 64 78
REMARK SMILES IDX 65 79 66 80 67 81 43 82 44 83 53 84 45 85 46 86 52 87 54 88
REMARK SMILES IDX 47 89 48 90 49 91 50 92 51 93
REMARK H PARENT 9 5 88 19 13 24 75 43 41 54
REMARK Flexibility Score: inf
ROOT
ATOM      1  C   UNL A   1      37.404  22.005  24.572  1.00  0.00     0.118 C 
ENDROOT
BRANCH   1   2
ATOM      2  N   UNL A   1      36.189  22.732  23.898  1.00  0.00    -0.352 N 
ATOM      3  C   UNL A   1      34.976  23.423  23.774  1.00  0.00     0.255 C 
ATOM      4  O   UNL A   1      34.961  23.876  22.607  1.00  0.00    -0.269 OA
ATOM      5  H   UNL A   1      36.441  22.652  22.951  1.00  0.00     0.163 HD
BRANCH   3   6
ATOM      6  C   UNL A   1      33.680  23.793  24.600  1.00  0.00     0.082 A 
ATOM      7  C   UNL A   1      30.413  22.864  26.482  1.00  0.00     0.048 C 
ATOM      8  C   UNL A   1      31.569  23.695  25.963  1.00  0.00    -0.008 A 
ATOM      9  C   UNL A   1      31.753  24.978  26.446  1.00  0.00     0.007 A 
ATOM     10  C   UNL A   1      32.436  23.184  24.949  1.00  0.00     0.135 A 
ATOM     11  C   UNL A   1      32.831  25.707  25.986  1.00  0.00     0.001 A 
ATOM     12  C   UNL A   1      33.778  25.113  25.130  1.00  0.00     0.018 A 
BRANCH  10  13
ATOM     13  O   UNL A   1      31.758  22.131  24.378  1.00  0.00    -0.487 OA
BRANCH  13  14
ATOM     14  C   UNL A   1      32.574  21.150  23.772  1.00  0.00     0.198 C 
ATOM     15  C   UNL A   1      31.883  21.163  22.367  1.00  0.00     0.056 C 
BRANCH  14  16
ATOM     16  C   UNL A   1      32.909  20.164  25.031  1.00  0.00     0.151 C 
ATOM     17  C   UNL A   1      34.299  19.522  24.932  1.00  0.00     0.042 C 
BRANCH  16  18
ATOM     18  O   UNL A   1      32.086  19.092  25.466  1.00  0.00    -0.390 OA
ATOM     19  H   UNL A   1      31.183  19.225  25.140  1.00  0.00     0.211 HD
ENDBRANCH  16  18
ENDBRANCH  14  16
ENDBRANCH  13  14
ENDBRANCH  10  13
ENDBRANCH   3   6
ENDBRANCH   1   2
BRANCH   1  20
ATOM     20  C   UNL A   1      37.928  22.250  26.008  1.00  0.00     0.042 C 
BRANCH  20  21
ATOM     21  C   UNL A   1      38.369  23.630  26.462  1.00  0.00     0.118 C 
BRANCH  21  22
ATOM     22  N   UNL A   1      39.613  23.520  27.266  1.00  0.00    -0.352 N 
ATOM     23  C   UNL A   1      40.333  24.504  27.932  1.00  0.00     0.251 C 
ATOM     24  H   UNL A   1      39.985  22.612  27.338  1.00  0.00     0.163 HD
ATOM     25  O   UNL A   1      41.402  24.335  28.469  1.00  0.00    -0.269 OA
BRANCH  23  26
ATOM     26  C   UNL A   1      39.640  25.797  28.022  1.00  0.00     0.039 A 
ATOM     27  C   UNL A   1      40.133  26.774  27.143  1.00  0.00     0.014 A 
ATOM     28  C   UNL A   1      39.097  26.098  29.265  1.00  0.00     0.014 A 
ATOM     29  C   UNL A   1      40.331  28.054  27.623  1.00  0.00     0.010 A 
ATOM     30  C   UNL A   1      39.382  27.344  29.767  1.00  0.00     0.010 A 
ATOM     31  C   UNL A   1      40.061  28.284  28.967  1.00  0.00    -0.014 A 
BRANCH  31  32
ATOM     32  C   UNL A   1      40.345  29.535  29.635  1.00  0.00     0.031 A 
ATOM     33  C   UNL A   1      39.292  30.555  29.516  1.00  0.00     0.074 A 
ATOM     34  C   UNL A   1      41.439  29.670  30.412  1.00  0.00     0.049 A 
ATOM     35  N   UNL A   1      39.410  31.784  29.861  1.00  0.00    -0.248 NA
ATOM     36  C   UNL A   1      37.998  30.251  28.906  1.00  0.00     0.031 C 
ATOM     37  C   UNL A   1      41.708  30.714  31.396  1.00  0.00     0.029 A 
ATOM     38  N   UNL A   1      42.652  28.976  30.304  1.00  0.00    -0.354 N 
ATOM     39  C   UNL A   1      38.161  32.362  29.777  1.00  0.00     0.074 A 
ATOM     40  C   UNL A   1      37.345  31.396  29.096  1.00  0.00     0.031 C 
ATOM     41  C   UNL A   1      43.036  30.797  31.586  1.00  0.00     0.029 A 
ATOM     42  C   UNL A   1      43.661  29.920  30.610  1.00  0.00     0.049 A 
ATOM     43  H   UNL A   1      42.778  28.029  30.065  1.00  0.00     0.167 HD
ATOM     44  C   UNL A   1      37.967  33.545  30.422  1.00  0.00     0.037 A 
ATOM     45  C   UNL A   1      44.530  30.340  29.643  1.00  0.00     0.037 A 
ATOM     46  C   UNL A   1      39.269  34.098  30.807  1.00  0.00     0.049 A 
ATOM     47  C   UNL A   1      44.389  31.816  29.333  1.00  0.00     0.074 A 
ATOM     48  C   UNL A   1      40.007  34.047  31.979  1.00  0.00     0.029 A 
ATOM     49  N   UNL A   1      40.162  34.454  29.798  1.00  0.00    -0.354 N 
ATOM     50  N   UNL A   1      43.312  32.516  29.577  1.00  0.00    -0.248 NA
ATOM     51  C   UNL A   1      45.464  32.629  28.773  1.00  0.00     0.031 C 
ATOM     52  C   UNL A   1      41.374  34.252  31.640  1.00  0.00     0.029 A 
ATOM     53  C   UNL A   1      41.460  34.471  30.275  1.00  0.00     0.049 A 
ATOM     54  H   UNL A   1      39.904  34.664  28.871  1.00  0.00     0.167 HD
ATOM     55  C   UNL A   1      43.525  33.828  29.236  1.00  0.00     0.074 A 
ATOM     56  C   UNL A   1      44.892  33.846  28.747  1.00  0.00     0.031 C 
ATOM     57  C   UNL A   1      42.570  34.797  29.385  1.00  0.00     0.037 A 
BRANCH  44  58
ATOM     58  C   UNL A   1      36.625  34.047  30.930  1.00  0.00     0.058 A 
ATOM     59  C   UNL A   1      35.570  34.271  30.018  1.00  0.00     0.135 A 
ATOM     60  C   UNL A   1      36.323  34.425  32.257  1.00  0.00     0.135 A 
ATOM     61  F   UNL A   1      35.682  33.932  28.726  1.00  0.00    -0.206 F 
ATOM     62  C   UNL A   1      34.357  34.868  30.379  1.00  0.00     0.059 A 
ATOM     63  C   UNL A   1      35.133  35.048  32.637  1.00  0.00     0.059 A 
ATOM     64  F   UNL A   1      37.146  34.190  33.279  1.00  0.00    -0.206 F 
ATOM     65  C   UNL A   1      34.153  35.271  31.691  1.00  0.00     0.060 A 
BRANCH  65  66
ATOM     66  S   UNL A   1      32.598  36.055  32.150  1.00  0.00     0.124 S 
ATOM     67  O   UNL A   1      32.220  36.729  30.912  1.00  0.00    -0.237 OA
ATOM     68  O   UNL A   1      31.781  34.908  32.528  1.00  0.00    -0.237 OA
ATOM     69  O   UNL A   1      32.974  36.941  33.249  1.00  0.00    -0.744 OA
ENDBRANCH  65  66
ENDBRANCH  44  58
BRANCH  45  70
ATOM     70  C   UNL A   1      44.901  29.249  28.693  1.00  0.00     0.058 A 
ATOM     71  C   UNL A   1      44.347  29.306  27.396  1.00  0.00     0.135 A 
ATOM     72  C   UNL A   1      46.070  28.491  28.855  1.00  0.00     0.135 A 
ATOM     73  F   UNL A   1      43.220  30.005  27.180  1.00  0.00    -0.206 F 
ATOM     74  C   UNL A   1      45.010  28.793  26.285  1.00  0.00     0.059 A 
ATOM     75  C   UNL A   1      46.747  27.956  27.752  1.00  0.00     0.059 A 
ATOM     76  F   UNL A   1      46.642  28.383  30.062  1.00  0.00    -0.206 F 
ATOM     77  C   UNL A   1      46.243  28.173  26.468  1.00  0.00     0.060 A 
BRANCH  77  78
ATOM     78  S   UNL A   1      47.249  27.845  24.997  1.00  0.00     0.124 S 
ATOM     79  O   UNL A   1      46.625  28.709  24.005  1.00  0.00    -0.237 OA
ATOM     80  O   UNL A   1      48.582  28.261  25.439  1.00  0.00    -0.237 OA
ATOM     81  O   UNL A   1      47.084  26.412  24.792  1.00  0.00    -0.744 OA
ENDBRANCH  77  78
ENDBRANCH  45  70
BRANCH  57  82
ATOM     82  C   UNL A   1      42.615  36.184  28.776  1.00  0.00     0.058 A 
ATOM     83  C   UNL A   1      43.116  37.318  29.436  1.00  0.00     0.135 A 
ATOM     84  C   UNL A   1      42.296  36.373  27.407  1.00  0.00     0.135 A 
ATOM     85  F   UNL A   1      43.568  37.255  30.697  1.00  0.00    -0.206 F 
ATOM     86  C   UNL A   1      43.223  38.563  28.812  1.00  0.00     0.059 A 
ATOM     87  C   UNL A   1      42.464  37.587  26.746  1.00  0.00     0.059 A 
ATOM     88  F   UNL A   1      41.822  35.373  26.649  1.00  0.00    -0.206 F 
ATOM     89  C   UNL A   1      42.897  38.686  27.466  1.00  0.00     0.060 A 
BRANCH  89  90
ATOM     90  S   UNL A   1      43.091  40.276  26.643  1.00  0.00     0.124 S 
ATOM     91  O   UNL A   1      43.367  41.154  27.775  1.00  0.00    -0.237 OA
ATOM     92  O   UNL A   1      44.213  40.037  25.741  1.00  0.00    -0.237 OA
ATOM     93  O   UNL A   1      41.801  40.474  25.988  1.00  0.00    -0.744 OA
ENDBRANCH  89  90
ENDBRANCH  57  82
ENDBRANCH  31  32
ENDBRANCH  23  26
ENDBRANCH  21  22
ENDBRANCH  20  21
ENDBRANCH   1  20
TORSDOF 17
ENDMDL
MODEL 2
REMARK VINA RESULT:     -12.8      5.052     11.561
REMARK SMILES Cc1cccc(C(=O)NCCCNC(=O)c2ccc(-c3c4nc(c(-c5c(F)cc(S(=O)(=O)[O-])cc5F)c5ccc([nH]5)c(-c5c(F)cc(S(=O)(=O)[O-])cc5F)c5nc(c(-c6c(F)cc(S(=O)(=O)[O-])cc6F)c6ccc3[nH]6)C=C5)C=C4)cc2)c1O[C@H](C)[C@H](C)O
REMARK SMILES IDX 10 1 9 2 7 3 8 4 6 6 1 7 2 8 3 9 82 10 4 11 5 12 83 13 84 14
REMARK SMILES IDX 85 15 86 16 87 17 88 18 11 20 12 21 13 22 14 23 15 25 16 26
REMARK SMILES IDX 17 27 81 28 18 29 80 30 19 31 20 32 21 33 74 34 22 35 79 36
REMARK SMILES IDX 73 37 75 38 23 39 78 40 72 41 71 42 24 44 58 45 37 46 57 47
REMARK SMILES IDX 38 48 41 49 56 50 76 51 39 52 40 53 55 55 77 56 42 57 25 58
REMARK SMILES IDX 26 59 35 60 27 61 28 62 34 63 36 64 29 65 30 66 31 67 32 68
REMARK SMILES IDX 33 69 59 70 60 71 69 72 61 73 62 74 68 75 70 76 63 77 64 78
REMARK SMILES IDX 65 79 66 80 67 81 43 82 44 83 53 84 45 85 46 86 52 87 54 88
REMARK SMILES IDX 47 89 48 90 49 91 50 92 51 93
REMARK H PARENT 9 5 88 19 13 24 75 43 41 54
REMARK Flexibility Score: inf
ROOT
ATOM      1  C   UNL A   1      33.042  28.811  25.662  1.00  0.00     0.118 C 
ENDROOT
BRANCH   1   2
ATOM      2  N   UNL A   1      32.655  27.298  25.791  1.00  0.00    -0.352 N 
ATOM      3  C   UNL A   1      32.798  25.905  25.844  1.00  0.00     0.255 C 
ATOM      4  O   UNL A   1      31.731  25.471  26.333  1.00  0.00    -0.269 OA
ATOM      5  H   UNL A   1      31.682  27.377  25.918  1.00  0.00     0.163 HD
BRANCH   3   6
ATOM      6  C   UNL A   1      33.831  24.760  25.496  1.00  0.00     0.082 A 
ATOM      7  C   UNL A   1      36.685  23.230  23.352  1.00  0.00     0.048 C 
ATOM      8  C   UNL A   1      35.695  23.407  24.485  1.00  0.00    -0.008 A 
ATOM      9  C   UNL A   1      35.797  22.603  25.606  1.00  0.00     0.007 A 
ATOM     10  C   UNL A   1      34.634  24.359  24.384  1.00  0.00     0.135 A 
ATOM     11  C   UNL A   1      34.907  22.802  26.643  1.00  0.00     0.001 A 
ATOM     12  C   UNL A   1      33.992  23.871  26.599  1.00  0.00     0.018 A 
BRANCH  10  13
ATOM     13  O   UNL A   1      34.530  24.656  23.045  1.00  0.00    -0.487 OA
BRANCH  13  14
ATOM     14  C   UNL A   1      33.214  24.646  22.529  1.00  0.00     0.198 C 
ATOM     15  C   UNL A   1      33.237  23.184  21.968  1.00  0.00     0.056 C 
BRANCH  14  16
ATOM     16  C   UNL A   1      33.023  26.200  22.062  1.00  0.00     0.151 C 
ATOM     17  C   UNL A   1      31.613  26.737  22.342  1.00  0.00     0.042 C 
BRANCH  16  18
ATOM     18  O   UNL A   1      33.308  26.700  20.764  1.00  0.00    -0.390 OA
ATOM     19  H   UNL A   1      33.510  27.647  20.820  1.00  0.00     0.211 HD
ENDBRANCH  16  18
ENDBRANCH  14  16
ENDBRANCH  13  14
ENDBRANCH  10  13
ENDBRANCH   3   6
ENDBRANCH   1   2
BRANCH   1  20
ATOM     20  C   UNL A   1      34.341  29.467  26.193  1.00  0.00     0.042 C 
BRANCH  20  21
ATOM     21  C   UNL A   1      34.610  29.588  27.682  1.00  0.00     0.118 C 
BRANCH  21  22
ATOM     22  N   UNL A   1      35.531  30.726  27.934  1.00  0.00    -0.352 N 
ATOM     23  C   UNL A   1      36.866  30.725  28.315  1.00  0.00     0.251 C 
ATOM     24  H   UNL A   1      35.133  31.618  27.815  1.00  0.00     0.163 HD
ATOM     25  O   UNL A   1      37.503  31.709  28.607  1.00  0.00    -0.269 OA
BRANCH  23  26
ATOM     26  C   UNL A   1      37.506  29.404  28.250  1.00  0.00     0.039 A 
ATOM     27  C   UNL A   1      37.568  28.734  29.482  1.00  0.00     0.014 A 
ATOM     28  C   UNL A   1      38.466  29.254  27.255  1.00  0.00     0.014 A 
ATOM     29  C   UNL A   1      38.747  28.108  29.835  1.00  0.00     0.010 A 
ATOM     30  C   UNL A   1      39.666  28.713  27.646  1.00  0.00     0.010 A 
ATOM     31  C   UNL A   1      39.817  28.212  28.954  1.00  0.00    -0.014 A 
BRANCH  31  32
ATOM     32  C   UNL A   1      41.144  27.720  29.251  1.00  0.00     0.031 A 
ATOM     33  C   UNL A   1      41.397  26.329  28.844  1.00  0.00     0.074 A 
ATOM     34  C   UNL A   1      42.094  28.545  29.738  1.00  0.00     0.049 A 
ATOM     35  N   UNL A   1      42.423  25.636  29.173  1.00  0.00    -0.248 NA
ATOM     36  C   UNL A   1      40.424  25.575  28.054  1.00  0.00     0.031 C 
ATOM     37  C   UNL A   1      43.534  28.314  29.786  1.00  0.00     0.029 A 
ATOM     38  N   UNL A   1      41.904  29.705  30.502  1.00  0.00    -0.354 N 
ATOM     39  C   UNL A   1      42.388  24.467  28.444  1.00  0.00     0.074 A 
ATOM     40  C   UNL A   1      41.086  24.441  27.837  1.00  0.00     0.031 C 
ATOM     41  C   UNL A   1      44.065  29.090  30.747  1.00  0.00     0.029 A 
ATOM     42  C   UNL A   1      42.956  29.716  31.448  1.00  0.00     0.049 A 
ATOM     43  H   UNL A   1      41.189  30.375  30.402  1.00  0.00     0.167 HD
ATOM     44  C   UNL A   1      43.537  23.740  28.357  1.00  0.00     0.037 A 
ATOM     45  C   UNL A   1      42.692  29.545  32.777  1.00  0.00     0.037 A 
ATOM     46  C   UNL A   1      44.490  24.234  29.356  1.00  0.00     0.049 A 
ATOM     47  C   UNL A   1      43.301  28.276  33.336  1.00  0.00     0.074 A 
ATOM     48  C   UNL A   1      45.538  25.138  29.294  1.00  0.00     0.029 A 
ATOM     49  N   UNL A   1      44.161  24.107  30.704  1.00  0.00    -0.354 N 
ATOM     50  N   UNL A   1      43.633  27.242  32.608  1.00  0.00    -0.248 NA
ATOM     51  C   UNL A   1      43.633  28.093  34.746  1.00  0.00     0.031 C 
ATOM     52  C   UNL A   1      45.749  25.648  30.606  1.00  0.00     0.029 A 
ATOM     53  C   UNL A   1      44.863  25.022  31.468  1.00  0.00     0.049 A 
ATOM     54  H   UNL A   1      43.515  23.456  31.064  1.00  0.00     0.167 HD
ATOM     55  C   UNL A   1      44.210  26.283  33.402  1.00  0.00     0.074 A 
ATOM     56  C   UNL A   1      44.196  26.872  34.730  1.00  0.00     0.031 C 
ATOM     57  C   UNL A   1      44.661  25.088  32.912  1.00  0.00     0.037 A 
BRANCH  44  58
ATOM     58  C   UNL A   1      43.884  22.797  27.217  1.00  0.00     0.058 A 
ATOM     59  C   UNL A   1      43.106  21.636  27.008  1.00  0.00     0.135 A 
ATOM     60  C   UNL A   1      45.001  22.898  26.360  1.00  0.00     0.135 A 
ATOM     61  F   UNL A   1      41.990  21.407  27.714  1.00  0.00    -0.206 F 
ATOM     62  C   UNL A   1      43.443  20.644  26.079  1.00  0.00     0.059 A 
ATOM     63  C   UNL A   1      45.374  21.911  25.446  1.00  0.00     0.059 A 
ATOM     64  F   UNL A   1      45.790  23.973  26.327  1.00  0.00    -0.206 F 
ATOM     65  C   UNL A   1      44.591  20.781  25.313  1.00  0.00     0.060 A 
BRANCH  65  66
ATOM     66  S   UNL A   1      45.031  19.496  24.132  1.00  0.00     0.124 S 
ATOM     67  O   UNL A   1      46.484  19.450  24.258  1.00  0.00    -0.237 OA
ATOM     68  O   UNL A   1      44.308  18.342  24.655  1.00  0.00    -0.237 OA
ATOM     69  O   UNL A   1      44.535  20.016  22.860  1.00  0.00    -0.744 OA
ENDBRANCH  65  66
ENDBRANCH  44  58
BRANCH  45  70
ATOM     70  C   UNL A   1      41.411  30.191  33.194  1.00  0.00     0.058 A 
ATOM     71  C   UNL A   1      41.422  31.592  33.367  1.00  0.00     0.135 A 
ATOM     72  C   UNL A   1      40.167  29.585  32.967  1.00  0.00     0.135 A 
ATOM     73  F   UNL A   1      42.581  32.229  33.602  1.00  0.00    -0.206 F 
ATOM     74  C   UNL A   1      40.291  32.373  33.148  1.00  0.00     0.059 A 
ATOM     75  C   UNL A   1      39.014  30.352  32.754  1.00  0.00     0.059 A 
ATOM     76  F   UNL A   1      40.082  28.258  32.806  1.00  0.00    -0.206 F 
ATOM     77  C   UNL A   1      39.104  31.745  32.779  1.00  0.00     0.060 A 
BRANCH  77  78
ATOM     78  S   UNL A   1      37.761  32.784  32.147  1.00  0.00     0.124 S 
ATOM     79  O   UNL A   1      37.412  33.574  33.320  1.00  0.00    -0.237 OA
ATOM     80  O   UNL A   1      38.425  33.521  31.070  1.00  0.00    -0.237 OA
ATOM     81  O   UNL A   1      36.765  31.814  31.711  1.00  0.00    -0.744 OA
ENDBRANCH  77  78
ENDBRANCH  45  70
BRANCH  57  82
ATOM     82  C   UNL A   1      45.038  23.877  33.743  1.00  0.00     0.058 A 
ATOM     83  C   UNL A   1      44.128  22.887  34.149  1.00  0.00     0.135 A 
ATOM     84  C   UNL A   1      46.401  23.595  34.017  1.00  0.00     0.135 A 
ATOM     85  F   UNL A   1      42.823  22.966  33.849  1.00  0.00    -0.206 F 
ATOM     86  C   UNL A   1      44.527  21.740  34.839  1.00  0.00     0.059 A 
ATOM     87  C   UNL A   1      46.826  22.424  34.639  1.00  0.00     0.059 A 
ATOM     88  F   UNL A   1      47.379  24.445  33.672  1.00  0.00    -0.206 F 
ATOM     89  C   UNL A   1      45.878  21.516  35.076  1.00  0.00     0.060 A 
BRANCH  89  90
ATOM     90  S   UNL A   1      46.400  20.010  35.914  1.00  0.00     0.124 S 
ATOM     91  O   UNL A   1      45.671  20.114  37.173  1.00  0.00    -0.237 OA
ATOM     92  O   UNL A   1      45.943  18.962  35.005  1.00  0.00    -0.237 OA
ATOM     93  O   UNL A   1      47.849  20.162  36.005  1.00  0.00    -0.744 OA
ENDBRANCH  89  90
ENDBRANCH  57  82
ENDBRANCH  31  32
ENDBRANCH  23  26
ENDBRANCH  21  22
ENDBRANCH  20  21
ENDBRANCH   1  20
TORSDOF 17
ENDMDL
MODEL 3
REMARK VINA RESULT:     -12.7      4.352     10.820
REMARK SMILES Cc1cccc(C(=O)NCCCNC(=O)c2ccc(-c3c4nc(c(-c5c(F)cc(S(=O)(=O)[O-])cc5F)c5ccc([nH]5)c(-c5c(F)cc(S(=O)(=O)[O-])cc5F)c5nc(c(-c6c(F)cc(S(=O)(=O)[O-])cc6F)c6ccc3[nH]6)C=C5)C=C4)cc2)c1O[C@H](C)[C@H](C)O
REMARK SMILES IDX 10 1 9 2 7 3 8 4 6 6 1 7 2 8 3 9 82 10 4 11 5 12 83 13 84 14
REMARK SMILES IDX 85 15 86 16 87 17 88 18 11 20 12 21 13 22 14 23 15 25 16 26
REMARK SMILES IDX 17 27 81 28 18 29 80 30 19 31 20 32 21 33 74 34 22 35 79 36
REMARK SMILES IDX 73 37 75 38 23 39 78 40 72 41 71 42 24 44 58 45 37 46 57 47
REMARK SMILES IDX 38 48 41 49 56 50 76 51 39 52 40 53 55 55 77 56 42 57 25 58
REMARK SMILES IDX 26 59 35 60 27 61 28 62 34 63 36 64 29 65 30 66 31 67 32 68
REMARK SMILES IDX 33 69 59 70 60 71 69 72 61 73 62 74 68 75 70 76 63 77 64 78
REMARK SMILES IDX 65 79 66 80 67 81 43 82 44 83 53 84 45 85 46 86 52 87 54 88
REMARK SMILES IDX 47 89 48 90 49 91 50 92 51 93
REMARK H PARENT 9 5 88 19 13 24 75 43 41 54
REMARK Flexibility Score: inf
ROOT
ATOM      1  C   UNL A   1      31.424  28.609  25.438  1.00  0.00     0.118 C 
ENDROOT
BRANCH   1   2
ATOM      2  N   UNL A   1      31.220  27.072  25.669  1.00  0.00    -0.352 N 
ATOM      3  C   UNL A   1      31.531  25.724  25.895  1.00  0.00     0.255 C 
ATOM      4  O   UNL A   1      30.461  25.183  26.252  1.00  0.00    -0.269 OA
ATOM      5  H   UNL A   1      30.238  27.019  25.629  1.00  0.00     0.163 HD
BRANCH   3   6
ATOM      6  C   UNL A   1      32.749  24.717  25.843  1.00  0.00     0.082 A 
ATOM      7  C   UNL A   1      36.279  23.639  24.635  1.00  0.00     0.048 C 
ATOM      8  C   UNL A   1      34.977  23.635  25.411  1.00  0.00    -0.008 A 
ATOM      9  C   UNL A   1      34.827  22.767  26.478  1.00  0.00     0.007 A 
ATOM     10  C   UNL A   1      33.893  24.480  25.021  1.00  0.00     0.135 A 
ATOM     11  C   UNL A   1      33.647  22.800  27.194  1.00  0.00     0.001 A 
ATOM     12  C   UNL A   1      32.669  23.772  26.907  1.00  0.00     0.018 A 
BRANCH  10  13
ATOM     13  O   UNL A   1      34.167  24.860  23.727  1.00  0.00    -0.487 OA
BRANCH  13  14
ATOM     14  C   UNL A   1      33.130  24.618  22.799  1.00  0.00     0.198 C 
ATOM     15  C   UNL A   1      33.336  23.071  22.675  1.00  0.00     0.056 C 
BRANCH  14  16
ATOM     16  C   UNL A   1      33.142  25.992  21.915  1.00  0.00     0.151 C 
ATOM     17  C   UNL A   1      31.989  26.940  22.271  1.00  0.00     0.042 C 
BRANCH  16  18
ATOM     18  O   UNL A   1      33.179  26.046  20.496  1.00  0.00    -0.390 OA
ATOM     19  H   UNL A   1      32.453  25.515  20.133  1.00  0.00     0.211 HD
ENDBRANCH  16  18
ENDBRANCH  14  16
ENDBRANCH  13  14
ENDBRANCH  10  13
ENDBRANCH   3   6
ENDBRANCH   1   2
BRANCH   1  20
ATOM     20  C   UNL A   1      32.613  29.456  25.955  1.00  0.00     0.042 C 
BRANCH  20  21
ATOM     21  C   UNL A   1      32.831  29.685  27.440  1.00  0.00     0.118 C 
BRANCH  21  22
ATOM     22  N   UNL A   1      33.493  30.997  27.654  1.00  0.00    -0.352 N 
ATOM     23  C   UNL A   1      34.754  31.288  28.159  1.00  0.00     0.251 C 
ATOM     24  H   UNL A   1      32.955  31.781  27.400  1.00  0.00     0.163 HD
ATOM     25  O   UNL A   1      35.163  32.398  28.402  1.00  0.00    -0.269 OA
BRANCH  23  26
ATOM     26  C   UNL A   1      35.628  30.115  28.300  1.00  0.00     0.039 A 
ATOM     27  C   UNL A   1      35.793  29.678  29.624  1.00  0.00     0.014 A 
ATOM     28  C   UNL A   1      36.613  29.984  27.328  1.00  0.00     0.014 A 
ATOM     29  C   UNL A   1      37.062  29.345  30.055  1.00  0.00     0.010 A 
ATOM     30  C   UNL A   1      37.887  29.745  27.783  1.00  0.00     0.010 A 
ATOM     31  C   UNL A   1      38.107  29.500  29.153  1.00  0.00    -0.014 A 
BRANCH  31  32
ATOM     32  C   UNL A   1      39.499  29.316  29.505  1.00  0.00     0.031 A 
ATOM     33  C   UNL A   1      40.078  28.029  29.094  1.00  0.00     0.074 A 
ATOM     34  C   UNL A   1      40.214  30.325  30.044  1.00  0.00     0.049 A 
ATOM     35  N   UNL A   1      41.220  27.580  29.462  1.00  0.00    -0.248 NA
ATOM     36  C   UNL A   1      39.337  27.090  28.252  1.00  0.00     0.031 C 
ATOM     37  C   UNL A   1      41.665  30.426  30.156  1.00  0.00     0.029 A 
ATOM     38  N   UNL A   1      39.732  31.396  30.811  1.00  0.00    -0.354 N 
ATOM     39  C   UNL A   1      41.484  26.449  28.720  1.00  0.00     0.074 A 
ATOM     40  C   UNL A   1      40.249  26.141  28.054  1.00  0.00     0.031 C 
ATOM     41  C   UNL A   1      41.964  31.282  31.149  1.00  0.00     0.029 A 
ATOM     42  C   UNL A   1      40.713  31.625  31.805  1.00  0.00     0.049 A 
ATOM     43  H   UNL A   1      38.888  31.887  30.686  1.00  0.00     0.167 HD
ATOM     44  C   UNL A   1      42.770  26.004  28.677  1.00  0.00     0.037 A 
ATOM     45  C   UNL A   1      40.439  31.370  33.119  1.00  0.00     0.037 A 
ATOM     46  C   UNL A   1      43.543  26.680  29.725  1.00  0.00     0.049 A 
ATOM     47  C   UNL A   1      41.297  30.261  33.690  1.00  0.00     0.074 A 
ATOM     48  C   UNL A   1      44.359  27.800  29.721  1.00  0.00     0.029 A 
ATOM     49  N   UNL A   1      43.194  26.453  31.055  1.00  0.00    -0.354 N 
ATOM     50  N   UNL A   1      41.886  29.345  32.968  1.00  0.00    -0.248 NA
ATOM     51  C   UNL A   1      41.602  30.128  35.112  1.00  0.00     0.031 C 
ATOM     52  C   UNL A   1      44.393  28.316  31.048  1.00  0.00     0.029 A 
ATOM     53  C   UNL A   1      43.636  27.487  31.861  1.00  0.00     0.049 A 
ATOM     54  H   UNL A   1      42.699  25.665  31.378  1.00  0.00     0.167 HD
ATOM     55  C   UNL A   1      42.633  28.526  33.777  1.00  0.00     0.074 A 
ATOM     56  C   UNL A   1      42.428  29.067  35.109  1.00  0.00     0.031 C 
ATOM     57  C   UNL A   1      43.365  27.475  33.294  1.00  0.00     0.037 A 
BRANCH  44  58
ATOM     58  C   UNL A   1      43.371  25.189  27.544  1.00  0.00     0.058 A 
ATOM     59  C   UNL A   1      43.591  23.804  27.719  1.00  0.00     0.135 A 
ATOM     60  C   UNL A   1      43.846  25.693  26.313  1.00  0.00     0.135 A 
ATOM     61  F   UNL A   1      43.168  23.164  28.818  1.00  0.00    -0.206 F 
ATOM     62  C   UNL A   1      44.272  23.013  26.786  1.00  0.00     0.059 A 
ATOM     63  C   UNL A   1      44.551  24.931  25.381  1.00  0.00     0.059 A 
ATOM     64  F   UNL A   1      43.632  26.948  25.917  1.00  0.00    -0.206 F 
ATOM     65  C   UNL A   1      44.765  23.589  25.625  1.00  0.00     0.060 A 
BRANCH  65  66
ATOM     66  S   UNL A   1      45.655  22.572  24.435  1.00  0.00     0.124 S 
ATOM     67  O   UNL A   1      46.583  23.531  23.848  1.00  0.00    -0.237 OA
ATOM     68  O   UNL A   1      46.248  21.551  25.292  1.00  0.00    -0.237 OA
ATOM     69  O   UNL A   1      44.604  22.097  23.539  1.00  0.00    -0.744 OA
ENDBRANCH  65  66
ENDBRANCH  44  58
BRANCH  45  70
ATOM     70  C   UNL A   1      39.028  31.699  33.483  1.00  0.00     0.058 A 
ATOM     71  C   UNL A   1      38.699  33.065  33.618  1.00  0.00     0.135 A 
ATOM     72  C   UNL A   1      37.972  30.809  33.239  1.00  0.00     0.135 A 
ATOM     73  F   UNL A   1      39.665  33.966  33.868  1.00  0.00    -0.206 F 
ATOM     74  C   UNL A   1      37.422  33.549  33.348  1.00  0.00     0.059 A 
ATOM     75  C   UNL A   1      36.677  31.273  32.974  1.00  0.00     0.059 A 
ATOM     76  F   UNL A   1      38.212  29.497  33.112  1.00  0.00    -0.206 F 
ATOM     77  C   UNL A   1      36.432  32.648  32.965  1.00  0.00     0.060 A 
BRANCH  77  78
ATOM     78  S   UNL A   1      34.901  33.323  32.269  1.00  0.00     0.124 S 
ATOM     79  O   UNL A   1      34.362  32.174  31.552  1.00  0.00    -0.237 OA
ATOM     80  O   UNL A   1      34.164  33.712  33.472  1.00  0.00    -0.237 OA
ATOM     81  O   UNL A   1      35.368  34.429  31.443  1.00  0.00    -0.744 OA
ENDBRANCH  77  78
ENDBRANCH  45  70
BRANCH  57  82
ATOM     82  C   UNL A   1      43.971  26.364  34.128  1.00  0.00     0.058 A 
ATOM     83  C   UNL A   1      43.221  25.407  34.831  1.00  0.00     0.135 A 
ATOM     84  C   UNL A   1      45.371  26.134  34.101  1.00  0.00     0.135 A 
ATOM     85  F   UNL A   1      41.881  25.433  34.840  1.00  0.00    -0.206 F 
ATOM     86  C   UNL A   1      43.815  24.345  35.517  1.00  0.00     0.059 A 
ATOM     87  C   UNL A   1      45.976  25.041  34.717  1.00  0.00     0.059 A 
ATOM     88  F   UNL A   1      46.208  26.959  33.454  1.00  0.00    -0.206 F 
ATOM     89  C   UNL A   1      45.192  24.169  35.452  1.00  0.00     0.060 A 
BRANCH  89  90
ATOM     90  S   UNL A   1      45.954  22.767  36.287  1.00  0.00     0.124 S 
ATOM     91  O   UNL A   1      45.585  23.024  37.674  1.00  0.00    -0.237 OA
ATOM     92  O   UNL A   1      45.296  21.624  35.660  1.00  0.00    -0.237 OA
ATOM     93  O   UNL A   1      47.370  22.917  35.969  1.00  0.00    -0.744 OA
ENDBRANCH  89  90
ENDBRANCH  57  82
ENDBRANCH  31  32
ENDBRANCH  23  26
ENDBRANCH  21  22
ENDBRANCH  20  21
ENDBRANCH   1  20
TORSDOF 17
ENDMDL
