MODEL 1
REMARK VINA RESULT:     -10.9      0.000      0.000
REMARK SMILES C[C@]1(C(=O)NCc2ccc(C(=O)NCCCNC(=O)c3ccc(-c4c5nc(c(-c6c(F)cc(S(=O)(=O)[O-])cc6F)c6ccc([nH]6)c(-c6c(F)cc(S(=O)(=O)[O-])cc6F)c6nc(c(-c7c(F)cc(S(=O)(=O)[O-])cc7F)c7ccc4[nH]7)C=C6)C=C5)cc3)o2)CCC[NH2+]C1
REMARK SMILES IDX 15 1 14 2 13 3 11 4 12 5 10 7 7 8 8 9 86 10 9 11 6 12 5 13
REMARK SMILES IDX 3 14 4 15 2 17 1 18 87 19 91 20 88 21 90 22 89 23 16 26
REMARK SMILES IDX 17 27 18 28 19 30 20 31 21 32 85 33 22 34 84 35 23 36 24 37
REMARK SMILES IDX 25 38 78 39 26 40 83 41 77 42 79 43 27 44 82 45 76 46 75 47
REMARK SMILES IDX 28 49 62 50 41 51 61 52 42 53 45 54 60 55 80 56 43 57 44 58
REMARK SMILES IDX 59 60 81 61 46 62 29 63 30 64 39 65 31 66 32 67 38 68 40 69
REMARK SMILES IDX 33 70 34 71 35 72 36 73 37 74 63 75 64 76 73 77 65 78 66 79
REMARK SMILES IDX 72 80 74 81 67 82 68 83 69 84 70 85 71 86 47 87 48 88 57 89
REMARK SMILES IDX 49 90 50 91 56 92 58 93 51 94 52 95 53 96 54 97 55 98
REMARK H PARENT 13 6 5 16 90 24 90 25 17 29 79 48 45 59
REMARK Flexibility Score: inf
ROOT
ATOM      1  C   UNL A   1      35.108  33.364  27.977  1.00  0.00     0.042 C 
ENDROOT
BRANCH   1   2
ATOM      2  C   UNL A   1      35.121  34.809  28.465  1.00  0.00     0.118 C 
BRANCH   2   3
ATOM      3  N   UNL A   1      33.817  35.438  28.360  1.00  0.00    -0.349 N 
ATOM      4  C   UNL A   1      33.029  36.038  29.319  1.00  0.00     0.286 C 
ATOM      5  O   UNL A   1      32.069  36.684  28.893  1.00  0.00    -0.266 OA
ATOM      6  H   UNL A   1      33.433  35.437  27.454  1.00  0.00     0.163 HD
BRANCH   4   7
ATOM      7  C   UNL A   1      33.343  35.915  30.731  1.00  0.00     0.191 A 
ATOM      8  C   UNL A   1      33.805  34.738  32.557  1.00  0.00     0.124 A 
ATOM      9  C   UNL A   1      33.868  36.066  32.920  1.00  0.00     0.048 A 
ATOM     10  O   UNL A   1      33.455  34.642  31.240  1.00  0.00    -0.454 OA
ATOM     11  C   UNL A   1      33.611  36.815  31.747  1.00  0.00     0.056 A 
BRANCH   8  12
ATOM     12  C   UNL A   1      34.018  33.472  33.304  1.00  0.00     0.191 C 
BRANCH  12  13
ATOM     13  N   UNL A   1      35.043  33.630  34.308  1.00  0.00    -0.348 N 
ATOM     14  C   UNL A   1      36.382  33.465  34.334  1.00  0.00     0.232 C 
ATOM     15  O   UNL A   1      36.910  33.764  35.417  1.00  0.00    -0.274 OA
ATOM     16  H   UNL A   1      34.682  33.928  35.175  1.00  0.00     0.163 HD
BRANCH  14  17
ATOM     17  C   UNL A   1      37.279  33.094  33.125  1.00  0.00     0.095 C 
ATOM     18  C   UNL A   1      37.516  34.393  32.335  1.00  0.00     0.028 C 
ATOM     19  C   UNL A   1      38.640  32.593  33.695  1.00  0.00     0.028 C 
ATOM     20  C   UNL A   1      36.799  31.996  32.160  1.00  0.00     0.277 C 
ATOM     21  C   UNL A   1      38.472  31.224  34.366  1.00  0.00     0.063 C 
ATOM     22  N   UNL A   1      36.616  30.697  32.802  1.00  0.00    -0.345 N 
ATOM     23  C   UNL A   1      37.849  30.206  33.414  1.00  0.00     0.260 C 
ATOM     24  H   UNL A   1      35.903  30.787  33.526  1.00  0.00     0.346 HD
ATOM     25  H   UNL A   1      36.336  30.030  32.083  1.00  0.00     0.346 HD
ENDBRANCH  14  17
ENDBRANCH  12  13
ENDBRANCH   8  12
ENDBRANCH   4   7
ENDBRANCH   2   3
ENDBRANCH   1   2
BRANCH   1  26
ATOM     26  C   UNL A   1      34.365  32.404  28.909  1.00  0.00     0.118 C 
BRANCH  26  27
ATOM     27  N   UNL A   1      33.839  31.245  28.199  1.00  0.00    -0.352 N 
ATOM     28  C   UNL A   1      34.474  30.124  27.723  1.00  0.00     0.251 C 
ATOM     29  H   UNL A   1      32.869  31.269  28.034  1.00  0.00     0.163 HD
ATOM     30  O   UNL A   1      33.866  29.374  26.962  1.00  0.00    -0.269 OA
BRANCH  28  31
ATOM     31  C   UNL A   1      35.871  29.813  28.104  1.00  0.00     0.039 A 
ATOM     32  C   UNL A   1      36.123  29.314  29.386  1.00  0.00     0.014 A 
ATOM     33  C   UNL A   1      36.936  30.064  27.235  1.00  0.00     0.014 A 
ATOM     34  C   UNL A   1      37.432  29.014  29.774  1.00  0.00     0.010 A 
ATOM     35  C   UNL A   1      38.233  29.703  27.599  1.00  0.00     0.010 A 
ATOM     36  C   UNL A   1      38.496  29.177  28.874  1.00  0.00    -0.014 A 
BRANCH  36  37
ATOM     37  C   UNL A   1      39.888  28.808  29.246  1.00  0.00     0.031 A 
ATOM     38  C   UNL A   1      40.759  29.790  29.985  1.00  0.00     0.074 A 
ATOM     39  C   UNL A   1      40.384  27.612  28.872  1.00  0.00     0.049 A 
ATOM     40  N   UNL A   1      42.023  29.693  30.307  1.00  0.00    -0.248 NA
ATOM     41  C   UNL A   1      40.131  31.057  30.397  1.00  0.00     0.031 C 
ATOM     42  C   UNL A   1      39.650  26.586  28.126  1.00  0.00     0.029 A 
ATOM     43  N   UNL A   1      41.627  27.059  29.056  1.00  0.00    -0.354 N 
ATOM     44  C   UNL A   1      42.343  30.882  30.953  1.00  0.00     0.074 A 
ATOM     45  C   UNL A   1      41.155  31.708  30.930  1.00  0.00     0.031 C 
ATOM     46  C   UNL A   1      40.451  25.525  27.931  1.00  0.00     0.029 A 
ATOM     47  C   UNL A   1      41.765  25.807  28.500  1.00  0.00     0.049 A 
ATOM     48  H   UNL A   1      42.352  27.515  29.541  1.00  0.00     0.167 HD
ATOM     49  C   UNL A   1      43.512  31.243  31.535  1.00  0.00     0.037 A 
ATOM     50  C   UNL A   1      42.831  24.987  28.445  1.00  0.00     0.037 A 
ATOM     51  C   UNL A   1      44.686  30.409  31.576  1.00  0.00     0.049 A 
ATOM     52  C   UNL A   1      44.124  25.422  29.083  1.00  0.00     0.074 A 
ATOM     53  C   UNL A   1      45.913  30.677  32.159  1.00  0.00     0.029 A 
ATOM     54  N   UNL A   1      44.776  29.140  31.023  1.00  0.00    -0.354 N 
ATOM     55  N   UNL A   1      44.398  26.539  29.715  1.00  0.00    -0.248 NA
ATOM     56  C   UNL A   1      45.254  24.484  29.004  1.00  0.00     0.031 C 
ATOM     57  C   UNL A   1      46.753  29.582  31.934  1.00  0.00     0.029 A 
ATOM     58  C   UNL A   1      46.037  28.615  31.247  1.00  0.00     0.049 A 
ATOM     59  H   UNL A   1      44.050  28.681  30.541  1.00  0.00     0.167 HD
ATOM     60  C   UNL A   1      45.717  26.422  30.138  1.00  0.00     0.074 A 
ATOM     61  C   UNL A   1      46.184  25.122  29.701  1.00  0.00     0.031 C 
ATOM     62  C   UNL A   1      46.476  27.309  30.827  1.00  0.00     0.037 A 
BRANCH  49  63
ATOM     63  C   UNL A   1      43.579  32.590  32.200  1.00  0.00     0.058 A 
ATOM     64  C   UNL A   1      43.232  32.753  33.552  1.00  0.00     0.135 A 
ATOM     65  C   UNL A   1      44.055  33.715  31.507  1.00  0.00     0.135 A 
ATOM     66  F   UNL A   1      42.756  31.714  34.257  1.00  0.00    -0.206 F 
ATOM     67  C   UNL A   1      43.341  33.984  34.188  1.00  0.00     0.059 A 
ATOM     68  C   UNL A   1      44.196  34.952  32.131  1.00  0.00     0.059 A 
ATOM     69  F   UNL A   1      44.399  33.615  30.213  1.00  0.00    -0.206 F 
ATOM     70  C   UNL A   1      43.828  35.078  33.470  1.00  0.00     0.060 A 
BRANCH  70  71
ATOM     71  S   UNL A   1      43.994  36.661  34.322  1.00  0.00     0.124 S 
ATOM     72  O   UNL A   1      43.702  36.280  35.701  1.00  0.00    -0.237 OA
ATOM     73  O   UNL A   1      45.380  37.021  34.044  1.00  0.00    -0.237 OA
ATOM     74  O   UNL A   1      42.990  37.501  33.678  1.00  0.00    -0.744 OA
ENDBRANCH  70  71
ENDBRANCH  49  63
BRANCH  50  75
ATOM     75  C   UNL A   1      42.734  23.665  27.770  1.00  0.00     0.058 A 
ATOM     76  C   UNL A   1      42.481  22.496  28.505  1.00  0.00     0.135 A 
ATOM     77  C   UNL A   1      42.927  23.536  26.386  1.00  0.00     0.135 A 
ATOM     78  F   UNL A   1      42.292  22.568  29.832  1.00  0.00    -0.206 F 
ATOM     79  C   UNL A   1      42.463  21.244  27.901  1.00  0.00     0.059 A 
ATOM     80  C   UNL A   1      42.886  22.297  25.755  1.00  0.00     0.059 A 
ATOM     81  F   UNL A   1      43.151  24.624  25.632  1.00  0.00    -0.206 F 
ATOM     82  C   UNL A   1      42.673  21.154  26.525  1.00  0.00     0.060 A 
BRANCH  82  83
ATOM     83  S   UNL A   1      42.647  19.525  25.744  1.00  0.00     0.124 S 
ATOM     84  O   UNL A   1      43.112  18.673  26.833  1.00  0.00    -0.237 OA
ATOM     85  O   UNL A   1      41.243  19.382  25.374  1.00  0.00    -0.237 OA
ATOM     86  O   UNL A   1      43.569  19.678  24.623  1.00  0.00    -0.744 OA
ENDBRANCH  82  83
ENDBRANCH  50  75
BRANCH  62  87
ATOM     87  C   UNL A   1      47.869  26.886  31.199  1.00  0.00     0.058 A 
ATOM     88  C   UNL A   1      48.162  26.323  32.450  1.00  0.00     0.135 A 
ATOM     89  C   UNL A   1      48.916  27.006  30.270  1.00  0.00     0.135 A 
ATOM     90  F   UNL A   1      47.198  26.194  33.375  1.00  0.00    -0.206 F 
ATOM     91  C   UNL A   1      49.450  25.913  32.777  1.00  0.00     0.059 A 
ATOM     92  C   UNL A   1      50.206  26.578  30.566  1.00  0.00     0.059 A 
ATOM     93  F   UNL A   1      48.686  27.529  29.055  1.00  0.00    -0.206 F 
ATOM     94  C   UNL A   1      50.466  26.044  31.827  1.00  0.00     0.060 A 
BRANCH  94  95
ATOM     95  S   UNL A   1      52.126  25.477  32.252  1.00  0.00     0.124 S 
ATOM     96  O   UNL A   1      52.941  26.198  31.280  1.00  0.00    -0.237 OA
ATOM     97  O   UNL A   1      52.261  25.912  33.639  1.00  0.00    -0.237 OA
ATOM     98  O   UNL A   1      52.050  24.032  32.061  1.00  0.00    -0.744 OA
ENDBRANCH  94  95
ENDBRANCH  62  87
ENDBRANCH  36  37
ENDBRANCH  28  31
ENDBRANCH  26  27
ENDBRANCH   1  26
TORSDOF 16
ENDMDL
MODEL 2
REMARK VINA RESULT:     -10.7      3.051     12.110
REMARK SMILES C[C@]1(C(=O)NCc2ccc(C(=O)NCCCNC(=O)c3ccc(-c4c5nc(c(-c6c(F)cc(S(=O)(=O)[O-])cc6F)c6ccc([nH]6)c(-c6c(F)cc(S(=O)(=O)[O-])cc6F)c6nc(c(-c7c(F)cc(S(=O)(=O)[O-])cc7F)c7ccc4[nH]7)C=C6)C=C5)cc3)o2)CCC[NH2+]C1
REMARK SMILES IDX 15 1 14 2 13 3 11 4 12 5 10 7 7 8 8 9 86 10 9 11 6 12 5 13
REMARK SMILES IDX 3 14 4 15 2 17 1 18 87 19 91 20 88 21 90 22 89 23 16 26
REMARK SMILES IDX 17 27 18 28 19 30 20 31 21 32 85 33 22 34 84 35 23 36 24 37
REMARK SMILES IDX 25 38 78 39 26 40 83 41 77 42 79 43 27 44 82 45 76 46 75 47
REMARK SMILES IDX 28 49 62 50 41 51 61 52 42 53 45 54 60 55 80 56 43 57 44 58
REMARK SMILES IDX 59 60 81 61 46 62 29 63 30 64 39 65 31 66 32 67 38 68 40 69
REMARK SMILES IDX 33 70 34 71 35 72 36 73 37 74 63 75 64 76 73 77 65 78 66 79
REMARK SMILES IDX 72 80 74 81 67 82 68 83 69 84 70 85 71 86 47 87 48 88 57 89
REMARK SMILES IDX 49 90 50 91 56 92 58 93 51 94 52 95 53 96 54 97 55 98
REMARK H PARENT 13 6 5 16 90 24 90 25 17 29 79 48 45 59
REMARK Flexibility Score: inf
ROOT
ATOM      1  C   UNL A   1      41.457  21.518  26.682  1.00  0.00     0.042 C 
ENDROOT
BRANCH   1   2
ATOM      2  C   UNL A   1      42.151  20.405  27.462  1.00  0.00     0.118 C 
BRANCH   2   3
ATOM      3  N   UNL A   1      42.010  19.112  26.820  1.00  0.00    -0.349 N 
ATOM      4  C   UNL A   1      42.868  18.423  25.990  1.00  0.00     0.286 C 
ATOM      5  O   UNL A   1      42.573  17.244  25.778  1.00  0.00    -0.266 OA
ATOM      6  H   UNL A   1      41.162  18.650  27.010  1.00  0.00     0.163 HD
BRANCH   4   7
ATOM      7  C   UNL A   1      44.046  19.062  25.431  1.00  0.00     0.191 A 
ATOM      8  C   UNL A   1      45.081  20.724  24.384  1.00  0.00     0.124 A 
ATOM      9  C   UNL A   1      46.053  19.806  24.717  1.00  0.00     0.048 A 
ATOM     10  O   UNL A   1      43.860  20.263  24.785  1.00  0.00    -0.454 OA
ATOM     11  C   UNL A   1      45.397  18.765  25.418  1.00  0.00     0.056 A 
BRANCH   8  12
ATOM     12  C   UNL A   1      45.124  22.038  23.691  1.00  0.00     0.191 C 
BRANCH  12  13
ATOM     13  N   UNL A   1      43.995  22.856  24.064  1.00  0.00    -0.348 N 
ATOM     14  C   UNL A   1      43.784  23.824  24.982  1.00  0.00     0.232 C 
ATOM     15  O   UNL A   1      42.648  24.321  24.942  1.00  0.00    -0.274 OA
ATOM     16  H   UNL A   1      43.193  22.665  23.525  1.00  0.00     0.163 HD
BRANCH  14  17
ATOM     17  C   UNL A   1      44.849  24.430  25.930  1.00  0.00     0.095 C 
ATOM     18  C   UNL A   1      45.691  25.404  25.085  1.00  0.00     0.028 C 
ATOM     19  C   UNL A   1      44.090  25.237  27.025  1.00  0.00     0.028 C 
ATOM     20  C   UNL A   1      45.790  23.478  26.687  1.00  0.00     0.277 C 
ATOM     21  C   UNL A   1      43.355  24.289  27.980  1.00  0.00     0.063 C 
ATOM     22  N   UNL A   1      45.090  22.558  27.580  1.00  0.00    -0.345 N 
ATOM     23  C   UNL A   1      44.305  23.262  28.591  1.00  0.00     0.260 C 
ATOM     24  H   UNL A   1      44.465  21.975  27.025  1.00  0.00     0.346 HD
ATOM     25  H   UNL A   1      45.792  21.997  28.063  1.00  0.00     0.346 HD
ENDBRANCH  14  17
ENDBRANCH  12  13
ENDBRANCH   8  12
ENDBRANCH   4   7
ENDBRANCH   2   3
ENDBRANCH   1   2
BRANCH   1  26
ATOM     26  C   UNL A   1      40.064  21.866  27.210  1.00  0.00     0.118 C 
BRANCH  26  27
ATOM     27  N   UNL A   1      39.216  22.453  26.180  1.00  0.00    -0.352 N 
ATOM     28  C   UNL A   1      38.695  23.719  26.066  1.00  0.00     0.251 C 
ATOM     29  H   UNL A   1      38.978  21.843  25.445  1.00  0.00     0.163 HD
ATOM     30  O   UNL A   1      37.825  23.930  25.223  1.00  0.00    -0.269 OA
BRANCH  28  31
ATOM     31  C   UNL A   1      39.155  24.821  26.941  1.00  0.00     0.039 A 
ATOM     32  C   UNL A   1      40.031  25.777  26.413  1.00  0.00     0.014 A 
ATOM     33  C   UNL A   1      38.783  24.887  28.286  1.00  0.00     0.014 A 
ATOM     34  C   UNL A   1      40.485  26.826  27.217  1.00  0.00     0.010 A 
ATOM     35  C   UNL A   1      39.185  25.970  29.068  1.00  0.00     0.010 A 
ATOM     36  C   UNL A   1      40.041  26.951  28.543  1.00  0.00    -0.014 A 
BRANCH  36  37
ATOM     37  C   UNL A   1      40.465  28.092  29.397  1.00  0.00     0.031 A 
ATOM     38  C   UNL A   1      41.775  28.038  30.137  1.00  0.00     0.074 A 
ATOM     39  C   UNL A   1      39.646  29.153  29.548  1.00  0.00     0.049 A 
ATOM     40  N   UNL A   1      42.270  28.885  31.004  1.00  0.00    -0.248 NA
ATOM     41  C   UNL A   1      42.633  26.868  29.886  1.00  0.00     0.031 C 
ATOM     42  C   UNL A   1      38.337  29.310  28.909  1.00  0.00     0.029 A 
ATOM     43  N   UNL A   1      39.785  30.295  30.296  1.00  0.00    -0.354 N 
ATOM     44  C   UNL A   1      43.490  28.350  31.404  1.00  0.00     0.074 A 
ATOM     45  C   UNL A   1      43.636  27.080  30.726  1.00  0.00     0.031 C 
ATOM     46  C   UNL A   1      37.803  30.485  29.280  1.00  0.00     0.029 A 
ATOM     47  C   UNL A   1      38.709  31.148  30.212  1.00  0.00     0.049 A 
ATOM     48  H   UNL A   1      40.582  30.486  30.843  1.00  0.00     0.167 HD
ATOM     49  C   UNL A   1      44.416  28.880  32.239  1.00  0.00     0.037 A 
ATOM     50  C   UNL A   1      38.474  32.323  30.826  1.00  0.00     0.037 A 
ATOM     51  C   UNL A   1      44.277  30.155  32.894  1.00  0.00     0.049 A 
ATOM     52  C   UNL A   1      39.511  32.880  31.766  1.00  0.00     0.074 A 
ATOM     53  C   UNL A   1      45.167  30.789  33.744  1.00  0.00     0.029 A 
ATOM     54  N   UNL A   1      43.182  30.998  32.764  1.00  0.00    -0.354 N 
ATOM     55  N   UNL A   1      40.672  32.372  32.108  1.00  0.00    -0.248 NA
ATOM     56  C   UNL A   1      39.210  34.171  32.401  1.00  0.00     0.031 C 
ATOM     57  C   UNL A   1      44.600  32.001  34.149  1.00  0.00     0.029 A 
ATOM     58  C   UNL A   1      43.374  32.142  33.520  1.00  0.00     0.049 A 
ATOM     59  H   UNL A   1      42.387  30.810  32.215  1.00  0.00     0.167 HD
ATOM     60  C   UNL A   1      41.252  33.298  32.968  1.00  0.00     0.074 A 
ATOM     61  C   UNL A   1      40.321  34.401  33.087  1.00  0.00     0.031 C 
ATOM     62  C   UNL A   1      42.447  33.242  33.604  1.00  0.00     0.037 A 
BRANCH  49  63
ATOM     63  C   UNL A   1      45.677  28.097  32.477  1.00  0.00     0.058 A 
ATOM     64  C   UNL A   1      45.765  27.157  33.517  1.00  0.00     0.135 A 
ATOM     65  C   UNL A   1      46.784  28.234  31.623  1.00  0.00     0.135 A 
ATOM     66  F   UNL A   1      44.743  26.998  34.373  1.00  0.00    -0.206 F 
ATOM     67  C   UNL A   1      46.909  26.392  33.711  1.00  0.00     0.059 A 
ATOM     68  C   UNL A   1      47.930  27.460  31.784  1.00  0.00     0.059 A 
ATOM     69  F   UNL A   1      46.753  29.118  30.614  1.00  0.00    -0.206 F 
ATOM     70  C   UNL A   1      47.986  26.547  32.836  1.00  0.00     0.060 A 
BRANCH  70  71
ATOM     71  S   UNL A   1      49.451  25.521  33.084  1.00  0.00     0.124 S 
ATOM     72  O   UNL A   1      49.869  25.275  31.707  1.00  0.00    -0.237 OA
ATOM     73  O   UNL A   1      50.318  26.400  33.861  1.00  0.00    -0.237 OA
ATOM     74  O   UNL A   1      48.935  24.359  33.800  1.00  0.00    -0.744 OA
ENDBRANCH  70  71
ENDBRANCH  49  63
BRANCH  50  75
ATOM     75  C   UNL A   1      37.211  33.068  30.576  1.00  0.00     0.058 A 
ATOM     76  C   UNL A   1      36.092  32.890  31.404  1.00  0.00     0.135 A 
ATOM     77  C   UNL A   1      37.083  33.943  29.485  1.00  0.00     0.135 A 
ATOM     78  F   UNL A   1      36.164  32.062  32.457  1.00  0.00    -0.206 F 
ATOM     79  C   UNL A   1      34.880  33.520  31.139  1.00  0.00     0.059 A 
ATOM     80  C   UNL A   1      35.890  34.605  29.216  1.00  0.00     0.059 A 
ATOM     81  F   UNL A   1      38.129  34.166  28.674  1.00  0.00    -0.206 F 
ATOM     82  C   UNL A   1      34.788  34.371  30.038  1.00  0.00     0.060 A 
BRANCH  82  83
ATOM     83  S   UNL A   1      33.212  35.188  29.699  1.00  0.00     0.124 S 
ATOM     84  O   UNL A   1      33.655  36.418  29.053  1.00  0.00    -0.237 OA
ATOM     85  O   UNL A   1      32.540  34.219  28.839  1.00  0.00    -0.237 OA
ATOM     86  O   UNL A   1      32.627  35.346  31.027  1.00  0.00    -0.744 OA
ENDBRANCH  82  83
ENDBRANCH  50  75
BRANCH  62  87
ATOM     87  C   UNL A   1      42.843  34.426  34.441  1.00  0.00     0.058 A 
ATOM     88  C   UNL A   1      42.650  34.446  35.830  1.00  0.00     0.135 A 
ATOM     89  C   UNL A   1      43.467  35.535  33.847  1.00  0.00     0.135 A 
ATOM     90  F   UNL A   1      42.051  33.414  36.444  1.00  0.00    -0.206 F 
ATOM     91  C   UNL A   1      43.040  35.537  36.600  1.00  0.00     0.059 A 
ATOM     92  C   UNL A   1      43.890  36.625  34.602  1.00  0.00     0.059 A 
ATOM     93  F   UNL A   1      43.685  35.560  32.522  1.00  0.00    -0.206 F 
ATOM     94  C   UNL A   1      43.661  36.621  35.976  1.00  0.00     0.060 A 
BRANCH  94  95
ATOM     95  S   UNL A   1      44.194  38.015  36.992  1.00  0.00     0.124 S 
ATOM     96  O   UNL A   1      43.135  38.071  37.994  1.00  0.00    -0.237 OA
ATOM     97  O   UNL A   1      45.500  37.572  37.473  1.00  0.00    -0.237 OA
ATOM     98  O   UNL A   1      44.227  39.129  36.049  1.00  0.00    -0.744 OA
ENDBRANCH  94  95
ENDBRANCH  62  87
ENDBRANCH  36  37
ENDBRANCH  28  31
ENDBRANCH  26  27
ENDBRANCH   1  26
TORSDOF 16
ENDMDL
MODEL 3
REMARK VINA RESULT:     -10.7      3.237      6.276
REMARK SMILES C[C@]1(C(=O)NCc2ccc(C(=O)NCCCNC(=O)c3ccc(-c4c5nc(c(-c6c(F)cc(S(=O)(=O)[O-])cc6F)c6ccc([nH]6)c(-c6c(F)cc(S(=O)(=O)[O-])cc6F)c6nc(c(-c7c(F)cc(S(=O)(=O)[O-])cc7F)c7ccc4[nH]7)C=C6)C=C5)cc3)o2)CCC[NH2+]C1
REMARK SMILES IDX 15 1 14 2 13 3 11 4 12 5 10 7 7 8 8 9 86 10 9 11 6 12 5 13
REMARK SMILES IDX 3 14 4 15 2 17 1 18 87 19 91 20 88 21 90 22 89 23 16 26
REMARK SMILES IDX 17 27 18 28 19 30 20 31 21 32 85 33 22 34 84 35 23 36 24 37
REMARK SMILES IDX 25 38 78 39 26 40 83 41 77 42 79 43 27 44 82 45 76 46 75 47
REMARK SMILES IDX 28 49 62 50 41 51 61 52 42 53 45 54 60 55 80 56 43 57 44 58
REMARK SMILES IDX 59 60 81 61 46 62 29 63 30 64 39 65 31 66 32 67 38 68 40 69
REMARK SMILES IDX 33 70 34 71 35 72 36 73 37 74 63 75 64 76 73 77 65 78 66 79
REMARK SMILES IDX 72 80 74 81 67 82 68 83 69 84 70 85 71 86 47 87 48 88 57 89
REMARK SMILES IDX 49 90 50 91 56 92 58 93 51 94 52 95 53 96 54 97 55 98
REMARK H PARENT 13 6 5 16 90 24 90 25 17 29 79 48 45 59
REMARK Flexibility Score: inf
ROOT
ATOM      1  C   UNL A   1      32.313  27.677  26.304  1.00  0.00     0.042 C 
ENDROOT
BRANCH   1   2
ATOM      2  C   UNL A   1      31.942  28.393  25.009  1.00  0.00     0.118 C 
BRANCH   2   3
ATOM      3  N   UNL A   1      30.617  28.032  24.539  1.00  0.00    -0.349 N 
ATOM      4  C   UNL A   1      30.204  27.003  23.721  1.00  0.00     0.286 C 
ATOM      5  O   UNL A   1      28.986  26.814  23.676  1.00  0.00    -0.266 OA
ATOM      6  H   UNL A   1      29.895  28.620  24.858  1.00  0.00     0.163 HD
BRANCH   4   7
ATOM      7  C   UNL A   1      31.162  26.196  22.986  1.00  0.00     0.191 A 
ATOM      8  C   UNL A   1      32.514  24.449  22.766  1.00  0.00     0.124 A 
ATOM      9  C   UNL A   1      32.575  25.143  21.578  1.00  0.00     0.048 A 
ATOM     10  O   UNL A   1      31.685  25.100  23.634  1.00  0.00    -0.454 OA
ATOM     11  C   UNL A   1      31.684  26.236  21.706  1.00  0.00     0.056 A 
BRANCH   8  12
ATOM     12  C   UNL A   1      33.167  23.203  23.246  1.00  0.00     0.191 C 
BRANCH  12  13
ATOM     13  N   UNL A   1      34.545  23.144  22.820  1.00  0.00    -0.348 N 
ATOM     14  C   UNL A   1      35.738  23.239  23.444  1.00  0.00     0.232 C 
ATOM     15  O   UNL A   1      36.716  23.080  22.697  1.00  0.00    -0.274 OA
ATOM     16  H   UNL A   1      34.636  23.002  21.850  1.00  0.00     0.163 HD
BRANCH  14  17
ATOM     17  C   UNL A   1      35.961  23.372  24.972  1.00  0.00     0.095 C 
ATOM     18  C   UNL A   1      35.049  24.515  25.455  1.00  0.00     0.028 C 
ATOM     19  C   UNL A   1      35.492  22.039  25.628  1.00  0.00     0.028 C 
ATOM     20  C   UNL A   1      37.389  23.615  25.491  1.00  0.00     0.277 C 
ATOM     21  C   UNL A   1      36.463  20.902  25.289  1.00  0.00     0.063 C 
ATOM     22  N   UNL A   1      38.320  22.543  25.149  1.00  0.00    -0.345 N 
ATOM     23  C   UNL A   1      37.895  21.252  25.683  1.00  0.00     0.260 C 
ATOM     24  H   UNL A   1      38.383  22.475  24.134  1.00  0.00     0.346 HD
ATOM     25  H   UNL A   1      39.224  22.771  25.564  1.00  0.00     0.346 HD
ENDBRANCH  14  17
ENDBRANCH  12  13
ENDBRANCH   8  12
ENDBRANCH   4   7
ENDBRANCH   2   3
ENDBRANCH   1   2
BRANCH   1  26
ATOM     26  C   UNL A   1      33.568  28.231  26.979  1.00  0.00     0.118 C 
BRANCH  26  27
ATOM     27  N   UNL A   1      33.436  29.645  27.310  1.00  0.00    -0.352 N 
ATOM     28  C   UNL A   1      34.291  30.491  27.972  1.00  0.00     0.251 C 
ATOM     29  H   UNL A   1      32.597  30.061  27.009  1.00  0.00     0.163 HD
ATOM     30  O   UNL A   1      33.878  31.593  28.331  1.00  0.00    -0.269 OA
BRANCH  28  31
ATOM     31  C   UNL A   1      35.688  30.098  28.265  1.00  0.00     0.039 A 
ATOM     32  C   UNL A   1      36.633  30.156  27.235  1.00  0.00     0.014 A 
ATOM     33  C   UNL A   1      36.061  29.615  29.523  1.00  0.00     0.014 A 
ATOM     34  C   UNL A   1      37.959  29.787  27.482  1.00  0.00     0.010 A 
ATOM     35  C   UNL A   1      37.396  29.310  29.785  1.00  0.00     0.010 A 
ATOM     36  C   UNL A   1      38.359  29.390  28.767  1.00  0.00    -0.014 A 
BRANCH  36  37
ATOM     37  C   UNL A   1      39.776  29.051  29.065  1.00  0.00     0.031 A 
ATOM     38  C   UNL A   1      40.685  30.076  29.689  1.00  0.00     0.074 A 
ATOM     39  C   UNL A   1      40.258  27.838  28.724  1.00  0.00     0.049 A 
ATOM     40  N   UNL A   1      41.970  30.004  29.931  1.00  0.00    -0.248 NA
ATOM     41  C   UNL A   1      40.075  31.361  30.073  1.00  0.00     0.031 C 
ATOM     42  C   UNL A   1      39.485  26.769  28.086  1.00  0.00     0.029 A 
ATOM     43  N   UNL A   1      41.515  27.303  28.855  1.00  0.00    -0.354 N 
ATOM     44  C   UNL A   1      42.321  31.229  30.489  1.00  0.00     0.074 A 
ATOM     45  C   UNL A   1      41.126  32.045  30.500  1.00  0.00     0.031 C 
ATOM     46  C   UNL A   1      40.281  25.703  27.896  1.00  0.00     0.029 A 
ATOM     47  C   UNL A   1      41.627  26.024  28.361  1.00  0.00     0.049 A 
ATOM     48  H   UNL A   1      42.267  27.789  29.264  1.00  0.00     0.167 HD
ATOM     49  C   UNL A   1      43.523  31.628  30.971  1.00  0.00     0.037 A 
ATOM     50  C   UNL A   1      42.695  25.208  28.279  1.00  0.00     0.037 A 
ATOM     51  C   UNL A   1      44.704  30.804  30.978  1.00  0.00     0.049 A 
ATOM     52  C   UNL A   1      44.024  25.684  28.804  1.00  0.00     0.074 A 
ATOM     53  C   UNL A   1      45.964  31.110  31.462  1.00  0.00     0.029 A 
ATOM     54  N   UNL A   1      44.769  29.507  30.490  1.00  0.00    -0.354 N 
ATOM     55  N   UNL A   1      44.329  26.836  29.354  1.00  0.00    -0.248 NA
ATOM     56  C   UNL A   1      45.154  24.750  28.701  1.00  0.00     0.031 C 
ATOM     57  C   UNL A   1      46.798  30.009  31.242  1.00  0.00     0.029 A 
ATOM     58  C   UNL A   1      46.047  29.002  30.658  1.00  0.00     0.049 A 
ATOM     59  H   UNL A   1      44.017  29.018  30.084  1.00  0.00     0.167 HD
ATOM     60  C   UNL A   1      45.674  26.749  29.694  1.00  0.00     0.074 A 
ATOM     61  C   UNL A   1      46.123  25.430  29.298  1.00  0.00     0.031 C 
ATOM     62  C   UNL A   1      46.469  27.677  30.282  1.00  0.00     0.037 A 
BRANCH  49  63
ATOM     63  C   UNL A   1      43.621  33.010  31.555  1.00  0.00     0.058 A 
ATOM     64  C   UNL A   1      43.437  33.234  32.930  1.00  0.00     0.135 A 
ATOM     65  C   UNL A   1      43.967  34.110  30.753  1.00  0.00     0.135 A 
ATOM     66  F   UNL A   1      43.088  32.221  33.739  1.00  0.00    -0.206 F 
ATOM     67  C   UNL A   1      43.578  34.500  33.485  1.00  0.00     0.059 A 
ATOM     68  C   UNL A   1      44.138  35.382  31.294  1.00  0.00     0.059 A 
ATOM     69  F   UNL A   1      44.154  33.952  29.434  1.00  0.00    -0.206 F 
ATOM     70  C   UNL A   1      43.933  35.568  32.660  1.00  0.00     0.060 A 
BRANCH  70  71
ATOM     71  S   UNL A   1      44.143  37.199  33.406  1.00  0.00     0.124 S 
ATOM     72  O   UNL A   1      44.375  38.029  32.227  1.00  0.00    -0.237 OA
ATOM     73  O   UNL A   1      42.865  37.400  34.081  1.00  0.00    -0.237 OA
ATOM     74  O   UNL A   1      45.294  37.025  34.286  1.00  0.00    -0.744 OA
ENDBRANCH  70  71
ENDBRANCH  49  63
BRANCH  50  75
ATOM     75  C   UNL A   1      42.565  23.849  27.685  1.00  0.00     0.058 A 
ATOM     76  C   UNL A   1      42.405  22.718  28.500  1.00  0.00     0.135 A 
ATOM     77  C   UNL A   1      42.635  23.650  26.298  1.00  0.00     0.135 A 
ATOM     78  F   UNL A   1      42.336  22.858  29.833  1.00  0.00    -0.206 F 
ATOM     79  C   UNL A   1      42.359  21.435  27.966  1.00  0.00     0.059 A 
ATOM     80  C   UNL A   1      42.563  22.379  25.738  1.00  0.00     0.059 A 
ATOM     81  F   UNL A   1      42.766  24.700  25.471  1.00  0.00    -0.206 F 
ATOM     82  C   UNL A   1      42.446  21.275  26.583  1.00  0.00     0.060 A 
BRANCH  82  83
ATOM     83  S   UNL A   1      42.384  19.606  25.893  1.00  0.00     0.124 S 
ATOM     84  O   UNL A   1      43.375  19.694  24.828  1.00  0.00    -0.237 OA
ATOM     85  O   UNL A   1      42.749  18.783  27.042  1.00  0.00    -0.237 OA
ATOM     86  O   UNL A   1      40.997  19.477  25.458  1.00  0.00    -0.744 OA
ENDBRANCH  82  83
ENDBRANCH  50  75
BRANCH  62  87
ATOM     87  C   UNL A   1      47.888  27.283  30.581  1.00  0.00     0.058 A 
ATOM     88  C   UNL A   1      48.224  26.554  31.731  1.00  0.00     0.135 A 
ATOM     89  C   UNL A   1      48.916  27.603  29.680  1.00  0.00     0.135 A 
ATOM     90  F   UNL A   1      47.280  26.231  32.627  1.00  0.00    -0.206 F 
ATOM     91  C   UNL A   1      49.537  26.173  31.989  1.00  0.00     0.059 A 
ATOM     92  C   UNL A   1      50.231  27.209  29.905  1.00  0.00     0.059 A 
ATOM     93  F   UNL A   1      48.644  28.291  28.559  1.00  0.00    -0.206 F 
ATOM     94  C   UNL A   1      50.534  26.505  31.068  1.00  0.00     0.060 A 
BRANCH  94  95
ATOM     95  S   UNL A   1      52.228  25.976  31.398  1.00  0.00     0.124 S 
ATOM     96  O   UNL A   1      52.676  26.994  32.342  1.00  0.00    -0.237 OA
ATOM     97  O   UNL A   1      52.037  24.638  31.952  1.00  0.00    -0.237 OA
ATOM     98  O   UNL A   1      52.858  26.016  30.083  1.00  0.00    -0.744 OA
ENDBRANCH  94  95
ENDBRANCH  62  87
ENDBRANCH  36  37
ENDBRANCH  28  31
ENDBRANCH  26  27
ENDBRANCH   1  26
TORSDOF 16
ENDMDL
