MODEL 1
REMARK VINA RESULT:     -11.4      0.000      0.000
REMARK SMILES CC[C@H](C)CN(CC)c1nc(C(=O)NCCCNC(=O)c2ccc(-c3c4nc(c(-c5c(F)cc(S(=O)(=O)[O-])cc5F)c5ccc([nH]5)c(-c5c(F)cc(S(=O)(=O)[O-])cc5F)c5nc(c(-c6c(F)cc(S(=O)(=O)[O-])cc6F)c6ccc3[nH]6)C=C5)C=C4)cc2)cc2ccccc12
REMARK SMILES IDX 15 1 14 2 12 3 13 4 11 6 9 7 10 8 93 9 88 10 92 11 87 12
REMARK SMILES IDX 89 13 91 14 90 15 6 16 5 17 3 18 4 19 2 20 1 21 7 22 8 23
REMARK SMILES IDX 16 24 17 25 18 26 19 27 20 29 21 30 22 31 86 32 23 33 85 34
REMARK SMILES IDX 24 35 25 36 26 37 79 38 27 39 84 40 78 41 80 42 28 43 83 44
REMARK SMILES IDX 77 45 76 46 29 48 63 49 42 50 62 51 43 52 46 53 61 54 81 55
REMARK SMILES IDX 44 56 45 57 60 59 82 60 47 61 30 62 31 63 40 64 32 65 33 66
REMARK SMILES IDX 39 67 41 68 34 69 35 70 36 71 37 72 38 73 64 74 65 75 74 76
REMARK SMILES IDX 66 77 67 78 73 79 75 80 68 81 69 82 70 83 71 84 72 85 48 86
REMARK SMILES IDX 49 87 58 88 50 89 51 90 57 91 59 92 52 93 53 94 54 95 55 96
REMARK SMILES IDX 56 97
REMARK H PARENT 14 5 18 28 80 47 46 58
REMARK Flexibility Score: inf
ROOT
ATOM      1  C   UNL A   1      33.688  29.821  27.070  1.00  0.00     0.118 C 
ENDROOT
BRANCH   1   2
ATOM      2  N   UNL A   1      32.980  31.061  27.301  1.00  0.00    -0.351 N 
ATOM      3  C   UNL A   1      31.889  31.583  26.651  1.00  0.00     0.269 C 
ATOM      4  O   UNL A   1      31.483  32.684  27.037  1.00  0.00    -0.268 OA
ATOM      5  H   UNL A   1      33.335  31.615  28.033  1.00  0.00     0.163 HD
BRANCH   3   6
ATOM      6  C   UNL A   1      31.178  30.887  25.525  1.00  0.00     0.131 A 
ATOM      7  C   UNL A   1      30.723  28.965  24.286  1.00  0.00     0.137 A 
ATOM      8  N   UNL A   1      31.434  29.580  25.260  1.00  0.00    -0.225 NA
ATOM      9  C   UNL A   1      29.626  29.612  23.659  1.00  0.00     0.024 A 
ATOM     10  C   UNL A   1      29.466  30.997  23.867  1.00  0.00    -0.012 A 
ATOM     11  C   UNL A   1      28.707  28.970  22.801  1.00  0.00     0.012 A 
ATOM     12  C   UNL A   1      30.253  31.636  24.817  1.00  0.00     0.043 A 
ATOM     13  C   UNL A   1      28.537  31.722  23.103  1.00  0.00     0.009 A 
ATOM     14  C   UNL A   1      27.778  29.694  22.053  1.00  0.00     0.001 A 
ATOM     15  C   UNL A   1      27.720  31.076  22.177  1.00  0.00     0.001 A 
BRANCH   7  16
ATOM     16  N   UNL A   1      31.175  27.724  23.804  1.00  0.00    -0.356 N 
BRANCH  16  17
ATOM     17  C   UNL A   1      30.524  26.513  24.383  1.00  0.00     0.121 C 
BRANCH  17  18
ATOM     18  C   UNL A   1      31.345  25.812  25.503  1.00  0.00     0.005 C 
ATOM     19  C   UNL A   1      30.640  24.545  26.006  1.00  0.00     0.009 C 
BRANCH  18  20
ATOM     20  C   UNL A   1      32.823  25.553  25.087  1.00  0.00     0.002 C 
ATOM     21  C   UNL A   1      33.887  26.421  25.751  1.00  0.00     0.004 C 
ENDBRANCH  18  20
ENDBRANCH  17  18
ENDBRANCH  16  17
BRANCH  16  22
ATOM     22  C   UNL A   1      31.529  27.652  22.379  1.00  0.00     0.114 C 
ATOM     23  C   UNL A   1      31.504  26.254  21.779  1.00  0.00     0.027 C 
ENDBRANCH  16  22
ENDBRANCH   7  16
ENDBRANCH   3   6
ENDBRANCH   1   2
BRANCH   1  24
ATOM     24  C   UNL A   1      35.161  29.899  27.420  1.00  0.00     0.042 C 
BRANCH  24  25
ATOM     25  C   UNL A   1      35.553  31.127  28.220  1.00  0.00     0.118 C 
BRANCH  25  26
ATOM     26  N   UNL A   1      35.423  30.941  29.659  1.00  0.00    -0.352 N 
ATOM     27  C   UNL A   1      36.339  30.498  30.589  1.00  0.00     0.251 C 
ATOM     28  H   UNL A   1      34.539  31.171  30.027  1.00  0.00     0.163 HD
ATOM     29  O   UNL A   1      35.975  30.262  31.732  1.00  0.00    -0.269 OA
BRANCH  27  30
ATOM     30  C   UNL A   1      37.749  30.273  30.194  1.00  0.00     0.039 A 
ATOM     31  C   UNL A   1      38.679  29.909  31.170  1.00  0.00     0.014 A 
ATOM     32  C   UNL A   1      38.155  30.404  28.866  1.00  0.00     0.014 A 
ATOM     33  C   UNL A   1      39.987  29.587  30.797  1.00  0.00     0.010 A 
ATOM     34  C   UNL A   1      39.415  29.966  28.480  1.00  0.00     0.010 A 
ATOM     35  C   UNL A   1      40.352  29.562  29.441  1.00  0.00    -0.014 A 
BRANCH  35  36
ATOM     36  C   UNL A   1      41.707  29.136  29.001  1.00  0.00     0.031 A 
ATOM     37  C   UNL A   1      42.824  30.145  28.923  1.00  0.00     0.074 A 
ATOM     38  C   UNL A   1      41.914  27.865  28.599  1.00  0.00     0.049 A 
ATOM     39  N   UNL A   1      44.043  29.994  28.475  1.00  0.00    -0.248 NA
ATOM     40  C   UNL A   1      42.518  31.513  29.374  1.00  0.00     0.031 C 
ATOM     41  C   UNL A   1      40.898  26.808  28.571  1.00  0.00     0.029 A 
ATOM     42  N   UNL A   1      43.043  27.247  28.124  1.00  0.00    -0.354 N 
ATOM     43  C   UNL A   1      44.640  31.247  28.574  1.00  0.00     0.074 A 
ATOM     44  C   UNL A   1      43.630  32.160  29.059  1.00  0.00     0.031 C 
ATOM     45  C   UNL A   1      41.459  25.669  28.133  1.00  0.00     0.029 A 
ATOM     46  C   UNL A   1      42.858  25.922  27.805  1.00  0.00     0.049 A 
ATOM     47  H   UNL A   1      43.907  27.709  28.023  1.00  0.00     0.167 HD
ATOM     48  C   UNL A   1      45.922  31.599  28.315  1.00  0.00     0.037 A 
ATOM     49  C   UNL A   1      43.714  25.015  27.295  1.00  0.00     0.037 A 
ATOM     50  C   UNL A   1      46.930  30.678  27.863  1.00  0.00     0.049 A 
ATOM     51  C   UNL A   1      45.134  25.429  27.015  1.00  0.00     0.074 A 
ATOM     52  C   UNL A   1      48.272  30.919  27.628  1.00  0.00     0.029 A 
ATOM     53  N   UNL A   1      46.709  29.337  27.577  1.00  0.00    -0.354 N 
ATOM     54  N   UNL A   1      45.698  26.603  27.177  1.00  0.00    -0.248 NA
ATOM     55  C   UNL A   1      46.036  24.396  26.488  1.00  0.00     0.031 C 
ATOM     56  C   UNL A   1      48.851  29.738  27.154  1.00  0.00     0.029 A 
ATOM     57  C   UNL A   1      47.885  28.745  27.149  1.00  0.00     0.049 A 
ATOM     58  H   UNL A   1      45.843  28.877  27.667  1.00  0.00     0.167 HD
ATOM     59  C   UNL A   1      47.027  26.442  26.802  1.00  0.00     0.074 A 
ATOM     60  C   UNL A   1      47.186  25.054  26.417  1.00  0.00     0.031 C 
ATOM     61  C   UNL A   1      48.026  27.358  26.779  1.00  0.00     0.037 A 
BRANCH  48  62
ATOM     62  C   UNL A   1      46.307  33.039  28.527  1.00  0.00     0.058 A 
ATOM     63  C   UNL A   1      46.190  33.993  27.503  1.00  0.00     0.135 A 
ATOM     64  C   UNL A   1      46.770  33.479  29.777  1.00  0.00     0.135 A 
ATOM     65  F   UNL A   1      45.768  33.626  26.281  1.00  0.00    -0.206 F 
ATOM     66  C   UNL A   1      46.547  35.322  27.699  1.00  0.00     0.059 A 
ATOM     67  C   UNL A   1      47.103  34.811  30.006  1.00  0.00     0.059 A 
ATOM     68  F   UNL A   1      46.903  32.611  30.793  1.00  0.00    -0.206 F 
ATOM     69  C   UNL A   1      47.003  35.722  28.956  1.00  0.00     0.060 A 
BRANCH  69  70
ATOM     70  S   UNL A   1      47.454  37.453  29.196  1.00  0.00     0.124 S 
ATOM     71  O   UNL A   1      46.842  37.737  30.490  1.00  0.00    -0.237 OA
ATOM     72  O   UNL A   1      48.913  37.400  29.184  1.00  0.00    -0.237 OA
ATOM     73  O   UNL A   1      46.845  38.126  28.054  1.00  0.00    -0.744 OA
ENDBRANCH  69  70
ENDBRANCH  48  62
BRANCH  49  74
ATOM     74  C   UNL A   1      43.259  23.621  27.037  1.00  0.00     0.058 A 
ATOM     75  C   UNL A   1      42.973  23.184  25.735  1.00  0.00     0.135 A 
ATOM     76  C   UNL A   1      43.111  22.697  28.083  1.00  0.00     0.135 A 
ATOM     77  F   UNL A   1      43.092  24.031  24.702  1.00  0.00    -0.206 F 
ATOM     78  C   UNL A   1      42.537  21.887  25.480  1.00  0.00     0.059 A 
ATOM     79  C   UNL A   1      42.704  21.386  27.850  1.00  0.00     0.059 A 
ATOM     80  F   UNL A   1      43.388  23.057  29.345  1.00  0.00    -0.206 F 
ATOM     81  C   UNL A   1      42.407  20.994  26.545  1.00  0.00     0.060 A 
BRANCH  81  82
ATOM     82  S   UNL A   1      41.885  19.300  26.197  1.00  0.00     0.124 S 
ATOM     83  O   UNL A   1      42.274  18.615  27.424  1.00  0.00    -0.237 OA
ATOM     84  O   UNL A   1      40.450  19.461  25.982  1.00  0.00    -0.237 OA
ATOM     85  O   UNL A   1      42.653  18.951  25.006  1.00  0.00    -0.744 OA
ENDBRANCH  81  82
ENDBRANCH  49  74
BRANCH  61  86
ATOM     86  C   UNL A   1      49.392  26.887  26.360  1.00  0.00     0.058 A 
ATOM     87  C   UNL A   1      50.268  26.262  27.262  1.00  0.00     0.135 A 
ATOM     88  C   UNL A   1      49.806  27.013  25.024  1.00  0.00     0.135 A 
ATOM     89  F   UNL A   1      49.924  26.122  28.552  1.00  0.00    -0.206 F 
ATOM     90  C   UNL A   1      51.516  25.800  26.858  1.00  0.00     0.059 A 
ATOM     91  C   UNL A   1      51.036  26.530  24.592  1.00  0.00     0.059 A 
ATOM     92  F   UNL A   1      49.002  27.593  24.118  1.00  0.00    -0.206 F 
ATOM     93  C   UNL A   1      51.890  25.935  25.519  1.00  0.00     0.060 A 
BRANCH  93  94
ATOM     94  S   UNL A   1      53.497  25.297  25.002  1.00  0.00     0.124 S 
ATOM     95  O   UNL A   1      54.407  26.095  25.817  1.00  0.00    -0.237 OA
ATOM     96  O   UNL A   1      53.401  23.884  25.357  1.00  0.00    -0.237 OA
ATOM     97  O   UNL A   1      53.529  25.576  23.570  1.00  0.00    -0.744 OA
ENDBRANCH  93  94
ENDBRANCH  61  86
ENDBRANCH  35  36
ENDBRANCH  27  30
ENDBRANCH  25  26
ENDBRANCH  24  25
ENDBRANCH   1  24
TORSDOF 18
ENDMDL
MODEL 2
REMARK VINA RESULT:     -11.2      4.974     10.056
REMARK SMILES CC[C@H](C)CN(CC)c1nc(C(=O)NCCCNC(=O)c2ccc(-c3c4nc(c(-c5c(F)cc(S(=O)(=O)[O-])cc5F)c5ccc([nH]5)c(-c5c(F)cc(S(=O)(=O)[O-])cc5F)c5nc(c(-c6c(F)cc(S(=O)(=O)[O-])cc6F)c6ccc3[nH]6)C=C5)C=C4)cc2)cc2ccccc12
REMARK SMILES IDX 15 1 14 2 12 3 13 4 11 6 9 7 10 8 93 9 88 10 92 11 87 12
REMARK SMILES IDX 89 13 91 14 90 15 6 16 5 17 3 18 4 19 2 20 1 21 7 22 8 23
REMARK SMILES IDX 16 24 17 25 18 26 19 27 20 29 21 30 22 31 86 32 23 33 85 34
REMARK SMILES IDX 24 35 25 36 26 37 79 38 27 39 84 40 78 41 80 42 28 43 83 44
REMARK SMILES IDX 77 45 76 46 29 48 63 49 42 50 62 51 43 52 46 53 61 54 81 55
REMARK SMILES IDX 44 56 45 57 60 59 82 60 47 61 30 62 31 63 40 64 32 65 33 66
REMARK SMILES IDX 39 67 41 68 34 69 35 70 36 71 37 72 38 73 64 74 65 75 74 76
REMARK SMILES IDX 66 77 67 78 73 79 75 80 68 81 69 82 70 83 71 84 72 85 48 86
REMARK SMILES IDX 49 87 58 88 50 89 51 90 57 91 59 92 52 93 53 94 54 95 55 96
REMARK SMILES IDX 56 97
REMARK H PARENT 14 5 18 28 80 47 46 58
REMARK Flexibility Score: inf
ROOT
ATOM      1  C   UNL A   1      35.453  22.050  25.290  1.00  0.00     0.118 C 
ENDROOT
BRANCH   1   2
ATOM      2  N   UNL A   1      35.283  22.405  23.898  1.00  0.00    -0.351 N 
ATOM      3  C   UNL A   1      34.353  23.225  23.308  1.00  0.00     0.269 C 
ATOM      4  O   UNL A   1      34.415  23.348  22.081  1.00  0.00    -0.268 OA
ATOM      5  H   UNL A   1      35.932  21.997  23.281  1.00  0.00     0.163 HD
BRANCH   3   6
ATOM      6  C   UNL A   1      33.294  23.967  24.072  1.00  0.00     0.131 A 
ATOM      7  C   UNL A   1      32.156  25.939  24.577  1.00  0.00     0.137 A 
ATOM      8  N   UNL A   1      33.166  25.312  23.930  1.00  0.00    -0.225 NA
ATOM      9  C   UNL A   1      31.153  25.202  25.259  1.00  0.00     0.024 A 
ATOM     10  C   UNL A   1      31.379  23.830  25.490  1.00  0.00    -0.012 A 
ATOM     11  C   UNL A   1      29.959  25.762  25.766  1.00  0.00     0.012 A 
ATOM     12  C   UNL A   1      32.464  23.211  24.882  1.00  0.00     0.043 A 
ATOM     13  C   UNL A   1      30.530  23.109  26.344  1.00  0.00     0.009 A 
ATOM     14  C   UNL A   1      29.113  25.036  26.605  1.00  0.00     0.001 A 
ATOM     15  C   UNL A   1      29.420  23.720  26.924  1.00  0.00     0.001 A 
BRANCH   7  16
ATOM     16  N   UNL A   1      32.190  27.341  24.680  1.00  0.00    -0.356 N 
BRANCH  16  17
ATOM     17  C   UNL A   1      33.071  27.906  25.742  1.00  0.00     0.121 C 
BRANCH  17  18
ATOM     18  C   UNL A   1      32.378  28.941  26.673  1.00  0.00     0.005 C 
ATOM     19  C   UNL A   1      31.523  28.248  27.743  1.00  0.00     0.009 C 
BRANCH  18  20
ATOM     20  C   UNL A   1      33.381  29.968  27.277  1.00  0.00     0.002 C 
ATOM     21  C   UNL A   1      34.854  29.571  27.274  1.00  0.00     0.004 C 
ENDBRANCH  18  20
ENDBRANCH  17  18
ENDBRANCH  16  17
BRANCH  16  22
ATOM     22  C   UNL A   1      32.117  28.103  23.424  1.00  0.00     0.114 C 
ATOM     23  C   UNL A   1      33.361  28.912  23.089  1.00  0.00     0.027 C 
ENDBRANCH  16  22
ENDBRANCH   7  16
ENDBRANCH   3   6
ENDBRANCH   1   2
BRANCH   1  24
ATOM     24  C   UNL A   1      35.934  23.204  26.147  1.00  0.00     0.042 C 
BRANCH  24  25
ATOM     25  C   UNL A   1      37.153  23.924  25.605  1.00  0.00     0.118 C 
BRANCH  25  26
ATOM     26  N   UNL A   1      38.366  23.118  25.653  1.00  0.00    -0.352 N 
ATOM     27  C   UNL A   1      39.598  23.389  26.209  1.00  0.00     0.251 C 
ATOM     28  H   UNL A   1      38.294  22.236  25.220  1.00  0.00     0.163 HD
ATOM     29  O   UNL A   1      40.537  22.636  25.997  1.00  0.00    -0.269 OA
BRANCH  27  30
ATOM     30  C   UNL A   1      39.791  24.610  27.026  1.00  0.00     0.039 A 
ATOM     31  C   UNL A   1      39.222  24.673  28.300  1.00  0.00     0.014 A 
ATOM     32  C   UNL A   1      40.541  25.685  26.548  1.00  0.00     0.014 A 
ATOM     33  C   UNL A   1      39.486  25.771  29.123  1.00  0.00     0.010 A 
ATOM     34  C   UNL A   1      40.904  26.713  27.409  1.00  0.00     0.010 A 
ATOM     35  C   UNL A   1      40.372  26.776  28.704  1.00  0.00    -0.014 A 
BRANCH  35  36
ATOM     36  C   UNL A   1      40.747  27.910  29.590  1.00  0.00     0.031 A 
ATOM     37  C   UNL A   1      39.826  29.095  29.725  1.00  0.00     0.074 A 
ATOM     38  C   UNL A   1      41.946  27.911  30.209  1.00  0.00     0.049 A 
ATOM     39  N   UNL A   1      40.014  30.219  30.367  1.00  0.00    -0.248 NA
ATOM     40  C   UNL A   1      38.538  29.022  29.013  1.00  0.00     0.031 C 
ATOM     41  C   UNL A   1      42.952  26.850  30.111  1.00  0.00     0.029 A 
ATOM     42  N   UNL A   1      42.529  28.840  31.034  1.00  0.00    -0.354 N 
ATOM     43  C   UNL A   1      38.881  30.988  30.122  1.00  0.00     0.074 A 
ATOM     44  C   UNL A   1      38.043  30.233  29.219  1.00  0.00     0.031 C 
ATOM     45  C   UNL A   1      44.012  27.175  30.870  1.00  0.00     0.029 A 
ATOM     46  C   UNL A   1      43.784  28.484  31.471  1.00  0.00     0.049 A 
ATOM     47  H   UNL A   1      42.088  29.682  31.291  1.00  0.00     0.167 HD
ATOM     48  C   UNL A   1      38.553  32.201  30.629  1.00  0.00     0.037 A 
ATOM     49  C   UNL A   1      44.658  29.142  32.257  1.00  0.00     0.037 A 
ATOM     50  C   UNL A   1      39.378  32.933  31.553  1.00  0.00     0.049 A 
ATOM     51  C   UNL A   1      44.272  30.489  32.809  1.00  0.00     0.074 A 
ATOM     52  C   UNL A   1      39.112  34.141  32.172  1.00  0.00     0.029 A 
ATOM     53  N   UNL A   1      40.630  32.526  31.992  1.00  0.00    -0.354 N 
ATOM     54  N   UNL A   1      43.167  31.172  32.620  1.00  0.00    -0.248 NA
ATOM     55  C   UNL A   1      45.246  31.153  33.686  1.00  0.00     0.031 C 
ATOM     56  C   UNL A   1      40.223  34.488  32.947  1.00  0.00     0.029 A 
ATOM     57  C   UNL A   1      41.158  33.469  32.858  1.00  0.00     0.049 A 
ATOM     58  H   UNL A   1      41.077  31.689  31.727  1.00  0.00     0.167 HD
ATOM     59  C   UNL A   1      43.301  32.331  33.377  1.00  0.00     0.074 A 
ATOM     60  C   UNL A   1      44.588  32.250  34.037  1.00  0.00     0.031 C 
ATOM     61  C   UNL A   1      42.438  33.367  33.514  1.00  0.00     0.037 A 
BRANCH  48  62
ATOM     62  C   UNL A   1      37.241  32.804  30.203  1.00  0.00     0.058 A 
ATOM     63  C   UNL A   1      36.048  32.541  30.896  1.00  0.00     0.135 A 
ATOM     64  C   UNL A   1      37.179  33.680  29.108  1.00  0.00     0.135 A 
ATOM     65  F   UNL A   1      36.044  31.698  31.942  1.00  0.00    -0.206 F 
ATOM     66  C   UNL A   1      34.837  33.099  30.500  1.00  0.00     0.059 A 
ATOM     67  C   UNL A   1      35.984  34.274  28.713  1.00  0.00     0.059 A 
ATOM     68  F   UNL A   1      38.288  33.967  28.407  1.00  0.00    -0.206 F 
ATOM     69  C   UNL A   1      34.815  33.965  29.406  1.00  0.00     0.060 A 
BRANCH  69  70
ATOM     70  S   UNL A   1      33.236  34.685  28.913  1.00  0.00     0.124 S 
ATOM     71  O   UNL A   1      33.667  35.934  28.292  1.00  0.00    -0.237 OA
ATOM     72  O   UNL A   1      32.704  33.676  28.002  1.00  0.00    -0.237 OA
ATOM     73  O   UNL A   1      32.517  34.829  30.174  1.00  0.00    -0.744 OA
ENDBRANCH  69  70
ENDBRANCH  48  62
BRANCH  49  74
ATOM     74  C   UNL A   1      45.973  28.529  32.588  1.00  0.00     0.058 A 
ATOM     75  C   UNL A   1      47.097  28.751  31.778  1.00  0.00     0.135 A 
ATOM     76  C   UNL A   1      46.136  27.719  33.722  1.00  0.00     0.135 A 
ATOM     77  F   UNL A   1      46.992  29.512  30.679  1.00  0.00    -0.206 F 
ATOM     78  C   UNL A   1      48.332  28.176  32.069  1.00  0.00     0.059 A 
ATOM     79  C   UNL A   1      47.366  27.157  34.051  1.00  0.00     0.059 A 
ATOM     80  F   UNL A   1      45.097  27.490  34.541  1.00  0.00    -0.206 F 
ATOM     81  C   UNL A   1      48.456  27.382  33.211  1.00  0.00     0.060 A 
BRANCH  81  82
ATOM     82  S   UNL A   1      50.073  26.678  33.603  1.00  0.00     0.124 S 
ATOM     83  O   UNL A   1      50.823  26.971  32.388  1.00  0.00    -0.237 OA
ATOM     84  O   UNL A   1      50.456  27.437  34.789  1.00  0.00    -0.237 OA
ATOM     85  O   UNL A   1      49.777  25.269  33.839  1.00  0.00    -0.744 OA
ENDBRANCH  81  82
ENDBRANCH  49  74
BRANCH  61  86
ATOM     86  C   UNL A   1      42.833  34.482  34.443  1.00  0.00     0.058 A 
ATOM     87  C   UNL A   1      42.533  34.446  35.813  1.00  0.00     0.135 A 
ATOM     88  C   UNL A   1      43.571  35.576  33.962  1.00  0.00     0.135 A 
ATOM     89  F   UNL A   1      41.825  33.427  36.324  1.00  0.00    -0.206 F 
ATOM     90  C   UNL A   1      42.932  35.467  36.671  1.00  0.00     0.059 A 
ATOM     91  C   UNL A   1      44.007  36.591  34.806  1.00  0.00     0.059 A 
ATOM     92  F   UNL A   1      43.894  35.655  32.660  1.00  0.00    -0.206 F 
ATOM     93  C   UNL A   1      43.672  36.534  36.157  1.00  0.00     0.060 A 
BRANCH  93  94
ATOM     94  S   UNL A   1      44.214  37.831  37.289  1.00  0.00     0.124 S 
ATOM     95  O   UNL A   1      44.259  38.992  36.406  1.00  0.00    -0.237 OA
ATOM     96  O   UNL A   1      43.153  37.837  38.291  1.00  0.00    -0.237 OA
ATOM     97  O   UNL A   1      45.511  37.352  37.760  1.00  0.00    -0.744 OA
ENDBRANCH  93  94
ENDBRANCH  61  86
ENDBRANCH  35  36
ENDBRANCH  27  30
ENDBRANCH  25  26
ENDBRANCH  24  25
ENDBRANCH   1  24
TORSDOF 18
ENDMDL
MODEL 3
REMARK VINA RESULT:     -11.1      4.018     10.784
REMARK SMILES CC[C@H](C)CN(CC)c1nc(C(=O)NCCCNC(=O)c2ccc(-c3c4nc(c(-c5c(F)cc(S(=O)(=O)[O-])cc5F)c5ccc([nH]5)c(-c5c(F)cc(S(=O)(=O)[O-])cc5F)c5nc(c(-c6c(F)cc(S(=O)(=O)[O-])cc6F)c6ccc3[nH]6)C=C5)C=C4)cc2)cc2ccccc12
REMARK SMILES IDX 15 1 14 2 12 3 13 4 11 6 9 7 10 8 93 9 88 10 92 11 87 12
REMARK SMILES IDX 89 13 91 14 90 15 6 16 5 17 3 18 4 19 2 20 1 21 7 22 8 23
REMARK SMILES IDX 16 24 17 25 18 26 19 27 20 29 21 30 22 31 86 32 23 33 85 34
REMARK SMILES IDX 24 35 25 36 26 37 79 38 27 39 84 40 78 41 80 42 28 43 83 44
REMARK SMILES IDX 77 45 76 46 29 48 63 49 42 50 62 51 43 52 46 53 61 54 81 55
REMARK SMILES IDX 44 56 45 57 60 59 82 60 47 61 30 62 31 63 40 64 32 65 33 66
REMARK SMILES IDX 39 67 41 68 34 69 35 70 36 71 37 72 38 73 64 74 65 75 74 76
REMARK SMILES IDX 66 77 67 78 73 79 75 80 68 81 69 82 70 83 71 84 72 85 48 86
REMARK SMILES IDX 49 87 58 88 50 89 51 90 57 91 59 92 52 93 53 94 54 95 55 96
REMARK SMILES IDX 56 97
REMARK H PARENT 14 5 18 28 80 47 46 58
REMARK Flexibility Score: inf
ROOT
ATOM      1  C   UNL A   1      37.307  32.289  33.910  1.00  0.00     0.118 C 
ENDROOT
BRANCH   1   2
ATOM      2  N   UNL A   1      37.683  31.457  35.031  1.00  0.00    -0.351 N 
ATOM      3  C   UNL A   1      38.839  30.749  35.251  1.00  0.00     0.269 C 
ATOM      4  O   UNL A   1      38.903  30.094  36.297  1.00  0.00    -0.268 OA
ATOM      5  H   UNL A   1      37.008  31.386  35.744  1.00  0.00     0.163 HD
BRANCH   3   6
ATOM      6  C   UNL A   1      40.006  30.744  34.305  1.00  0.00     0.131 A 
ATOM      7  C   UNL A   1      41.741  31.851  33.208  1.00  0.00     0.137 A 
ATOM      8  N   UNL A   1      40.649  31.902  34.007  1.00  0.00    -0.225 NA
ATOM      9  C   UNL A   1      42.303  30.609  32.814  1.00  0.00     0.024 A 
ATOM     10  C   UNL A   1      41.548  29.439  33.034  1.00  0.00    -0.012 A 
ATOM     11  C   UNL A   1      43.553  30.468  32.171  1.00  0.00     0.012 A 
ATOM     12  C   UNL A   1      40.387  29.515  33.794  1.00  0.00     0.043 A 
ATOM     13  C   UNL A   1      41.956  28.220  32.470  1.00  0.00     0.009 A 
ATOM     14  C   UNL A   1      43.958  29.251  31.623  1.00  0.00     0.001 A 
ATOM     15  C   UNL A   1      43.140  28.135  31.741  1.00  0.00     0.001 A 
BRANCH   7  16
ATOM     16  N   UNL A   1      42.229  33.050  32.658  1.00  0.00    -0.356 N 
BRANCH  16  17
ATOM     17  C   UNL A   1      41.448  33.625  31.525  1.00  0.00     0.121 C 
BRANCH  17  18
ATOM     18  C   UNL A   1      39.930  33.287  31.552  1.00  0.00     0.005 C 
ATOM     19  C   UNL A   1      39.094  34.502  31.979  1.00  0.00     0.009 C 
BRANCH  18  20
ATOM     20  C   UNL A   1      39.436  32.656  30.218  1.00  0.00     0.002 C 
ATOM     21  C   UNL A   1      38.321  33.392  29.481  1.00  0.00     0.004 C 
ENDBRANCH  18  20
ENDBRANCH  17  18
ENDBRANCH  16  17
BRANCH  16  22
ATOM     22  C   UNL A   1      42.826  34.015  33.593  1.00  0.00     0.114 C 
ATOM     23  C   UNL A   1      42.090  35.343  33.703  1.00  0.00     0.027 C 
ENDBRANCH  16  22
ENDBRANCH   7  16
ENDBRANCH   3   6
ENDBRANCH   1   2
BRANCH   1  24
ATOM     24  C   UNL A   1      36.236  31.667  33.036  1.00  0.00     0.042 C 
BRANCH  24  25
ATOM     25  C   UNL A   1      36.756  30.672  32.016  1.00  0.00     0.118 C 
BRANCH  25  26
ATOM     26  N   UNL A   1      35.880  30.519  30.862  1.00  0.00    -0.352 N 
ATOM     27  C   UNL A   1      36.163  30.138  29.568  1.00  0.00     0.251 C 
ATOM     28  H   UNL A   1      34.931  30.719  31.035  1.00  0.00     0.163 HD
ATOM     29  O   UNL A   1      35.300  30.230  28.707  1.00  0.00    -0.269 OA
BRANCH  27  30
ATOM     30  C   UNL A   1      37.520  29.658  29.216  1.00  0.00     0.039 A 
ATOM     31  C   UNL A   1      37.923  29.681  27.879  1.00  0.00     0.014 A 
ATOM     32  C   UNL A   1      38.399  29.199  30.197  1.00  0.00     0.014 A 
ATOM     33  C   UNL A   1      39.235  29.333  27.545  1.00  0.00     0.010 A 
ATOM     34  C   UNL A   1      39.733  28.975  29.882  1.00  0.00     0.010 A 
ATOM     35  C   UNL A   1      40.167  29.028  28.550  1.00  0.00    -0.014 A 
BRANCH  35  36
ATOM     36  C   UNL A   1      41.593  28.744  28.238  1.00  0.00     0.031 A 
ATOM     37  C   UNL A   1      42.019  27.345  27.875  1.00  0.00     0.074 A 
ATOM     38  C   UNL A   1      42.513  29.723  28.357  1.00  0.00     0.049 A 
ATOM     39  N   UNL A   1      43.221  26.876  27.664  1.00  0.00    -0.248 NA
ATOM     40  C   UNL A   1      40.956  26.331  27.772  1.00  0.00     0.031 C 
ATOM     41  C   UNL A   1      42.236  31.105  28.758  1.00  0.00     0.029 A 
ATOM     42  N   UNL A   1      43.872  29.705  28.163  1.00  0.00    -0.354 N 
ATOM     43  C   UNL A   1      43.060  25.516  27.422  1.00  0.00     0.074 A 
ATOM     44  C   UNL A   1      41.654  25.222  27.580  1.00  0.00     0.031 C 
ATOM     45  C   UNL A   1      43.382  31.805  28.751  1.00  0.00     0.029 A 
ATOM     46  C   UNL A   1      44.481  30.917  28.392  1.00  0.00     0.049 A 
ATOM     47  H   UNL A   1      44.365  28.898  27.885  1.00  0.00     0.167 HD
ATOM     48  C   UNL A   1      43.993  24.600  27.069  1.00  0.00     0.037 A 
ATOM     49  C   UNL A   1      45.780  31.270  28.331  1.00  0.00     0.037 A 
ATOM     50  C   UNL A   1      45.387  24.907  26.883  1.00  0.00     0.049 A 
ATOM     51  C   UNL A   1      46.801  30.235  27.936  1.00  0.00     0.074 A 
ATOM     52  C   UNL A   1      46.404  24.067  26.469  1.00  0.00     0.029 A 
ATOM     53  N   UNL A   1      45.960  26.153  27.098  1.00  0.00    -0.354 N 
ATOM     54  N   UNL A   1      46.620  28.968  27.646  1.00  0.00    -0.248 NA
ATOM     55  C   UNL A   1      48.199  30.677  27.854  1.00  0.00     0.031 C 
ATOM     56  C   UNL A   1      47.600  24.790  26.481  1.00  0.00     0.029 A 
ATOM     57  C   UNL A   1      47.320  26.098  26.845  1.00  0.00     0.049 A 
ATOM     58  H   UNL A   1      45.471  26.957  27.387  1.00  0.00     0.167 HD
ATOM     59  C   UNL A   1      47.876  28.469  27.319  1.00  0.00     0.074 A 
ATOM     60  C   UNL A   1      48.805  29.575  27.433  1.00  0.00     0.031 C 
ATOM     61  C   UNL A   1      48.229  27.212  26.955  1.00  0.00     0.037 A 
BRANCH  48  62
ATOM     62  C   UNL A   1      43.534  23.184  26.851  1.00  0.00     0.058 A 
ATOM     63  C   UNL A   1      43.433  22.631  25.564  1.00  0.00     0.135 A 
ATOM     64  C   UNL A   1      43.220  22.357  27.941  1.00  0.00     0.135 A 
ATOM     65  F   UNL A   1      43.704  23.379  24.482  1.00  0.00    -0.206 F 
ATOM     66  C   UNL A   1      43.007  21.322  25.363  1.00  0.00     0.059 A 
ATOM     67  C   UNL A   1      42.822  21.035  27.767  1.00  0.00     0.059 A 
ATOM     68  F   UNL A   1      43.298  22.833  29.195  1.00  0.00    -0.206 F 
ATOM     69  C   UNL A   1      42.704  20.530  26.473  1.00  0.00     0.060 A 
BRANCH  69  70
ATOM     70  S   UNL A   1      42.161  18.832  26.194  1.00  0.00     0.124 S 
ATOM     71  O   UNL A   1      42.326  18.252  27.523  1.00  0.00    -0.237 OA
ATOM     72  O   UNL A   1      40.782  19.015  25.749  1.00  0.00    -0.237 OA
ATOM     73  O   UNL A   1      43.085  18.341  25.177  1.00  0.00    -0.744 OA
ENDBRANCH  69  70
ENDBRANCH  48  62
BRANCH  49  74
ATOM     74  C   UNL A   1      46.188  32.670  28.628  1.00  0.00     0.058 A 
ATOM     75  C   UNL A   1      46.321  33.617  27.602  1.00  0.00     0.135 A 
ATOM     76  C   UNL A   1      46.442  33.093  29.942  1.00  0.00     0.135 A 
ATOM     77  F   UNL A   1      46.097  33.262  26.328  1.00  0.00    -0.206 F 
ATOM     78  C   UNL A   1      46.711  34.928  27.863  1.00  0.00     0.059 A 
ATOM     79  C   UNL A   1      46.805  34.405  30.233  1.00  0.00     0.059 A 
ATOM     80  F   UNL A   1      46.311  32.232  30.964  1.00  0.00    -0.206 F 
ATOM     81  C   UNL A   1      46.949  35.312  29.184  1.00  0.00     0.060 A 
BRANCH  81  82
ATOM     82  S   UNL A   1      47.410  37.027  29.517  1.00  0.00     0.124 S 
ATOM     83  O   UNL A   1      48.504  36.858  30.467  1.00  0.00    -0.237 OA
ATOM     84  O   UNL A   1      47.784  37.506  28.191  1.00  0.00    -0.237 OA
ATOM     85  O   UNL A   1      46.185  37.604  30.061  1.00  0.00    -0.744 OA
ENDBRANCH  81  82
ENDBRANCH  49  74
BRANCH  61  86
ATOM     86  C   UNL A   1      49.673  26.966  26.614  1.00  0.00     0.058 A 
ATOM     87  C   UNL A   1      50.611  26.593  27.589  1.00  0.00     0.135 A 
ATOM     88  C   UNL A   1      50.111  27.051  25.282  1.00  0.00     0.135 A 
ATOM     89  F   UNL A   1      50.247  26.503  28.878  1.00  0.00    -0.206 F 
ATOM     90  C   UNL A   1      51.938  26.335  27.259  1.00  0.00     0.059 A 
ATOM     91  C   UNL A   1      51.424  26.768  24.926  1.00  0.00     0.059 A 
ATOM     92  F   UNL A   1      49.252  27.394  24.308  1.00  0.00    -0.206 F 
ATOM     93  C   UNL A   1      52.334  26.422  25.923  1.00  0.00     0.060 A 
BRANCH  93  94
ATOM     94  S   UNL A   1      54.049  26.049  25.505  1.00  0.00     0.124 S 
ATOM     95  O   UNL A   1      54.773  26.937  26.408  1.00  0.00    -0.237 OA
ATOM     96  O   UNL A   1      54.142  24.624  25.808  1.00  0.00    -0.237 OA
ATOM     97  O   UNL A   1      54.136  26.389  24.088  1.00  0.00    -0.744 OA
ENDBRANCH  93  94
ENDBRANCH  61  86
ENDBRANCH  35  36
ENDBRANCH  27  30
ENDBRANCH  25  26
ENDBRANCH  24  25
ENDBRANCH   1  24
TORSDOF 18
ENDMDL
