MODEL 1
REMARK VINA RESULT:     -12.9      0.000      0.000
REMARK SMILES CC[C@@H](C(=O)NCCCNC(=O)c1ccc(-c2c3nc(c(-c4c(F)cc(S(=O)(=O)[O-])cc4F)c4ccc([nH]4)c(-c4c(F)cc(S(=O)(=O)[O-])cc4F)c4nc(c(-c5c(F)cc(S(=O)(=O)[O-])cc5F)c5ccc2[nH]5)C=C4)C=C3)cc1)N1C(=O)/C(=C/C(C)=C/c2ccccc2)SC1=S
REMARK SMILES IDX 8 1 7 2 6 3 4 4 5 5 3 7 2 8 1 9 79 10 80 11 94 12 81 13
REMARK SMILES IDX 82 14 93 15 95 16 83 17 84 18 85 19 86 20 87 21 88 22 92 23
REMARK SMILES IDX 89 24 91 25 90 26 9 27 10 28 11 29 12 31 13 32 14 33 78 34
REMARK SMILES IDX 15 35 77 36 16 37 17 38 18 39 71 40 19 41 76 42 70 43 72 44
REMARK SMILES IDX 20 45 75 46 69 47 68 48 21 50 55 51 34 52 54 53 35 54 38 55
REMARK SMILES IDX 53 56 73 57 36 58 37 59 52 61 74 62 39 63 22 64 23 65 32 66
REMARK SMILES IDX 24 67 25 68 31 69 33 70 26 71 27 72 28 73 29 74 30 75 56 76
REMARK SMILES IDX 57 77 66 78 58 79 59 80 65 81 67 82 60 83 61 84 62 85 63 86
REMARK SMILES IDX 64 87 40 88 41 89 50 90 42 91 43 92 49 93 51 94 44 95 45 96
REMARK SMILES IDX 46 97 47 98 48 99
REMARK H PARENT 6 6 10 30 72 49 38 60
REMARK Flexibility Score: inf
ROOT
ATOM      1  C   UNL A   1      38.770  22.606  26.170  1.00  0.00     0.042 C 
ENDROOT
BRANCH   1   2
ATOM      2  C   UNL A   1      37.724  23.701  25.946  1.00  0.00     0.117 C 
BRANCH   2   3
ATOM      3  N   UNL A   1      37.225  23.673  24.577  1.00  0.00    -0.354 N 
ATOM      4  C   UNL A   1      36.036  23.277  24.039  1.00  0.00     0.243 C 
ATOM      5  O   UNL A   1      35.968  23.284  22.804  1.00  0.00    -0.273 OA
ATOM      6  H   UNL A   1      37.871  24.004  23.913  1.00  0.00     0.163 HD
BRANCH   4   7
ATOM      7  C   UNL A   1      34.814  22.871  24.904  1.00  0.00     0.181 C 
BRANCH   7   8
ATOM      8  C   UNL A   1      34.511  21.363  24.898  1.00  0.00     0.032 C 
ATOM      9  C   UNL A   1      35.653  20.376  25.024  1.00  0.00     0.006 C 
ENDBRANCH   7   8
BRANCH   7  10
ATOM     10  N   UNL A   1      33.678  23.724  24.378  1.00  0.00    -0.280 N 
ATOM     11  C   UNL A   1      33.532  24.997  24.938  1.00  0.00     0.266 C 
ATOM     12  C   UNL A   1      32.866  23.478  23.279  1.00  0.00     0.149 C 
ATOM     13  O   UNL A   1      34.161  25.439  25.885  1.00  0.00    -0.268 OA
ATOM     14  C   UNL A   1      32.454  25.767  24.238  1.00  0.00     0.080 C 
ATOM     15  S   UNL A   1      32.023  24.944  22.802  1.00  0.00    -0.054 SA
ATOM     16  S   UNL A   1      32.507  22.084  22.434  1.00  0.00    -0.052 S 
ATOM     17  C   UNL A   1      31.893  26.890  24.717  1.00  0.00     0.024 C 
BRANCH  17  18
ATOM     18  C   UNL A   1      30.741  27.628  24.168  1.00  0.00    -0.049 C 
ATOM     19  C   UNL A   1      29.456  26.845  24.079  1.00  0.00     0.044 C 
ATOM     20  C   UNL A   1      30.894  28.874  23.667  1.00  0.00     0.011 C 
BRANCH  20  21
ATOM     21  C   UNL A   1      29.913  29.815  23.094  1.00  0.00    -0.025 A 
ATOM     22  C   UNL A   1      29.402  30.815  23.936  1.00  0.00     0.008 A 
ATOM     23  C   UNL A   1      29.362  29.681  21.815  1.00  0.00     0.008 A 
ATOM     24  C   UNL A   1      28.392  31.677  23.504  1.00  0.00     0.001 A 
ATOM     25  C   UNL A   1      28.356  30.551  21.376  1.00  0.00     0.001 A 
ATOM     26  C   UNL A   1      27.871  31.548  22.221  1.00  0.00     0.000 A 
ENDBRANCH  20  21
ENDBRANCH  17  18
ENDBRANCH   7  10
ENDBRANCH   4   7
ENDBRANCH   2   3
ENDBRANCH   1   2
BRANCH   1  27
ATOM     27  C   UNL A   1      40.004  23.048  26.951  1.00  0.00     0.118 C 
BRANCH  27  28
ATOM     28  N   UNL A   1      41.006  23.670  26.106  1.00  0.00    -0.352 N 
ATOM     29  C   UNL A   1      41.583  24.918  26.175  1.00  0.00     0.251 C 
ATOM     30  H   UNL A   1      41.327  23.108  25.363  1.00  0.00     0.163 HD
ATOM     31  O   UNL A   1      42.274  25.296  25.230  1.00  0.00    -0.269 OA
BRANCH  29  32
ATOM     32  C   UNL A   1      41.376  25.821  27.338  1.00  0.00     0.039 A 
ATOM     33  C   UNL A   1      42.322  26.826  27.577  1.00  0.00     0.014 A 
ATOM     34  C   UNL A   1      40.311  25.665  28.229  1.00  0.00     0.014 A 
ATOM     35  C   UNL A   1      42.171  27.693  28.665  1.00  0.00     0.010 A 
ATOM     36  C   UNL A   1      40.115  26.584  29.265  1.00  0.00     0.010 A 
ATOM     37  C   UNL A   1      41.049  27.602  29.504  1.00  0.00    -0.014 A 
BRANCH  37  38
ATOM     38  C   UNL A   1      40.850  28.562  30.626  1.00  0.00     0.031 A 
ATOM     39  C   UNL A   1      41.684  28.472  31.878  1.00  0.00     0.074 A 
ATOM     40  C   UNL A   1      39.877  29.491  30.543  1.00  0.00     0.049 A 
ATOM     41  N   UNL A   1      41.640  29.215  32.957  1.00  0.00    -0.248 NA
ATOM     42  C   UNL A   1      42.676  27.389  31.940  1.00  0.00     0.031 C 
ATOM     43  C   UNL A   1      38.950  29.643  29.420  1.00  0.00     0.029 A 
ATOM     44  N   UNL A   1      39.497  30.477  31.421  1.00  0.00    -0.354 N 
ATOM     45  C   UNL A   1      42.579  28.678  33.830  1.00  0.00     0.074 A 
ATOM     46  C   UNL A   1      43.142  27.516  33.175  1.00  0.00     0.031 C 
ATOM     47  C   UNL A   1      38.124  30.671  29.668  1.00  0.00     0.029 A 
ATOM     48  C   UNL A   1      38.439  31.234  30.978  1.00  0.00     0.049 A 
ATOM     49  H   UNL A   1      39.940  30.627  32.288  1.00  0.00     0.167 HD
ATOM     50  C   UNL A   1      42.958  29.121  35.055  1.00  0.00     0.037 A 
ATOM     51  C   UNL A   1      37.790  32.265  31.556  1.00  0.00     0.037 A 
ATOM     52  C   UNL A   1      42.414  30.292  35.694  1.00  0.00     0.049 A 
ATOM     53  C   UNL A   1      38.246  32.765  32.896  1.00  0.00     0.074 A 
ATOM     54  C   UNL A   1      42.795  30.876  36.891  1.00  0.00     0.029 A 
ATOM     55  N   UNL A   1      41.365  31.052  35.198  1.00  0.00    -0.354 N 
ATOM     56  N   UNL A   1      39.204  32.304  33.664  1.00  0.00    -0.248 NA
ATOM     57  C   UNL A   1      37.543  33.933  33.444  1.00  0.00     0.031 C 
ATOM     58  C   UNL A   1      41.945  31.959  37.141  1.00  0.00     0.029 A 
ATOM     59  C   UNL A   1      41.064  32.081  36.077  1.00  0.00     0.049 A 
ATOM     60  H   UNL A   1      40.901  30.886  34.345  1.00  0.00     0.167 HD
ATOM     61  C   UNL A   1      39.227  33.130  34.783  1.00  0.00     0.074 A 
ATOM     62  C   UNL A   1      38.199  34.133  34.579  1.00  0.00     0.031 C 
ATOM     63  C   UNL A   1      40.026  33.064  35.877  1.00  0.00     0.037 A 
BRANCH  50  64
ATOM     64  C   UNL A   1      44.006  28.322  35.786  1.00  0.00     0.058 A 
ATOM     65  C   UNL A   1      45.378  28.570  35.617  1.00  0.00     0.135 A 
ATOM     66  C   UNL A   1      43.633  27.293  36.666  1.00  0.00     0.135 A 
ATOM     67  F   UNL A   1      45.793  29.536  34.781  1.00  0.00    -0.206 F 
ATOM     68  C   UNL A   1      46.342  27.791  36.248  1.00  0.00     0.059 A 
ATOM     69  C   UNL A   1      44.581  26.522  37.334  1.00  0.00     0.059 A 
ATOM     70  F   UNL A   1      42.336  27.017  36.874  1.00  0.00    -0.206 F 
ATOM     71  C   UNL A   1      45.934  26.762  37.097  1.00  0.00     0.060 A 
BRANCH  71  72
ATOM     72  S   UNL A   1      47.195  25.733  37.879  1.00  0.00     0.124 S 
ATOM     73  O   UNL A   1      47.547  24.830  36.788  1.00  0.00    -0.237 OA
ATOM     74  O   UNL A   1      48.215  26.710  38.245  1.00  0.00    -0.237 OA
ATOM     75  O   UNL A   1      46.488  25.120  38.998  1.00  0.00    -0.744 OA
ENDBRANCH  71  72
ENDBRANCH  50  64
BRANCH  51  76
ATOM     76  C   UNL A   1      36.653  32.899  30.836  1.00  0.00     0.058 A 
ATOM     77  C   UNL A   1      35.335  32.742  31.287  1.00  0.00     0.135 A 
ATOM     78  C   UNL A   1      36.873  33.734  29.730  1.00  0.00     0.135 A 
ATOM     79  F   UNL A   1      35.075  31.947  32.336  1.00  0.00    -0.206 F 
ATOM     80  C   UNL A   1      34.274  33.401  30.674  1.00  0.00     0.059 A 
ATOM     81  C   UNL A   1      35.831  34.420  29.114  1.00  0.00     0.059 A 
ATOM     82  F   UNL A   1      38.119  33.926  29.270  1.00  0.00    -0.206 F 
ATOM     83  C   UNL A   1      34.534  34.249  29.596  1.00  0.00     0.060 A 
BRANCH  83  84
ATOM     84  S   UNL A   1      33.165  35.186  28.880  1.00  0.00     0.124 S 
ATOM     85  O   UNL A   1      33.855  36.352  28.342  1.00  0.00    -0.237 OA
ATOM     86  O   UNL A   1      32.633  34.247  27.898  1.00  0.00    -0.237 OA
ATOM     87  O   UNL A   1      32.297  35.438  30.027  1.00  0.00    -0.744 OA
ENDBRANCH  83  84
ENDBRANCH  51  76
BRANCH  63  88
ATOM     88  C   UNL A   1      39.823  34.105  36.943  1.00  0.00     0.058 A 
ATOM     89  C   UNL A   1      39.107  33.825  38.118  1.00  0.00     0.135 A 
ATOM     90  C   UNL A   1      40.380  35.387  36.806  1.00  0.00     0.135 A 
ATOM     91  F   UNL A   1      38.548  32.617  38.297  1.00  0.00    -0.206 F 
ATOM     92  C   UNL A   1      38.925  34.787  39.107  1.00  0.00     0.059 A 
ATOM     93  C   UNL A   1      40.233  36.357  37.794  1.00  0.00     0.059 A 
ATOM     94  F   UNL A   1      41.083  35.705  35.708  1.00  0.00    -0.206 F 
ATOM     95  C   UNL A   1      39.491  36.051  38.934  1.00  0.00     0.060 A 
BRANCH  95  96
ATOM     96  S   UNL A   1      39.265  37.287  40.231  1.00  0.00     0.124 S 
ATOM     97  O   UNL A   1      38.522  36.527  41.232  1.00  0.00    -0.237 OA
ATOM     98  O   UNL A   1      40.640  37.627  40.586  1.00  0.00    -0.237 OA
ATOM     99  O   UNL A   1      38.516  38.347  39.564  1.00  0.00    -0.744 OA
ENDBRANCH  95  96
ENDBRANCH  63  88
ENDBRANCH  37  38
ENDBRANCH  29  32
ENDBRANCH  27  28
ENDBRANCH   1  27
TORSDOF 17
ENDMDL
MODEL 2
REMARK VINA RESULT:     -12.4      0.667      8.091
REMARK SMILES CC[C@@H](C(=O)NCCCNC(=O)c1ccc(-c2c3nc(c(-c4c(F)cc(S(=O)(=O)[O-])cc4F)c4ccc([nH]4)c(-c4c(F)cc(S(=O)(=O)[O-])cc4F)c4nc(c(-c5c(F)cc(S(=O)(=O)[O-])cc5F)c5ccc2[nH]5)C=C4)C=C3)cc1)N1C(=O)/C(=C/C(C)=C/c2ccccc2)SC1=S
REMARK SMILES IDX 8 1 7 2 6 3 4 4 5 5 3 7 2 8 1 9 79 10 80 11 94 12 81 13
REMARK SMILES IDX 82 14 93 15 95 16 83 17 84 18 85 19 86 20 87 21 88 22 92 23
REMARK SMILES IDX 89 24 91 25 90 26 9 27 10 28 11 29 12 31 13 32 14 33 78 34
REMARK SMILES IDX 15 35 77 36 16 37 17 38 18 39 71 40 19 41 76 42 70 43 72 44
REMARK SMILES IDX 20 45 75 46 69 47 68 48 21 50 55 51 34 52 54 53 35 54 38 55
REMARK SMILES IDX 53 56 73 57 36 58 37 59 52 61 74 62 39 63 22 64 23 65 32 66
REMARK SMILES IDX 24 67 25 68 31 69 33 70 26 71 27 72 28 73 29 74 30 75 56 76
REMARK SMILES IDX 57 77 66 78 58 79 59 80 65 81 67 82 60 83 61 84 62 85 63 86
REMARK SMILES IDX 64 87 40 88 41 89 50 90 42 91 43 92 49 93 51 94 44 95 45 96
REMARK SMILES IDX 46 97 47 98 48 99
REMARK H PARENT 6 6 10 30 72 49 38 60
REMARK Flexibility Score: inf
ROOT
ATOM      1  C   UNL A   1      38.808  22.787  26.236  1.00  0.00     0.042 C 
ENDROOT
BRANCH   1   2
ATOM      2  C   UNL A   1      37.668  23.772  25.961  1.00  0.00     0.117 C 
BRANCH   2   3
ATOM      3  N   UNL A   1      37.194  23.652  24.589  1.00  0.00    -0.354 N 
ATOM      4  C   UNL A   1      36.051  23.140  24.050  1.00  0.00     0.243 C 
ATOM      5  O   UNL A   1      36.002  23.096  22.815  1.00  0.00    -0.273 OA
ATOM      6  H   UNL A   1      37.822  24.011  23.921  1.00  0.00     0.163 HD
BRANCH   4   7
ATOM      7  C   UNL A   1      34.853  22.666  24.914  1.00  0.00     0.181 C 
BRANCH   7   8
ATOM      8  C   UNL A   1      34.587  21.152  24.846  1.00  0.00     0.032 C 
ATOM      9  C   UNL A   1      35.748  20.188  24.972  1.00  0.00     0.006 C 
ENDBRANCH   7   8
BRANCH   7  10
ATOM     10  N   UNL A   1      33.689  23.512  24.443  1.00  0.00    -0.280 N 
ATOM     11  C   UNL A   1      33.582  24.797  24.985  1.00  0.00     0.266 C 
ATOM     12  C   UNL A   1      32.807  23.247  23.403  1.00  0.00     0.149 C 
ATOM     13  O   UNL A   1      34.271  25.256  25.881  1.00  0.00    -0.268 OA
ATOM     14  C   UNL A   1      32.464  25.557  24.338  1.00  0.00     0.080 C 
ATOM     15  S   UNL A   1      31.941  24.707  22.950  1.00  0.00    -0.054 SA
ATOM     16  S   UNL A   1      32.392  21.837  22.612  1.00  0.00    -0.052 S 
ATOM     17  C   UNL A   1      31.938  26.692  24.828  1.00  0.00     0.024 C 
BRANCH  17  18
ATOM     18  C   UNL A   1      30.755  27.424  24.338  1.00  0.00    -0.049 C 
ATOM     19  C   UNL A   1      29.475  26.631  24.302  1.00  0.00     0.044 C 
ATOM     20  C   UNL A   1      30.876  28.675  23.839  1.00  0.00     0.011 C 
BRANCH  20  21
ATOM     21  C   UNL A   1      29.861  29.610  23.318  1.00  0.00    -0.025 A 
ATOM     22  C   UNL A   1      29.647  30.800  24.031  1.00  0.00     0.008 A 
ATOM     23  C   UNL A   1      29.010  29.318  22.247  1.00  0.00     0.008 A 
ATOM     24  C   UNL A   1      28.632  31.688  23.668  1.00  0.00     0.001 A 
ATOM     25  C   UNL A   1      27.998  30.212  21.874  1.00  0.00     0.001 A 
ATOM     26  C   UNL A   1      27.810  31.396  22.585  1.00  0.00     0.000 A 
ENDBRANCH  20  21
ENDBRANCH  17  18
ENDBRANCH   7  10
ENDBRANCH   4   7
ENDBRANCH   2   3
ENDBRANCH   1   2
BRANCH   1  27
ATOM     27  C   UNL A   1      40.031  23.395  26.914  1.00  0.00     0.118 C 
BRANCH  27  28
ATOM     28  N   UNL A   1      40.855  24.161  25.997  1.00  0.00    -0.352 N 
ATOM     29  C   UNL A   1      41.296  25.463  26.066  1.00  0.00     0.251 C 
ATOM     30  H   UNL A   1      41.148  23.669  25.196  1.00  0.00     0.163 HD
ATOM     31  O   UNL A   1      41.828  25.954  25.072  1.00  0.00    -0.269 OA
BRANCH  29  32
ATOM     32  C   UNL A   1      41.126  26.290  27.290  1.00  0.00     0.039 A 
ATOM     33  C   UNL A   1      41.982  27.383  27.479  1.00  0.00     0.014 A 
ATOM     34  C   UNL A   1      40.190  25.983  28.280  1.00  0.00     0.014 A 
ATOM     35  C   UNL A   1      41.863  28.184  28.620  1.00  0.00     0.010 A 
ATOM     36  C   UNL A   1      40.015  26.832  29.377  1.00  0.00     0.010 A 
ATOM     37  C   UNL A   1      40.858  27.936  29.568  1.00  0.00    -0.014 A 
BRANCH  37  38
ATOM     38  C   UNL A   1      40.686  28.823  30.753  1.00  0.00     0.031 A 
ATOM     39  C   UNL A   1      39.612  29.881  30.778  1.00  0.00     0.074 A 
ATOM     40  C   UNL A   1      41.534  28.716  31.795  1.00  0.00     0.049 A 
ATOM     41  N   UNL A   1      39.326  30.747  31.718  1.00  0.00    -0.248 NA
ATOM     42  C   UNL A   1      38.768  30.001  29.580  1.00  0.00     0.031 C 
ATOM     43  C   UNL A   1      42.662  27.785  31.871  1.00  0.00     0.029 A 
ATOM     44  N   UNL A   1      41.588  29.399  32.986  1.00  0.00    -0.354 N 
ATOM     45  C   UNL A   1      38.288  31.526  31.219  1.00  0.00     0.074 A 
ATOM     46  C   UNL A   1      38.029  31.061  29.872  1.00  0.00     0.031 C 
ATOM     47  C   UNL A   1      43.282  27.941  33.050  1.00  0.00     0.029 A 
ATOM     48  C   UNL A   1      42.619  29.002  33.804  1.00  0.00     0.049 A 
ATOM     49  H   UNL A   1      40.949  30.107  33.230  1.00  0.00     0.167 HD
ATOM     50  C   UNL A   1      37.597  32.521  31.828  1.00  0.00     0.037 A 
ATOM     51  C   UNL A   1      42.995  29.440  35.022  1.00  0.00     0.037 A 
ATOM     52  C   UNL A   1      37.840  32.965  33.178  1.00  0.00     0.049 A 
ATOM     53  C   UNL A   1      42.197  30.517  35.698  1.00  0.00     0.074 A 
ATOM     54  C   UNL A   1      37.136  33.900  33.917  1.00  0.00     0.029 A 
ATOM     55  N   UNL A   1      38.874  32.516  33.986  1.00  0.00    -0.354 N 
ATOM     56  N   UNL A   1      41.154  31.174  35.247  1.00  0.00    -0.248 NA
ATOM     57  C   UNL A   1      42.615  30.904  37.052  1.00  0.00     0.031 C 
ATOM     58  C   UNL A   1      37.773  34.050  35.154  1.00  0.00     0.029 A 
ATOM     59  C   UNL A   1      38.846  33.175  35.206  1.00  0.00     0.049 A 
ATOM     60  H   UNL A   1      39.532  31.828  33.732  1.00  0.00     0.167 HD
ATOM     61  C   UNL A   1      40.785  32.047  36.265  1.00  0.00     0.074 A 
ATOM     62  C   UNL A   1      41.704  31.817  37.362  1.00  0.00     0.031 C 
ATOM     63  C   UNL A   1      39.777  32.954  36.287  1.00  0.00     0.037 A 
BRANCH  50  64
ATOM     64  C   UNL A   1      36.517  33.203  31.030  1.00  0.00     0.058 A 
ATOM     65  C   UNL A   1      36.816  34.140  30.027  1.00  0.00     0.135 A 
ATOM     66  C   UNL A   1      35.163  32.918  31.272  1.00  0.00     0.135 A 
ATOM     67  F   UNL A   1      38.093  34.458  29.757  1.00  0.00    -0.206 F 
ATOM     68  C   UNL A   1      35.814  34.811  29.333  1.00  0.00     0.059 A 
ATOM     69  C   UNL A   1      34.144  33.555  30.567  1.00  0.00     0.059 A 
ATOM     70  F   UNL A   1      34.817  32.026  32.212  1.00  0.00    -0.206 F 
ATOM     71  C   UNL A   1      34.480  34.519  29.618  1.00  0.00     0.060 A 
BRANCH  71  72
ATOM     72  S   UNL A   1      33.189  35.426  28.740  1.00  0.00     0.124 S 
ATOM     73  O   UNL A   1      32.519  34.348  28.018  1.00  0.00    -0.237 OA
ATOM     74  O   UNL A   1      32.428  36.024  29.831  1.00  0.00    -0.237 OA
ATOM     75  O   UNL A   1      33.937  36.366  27.912  1.00  0.00    -0.744 OA
ENDBRANCH  71  72
ENDBRANCH  50  64
BRANCH  51  76
ATOM     76  C   UNL A   1      44.178  28.823  35.679  1.00  0.00     0.058 A 
ATOM     77  C   UNL A   1      45.465  29.345  35.487  1.00  0.00     0.135 A 
ATOM     78  C   UNL A   1      44.033  27.749  36.570  1.00  0.00     0.135 A 
ATOM     79  F   UNL A   1      45.655  30.366  34.638  1.00  0.00    -0.206 F 
ATOM     80  C   UNL A   1      46.566  28.831  36.164  1.00  0.00     0.059 A 
ATOM     81  C   UNL A   1      45.115  27.232  37.275  1.00  0.00     0.059 A 
ATOM     82  F   UNL A   1      42.818  27.225  36.798  1.00  0.00    -0.206 F 
ATOM     83  C   UNL A   1      46.379  27.783  37.066  1.00  0.00     0.060 A 
BRANCH  83  84
ATOM     84  S   UNL A   1      47.796  27.199  38.023  1.00  0.00     0.124 S 
ATOM     85  O   UNL A   1      47.804  28.137  39.141  1.00  0.00    -0.237 OA
ATOM     86  O   UNL A   1      47.406  25.829  38.341  1.00  0.00    -0.237 OA
ATOM     87  O   UNL A   1      48.908  27.323  37.085  1.00  0.00    -0.744 OA
ENDBRANCH  83  84
ENDBRANCH  51  76
BRANCH  63  88
ATOM     88  C   UNL A   1      39.612  33.771  37.539  1.00  0.00     0.058 A 
ATOM     89  C   UNL A   1      38.796  33.340  38.596  1.00  0.00     0.135 A 
ATOM     90  C   UNL A   1      40.303  34.983  37.698  1.00  0.00     0.135 A 
ATOM     91  F   UNL A   1      38.106  32.192  38.494  1.00  0.00    -0.206 F 
ATOM     92  C   UNL A   1      38.648  34.093  39.757  1.00  0.00     0.059 A 
ATOM     93  C   UNL A   1      40.192  35.740  38.861  1.00  0.00     0.059 A 
ATOM     94  F   UNL A   1      41.106  35.438  36.722  1.00  0.00    -0.206 F 
ATOM     95  C   UNL A   1      39.350  35.294  39.879  1.00  0.00     0.060 A 
BRANCH  95  96
ATOM     96  S   UNL A   1      39.166  36.256  41.396  1.00  0.00     0.124 S 
ATOM     97  O   UNL A   1      40.448  36.017  42.051  1.00  0.00    -0.237 OA
ATOM     98  O   UNL A   1      38.957  37.609  40.888  1.00  0.00    -0.237 OA
ATOM     99  O   UNL A   1      38.006  35.650  42.044  1.00  0.00    -0.744 OA
ENDBRANCH  95  96
ENDBRANCH  63  88
ENDBRANCH  37  38
ENDBRANCH  29  32
ENDBRANCH  27  28
ENDBRANCH   1  27
TORSDOF 17
ENDMDL
MODEL 3
REMARK VINA RESULT:     -11.8      4.615      7.432
REMARK SMILES CC[C@@H](C(=O)NCCCNC(=O)c1ccc(-c2c3nc(c(-c4c(F)cc(S(=O)(=O)[O-])cc4F)c4ccc([nH]4)c(-c4c(F)cc(S(=O)(=O)[O-])cc4F)c4nc(c(-c5c(F)cc(S(=O)(=O)[O-])cc5F)c5ccc2[nH]5)C=C4)C=C3)cc1)N1C(=O)/C(=C/C(C)=C/c2ccccc2)SC1=S
REMARK SMILES IDX 8 1 7 2 6 3 4 4 5 5 3 7 2 8 1 9 79 10 80 11 94 12 81 13
REMARK SMILES IDX 82 14 93 15 95 16 83 17 84 18 85 19 86 20 87 21 88 22 92 23
REMARK SMILES IDX 89 24 91 25 90 26 9 27 10 28 11 29 12 31 13 32 14 33 78 34
REMARK SMILES IDX 15 35 77 36 16 37 17 38 18 39 71 40 19 41 76 42 70 43 72 44
REMARK SMILES IDX 20 45 75 46 69 47 68 48 21 50 55 51 34 52 54 53 35 54 38 55
REMARK SMILES IDX 53 56 73 57 36 58 37 59 52 61 74 62 39 63 22 64 23 65 32 66
REMARK SMILES IDX 24 67 25 68 31 69 33 70 26 71 27 72 28 73 29 74 30 75 56 76
REMARK SMILES IDX 57 77 66 78 58 79 59 80 65 81 67 82 60 83 61 84 62 85 63 86
REMARK SMILES IDX 64 87 40 88 41 89 50 90 42 91 43 92 49 93 51 94 44 95 45 96
REMARK SMILES IDX 46 97 47 98 48 99
REMARK H PARENT 6 6 10 30 72 49 38 60
REMARK Flexibility Score: inf
ROOT
ATOM      1  C   UNL A   1      45.044  24.103  27.559  1.00  0.00     0.042 C 
ENDROOT
BRANCH   1   2
ATOM      2  C   UNL A   1      45.657  24.791  26.335  1.00  0.00     0.117 C 
BRANCH   2   3
ATOM      3  N   UNL A   1      47.099  24.932  26.485  1.00  0.00    -0.354 N 
ATOM      4  C   UNL A   1      48.010  25.756  25.892  1.00  0.00     0.243 C 
ATOM      5  O   UNL A   1      49.197  25.547  26.171  1.00  0.00    -0.273 OA
ATOM      6  H   UNL A   1      47.492  24.314  27.142  1.00  0.00     0.163 HD
BRANCH   4   7
ATOM      7  C   UNL A   1      47.605  26.916  24.945  1.00  0.00     0.181 C 
BRANCH   7   8
ATOM      8  C   UNL A   1      48.705  27.335  23.955  1.00  0.00     0.032 C 
ATOM      9  C   UNL A   1      48.652  26.827  22.529  1.00  0.00     0.006 C 
ENDBRANCH   7   8
BRANCH   7  10
ATOM     10  N   UNL A   1      47.166  28.027  25.875  1.00  0.00    -0.280 N 
ATOM     11  C   UNL A   1      45.822  28.410  25.812  1.00  0.00     0.266 C 
ATOM     12  C   UNL A   1      47.882  28.600  26.918  1.00  0.00     0.149 C 
ATOM     13  O   UNL A   1      45.001  28.012  25.002  1.00  0.00    -0.268 OA
ATOM     14  C   UNL A   1      45.506  29.425  26.868  1.00  0.00     0.080 C 
ATOM     15  S   UNL A   1      46.807  29.500  27.976  1.00  0.00    -0.054 SA
ATOM     16  S   UNL A   1      49.513  28.646  27.270  1.00  0.00    -0.052 S 
ATOM     17  C   UNL A   1      44.396  30.182  26.882  1.00  0.00     0.024 C 
BRANCH  17  18
ATOM     18  C   UNL A   1      44.074  31.293  27.797  1.00  0.00    -0.049 C 
ATOM     19  C   UNL A   1      44.637  32.634  27.406  1.00  0.00     0.044 C 
ATOM     20  C   UNL A   1      43.428  31.062  28.962  1.00  0.00     0.011 C 
BRANCH  20  21
ATOM     21  C   UNL A   1      42.977  31.988  30.019  1.00  0.00    -0.025 A 
ATOM     22  C   UNL A   1      43.540  31.840  31.296  1.00  0.00     0.008 A 
ATOM     23  C   UNL A   1      41.928  32.900  29.859  1.00  0.00     0.008 A 
ATOM     24  C   UNL A   1      43.091  32.603  32.377  1.00  0.00     0.001 A 
ATOM     25  C   UNL A   1      41.483  33.674  30.938  1.00  0.00     0.001 A 
ATOM     26  C   UNL A   1      42.065  33.524  32.196  1.00  0.00     0.000 A 
ENDBRANCH  20  21
ENDBRANCH  17  18
ENDBRANCH   7  10
ENDBRANCH   4   7
ENDBRANCH   2   3
ENDBRANCH   1   2
BRANCH   1  27
ATOM     27  C   UNL A   1      43.654  23.515  27.334  1.00  0.00     0.118 C 
BRANCH  27  28
ATOM     28  N   UNL A   1      42.973  24.110  26.199  1.00  0.00    -0.352 N 
ATOM     29  C   UNL A   1      42.088  25.163  26.140  1.00  0.00     0.251 C 
ATOM     30  H   UNL A   1      43.178  23.695  25.330  1.00  0.00     0.163 HD
ATOM     31  O   UNL A   1      41.491  25.366  25.084  1.00  0.00    -0.269 OA
BRANCH  29  32
ATOM     32  C   UNL A   1      41.818  26.035  27.313  1.00  0.00     0.039 A 
ATOM     33  C   UNL A   1      42.729  27.059  27.604  1.00  0.00     0.014 A 
ATOM     34  C   UNL A   1      40.729  25.833  28.165  1.00  0.00     0.014 A 
ATOM     35  C   UNL A   1      42.519  27.900  28.704  1.00  0.00     0.010 A 
ATOM     36  C   UNL A   1      40.475  26.724  29.212  1.00  0.00     0.010 A 
ATOM     37  C   UNL A   1      41.373  27.762  29.503  1.00  0.00    -0.014 A 
BRANCH  37  38
ATOM     38  C   UNL A   1      41.112  28.693  30.636  1.00  0.00     0.031 A 
ATOM     39  C   UNL A   1      41.906  28.597  31.914  1.00  0.00     0.074 A 
ATOM     40  C   UNL A   1      40.118  29.598  30.540  1.00  0.00     0.049 A 
ATOM     41  N   UNL A   1      41.806  29.316  33.005  1.00  0.00    -0.248 NA
ATOM     42  C   UNL A   1      42.924  27.539  31.988  1.00  0.00     0.031 C 
ATOM     43  C   UNL A   1      39.225  29.750  29.389  1.00  0.00     0.029 A 
ATOM     44  N   UNL A   1      39.684  30.555  31.424  1.00  0.00    -0.354 N 
ATOM     45  C   UNL A   1      42.730  28.785  33.899  1.00  0.00     0.074 A 
ATOM     46  C   UNL A   1      43.344  27.652  33.239  1.00  0.00     0.031 C 
ATOM     47  C   UNL A   1      38.365  30.751  29.629  1.00  0.00     0.029 A 
ATOM     48  C   UNL A   1      38.622  31.295  30.960  1.00  0.00     0.049 A 
ATOM     49  H   UNL A   1      40.094  30.698  32.308  1.00  0.00     0.167 HD
ATOM     50  C   UNL A   1      43.056  29.211  35.144  1.00  0.00     0.037 A 
ATOM     51  C   UNL A   1      37.927  32.296  31.537  1.00  0.00     0.037 A 
ATOM     52  C   UNL A   1      42.461  30.355  35.788  1.00  0.00     0.049 A 
ATOM     53  C   UNL A   1      38.325  32.780  32.901  1.00  0.00     0.074 A 
ATOM     54  C   UNL A   1      42.786  30.923  37.009  1.00  0.00     0.029 A 
ATOM     55  N   UNL A   1      41.409  31.098  35.272  1.00  0.00    -0.354 N 
ATOM     56  N   UNL A   1      39.269  32.327  33.692  1.00  0.00    -0.248 NA
ATOM     57  C   UNL A   1      37.574  33.918  33.449  1.00  0.00     0.031 C 
ATOM     58  C   UNL A   1      41.900  31.978  37.251  1.00  0.00     0.029 A 
ATOM     59  C   UNL A   1      41.053  32.100  36.161  1.00  0.00     0.049 A 
ATOM     60  H   UNL A   1      40.979  30.938  34.401  1.00  0.00     0.167 HD
ATOM     61  C   UNL A   1      39.233  33.130  34.827  1.00  0.00     0.074 A 
ATOM     62  C   UNL A   1      38.186  34.109  34.609  1.00  0.00     0.031 C 
ATOM     63  C   UNL A   1      39.997  33.060  35.946  1.00  0.00     0.037 A 
BRANCH  50  64
ATOM     64  C   UNL A   1      44.100  28.425  35.894  1.00  0.00     0.058 A 
ATOM     65  C   UNL A   1      45.473  28.669  35.729  1.00  0.00     0.135 A 
ATOM     66  C   UNL A   1      43.721  27.410  36.788  1.00  0.00     0.135 A 
ATOM     67  F   UNL A   1      45.893  29.622  34.880  1.00  0.00    -0.206 F 
ATOM     68  C   UNL A   1      46.434  27.900  36.378  1.00  0.00     0.059 A 
ATOM     69  C   UNL A   1      44.666  26.649  37.473  1.00  0.00     0.059 A 
ATOM     70  F   UNL A   1      42.424  27.137  36.993  1.00  0.00    -0.206 F 
ATOM     71  C   UNL A   1      46.020  26.886  37.241  1.00  0.00     0.060 A 
BRANCH  71  72
ATOM     72  S   UNL A   1      47.276  25.869  38.046  1.00  0.00     0.124 S 
ATOM     73  O   UNL A   1      48.016  26.872  38.806  1.00  0.00    -0.237 OA
ATOM     74  O   UNL A   1      46.472  24.944  38.838  1.00  0.00    -0.237 OA
ATOM     75  O   UNL A   1      47.997  25.270  36.928  1.00  0.00    -0.744 OA
ENDBRANCH  71  72
ENDBRANCH  50  64
BRANCH  51  76
ATOM     76  C   UNL A   1      36.799  32.916  30.792  1.00  0.00     0.058 A 
ATOM     77  C   UNL A   1      35.468  32.667  31.158  1.00  0.00     0.135 A 
ATOM     78  C   UNL A   1      37.033  33.826  29.751  1.00  0.00     0.135 A 
ATOM     79  F   UNL A   1      35.194  31.797  32.142  1.00  0.00    -0.206 F 
ATOM     80  C   UNL A   1      34.409  33.309  30.526  1.00  0.00     0.059 A 
ATOM     81  C   UNL A   1      35.991  34.497  29.118  1.00  0.00     0.059 A 
ATOM     82  F   UNL A   1      38.290  34.108  29.374  1.00  0.00    -0.206 F 
ATOM     83  C   UNL A   1      34.681  34.232  29.515  1.00  0.00     0.060 A 
BRANCH  83  84
ATOM     84  S   UNL A   1      33.305  35.143  28.779  1.00  0.00     0.124 S 
ATOM     85  O   UNL A   1      34.001  36.213  28.075  1.00  0.00    -0.237 OA
ATOM     86  O   UNL A   1      32.680  34.126  27.939  1.00  0.00    -0.237 OA
ATOM     87  O   UNL A   1      32.518  35.555  29.938  1.00  0.00    -0.744 OA
ENDBRANCH  83  84
ENDBRANCH  51  76
BRANCH  63  88
ATOM     88  C   UNL A   1      39.731  34.073  37.026  1.00  0.00     0.058 A 
ATOM     89  C   UNL A   1      38.889  33.787  38.112  1.00  0.00     0.135 A 
ATOM     90  C   UNL A   1      40.353  35.332  36.993  1.00  0.00     0.135 A 
ATOM     91  F   UNL A   1      38.264  32.601  38.189  1.00  0.00    -0.206 F 
ATOM     92  C   UNL A   1      38.649  34.722  39.114  1.00  0.00     0.059 A 
ATOM     93  C   UNL A   1      40.148  36.274  37.998  1.00  0.00     0.059 A 
ATOM     94  F   UNL A   1      41.176  35.655  35.983  1.00  0.00    -0.206 F 
ATOM     95  C   UNL A   1      39.282  35.965  39.047  1.00  0.00     0.060 A 
BRANCH  95  96
ATOM     96  S   UNL A   1      38.979  37.165  40.361  1.00  0.00     0.124 S 
ATOM     97  O   UNL A   1      38.296  38.230  39.633  1.00  0.00    -0.237 OA
ATOM     98  O   UNL A   1      38.153  36.406  41.296  1.00  0.00    -0.237 OA
ATOM     99  O   UNL A   1      40.319  37.491  40.840  1.00  0.00    -0.744 OA
ENDBRANCH  95  96
ENDBRANCH  63  88
ENDBRANCH  37  38
ENDBRANCH  29  32
ENDBRANCH  27  28
ENDBRANCH   1  27
TORSDOF 17
ENDMDL
