MODEL 1
REMARK VINA RESULT:     -13.3      0.000      0.000
REMARK SMILES Cc1ccc2oc(C(=O)N[C@@H]3C=C[C@H](C(=O)NCCCNC(=O)c4ccc(-c5c6nc(c(-c7c(F)cc(S(=O)(=O)[O-])cc7F)c7ccc([nH]7)c(-c7c(F)cc(S(=O)(=O)[O-])cc7F)c7nc(c(-c8c(F)cc(S(=O)(=O)[O-])cc8F)c8ccc5[nH]8)C=C7)C=C6)cc4)C3)cc2c1
REMARK SMILES IDX 19 1 18 2 17 3 15 4 16 5 14 7 11 8 12 9 90 10 13 11 10 12
REMARK SMILES IDX 8 13 9 14 7 16 1 17 2 18 3 19 93 20 4 21 92 22 5 23 91 24
REMARK SMILES IDX 6 25 20 26 21 27 22 28 23 30 24 31 25 32 89 33 26 34 88 35
REMARK SMILES IDX 27 36 28 37 29 38 82 39 30 40 87 41 81 42 83 43 31 44 86 45
REMARK SMILES IDX 80 46 79 47 32 49 66 50 45 51 65 52 46 53 49 54 64 55 84 56
REMARK SMILES IDX 47 57 48 58 63 60 85 61 50 62 33 63 34 64 43 65 35 66 36 67
REMARK SMILES IDX 42 68 44 69 37 70 38 71 39 72 40 73 41 74 67 75 68 76 77 77
REMARK SMILES IDX 69 78 70 79 76 80 78 81 71 82 72 83 73 84 74 85 75 86 51 87
REMARK SMILES IDX 52 88 61 89 53 90 54 91 60 92 62 93 55 94 56 95 57 96 58 97
REMARK SMILES IDX 59 98
REMARK H PARENT 17 6 10 15 21 29 83 48 49 59
REMARK Flexibility Score: inf
ROOT
ATOM      1  C   UNL A   1      34.215  31.219  27.574  1.00  0.00     0.042 C 
ENDROOT
BRANCH   1   2
ATOM      2  C   UNL A   1      33.151  30.360  26.906  1.00  0.00     0.117 C 
BRANCH   2   3
ATOM      3  N   UNL A   1      33.561  29.753  25.658  1.00  0.00    -0.356 N 
ATOM      4  C   UNL A   1      32.871  29.266  24.595  1.00  0.00     0.227 C 
ATOM      5  O   UNL A   1      33.557  29.081  23.581  1.00  0.00    -0.274 OA
ATOM      6  H   UNL A   1      34.538  29.680  25.558  1.00  0.00     0.163 HD
BRANCH   4   7
ATOM      7  C   UNL A   1      31.387  28.804  24.623  1.00  0.00     0.103 C 
ATOM      8  C   UNL A   1      30.768  27.183  22.852  1.00  0.00     0.106 C 
ATOM      9  C   UNL A   1      30.046  28.464  22.689  1.00  0.00    -0.006 C 
ATOM     10  C   UNL A   1      31.319  27.293  24.282  1.00  0.00     0.047 C 
ATOM     11  C   UNL A   1      30.344  29.329  23.674  1.00  0.00    -0.016 C 
BRANCH   8  12
ATOM     12  N   UNL A   1      31.740  26.805  21.824  1.00  0.00    -0.343 N 
ATOM     13  C   UNL A   1      32.644  25.825  21.487  1.00  0.00     0.287 C 
ATOM     14  O   UNL A   1      33.280  26.068  20.445  1.00  0.00    -0.266 OA
ATOM     15  H   UNL A   1      31.749  27.500  21.125  1.00  0.00     0.164 HD
BRANCH  13  16
ATOM     16  C   UNL A   1      32.887  24.631  22.264  1.00  0.00     0.192 A 
ATOM     17  C   UNL A   1      33.138  19.523  25.438  1.00  0.00     0.044 C 
ATOM     18  C   UNL A   1      33.508  20.809  24.756  1.00  0.00    -0.050 A 
ATOM     19  C   UNL A   1      34.831  21.270  24.670  1.00  0.00     0.007 A 
ATOM     20  C   UNL A   1      32.484  21.548  24.166  1.00  0.00     0.015 A 
ATOM     21  C   UNL A   1      35.162  22.477  24.017  1.00  0.00     0.048 A 
ATOM     22  C   UNL A   1      32.811  22.711  23.460  1.00  0.00     0.021 A 
ATOM     23  C   UNL A   1      34.112  23.172  23.425  1.00  0.00     0.135 A 
ATOM     24  C   UNL A   1      32.090  23.583  22.641  1.00  0.00     0.065 A 
ATOM     25  O   UNL A   1      34.167  24.353  22.726  1.00  0.00    -0.451 OA
ENDBRANCH  13  16
ENDBRANCH   8  12
ENDBRANCH   4   7
ENDBRANCH   2   3
ENDBRANCH   1   2
BRANCH   1  26
ATOM     26  C   UNL A   1      35.266  30.455  28.378  1.00  0.00     0.118 C 
BRANCH  26  27
ATOM     27  N   UNL A   1      35.418  30.906  29.755  1.00  0.00    -0.352 N 
ATOM     28  C   UNL A   1      36.505  30.838  30.601  1.00  0.00     0.251 C 
ATOM     29  H   UNL A   1      34.616  31.325  30.144  1.00  0.00     0.163 HD
ATOM     30  O   UNL A   1      36.376  31.208  31.767  1.00  0.00    -0.269 OA
BRANCH  28  31
ATOM     31  C   UNL A   1      37.810  30.286  30.150  1.00  0.00     0.039 A 
ATOM     32  C   UNL A   1      38.132  30.347  28.788  1.00  0.00     0.014 A 
ATOM     33  C   UNL A   1      38.712  29.694  31.036  1.00  0.00     0.014 A 
ATOM     34  C   UNL A   1      39.378  29.895  28.338  1.00  0.00     0.010 A 
ATOM     35  C   UNL A   1      39.988  29.330  30.602  1.00  0.00     0.010 A 
ATOM     36  C   UNL A   1      40.336  29.420  29.247  1.00  0.00    -0.014 A 
BRANCH  36  37
ATOM     37  C   UNL A   1      41.692  28.997  28.799  1.00  0.00     0.031 A 
ATOM     38  C   UNL A   1      42.814  30.001  28.717  1.00  0.00     0.074 A 
ATOM     39  C   UNL A   1      41.904  27.728  28.397  1.00  0.00     0.049 A 
ATOM     40  N   UNL A   1      44.039  29.840  28.281  1.00  0.00    -0.248 NA
ATOM     41  C   UNL A   1      42.507  31.373  29.146  1.00  0.00     0.031 C 
ATOM     42  C   UNL A   1      40.892  26.671  28.356  1.00  0.00     0.029 A 
ATOM     43  N   UNL A   1      43.041  27.115  27.931  1.00  0.00    -0.354 N 
ATOM     44  C   UNL A   1      44.638  31.092  28.361  1.00  0.00     0.074 A 
ATOM     45  C   UNL A   1      43.624  32.012  28.831  1.00  0.00     0.031 C 
ATOM     46  C   UNL A   1      41.457  25.537  27.913  1.00  0.00     0.029 A 
ATOM     47  C   UNL A   1      42.863  25.789  27.612  1.00  0.00     0.049 A 
ATOM     48  H   UNL A   1      43.903  27.580  27.834  1.00  0.00     0.167 HD
ATOM     49  C   UNL A   1      45.918  31.445  28.093  1.00  0.00     0.037 A 
ATOM     50  C   UNL A   1      43.732  24.876  27.136  1.00  0.00     0.037 A 
ATOM     51  C   UNL A   1      46.939  30.526  27.660  1.00  0.00     0.049 A 
ATOM     52  C   UNL A   1      45.166  25.267  26.914  1.00  0.00     0.074 A 
ATOM     53  C   UNL A   1      48.276  30.775  27.405  1.00  0.00     0.029 A 
ATOM     54  N   UNL A   1      46.734  29.174  27.425  1.00  0.00    -0.354 N 
ATOM     55  N   UNL A   1      45.727  26.446  27.043  1.00  0.00    -0.248 NA
ATOM     56  C   UNL A   1      46.091  24.202  26.503  1.00  0.00     0.031 C 
ATOM     57  C   UNL A   1      48.876  29.576  27.000  1.00  0.00     0.029 A 
ATOM     58  C   UNL A   1      47.920  28.574  27.035  1.00  0.00     0.049 A 
ATOM     59  H   UNL A   1      45.872  28.708  27.522  1.00  0.00     0.167 HD
ATOM     60  C   UNL A   1      47.076  26.259  26.755  1.00  0.00     0.074 A 
ATOM     61  C   UNL A   1      47.246  24.852  26.454  1.00  0.00     0.031 C 
ATOM     62  C   UNL A   1      48.080  27.171  26.747  1.00  0.00     0.037 A 
BRANCH  49  63
ATOM     63  C   UNL A   1      46.280  32.895  28.275  1.00  0.00     0.058 A 
ATOM     64  C   UNL A   1      46.163  33.818  27.222  1.00  0.00     0.135 A 
ATOM     65  C   UNL A   1      46.772  33.362  29.504  1.00  0.00     0.135 A 
ATOM     66  F   UNL A   1      45.712  33.421  26.022  1.00  0.00    -0.206 F 
ATOM     67  C   UNL A   1      46.572  35.140  27.365  1.00  0.00     0.059 A 
ATOM     68  C   UNL A   1      47.160  34.688  29.677  1.00  0.00     0.059 A 
ATOM     69  F   UNL A   1      46.899  32.526  30.546  1.00  0.00    -0.206 F 
ATOM     70  C   UNL A   1      47.081  35.562  28.593  1.00  0.00     0.060 A 
BRANCH  70  71
ATOM     71  S   UNL A   1      47.651  37.267  28.755  1.00  0.00     0.124 S 
ATOM     72  O   UNL A   1      48.520  37.171  29.924  1.00  0.00    -0.237 OA
ATOM     73  O   UNL A   1      48.326  37.499  27.482  1.00  0.00    -0.237 OA
ATOM     74  O   UNL A   1      46.415  38.019  28.950  1.00  0.00    -0.744 OA
ENDBRANCH  70  71
ENDBRANCH  49  63
BRANCH  50  75
ATOM     75  C   UNL A   1      43.272  23.484  26.893  1.00  0.00     0.058 A 
ATOM     76  C   UNL A   1      43.062  23.013  25.589  1.00  0.00     0.135 A 
ATOM     77  C   UNL A   1      43.084  22.584  27.954  1.00  0.00     0.135 A 
ATOM     78  F   UNL A   1      43.225  23.838  24.544  1.00  0.00    -0.206 F 
ATOM     79  C   UNL A   1      42.680  21.698  25.343  1.00  0.00     0.059 A 
ATOM     80  C   UNL A   1      42.719  21.260  27.731  1.00  0.00     0.059 A 
ATOM     81  F   UNL A   1      43.290  22.984  29.219  1.00  0.00    -0.206 F 
ATOM     82  C   UNL A   1      42.518  20.827  26.421  1.00  0.00     0.060 A 
BRANCH  82  83
ATOM     83  S   UNL A   1      42.108  19.100  26.086  1.00  0.00     0.124 S 
ATOM     84  O   UNL A   1      42.961  18.811  24.940  1.00  0.00    -0.237 OA
ATOM     85  O   UNL A   1      42.478  18.447  27.339  1.00  0.00    -0.237 OA
ATOM     86  O   UNL A   1      40.674  19.144  25.814  1.00  0.00    -0.744 OA
ENDBRANCH  82  83
ENDBRANCH  50  75
BRANCH  62  87
ATOM     87  C   UNL A   1      49.461  26.667  26.440  1.00  0.00     0.058 A 
ATOM     88  C   UNL A   1      50.269  26.075  27.424  1.00  0.00     0.135 A 
ATOM     89  C   UNL A   1      49.973  26.755  25.135  1.00  0.00     0.135 A 
ATOM     90  F   UNL A   1      49.828  25.971  28.687  1.00  0.00    -0.206 F 
ATOM     91  C   UNL A   1      51.549  25.615  27.132  1.00  0.00     0.059 A 
ATOM     92  C   UNL A   1      51.242  26.281  24.816  1.00  0.00     0.059 A 
ATOM     93  F   UNL A   1      49.237  27.303  24.155  1.00  0.00    -0.206 F 
ATOM     94  C   UNL A   1      52.029  25.728  25.825  1.00  0.00     0.060 A 
BRANCH  94  95
ATOM     95  S   UNL A   1      53.688  25.120  25.450  1.00  0.00     0.124 S 
ATOM     96  O   UNL A   1      53.937  25.735  24.151  1.00  0.00    -0.237 OA
ATOM     97  O   UNL A   1      54.476  25.646  26.562  1.00  0.00    -0.237 OA
ATOM     98  O   UNL A   1      53.522  23.670  25.440  1.00  0.00    -0.744 OA
ENDBRANCH  94  95
ENDBRANCH  62  87
ENDBRANCH  36  37
ENDBRANCH  28  31
ENDBRANCH  26  27
ENDBRANCH   1  26
TORSDOF 15
ENDMDL
MODEL 2
REMARK VINA RESULT:     -13.2      6.494     12.158
REMARK SMILES Cc1ccc2oc(C(=O)N[C@@H]3C=C[C@H](C(=O)NCCCNC(=O)c4ccc(-c5c6nc(c(-c7c(F)cc(S(=O)(=O)[O-])cc7F)c7ccc([nH]7)c(-c7c(F)cc(S(=O)(=O)[O-])cc7F)c7nc(c(-c8c(F)cc(S(=O)(=O)[O-])cc8F)c8ccc5[nH]8)C=C7)C=C6)cc4)C3)cc2c1
REMARK SMILES IDX 19 1 18 2 17 3 15 4 16 5 14 7 11 8 12 9 90 10 13 11 10 12
REMARK SMILES IDX 8 13 9 14 7 16 1 17 2 18 3 19 93 20 4 21 92 22 5 23 91 24
REMARK SMILES IDX 6 25 20 26 21 27 22 28 23 30 24 31 25 32 89 33 26 34 88 35
REMARK SMILES IDX 27 36 28 37 29 38 82 39 30 40 87 41 81 42 83 43 31 44 86 45
REMARK SMILES IDX 80 46 79 47 32 49 66 50 45 51 65 52 46 53 49 54 64 55 84 56
REMARK SMILES IDX 47 57 48 58 63 60 85 61 50 62 33 63 34 64 43 65 35 66 36 67
REMARK SMILES IDX 42 68 44 69 37 70 38 71 39 72 40 73 41 74 67 75 68 76 77 77
REMARK SMILES IDX 69 78 70 79 76 80 78 81 71 82 72 83 73 84 74 85 75 86 51 87
REMARK SMILES IDX 52 88 61 89 53 90 54 91 60 92 62 93 55 94 56 95 57 96 58 97
REMARK SMILES IDX 59 98
REMARK H PARENT 17 6 10 15 21 29 83 48 49 59
REMARK Flexibility Score: inf
ROOT
ATOM      1  C   UNL A   1      38.852  22.215  26.160  1.00  0.00     0.042 C 
ENDROOT
BRANCH   1   2
ATOM      2  C   UNL A   1      37.510  22.478  25.492  1.00  0.00     0.117 C 
BRANCH   2   3
ATOM      3  N   UNL A   1      36.365  22.349  26.368  1.00  0.00    -0.356 N 
ATOM      4  C   UNL A   1      35.180  21.696  26.252  1.00  0.00     0.227 C 
ATOM      5  O   UNL A   1      34.558  21.573  27.315  1.00  0.00    -0.274 OA
ATOM      6  H   UNL A   1      36.465  22.832  27.220  1.00  0.00     0.163 HD
BRANCH   4   7
ATOM      7  C   UNL A   1      34.524  21.257  24.914  1.00  0.00     0.103 C 
ATOM      8  C   UNL A   1      32.068  21.584  24.802  1.00  0.00     0.106 C 
ATOM      9  C   UNL A   1      32.427  20.150  24.742  1.00  0.00    -0.006 C 
ATOM     10  C   UNL A   1      33.415  22.273  24.535  1.00  0.00     0.047 C 
ATOM     11  C   UNL A   1      33.759  19.971  24.755  1.00  0.00    -0.016 C 
BRANCH   8  12
ATOM     12  N   UNL A   1      31.333  22.060  25.976  1.00  0.00    -0.343 N 
ATOM     13  C   UNL A   1      30.762  23.187  26.521  1.00  0.00     0.287 C 
ATOM     14  O   UNL A   1      30.280  23.006  27.654  1.00  0.00    -0.266 OA
ATOM     15  H   UNL A   1      31.198  21.305  26.594  1.00  0.00     0.164 HD
BRANCH  13  16
ATOM     16  C   UNL A   1      30.740  24.484  25.885  1.00  0.00     0.192 A 
ATOM     17  C   UNL A   1      30.281  29.539  22.650  1.00  0.00     0.044 C 
ATOM     18  C   UNL A   1      30.622  28.551  23.727  1.00  0.00    -0.050 A 
ATOM     19  C   UNL A   1      31.242  28.923  24.930  1.00  0.00     0.007 A 
ATOM     20  C   UNL A   1      30.276  27.216  23.518  1.00  0.00     0.015 A 
ATOM     21  C   UNL A   1      31.549  27.982  25.937  1.00  0.00     0.048 A 
ATOM     22  C   UNL A   1      30.516  26.289  24.537  1.00  0.00     0.021 A 
ATOM     23  C   UNL A   1      31.167  26.665  25.695  1.00  0.00     0.135 A 
ATOM     24  C   UNL A   1      30.169  24.949  24.730  1.00  0.00     0.065 A 
ATOM     25  O   UNL A   1      31.336  25.573  26.509  1.00  0.00    -0.451 OA
ENDBRANCH  13  16
ENDBRANCH   8  12
ENDBRANCH   4   7
ENDBRANCH   2   3
ENDBRANCH   1   2
BRANCH   1  26
ATOM     26  C   UNL A   1      39.554  23.447  26.730  1.00  0.00     0.118 C 
BRANCH  26  27
ATOM     27  N   UNL A   1      40.836  23.753  26.106  1.00  0.00    -0.352 N 
ATOM     28  C   UNL A   1      41.699  24.808  26.316  1.00  0.00     0.251 C 
ATOM     29  H   UNL A   1      41.131  23.104  25.427  1.00  0.00     0.163 HD
ATOM     30  O   UNL A   1      42.697  24.911  25.602  1.00  0.00    -0.269 OA
BRANCH  28  31
ATOM     31  C   UNL A   1      41.430  25.843  27.348  1.00  0.00     0.039 A 
ATOM     32  C   UNL A   1      40.420  25.608  28.289  1.00  0.00     0.014 A 
ATOM     33  C   UNL A   1      42.135  27.047  27.394  1.00  0.00     0.014 A 
ATOM     34  C   UNL A   1      40.182  26.532  29.314  1.00  0.00     0.010 A 
ATOM     35  C   UNL A   1      41.962  27.923  28.467  1.00  0.00     0.010 A 
ATOM     36  C   UNL A   1      40.979  27.681  29.437  1.00  0.00    -0.014 A 
BRANCH  36  37
ATOM     37  C   UNL A   1      40.788  28.644  30.557  1.00  0.00     0.031 A 
ATOM     38  C   UNL A   1      41.627  28.537  31.805  1.00  0.00     0.074 A 
ATOM     39  C   UNL A   1      39.814  29.573  30.488  1.00  0.00     0.049 A 
ATOM     40  N   UNL A   1      41.558  29.234  32.912  1.00  0.00    -0.248 NA
ATOM     41  C   UNL A   1      42.654  27.485  31.824  1.00  0.00     0.031 C 
ATOM     42  C   UNL A   1      38.882  29.744  29.372  1.00  0.00     0.029 A 
ATOM     43  N   UNL A   1      39.436  30.542  31.385  1.00  0.00    -0.354 N 
ATOM     44  C   UNL A   1      42.512  28.689  33.764  1.00  0.00     0.074 A 
ATOM     45  C   UNL A   1      43.104  27.567  33.066  1.00  0.00     0.031 C 
ATOM     46  C   UNL A   1      38.055  30.768  29.640  1.00  0.00     0.029 A 
ATOM     47  C   UNL A   1      38.379  31.311  30.957  1.00  0.00     0.049 A 
ATOM     48  H   UNL A   1      39.880  30.675  32.254  1.00  0.00     0.167 HD
ATOM     49  C   UNL A   1      42.882  29.094  35.003  1.00  0.00     0.037 A 
ATOM     50  C   UNL A   1      37.744  32.340  31.551  1.00  0.00     0.037 A 
ATOM     51  C   UNL A   1      42.320  30.231  35.685  1.00  0.00     0.049 A 
ATOM     52  C   UNL A   1      38.216  32.823  32.894  1.00  0.00     0.074 A 
ATOM     53  C   UNL A   1      42.657  30.751  36.923  1.00  0.00     0.029 A 
ATOM     54  N   UNL A   1      41.304  31.031  35.180  1.00  0.00    -0.354 N 
ATOM     55  N   UNL A   1      39.154  32.325  33.664  1.00  0.00    -0.248 NA
ATOM     56  C   UNL A   1      37.559  34.018  33.439  1.00  0.00     0.031 C 
ATOM     57  C   UNL A   1      41.834  31.856  37.173  1.00  0.00     0.029 A 
ATOM     58  C   UNL A   1      41.007  32.044  36.077  1.00  0.00     0.049 A 
ATOM     59  H   UNL A   1      40.861  30.899  34.312  1.00  0.00     0.167 HD
ATOM     60  C   UNL A   1      39.219  33.163  34.773  1.00  0.00     0.074 A 
ATOM     61  C   UNL A   1      38.230  34.202  34.569  1.00  0.00     0.031 C 
ATOM     62  C   UNL A   1      40.028  33.078  35.859  1.00  0.00     0.037 A 
BRANCH  49  63
ATOM     63  C   UNL A   1      43.958  28.297  35.690  1.00  0.00     0.058 A 
ATOM     64  C   UNL A   1      43.646  27.230  36.549  1.00  0.00     0.135 A 
ATOM     65  C   UNL A   1      45.313  28.617  35.508  1.00  0.00     0.135 A 
ATOM     66  F   UNL A   1      42.366  26.892  36.769  1.00  0.00    -0.206 F 
ATOM     67  C   UNL A   1      44.635  26.545  37.247  1.00  0.00     0.059 A 
ATOM     68  C   UNL A   1      46.321  27.924  36.175  1.00  0.00     0.059 A 
ATOM     69  F   UNL A   1      45.670  29.623  34.694  1.00  0.00    -0.206 F 
ATOM     70  C   UNL A   1      45.969  26.908  37.063  1.00  0.00     0.060 A 
BRANCH  70  71
ATOM     71  S   UNL A   1      47.241  26.042  38.006  1.00  0.00     0.124 S 
ATOM     72  O   UNL A   1      46.702  24.685  38.039  1.00  0.00    -0.237 OA
ATOM     73  O   UNL A   1      48.431  26.230  37.181  1.00  0.00    -0.237 OA
ATOM     74  O   UNL A   1      47.252  26.746  39.284  1.00  0.00    -0.744 OA
ENDBRANCH  70  71
ENDBRANCH  49  63
BRANCH  50  75
ATOM     75  C   UNL A   1      36.626  33.016  30.844  1.00  0.00     0.058 A 
ATOM     76  C   UNL A   1      35.300  32.848  31.268  1.00  0.00     0.135 A 
ATOM     77  C   UNL A   1      36.865  33.883  29.766  1.00  0.00     0.135 A 
ATOM     78  F   UNL A   1      35.023  32.026  32.291  1.00  0.00    -0.206 F 
ATOM     79  C   UNL A   1      34.247  33.514  30.648  1.00  0.00     0.059 A 
ATOM     80  C   UNL A   1      35.830  34.573  29.142  1.00  0.00     0.059 A 
ATOM     81  F   UNL A   1      38.119  34.090  29.335  1.00  0.00    -0.206 F 
ATOM     82  C   UNL A   1      34.523  34.380  29.590  1.00  0.00     0.060 A 
BRANCH  82  83
ATOM     83  S   UNL A   1      33.161  35.307  28.849  1.00  0.00     0.124 S 
ATOM     84  O   UNL A   1      33.873  36.369  28.151  1.00  0.00    -0.237 OA
ATOM     85  O   UNL A   1      32.527  34.300  28.003  1.00  0.00    -0.237 OA
ATOM     86  O   UNL A   1      32.373  35.724  30.006  1.00  0.00    -0.744 OA
ENDBRANCH  82  83
ENDBRANCH  50  75
BRANCH  62  87
ATOM     87  C   UNL A   1      39.906  34.163  36.891  1.00  0.00     0.058 A 
ATOM     88  C   UNL A   1      40.593  35.381  36.770  1.00  0.00     0.135 A 
ATOM     89  C   UNL A   1      39.068  33.989  38.004  1.00  0.00     0.135 A 
ATOM     90  F   UNL A   1      41.409  35.595  35.726  1.00  0.00    -0.206 F 
ATOM     91  C   UNL A   1      40.477  36.378  37.732  1.00  0.00     0.059 A 
ATOM     92  C   UNL A   1      38.920  34.982  38.968  1.00  0.00     0.059 A 
ATOM     93  F   UNL A   1      38.381  32.847  38.162  1.00  0.00    -0.206 F 
ATOM     94  C   UNL A   1      39.642  36.167  38.832  1.00  0.00     0.060 A 
BRANCH  94  95
ATOM     95  S   UNL A   1      39.489  37.469  40.074  1.00  0.00     0.124 S 
ATOM     96  O   UNL A   1      38.991  36.721  41.223  1.00  0.00    -0.237 OA
ATOM     97  O   UNL A   1      40.860  37.963  40.184  1.00  0.00    -0.237 OA
ATOM     98  O   UNL A   1      38.542  38.401  39.471  1.00  0.00    -0.744 OA
ENDBRANCH  94  95
ENDBRANCH  62  87
ENDBRANCH  36  37
ENDBRANCH  28  31
ENDBRANCH  26  27
ENDBRANCH   1  26
TORSDOF 15
ENDMDL
MODEL 3
REMARK VINA RESULT:     -13.2      1.360      2.049
REMARK SMILES Cc1ccc2oc(C(=O)N[C@@H]3C=C[C@H](C(=O)NCCCNC(=O)c4ccc(-c5c6nc(c(-c7c(F)cc(S(=O)(=O)[O-])cc7F)c7ccc([nH]7)c(-c7c(F)cc(S(=O)(=O)[O-])cc7F)c7nc(c(-c8c(F)cc(S(=O)(=O)[O-])cc8F)c8ccc5[nH]8)C=C7)C=C6)cc4)C3)cc2c1
REMARK SMILES IDX 19 1 18 2 17 3 15 4 16 5 14 7 11 8 12 9 90 10 13 11 10 12
REMARK SMILES IDX 8 13 9 14 7 16 1 17 2 18 3 19 93 20 4 21 92 22 5 23 91 24
REMARK SMILES IDX 6 25 20 26 21 27 22 28 23 30 24 31 25 32 89 33 26 34 88 35
REMARK SMILES IDX 27 36 28 37 29 38 82 39 30 40 87 41 81 42 83 43 31 44 86 45
REMARK SMILES IDX 80 46 79 47 32 49 66 50 45 51 65 52 46 53 49 54 64 55 84 56
REMARK SMILES IDX 47 57 48 58 63 60 85 61 50 62 33 63 34 64 43 65 35 66 36 67
REMARK SMILES IDX 42 68 44 69 37 70 38 71 39 72 40 73 41 74 67 75 68 76 77 77
REMARK SMILES IDX 69 78 70 79 76 80 78 81 71 82 72 83 73 84 74 85 75 86 51 87
REMARK SMILES IDX 52 88 61 89 53 90 54 91 60 92 62 93 55 94 56 95 57 96 58 97
REMARK SMILES IDX 59 98
REMARK H PARENT 17 6 10 15 21 29 83 48 49 59
REMARK Flexibility Score: inf
ROOT
ATOM      1  C   UNL A   1      34.415  29.454  26.990  1.00  0.00     0.042 C 
ENDROOT
BRANCH   1   2
ATOM      2  C   UNL A   1      32.933  29.656  27.266  1.00  0.00     0.117 C 
BRANCH   2   3
ATOM      3  N   UNL A   1      32.190  28.435  27.500  1.00  0.00    -0.356 N 
ATOM      4  C   UNL A   1      31.700  27.477  26.672  1.00  0.00     0.227 C 
ATOM      5  O   UNL A   1      31.364  26.431  27.242  1.00  0.00    -0.274 OA
ATOM      6  H   UNL A   1      32.004  28.264  28.451  1.00  0.00     0.163 HD
BRANCH   4   7
ATOM      7  C   UNL A   1      31.405  27.664  25.158  1.00  0.00     0.103 C 
ATOM      8  C   UNL A   1      30.512  25.652  24.015  1.00  0.00     0.106 C 
ATOM      9  C   UNL A   1      31.843  26.028  23.489  1.00  0.00    -0.006 C 
ATOM     10  C   UNL A   1      30.099  26.909  24.798  1.00  0.00     0.047 C 
ATOM     11  C   UNL A   1      32.310  27.145  24.073  1.00  0.00    -0.016 C 
BRANCH   8  12
ATOM     12  N   UNL A   1      30.391  24.385  24.739  1.00  0.00    -0.343 N 
ATOM     13  C   UNL A   1      31.138  23.386  25.318  1.00  0.00     0.287 C 
ATOM     14  O   UNL A   1      30.455  22.454  25.779  1.00  0.00    -0.266 OA
ATOM     15  H   UNL A   1      29.436  24.173  24.851  1.00  0.00     0.164 HD
BRANCH  13  16
ATOM     16  C   UNL A   1      32.582  23.367  25.371  1.00  0.00     0.192 A 
ATOM     17  C   UNL A   1      38.528  23.695  26.248  1.00  0.00     0.044 C 
ATOM     18  C   UNL A   1      37.179  23.410  25.655  1.00  0.00    -0.050 A 
ATOM     19  C   UNL A   1      37.006  22.640  24.494  1.00  0.00     0.007 A 
ATOM     20  C   UNL A   1      36.059  23.917  26.315  1.00  0.00     0.015 A 
ATOM     21  C   UNL A   1      35.728  22.375  23.954  1.00  0.00     0.048 A 
ATOM     22  C   UNL A   1      34.787  23.603  25.824  1.00  0.00     0.021 A 
ATOM     23  C   UNL A   1      34.639  22.883  24.656  1.00  0.00     0.135 A 
ATOM     24  C   UNL A   1      33.489  23.800  26.302  1.00  0.00     0.065 A 
ATOM     25  O   UNL A   1      33.306  22.757  24.354  1.00  0.00    -0.451 OA
ENDBRANCH  13  16
ENDBRANCH   8  12
ENDBRANCH   4   7
ENDBRANCH   2   3
ENDBRANCH   1   2
BRANCH   1  26
ATOM     26  C   UNL A   1      35.353  30.435  27.692  1.00  0.00     0.118 C 
BRANCH  26  27
ATOM     27  N   UNL A   1      35.299  30.386  29.147  1.00  0.00    -0.352 N 
ATOM     28  C   UNL A   1      36.285  30.099  30.067  1.00  0.00     0.251 C 
ATOM     29  H   UNL A   1      34.417  30.589  29.536  1.00  0.00     0.163 HD
ATOM     30  O   UNL A   1      35.986  30.029  31.259  1.00  0.00    -0.269 OA
BRANCH  28  31
ATOM     31  C   UNL A   1      37.686  29.827  29.649  1.00  0.00     0.039 A 
ATOM     32  C   UNL A   1      38.646  29.573  30.636  1.00  0.00     0.014 A 
ATOM     33  C   UNL A   1      38.076  29.838  28.308  1.00  0.00     0.014 A 
ATOM     34  C   UNL A   1      39.960  29.250  30.276  1.00  0.00     0.010 A 
ATOM     35  C   UNL A   1      39.360  29.427  27.946  1.00  0.00     0.010 A 
ATOM     36  C   UNL A   1      40.320  29.134  28.924  1.00  0.00    -0.014 A 
BRANCH  36  37
ATOM     37  C   UNL A   1      41.694  28.727  28.517  1.00  0.00     0.031 A 
ATOM     38  C   UNL A   1      42.798  29.750  28.436  1.00  0.00     0.074 A 
ATOM     39  C   UNL A   1      41.939  27.454  28.149  1.00  0.00     0.049 A 
ATOM     40  N   UNL A   1      44.036  29.604  28.033  1.00  0.00    -0.248 NA
ATOM     41  C   UNL A   1      42.455  31.126  28.826  1.00  0.00     0.031 C 
ATOM     42  C   UNL A   1      40.949  26.376  28.111  1.00  0.00     0.029 A 
ATOM     43  N   UNL A   1      43.099  26.852  27.724  1.00  0.00    -0.354 N 
ATOM     44  C   UNL A   1      44.608  30.870  28.096  1.00  0.00     0.074 A 
ATOM     45  C   UNL A   1      43.566  31.780  28.521  1.00  0.00     0.031 C 
ATOM     46  C   UNL A   1      41.546  25.243  27.707  1.00  0.00     0.029 A 
ATOM     47  C   UNL A   1      42.954  25.516  27.432  1.00  0.00     0.049 A 
ATOM     48  H   UNL A   1      43.953  27.332  27.636  1.00  0.00     0.167 HD
ATOM     49  C   UNL A   1      45.887  31.242  27.849  1.00  0.00     0.037 A 
ATOM     50  C   UNL A   1      43.851  24.610  26.998  1.00  0.00     0.037 A 
ATOM     51  C   UNL A   1      46.935  30.333  27.461  1.00  0.00     0.049 A 
ATOM     52  C   UNL A   1      45.282  25.025  26.800  1.00  0.00     0.074 A 
ATOM     53  C   UNL A   1      48.273  30.603  27.231  1.00  0.00     0.029 A 
ATOM     54  N   UNL A   1      46.762  28.972  27.253  1.00  0.00    -0.354 N 
ATOM     55  N   UNL A   1      45.817  26.217  26.913  1.00  0.00    -0.248 NA
ATOM     56  C   UNL A   1      46.236  23.969  26.434  1.00  0.00     0.031 C 
ATOM     57  C   UNL A   1      48.905  29.407  26.868  1.00  0.00     0.029 A 
ATOM     58  C   UNL A   1      47.968  28.387  26.905  1.00  0.00     0.049 A 
ATOM     59  H   UNL A   1      45.907  28.492  27.342  1.00  0.00     0.167 HD
ATOM     60  C   UNL A   1      47.175  26.050  26.661  1.00  0.00     0.074 A 
ATOM     61  C   UNL A   1      47.379  24.640  26.396  1.00  0.00     0.031 C 
ATOM     62  C   UNL A   1      48.161  26.981  26.653  1.00  0.00     0.037 A 
BRANCH  49  63
ATOM     63  C   UNL A   1      46.217  32.702  28.005  1.00  0.00     0.058 A 
ATOM     64  C   UNL A   1      46.032  33.613  26.951  1.00  0.00     0.135 A 
ATOM     65  C   UNL A   1      46.745  33.193  29.209  1.00  0.00     0.135 A 
ATOM     66  F   UNL A   1      45.544  33.193  25.773  1.00  0.00    -0.206 F 
ATOM     67  C   UNL A   1      46.411  34.946  27.066  1.00  0.00     0.059 A 
ATOM     68  C   UNL A   1      47.103  34.531  29.356  1.00  0.00     0.059 A 
ATOM     69  F   UNL A   1      46.937  32.370  30.251  1.00  0.00    -0.206 F 
ATOM     70  C   UNL A   1      46.957  35.393  28.269  1.00  0.00     0.060 A 
BRANCH  70  71
ATOM     71  S   UNL A   1      47.486  37.114  28.394  1.00  0.00     0.124 S 
ATOM     72  O   UNL A   1      48.185  37.294  27.125  1.00  0.00    -0.237 OA
ATOM     73  O   UNL A   1      46.219  37.827  28.525  1.00  0.00    -0.237 OA
ATOM     74  O   UNL A   1      48.331  37.122  29.585  1.00  0.00    -0.744 OA
ENDBRANCH  70  71
ENDBRANCH  49  63
BRANCH  50  75
ATOM     75  C   UNL A   1      43.424  23.204  26.778  1.00  0.00     0.058 A 
ATOM     76  C   UNL A   1      43.353  22.668  25.484  1.00  0.00     0.135 A 
ATOM     77  C   UNL A   1      43.128  22.356  27.857  1.00  0.00     0.135 A 
ATOM     78  F   UNL A   1      43.622  23.442  24.422  1.00  0.00    -0.206 F 
ATOM     79  C   UNL A   1      43.004  21.339  25.265  1.00  0.00     0.059 A 
ATOM     80  C   UNL A   1      42.794  21.019  27.663  1.00  0.00     0.059 A 
ATOM     81  F   UNL A   1      43.199  22.819  29.115  1.00  0.00    -0.206 F 
ATOM     82  C   UNL A   1      42.732  20.520  26.361  1.00  0.00     0.060 A 
BRANCH  82  83
ATOM     83  S   UNL A   1      42.365  18.775  26.072  1.00  0.00     0.124 S 
ATOM     84  O   UNL A   1      40.958  18.829  25.695  1.00  0.00    -0.237 OA
ATOM     85  O   UNL A   1      43.301  18.437  25.004  1.00  0.00    -0.237 OA
ATOM     86  O   UNL A   1      42.653  18.156  27.363  1.00  0.00    -0.744 OA
ENDBRANCH  82  83
ENDBRANCH  50  75
BRANCH  62  87
ATOM     87  C   UNL A   1      49.559  26.498  26.390  1.00  0.00     0.058 A 
ATOM     88  C   UNL A   1      50.358  25.951  27.406  1.00  0.00     0.135 A 
ATOM     89  C   UNL A   1      50.096  26.560  25.093  1.00  0.00     0.135 A 
ATOM     90  F   UNL A   1      49.891  25.873  28.663  1.00  0.00    -0.206 F 
ATOM     91  C   UNL A   1      51.652  25.510  27.154  1.00  0.00     0.059 A 
ATOM     92  C   UNL A   1      51.381  26.104  24.814  1.00  0.00     0.059 A 
ATOM     93  F   UNL A   1      49.371  27.065  24.084  1.00  0.00    -0.206 F 
ATOM     94  C   UNL A   1      52.158  25.596  25.855  1.00  0.00     0.060 A 
BRANCH  94  95
ATOM     95  S   UNL A   1      53.836  25.013  25.532  1.00  0.00     0.124 S 
ATOM     96  O   UNL A   1      53.621  23.579  25.371  1.00  0.00    -0.237 OA
ATOM     97  O   UNL A   1      54.196  25.741  24.318  1.00  0.00    -0.237 OA
ATOM     98  O   UNL A   1      54.568  25.409  26.731  1.00  0.00    -0.744 OA
ENDBRANCH  94  95
ENDBRANCH  62  87
ENDBRANCH  36  37
ENDBRANCH  28  31
ENDBRANCH  26  27
ENDBRANCH   1  26
TORSDOF 15
ENDMDL
