MODEL 1
REMARK VINA RESULT:     -11.9      0.000      0.000
REMARK SMILES Cc1cc2c(c(C)c1Cl)C=C(C(=O)NCCCNC(=O)c1ccc(-c3c4nc(c(-c5c(F)cc(S(=O)(=O)[O-])cc5F)c5ccc([nH]5)c(-c5c(F)cc(S(=O)(=O)[O-])cc5F)c5nc(c(-c6c(F)cc(S(=O)(=O)[O-])cc6F)c6ccc3[nH]6)C=C5)C=C4)cc1)[C@@H](C(F)(F)F)O2
REMARK SMILES IDX 17 1 16 2 15 3 14 4 12 5 13 6 11 8 1 9 2 10 3 11 8 12 4 13
REMARK SMILES IDX 6 14 9 15 5 16 92 17 7 18 10 19 87 20 88 21 89 22 90 23
REMARK SMILES IDX 91 24 18 25 19 26 20 28 21 29 22 30 86 31 23 32 85 33 24 34
REMARK SMILES IDX 25 35 26 36 79 37 27 38 84 39 78 40 80 41 28 42 83 43 77 44
REMARK SMILES IDX 76 45 29 47 63 48 42 49 62 50 43 51 46 52 61 53 81 54 44 55
REMARK SMILES IDX 45 56 60 58 82 59 47 60 30 61 31 62 40 63 32 64 33 65 39 66
REMARK SMILES IDX 41 67 34 68 35 69 36 70 37 71 38 72 64 73 65 74 74 75 66 76
REMARK SMILES IDX 67 77 73 78 75 79 68 80 69 81 70 82 71 83 72 84 48 85 49 86
REMARK SMILES IDX 58 87 50 88 51 89 57 90 59 91 52 92 53 93 54 94 55 95 56 96
REMARK H PARENT 14 7 18 27 80 46 46 57
REMARK Flexibility Score: inf
ROOT
ATOM      1  C   UNL A   1      33.983  28.101  26.511  1.00  0.00     0.118 C 
ENDROOT
BRANCH   1   2
ATOM      2  C   UNL A   1      34.066  28.006  24.994  1.00  0.00     0.042 C 
BRANCH   2   3
ATOM      3  C   UNL A   1      32.980  27.114  24.416  1.00  0.00     0.118 C 
BRANCH   3   4
ATOM      4  N   UNL A   1      32.137  26.539  25.454  1.00  0.00    -0.352 N 
ATOM      5  C   UNL A   1      31.967  25.332  26.042  1.00  0.00     0.251 C 
ATOM      6  O   UNL A   1      31.109  25.293  26.929  1.00  0.00    -0.270 OA
ATOM      7  H   UNL A   1      31.523  27.210  25.831  1.00  0.00     0.163 HD
BRANCH   5   8
ATOM      8  C   UNL A   1      32.733  24.098  25.700  1.00  0.00     0.067 C 
ATOM      9  C   UNL A   1      37.017  19.294  24.777  1.00  0.00     0.046 C 
ATOM     10  C   UNL A   1      36.314  20.577  25.130  1.00  0.00    -0.028 A 
ATOM     11  C   UNL A   1      34.922  20.607  25.023  1.00  0.00     0.052 A 
ATOM     12  C   UNL A   1      36.994  21.753  25.509  1.00  0.00     0.047 A 
ATOM     13  C   UNL A   1      34.219  21.774  25.300  1.00  0.00     0.128 A 
ATOM     14  C   UNL A   1      36.285  22.941  25.820  1.00  0.00    -0.021 A 
ATOM     15  Cl  UNL A   1      38.731  21.717  25.578  1.00  0.00    -0.084 Cl
ATOM     16  C   UNL A   1      34.873  22.939  25.711  1.00  0.00     0.022 A 
ATOM     17  O   UNL A   1      32.863  21.675  25.178  1.00  0.00    -0.475 OA
ATOM     18  C   UNL A   1      36.992  24.202  26.261  1.00  0.00     0.047 C 
ATOM     19  C   UNL A   1      34.036  24.099  26.037  1.00  0.00     0.026 C 
ATOM     20  C   UNL A   1      32.140  22.916  24.995  1.00  0.00     0.314 C 
BRANCH  20  21
ATOM     21  C   UNL A   1      31.928  23.170  23.490  1.00  0.00     0.429 C 
ATOM     22  F   UNL A   1      32.105  22.026  22.784  1.00  0.00    -0.167 F 
ATOM     23  F   UNL A   1      30.677  23.606  23.204  1.00  0.00    -0.167 F 
ATOM     24  F   UNL A   1      32.782  24.091  22.989  1.00  0.00    -0.167 F 
ENDBRANCH  20  21
ENDBRANCH   5   8
ENDBRANCH   3   4
ENDBRANCH   2   3
ENDBRANCH   1   2
BRANCH   1  25
ATOM     25  N   UNL A   1      33.698  29.464  26.952  1.00  0.00    -0.352 N 
ATOM     26  C   UNL A   1      34.404  30.287  27.791  1.00  0.00     0.251 C 
ATOM     27  H   UNL A   1      32.870  29.853  26.588  1.00  0.00     0.163 HD
ATOM     28  O   UNL A   1      33.857  31.277  28.275  1.00  0.00    -0.269 OA
BRANCH  26  29
ATOM     29  C   UNL A   1      35.812  29.982  28.111  1.00  0.00     0.039 A 
ATOM     30  C   UNL A   1      36.144  29.508  29.381  1.00  0.00     0.014 A 
ATOM     31  C   UNL A   1      36.808  30.192  27.155  1.00  0.00     0.014 A 
ATOM     32  C   UNL A   1      37.471  29.186  29.669  1.00  0.00     0.010 A 
ATOM     33  C   UNL A   1      38.105  29.774  27.405  1.00  0.00     0.010 A 
ATOM     34  C   UNL A   1      38.455  29.286  28.671  1.00  0.00    -0.014 A 
BRANCH  34  35
ATOM     35  C   UNL A   1      39.868  28.928  28.936  1.00  0.00     0.031 A 
ATOM     36  C   UNL A   1      40.792  29.949  29.542  1.00  0.00     0.074 A 
ATOM     37  C   UNL A   1      40.327  27.714  28.578  1.00  0.00     0.049 A 
ATOM     38  N   UNL A   1      42.074  29.860  29.785  1.00  0.00    -0.248 NA
ATOM     39  C   UNL A   1      40.205  31.254  29.893  1.00  0.00     0.031 C 
ATOM     40  C   UNL A   1      39.530  26.661  27.944  1.00  0.00     0.029 A 
ATOM     41  N   UNL A   1      41.576  27.159  28.695  1.00  0.00    -0.354 N 
ATOM     42  C   UNL A   1      42.444  31.094  30.308  1.00  0.00     0.074 A 
ATOM     43  C   UNL A   1      41.271  31.938  30.278  1.00  0.00     0.031 C 
ATOM     44  C   UNL A   1      40.299  25.576  27.763  1.00  0.00     0.029 A 
ATOM     45  C   UNL A   1      41.651  25.867  28.229  1.00  0.00     0.049 A 
ATOM     46  H   UNL A   1      42.345  27.639  29.076  1.00  0.00     0.167 HD
ATOM     47  C   UNL A   1      43.644  31.476  30.803  1.00  0.00     0.037 A 
ATOM     48  C   UNL A   1      42.695  25.016  28.184  1.00  0.00     0.037 A 
ATOM     49  C   UNL A   1      44.797  30.617  30.852  1.00  0.00     0.049 A 
ATOM     50  C   UNL A   1      44.025  25.469  28.720  1.00  0.00     0.074 A 
ATOM     51  C   UNL A   1      46.048  30.888  31.372  1.00  0.00     0.029 A 
ATOM     52  N   UNL A   1      44.835  29.318  30.366  1.00  0.00    -0.354 N 
ATOM     53  N   UNL A   1      44.346  26.623  29.256  1.00  0.00    -0.248 NA
ATOM     54  C   UNL A   1      45.133  24.509  28.647  1.00  0.00     0.031 C 
ATOM     55  C   UNL A   1      46.858  29.768  31.161  1.00  0.00     0.029 A 
ATOM     56  C   UNL A   1      46.097  28.781  30.554  1.00  0.00     0.049 A 
ATOM     57  H   UNL A   1      44.077  28.847  29.950  1.00  0.00     0.167 HD
ATOM     58  C   UNL A   1      45.690  26.522  29.601  1.00  0.00     0.074 A 
ATOM     59  C   UNL A   1      46.114  25.187  29.229  1.00  0.00     0.031 C 
ATOM     60  C   UNL A   1      46.497  27.448  30.173  1.00  0.00     0.037 A 
BRANCH  47  61
ATOM     61  C   UNL A   1      43.762  32.874  31.345  1.00  0.00     0.058 A 
ATOM     62  C   UNL A   1      43.529  33.157  32.701  1.00  0.00     0.135 A 
ATOM     63  C   UNL A   1      44.141  33.938  30.511  1.00  0.00     0.135 A 
ATOM     64  F   UNL A   1      43.144  32.181  33.539  1.00  0.00    -0.206 F 
ATOM     65  C   UNL A   1      43.639  34.448  33.205  1.00  0.00     0.059 A 
ATOM     66  C   UNL A   1      44.288  35.233  31.001  1.00  0.00     0.059 A 
ATOM     67  F   UNL A   1      44.372  33.726  29.207  1.00  0.00    -0.206 F 
ATOM     68  C   UNL A   1      44.022  35.480  32.347  1.00  0.00     0.060 A 
BRANCH  68  69
ATOM     69  S   UNL A   1      44.168  37.146  33.024  1.00  0.00     0.124 S 
ATOM     70  O   UNL A   1      45.422  37.050  33.766  1.00  0.00    -0.237 OA
ATOM     71  O   UNL A   1      44.206  37.969  31.820  1.00  0.00    -0.237 OA
ATOM     72  O   UNL A   1      42.967  37.288  33.842  1.00  0.00    -0.744 OA
ENDBRANCH  68  69
ENDBRANCH  47  61
BRANCH  48  73
ATOM     73  C   UNL A   1      42.503  23.642  27.650  1.00  0.00     0.058 A 
ATOM     74  C   UNL A   1      42.542  23.397  26.270  1.00  0.00     0.135 A 
ATOM     75  C   UNL A   1      42.322  22.542  28.503  1.00  0.00     0.135 A 
ATOM     76  F   UNL A   1      42.705  24.417  25.413  1.00  0.00    -0.206 F 
ATOM     77  C   UNL A   1      42.408  22.113  25.751  1.00  0.00     0.059 A 
ATOM     78  C   UNL A   1      42.210  21.245  28.010  1.00  0.00     0.059 A 
ATOM     79  F   UNL A   1      42.294  22.718  29.833  1.00  0.00    -0.206 F 
ATOM     80  C   UNL A   1      42.252  21.041  26.632  1.00  0.00     0.060 A 
BRANCH  80  81
ATOM     81  S   UNL A   1      42.151  19.373  25.948  1.00  0.00     0.124 S 
ATOM     82  O   UNL A   1      42.982  19.491  24.756  1.00  0.00    -0.237 OA
ATOM     83  O   UNL A   1      42.701  18.567  27.034  1.00  0.00    -0.237 OA
ATOM     84  O   UNL A   1      40.723  19.193  25.706  1.00  0.00    -0.744 OA
ENDBRANCH  80  81
ENDBRANCH  48  73
BRANCH  60  85
ATOM     85  C   UNL A   1      47.924  27.056  30.443  1.00  0.00     0.058 A 
ATOM     86  C   UNL A   1      48.954  27.381  29.547  1.00  0.00     0.135 A 
ATOM     87  C   UNL A   1      48.272  26.423  31.647  1.00  0.00     0.135 A 
ATOM     88  F   UNL A   1      48.671  27.980  28.380  1.00  0.00    -0.206 F 
ATOM     89  C   UNL A   1      50.282  27.081  29.832  1.00  0.00     0.059 A 
ATOM     90  C   UNL A   1      49.597  26.140  31.965  1.00  0.00     0.059 A 
ATOM     91  F   UNL A   1      47.325  26.101  32.542  1.00  0.00    -0.206 F 
ATOM     92  C   UNL A   1      50.593  26.467  31.047  1.00  0.00     0.060 A 
BRANCH  92  93
ATOM     93  S   UNL A   1      52.328  26.133  31.421  1.00  0.00     0.124 S 
ATOM     94  O   UNL A   1      52.658  27.250  32.301  1.00  0.00    -0.237 OA
ATOM     95  O   UNL A   1      52.260  24.822  32.057  1.00  0.00    -0.237 OA
ATOM     96  O   UNL A   1      52.969  26.157  30.111  1.00  0.00    -0.744 OA
ENDBRANCH  92  93
ENDBRANCH  60  85
ENDBRANCH  34  35
ENDBRANCH  26  29
ENDBRANCH   1  25
TORSDOF 14
ENDMDL
MODEL 2
REMARK VINA RESULT:     -11.8      4.913     10.377
REMARK SMILES Cc1cc2c(c(C)c1Cl)C=C(C(=O)NCCCNC(=O)c1ccc(-c3c4nc(c(-c5c(F)cc(S(=O)(=O)[O-])cc5F)c5ccc([nH]5)c(-c5c(F)cc(S(=O)(=O)[O-])cc5F)c5nc(c(-c6c(F)cc(S(=O)(=O)[O-])cc6F)c6ccc3[nH]6)C=C5)C=C4)cc1)[C@@H](C(F)(F)F)O2
REMARK SMILES IDX 17 1 16 2 15 3 14 4 12 5 13 6 11 8 1 9 2 10 3 11 8 12 4 13
REMARK SMILES IDX 6 14 9 15 5 16 92 17 7 18 10 19 87 20 88 21 89 22 90 23
REMARK SMILES IDX 91 24 18 25 19 26 20 28 21 29 22 30 86 31 23 32 85 33 24 34
REMARK SMILES IDX 25 35 26 36 79 37 27 38 84 39 78 40 80 41 28 42 83 43 77 44
REMARK SMILES IDX 76 45 29 47 63 48 42 49 62 50 43 51 46 52 61 53 81 54 44 55
REMARK SMILES IDX 45 56 60 58 82 59 47 60 30 61 31 62 40 63 32 64 33 65 39 66
REMARK SMILES IDX 41 67 34 68 35 69 36 70 37 71 38 72 64 73 65 74 74 75 66 76
REMARK SMILES IDX 67 77 73 78 75 79 68 80 69 81 70 82 71 83 72 84 48 85 49 86
REMARK SMILES IDX 58 87 50 88 51 89 57 90 59 91 52 92 53 93 54 94 55 95 56 96
REMARK H PARENT 14 7 18 27 80 46 46 57
REMARK Flexibility Score: inf
ROOT
ATOM      1  C   UNL A   1      38.246  24.075  26.513  1.00  0.00     0.118 C 
ENDROOT
BRANCH   1   2
ATOM      2  C   UNL A   1      37.381  23.738  25.306  1.00  0.00     0.042 C 
BRANCH   2   3
ATOM      3  C   UNL A   1      36.691  22.392  25.454  1.00  0.00     0.118 C 
BRANCH   3   4
ATOM      4  N   UNL A   1      35.769  22.373  26.581  1.00  0.00    -0.352 N 
ATOM      5  C   UNL A   1      34.544  22.868  26.871  1.00  0.00     0.251 C 
ATOM      6  O   UNL A   1      34.114  22.585  27.994  1.00  0.00    -0.270 OA
ATOM      7  H   UNL A   1      36.138  21.862  27.338  1.00  0.00     0.163 HD
BRANCH   5   8
ATOM      8  C   UNL A   1      33.713  23.693  25.948  1.00  0.00     0.067 C 
ATOM      9  C   UNL A   1      30.575  28.256  22.539  1.00  0.00     0.046 C 
ATOM     10  C   UNL A   1      31.417  27.485  23.520  1.00  0.00    -0.028 A 
ATOM     11  C   UNL A   1      31.628  26.127  23.271  1.00  0.00     0.052 A 
ATOM     12  C   UNL A   1      31.951  28.054  24.695  1.00  0.00     0.047 A 
ATOM     13  C   UNL A   1      32.366  25.355  24.160  1.00  0.00     0.128 A 
ATOM     14  C   UNL A   1      32.728  27.281  25.595  1.00  0.00    -0.021 A 
ATOM     15  Cl  UNL A   1      31.627  29.730  25.023  1.00  0.00    -0.084 Cl
ATOM     16  C   UNL A   1      32.933  25.909  25.312  1.00  0.00     0.022 A 
ATOM     17  O   UNL A   1      32.520  24.047  23.800  1.00  0.00    -0.475 OA
ATOM     18  C   UNL A   1      33.338  27.880  26.841  1.00  0.00     0.047 C 
ATOM     19  C   UNL A   1      33.745  25.023  26.154  1.00  0.00     0.026 C 
ATOM     20  C   UNL A   1      32.853  23.121  24.862  1.00  0.00     0.314 C 
BRANCH  20  21
ATOM     21  C   UNL A   1      31.563  22.478  25.407  1.00  0.00     0.429 C 
ATOM     22  F   UNL A   1      30.495  22.841  24.654  1.00  0.00    -0.167 F 
ATOM     23  F   UNL A   1      31.603  21.124  25.384  1.00  0.00    -0.167 F 
ATOM     24  F   UNL A   1      31.298  22.836  26.684  1.00  0.00    -0.167 F 
ENDBRANCH  20  21
ENDBRANCH   5   8
ENDBRANCH   3   4
ENDBRANCH   2   3
ENDBRANCH   1   2
BRANCH   1  25
ATOM     25  N   UNL A   1      39.669  23.945  26.210  1.00  0.00    -0.352 N 
ATOM     26  C   UNL A   1      40.719  24.766  26.532  1.00  0.00     0.251 C 
ATOM     27  H   UNL A   1      39.912  23.143  25.693  1.00  0.00     0.163 HD
ATOM     28  O   UNL A   1      41.789  24.647  25.937  1.00  0.00    -0.269 OA
BRANCH  26  29
ATOM     29  C   UNL A   1      40.562  25.784  27.588  1.00  0.00     0.039 A 
ATOM     30  C   UNL A   1      39.561  25.634  28.549  1.00  0.00     0.014 A 
ATOM     31  C   UNL A   1      41.394  26.905  27.608  1.00  0.00     0.014 A 
ATOM     32  C   UNL A   1      39.438  26.580  29.567  1.00  0.00     0.010 A 
ATOM     33  C   UNL A   1      41.341  27.787  28.675  1.00  0.00     0.010 A 
ATOM     34  C   UNL A   1      40.350  27.645  29.655  1.00  0.00    -0.014 A 
BRANCH  34  35
ATOM     35  C   UNL A   1      40.262  28.653  30.739  1.00  0.00     0.031 A 
ATOM     36  C   UNL A   1      41.167  28.537  31.935  1.00  0.00     0.074 A 
ATOM     37  C   UNL A   1      39.334  29.626  30.673  1.00  0.00     0.049 A 
ATOM     38  N   UNL A   1      41.200  29.267  33.019  1.00  0.00    -0.248 NA
ATOM     39  C   UNL A   1      42.146  27.434  31.927  1.00  0.00     0.031 C 
ATOM     40  C   UNL A   1      38.376  29.807  29.580  1.00  0.00     0.029 A 
ATOM     41  N   UNL A   1      39.043  30.646  31.541  1.00  0.00    -0.354 N 
ATOM     42  C   UNL A   1      42.191  28.711  33.819  1.00  0.00     0.074 A 
ATOM     43  C   UNL A   1      42.685  27.539  33.131  1.00  0.00     0.031 C 
ATOM     44  C   UNL A   1      37.629  30.896  29.826  1.00  0.00     0.029 A 
ATOM     45  C   UNL A   1      38.026  31.465  31.110  1.00  0.00     0.049 A 
ATOM     46  H   UNL A   1      39.517  30.779  32.394  1.00  0.00     0.167 HD
ATOM     47  C   UNL A   1      42.672  29.158  35.002  1.00  0.00     0.037 A 
ATOM     48  C   UNL A   1      37.478  32.552  31.687  1.00  0.00     0.037 A 
ATOM     49  C   UNL A   1      42.191  30.341  35.663  1.00  0.00     0.049 A 
ATOM     50  C   UNL A   1      38.014  33.019  33.012  1.00  0.00     0.074 A 
ATOM     51  C   UNL A   1      42.638  30.908  36.842  1.00  0.00     0.029 A 
ATOM     52  N   UNL A   1      41.158  31.141  35.197  1.00  0.00    -0.354 N 
ATOM     53  N   UNL A   1      38.985  32.509  33.733  1.00  0.00    -0.248 NA
ATOM     54  C   UNL A   1      37.383  34.205  33.605  1.00  0.00     0.031 C 
ATOM     55  C   UNL A   1      41.844  32.026  37.113  1.00  0.00     0.029 A 
ATOM     56  C   UNL A   1      40.935  32.185  36.078  1.00  0.00     0.049 A 
ATOM     57  H   UNL A   1      40.656  30.988  34.363  1.00  0.00     0.167 HD
ATOM     58  C   UNL A   1      39.095  33.323  34.855  1.00  0.00     0.074 A 
ATOM     59  C   UNL A   1      38.102  34.368  34.708  1.00  0.00     0.031 C 
ATOM     60  C   UNL A   1      39.939  33.215  35.911  1.00  0.00     0.037 A 
BRANCH  47  61
ATOM     61  C   UNL A   1      43.784  28.374  35.644  1.00  0.00     0.058 A 
ATOM     62  C   UNL A   1      43.521  27.358  36.578  1.00  0.00     0.135 A 
ATOM     63  C   UNL A   1      45.124  28.617  35.303  1.00  0.00     0.135 A 
ATOM     64  F   UNL A   1      42.260  27.096  36.956  1.00  0.00    -0.206 F 
ATOM     65  C   UNL A   1      44.547  26.630  37.171  1.00  0.00     0.059 A 
ATOM     66  C   UNL A   1      46.165  27.879  35.860  1.00  0.00     0.059 A 
ATOM     67  F   UNL A   1      45.433  29.578  34.420  1.00  0.00    -0.206 F 
ATOM     68  C   UNL A   1      45.867  26.897  36.803  1.00  0.00     0.060 A 
BRANCH  68  69
ATOM     69  S   UNL A   1      47.181  25.934  37.578  1.00  0.00     0.124 S 
ATOM     70  O   UNL A   1      48.041  25.641  36.435  1.00  0.00    -0.237 OA
ATOM     71  O   UNL A   1      47.723  26.875  38.553  1.00  0.00    -0.237 OA
ATOM     72  O   UNL A   1      46.477  24.786  38.141  1.00  0.00    -0.744 OA
ENDBRANCH  68  69
ENDBRANCH  47  61
BRANCH  48  73
ATOM     73  C   UNL A   1      36.392  33.289  30.989  1.00  0.00     0.058 A 
ATOM     74  C   UNL A   1      35.076  33.252  31.470  1.00  0.00     0.135 A 
ATOM     75  C   UNL A   1      36.651  34.079  29.858  1.00  0.00     0.135 A 
ATOM     76  F   UNL A   1      34.776  32.505  32.544  1.00  0.00    -0.206 F 
ATOM     77  C   UNL A   1      34.052  33.969  30.858  1.00  0.00     0.059 A 
ATOM     78  C   UNL A   1      35.650  34.825  29.242  1.00  0.00     0.059 A 
ATOM     79  F   UNL A   1      37.898  34.163  29.366  1.00  0.00    -0.206 F 
ATOM     80  C   UNL A   1      34.353  34.761  29.747  1.00  0.00     0.060 A 
BRANCH  80  81
ATOM     81  S   UNL A   1      33.030  35.741  29.006  1.00  0.00     0.124 S 
ATOM     82  O   UNL A   1      33.784  36.787  28.323  1.00  0.00    -0.237 OA
ATOM     83  O   UNL A   1      32.374  34.761  28.145  1.00  0.00    -0.237 OA
ATOM     84  O   UNL A   1      32.247  36.177  30.158  1.00  0.00    -0.744 OA
ENDBRANCH  80  81
ENDBRANCH  48  73
BRANCH  60  85
ATOM     85  C   UNL A   1      39.838  34.256  36.991  1.00  0.00     0.058 A 
ATOM     86  C   UNL A   1      40.445  35.514  36.853  1.00  0.00     0.135 A 
ATOM     87  C   UNL A   1      39.058  34.022  38.135  1.00  0.00     0.135 A 
ATOM     88  F   UNL A   1      41.207  35.784  35.781  1.00  0.00    -0.206 F 
ATOM     89  C   UNL A   1      40.291  36.501  37.820  1.00  0.00     0.059 A 
ATOM     90  C   UNL A   1      38.866  35.006  39.100  1.00  0.00     0.059 A 
ATOM     91  F   UNL A   1      38.447  32.840  38.307  1.00  0.00    -0.206 F 
ATOM     92  C   UNL A   1      39.494  36.240  38.937  1.00  0.00     0.060 A 
BRANCH  92  93
ATOM     93  S   UNL A   1      39.263  37.552  40.155  1.00  0.00     0.124 S 
ATOM     94  O   UNL A   1      38.218  38.355  39.527  1.00  0.00    -0.237 OA
ATOM     95  O   UNL A   1      38.861  36.805  41.342  1.00  0.00    -0.237 OA
ATOM     96  O   UNL A   1      40.577  38.181  40.231  1.00  0.00    -0.744 OA
ENDBRANCH  92  93
ENDBRANCH  60  85
ENDBRANCH  34  35
ENDBRANCH  26  29
ENDBRANCH   1  25
TORSDOF 14
ENDMDL
MODEL 3
REMARK VINA RESULT:     -11.6      3.029      4.037
REMARK SMILES Cc1cc2c(c(C)c1Cl)C=C(C(=O)NCCCNC(=O)c1ccc(-c3c4nc(c(-c5c(F)cc(S(=O)(=O)[O-])cc5F)c5ccc([nH]5)c(-c5c(F)cc(S(=O)(=O)[O-])cc5F)c5nc(c(-c6c(F)cc(S(=O)(=O)[O-])cc6F)c6ccc3[nH]6)C=C5)C=C4)cc1)[C@@H](C(F)(F)F)O2
REMARK SMILES IDX 17 1 16 2 15 3 14 4 12 5 13 6 11 8 1 9 2 10 3 11 8 12 4 13
REMARK SMILES IDX 6 14 9 15 5 16 92 17 7 18 10 19 87 20 88 21 89 22 90 23
REMARK SMILES IDX 91 24 18 25 19 26 20 28 21 29 22 30 86 31 23 32 85 33 24 34
REMARK SMILES IDX 25 35 26 36 79 37 27 38 84 39 78 40 80 41 28 42 83 43 77 44
REMARK SMILES IDX 76 45 29 47 63 48 42 49 62 50 43 51 46 52 61 53 81 54 44 55
REMARK SMILES IDX 45 56 60 58 82 59 47 60 30 61 31 62 40 63 32 64 33 65 39 66
REMARK SMILES IDX 41 67 34 68 35 69 36 70 37 71 38 72 64 73 65 74 74 75 66 76
REMARK SMILES IDX 67 77 73 78 75 79 68 80 69 81 70 82 71 83 72 84 48 85 49 86
REMARK SMILES IDX 58 87 50 88 51 89 57 90 59 91 52 92 53 93 54 94 55 95 56 96
REMARK H PARENT 14 7 18 27 80 46 46 57
REMARK Flexibility Score: inf
ROOT
ATOM      1  C   UNL A   1      35.665  31.431  28.237  1.00  0.00     0.118 C 
ENDROOT
BRANCH   1   2
ATOM      2  C   UNL A   1      34.337  31.179  27.537  1.00  0.00     0.042 C 
BRANCH   2   3
ATOM      3  C   UNL A   1      34.150  29.715  27.173  1.00  0.00     0.118 C 
BRANCH   3   4
ATOM      4  N   UNL A   1      32.911  29.173  27.712  1.00  0.00    -0.352 N 
ATOM      5  C   UNL A   1      31.998  28.239  27.358  1.00  0.00     0.251 C 
ATOM      6  O   UNL A   1      31.065  28.087  28.153  1.00  0.00    -0.270 OA
ATOM      7  H   UNL A   1      32.672  29.603  28.565  1.00  0.00     0.163 HD
BRANCH   5   8
ATOM      8  C   UNL A   1      32.057  27.410  26.119  1.00  0.00     0.067 C 
ATOM      9  C   UNL A   1      33.198  23.168  21.325  1.00  0.00     0.046 C 
ATOM     10  C   UNL A   1      33.211  23.978  22.594  1.00  0.00    -0.028 A 
ATOM     11  C   UNL A   1      32.153  24.863  22.812  1.00  0.00     0.052 A 
ATOM     12  C   UNL A   1      34.260  23.923  23.535  1.00  0.00     0.047 A 
ATOM     13  C   UNL A   1      32.129  25.664  23.947  1.00  0.00     0.128 A 
ATOM     14  C   UNL A   1      34.232  24.717  24.710  1.00  0.00    -0.021 A 
ATOM     15  Cl  UNL A   1      35.600  22.862  23.218  1.00  0.00    -0.084 Cl
ATOM     16  C   UNL A   1      33.141  25.599  24.909  1.00  0.00     0.022 A 
ATOM     17  O   UNL A   1      31.035  26.475  24.059  1.00  0.00    -0.475 OA
ATOM     18  C   UNL A   1      35.328  24.648  25.748  1.00  0.00     0.047 C 
ATOM     19  C   UNL A   1      32.992  26.442  26.100  1.00  0.00     0.026 C 
ATOM     20  C   UNL A   1      31.172  27.624  24.929  1.00  0.00     0.314 C 
BRANCH  20  21
ATOM     21  C   UNL A   1      31.588  28.852  24.096  1.00  0.00     0.429 C 
ATOM     22  F   UNL A   1      30.892  29.949  24.483  1.00  0.00    -0.167 F 
ATOM     23  F   UNL A   1      32.899  29.161  24.239  1.00  0.00    -0.167 F 
ATOM     24  F   UNL A   1      31.373  28.682  22.771  1.00  0.00    -0.167 F 
ENDBRANCH  20  21
ENDBRANCH   5   8
ENDBRANCH   3   4
ENDBRANCH   2   3
ENDBRANCH   1   2
BRANCH   1  25
ATOM     25  N   UNL A   1      35.567  31.205  29.677  1.00  0.00    -0.352 N 
ATOM     26  C   UNL A   1      36.349  30.445  30.508  1.00  0.00     0.251 C 
ATOM     27  H   UNL A   1      34.822  31.673  30.120  1.00  0.00     0.163 HD
ATOM     28  O   UNL A   1      35.934  30.142  31.626  1.00  0.00    -0.269 OA
BRANCH  26  29
ATOM     29  C   UNL A   1      37.680  29.995  30.059  1.00  0.00     0.039 A 
ATOM     30  C   UNL A   1      37.986  29.995  28.697  1.00  0.00     0.014 A 
ATOM     31  C   UNL A   1      38.619  29.546  30.991  1.00  0.00     0.014 A 
ATOM     32  C   UNL A   1      39.259  29.603  28.278  1.00  0.00     0.010 A 
ATOM     33  C   UNL A   1      39.912  29.259  30.587  1.00  0.00     0.010 A 
ATOM     34  C   UNL A   1      40.240  29.264  29.224  1.00  0.00    -0.014 A 
BRANCH  34  35
ATOM     35  C   UNL A   1      41.608  28.868  28.814  1.00  0.00     0.031 A 
ATOM     36  C   UNL A   1      42.707  29.896  28.802  1.00  0.00     0.074 A 
ATOM     37  C   UNL A   1      41.843  27.609  28.398  1.00  0.00     0.049 A 
ATOM     38  N   UNL A   1      43.948  29.773  28.409  1.00  0.00    -0.248 NA
ATOM     39  C   UNL A   1      42.357  31.251  29.264  1.00  0.00     0.031 C 
ATOM     40  C   UNL A   1      40.842  26.542  28.327  1.00  0.00     0.029 A 
ATOM     41  N   UNL A   1      42.995  27.012  27.956  1.00  0.00    -0.354 N 
ATOM     42  C   UNL A   1      44.520  31.030  28.569  1.00  0.00     0.074 A 
ATOM     43  C   UNL A   1      43.474  31.919  29.024  1.00  0.00     0.031 C 
ATOM     44  C   UNL A   1      41.432  25.412  27.905  1.00  0.00     0.029 A 
ATOM     45  C   UNL A   1      42.841  25.683  27.636  1.00  0.00     0.049 A 
ATOM     46  H   UNL A   1      43.852  27.490  27.873  1.00  0.00     0.167 HD
ATOM     47  C   UNL A   1      45.809  31.400  28.390  1.00  0.00     0.037 A 
ATOM     48  C   UNL A   1      43.737  24.787  27.179  1.00  0.00     0.037 A 
ATOM     49  C   UNL A   1      46.846  30.499  27.963  1.00  0.00     0.049 A 
ATOM     50  C   UNL A   1      45.160  25.226  26.967  1.00  0.00     0.074 A 
ATOM     51  C   UNL A   1      48.192  30.759  27.792  1.00  0.00     0.029 A 
ATOM     52  N   UNL A   1      46.650  29.163  27.646  1.00  0.00    -0.354 N 
ATOM     53  N   UNL A   1      45.696  26.407  27.169  1.00  0.00    -0.248 NA
ATOM     54  C   UNL A   1      46.100  24.216  26.464  1.00  0.00     0.031 C 
ATOM     55  C   UNL A   1      48.804  29.591  27.327  1.00  0.00     0.029 A 
ATOM     56  C   UNL A   1      47.848  28.589  27.256  1.00  0.00     0.049 A 
ATOM     57  H   UNL A   1      45.786  28.692  27.691  1.00  0.00     0.167 HD
ATOM     58  C   UNL A   1      47.040  26.277  26.837  1.00  0.00     0.074 A 
ATOM     59  C   UNL A   1      47.237  24.899  26.437  1.00  0.00     0.031 C 
ATOM     60  C   UNL A   1      48.020  27.214  26.861  1.00  0.00     0.037 A 
BRANCH  47  61
ATOM     61  C   UNL A   1      46.168  32.833  28.672  1.00  0.00     0.058 A 
ATOM     62  C   UNL A   1      46.109  33.815  27.669  1.00  0.00     0.135 A 
ATOM     63  C   UNL A   1      46.547  33.238  29.961  1.00  0.00     0.135 A 
ATOM     64  F   UNL A   1      45.774  33.480  26.413  1.00  0.00    -0.206 F 
ATOM     65  C   UNL A   1      46.439  35.141  27.927  1.00  0.00     0.059 A 
ATOM     66  C   UNL A   1      46.851  34.566  30.250  1.00  0.00     0.059 A 
ATOM     67  F   UNL A   1      46.624  32.342  30.956  1.00  0.00    -0.206 F 
ATOM     68  C   UNL A   1      46.807  35.508  29.223  1.00  0.00     0.060 A 
BRANCH  68  69
ATOM     69  S   UNL A   1      47.221  37.235  29.539  1.00  0.00     0.124 S 
ATOM     70  O   UNL A   1      46.229  37.927  28.721  1.00  0.00    -0.237 OA
ATOM     71  O   UNL A   1      47.037  37.340  30.983  1.00  0.00    -0.237 OA
ATOM     72  O   UNL A   1      48.601  37.345  29.074  1.00  0.00    -0.744 OA
ENDBRANCH  68  69
ENDBRANCH  47  61
BRANCH  48  73
ATOM     73  C   UNL A   1      43.317  23.382  26.937  1.00  0.00     0.058 A 
ATOM     74  C   UNL A   1      43.183  22.889  25.631  1.00  0.00     0.135 A 
ATOM     75  C   UNL A   1      43.084  22.492  27.997  1.00  0.00     0.135 A 
ATOM     76  F   UNL A   1      43.388  23.702  24.584  1.00  0.00    -0.206 F 
ATOM     77  C   UNL A   1      42.833  21.565  25.382  1.00  0.00     0.059 A 
ATOM     78  C   UNL A   1      42.756  21.158  27.774  1.00  0.00     0.059 A 
ATOM     79  F   UNL A   1      43.214  22.909  29.267  1.00  0.00    -0.206 F 
ATOM     80  C   UNL A   1      42.630  20.704  26.463  1.00  0.00     0.060 A 
BRANCH  80  81
ATOM     81  S   UNL A   1      42.246  18.973  26.124  1.00  0.00     0.124 S 
ATOM     82  O   UNL A   1      43.179  18.668  25.044  1.00  0.00    -0.237 OA
ATOM     83  O   UNL A   1      42.530  18.343  27.410  1.00  0.00    -0.237 OA
ATOM     84  O   UNL A   1      40.836  19.007  25.749  1.00  0.00    -0.744 OA
ENDBRANCH  80  81
ENDBRANCH  48  73
BRANCH  60  85
ATOM     85  C   UNL A   1      49.402  26.784  26.451  1.00  0.00     0.058 A 
ATOM     86  C   UNL A   1      50.270  26.154  27.356  1.00  0.00     0.135 A 
ATOM     87  C   UNL A   1      49.827  26.928  25.120  1.00  0.00     0.135 A 
ATOM     88  F   UNL A   1      49.913  25.998  28.640  1.00  0.00    -0.206 F 
ATOM     89  C   UNL A   1      51.520  25.692  26.956  1.00  0.00     0.059 A 
ATOM     90  C   UNL A   1      51.061  26.446  24.693  1.00  0.00     0.059 A 
ATOM     91  F   UNL A   1      49.029  27.513  24.214  1.00  0.00    -0.206 F 
ATOM     92  C   UNL A   1      51.903  25.836  25.622  1.00  0.00     0.060 A 
BRANCH  92  93
ATOM     93  S   UNL A   1      53.507  25.183  25.112  1.00  0.00     0.124 S 
ATOM     94  O   UNL A   1      53.575  25.626  23.723  1.00  0.00    -0.237 OA
ATOM     95  O   UNL A   1      54.420  25.849  26.036  1.00  0.00    -0.237 OA
ATOM     96  O   UNL A   1      53.366  23.744  25.305  1.00  0.00    -0.744 OA
ENDBRANCH  92  93
ENDBRANCH  60  85
ENDBRANCH  34  35
ENDBRANCH  26  29
ENDBRANCH   1  25
TORSDOF 14
ENDMDL
