MODEL 1
REMARK VINA RESULT:     -10.3      0.000      0.000
REMARK SMILES O=C(COC[C@@H]1CCCCO1)NCCCNC(=O)c1ccc(-c2c3nc(c(-c4c(F)cc(S(=O)(=O)[O-])cc4F)c4ccc([nH]4)c(-c4c(F)cc(S(=O)(=O)[O-])cc4F)c4nc(c(-c5c(F)cc(S(=O)(=O)[O-])cc5F)c5ccc2[nH]5)C=C4)C=C3)cc1
REMARK SMILES IDX 14 1 13 2 12 3 1 4 2 5 3 7 4 8 5 9 6 10 7 11 11 12 8 13
REMARK SMILES IDX 10 14 9 15 15 16 16 17 17 18 18 20 19 21 20 22 84 23 21 24
REMARK SMILES IDX 83 25 22 26 23 27 24 28 77 29 25 30 82 31 76 32 78 33 26 34
REMARK SMILES IDX 81 35 75 36 74 37 27 39 61 40 40 41 60 42 41 43 44 44 59 45
REMARK SMILES IDX 79 46 42 47 43 48 58 50 80 51 45 52 28 53 29 54 38 55 30 56
REMARK SMILES IDX 31 57 37 58 39 59 32 60 33 61 34 62 35 63 36 64 62 65 63 66
REMARK SMILES IDX 72 67 64 68 65 69 71 70 73 71 66 72 67 73 68 74 69 75 70 76
REMARK SMILES IDX 46 77 47 78 56 79 48 80 49 81 55 82 57 83 50 84 51 85 52 86
REMARK SMILES IDX 53 87 54 88
REMARK H PARENT 12 6 16 19 78 38 44 49
REMARK Flexibility Score: inf
ROOT
ATOM      1  C   UNL A   1      41.309  20.102  27.479  1.00  0.00     0.042 C 
ENDROOT
BRANCH   1   2
ATOM      2  C   UNL A   1      41.386  19.475  26.095  1.00  0.00     0.117 C 
BRANCH   2   3
ATOM      3  N   UNL A   1      42.657  19.685  25.439  1.00  0.00    -0.354 N 
ATOM      4  O   UNL A   1      43.690  17.833  26.319  1.00  0.00    -0.272 OA
ATOM      5  C   UNL A   1      43.699  18.785  25.544  1.00  0.00     0.246 C 
ATOM      6  H   UNL A   1      42.785  20.497  24.899  1.00  0.00     0.163 HD
BRANCH   5   7
ATOM      7  C   UNL A   1      44.873  19.090  24.603  1.00  0.00     0.260 C 
BRANCH   7   8
ATOM      8  O   UNL A   1      45.938  19.876  25.127  1.00  0.00    -0.369 OA
BRANCH   8   9
ATOM      9  C   UNL A   1      45.642  21.254  25.392  1.00  0.00     0.192 C 
BRANCH   9  10
ATOM     10  C   UNL A   1      45.311  22.119  24.156  1.00  0.00     0.144 C 
ATOM     11  C   UNL A   1      46.022  23.480  24.196  1.00  0.00     0.034 C 
ATOM     12  O   UNL A   1      43.904  22.323  23.962  1.00  0.00    -0.376 OA
ATOM     13  C   UNL A   1      45.399  24.424  25.219  1.00  0.00     0.005 C 
ATOM     14  C   UNL A   1      43.264  23.152  24.931  1.00  0.00     0.160 C 
ATOM     15  C   UNL A   1      43.897  24.532  24.991  1.00  0.00     0.029 C 
ENDBRANCH   9  10
ENDBRANCH   8   9
ENDBRANCH   7   8
ENDBRANCH   5   7
ENDBRANCH   2   3
ENDBRANCH   1   2
BRANCH   1  16
ATOM     16  C   UNL A   1      40.790  21.535  27.483  1.00  0.00     0.118 C 
BRANCH  16  17
ATOM     17  N   UNL A   1      39.583  21.711  26.683  1.00  0.00    -0.352 N 
ATOM     18  C   UNL A   1      38.865  22.849  26.408  1.00  0.00     0.251 C 
ATOM     19  H   UNL A   1      39.228  20.887  26.280  1.00  0.00     0.163 HD
ATOM     20  O   UNL A   1      37.790  22.754  25.817  1.00  0.00    -0.269 OA
BRANCH  18  21
ATOM     21  C   UNL A   1      39.359  24.175  26.840  1.00  0.00     0.039 A 
ATOM     22  C   UNL A   1      39.147  24.575  28.162  1.00  0.00     0.014 A 
ATOM     23  C   UNL A   1      40.026  25.025  25.954  1.00  0.00     0.014 A 
ATOM     24  C   UNL A   1      39.670  25.790  28.614  1.00  0.00     0.010 A 
ATOM     25  C   UNL A   1      40.615  26.197  26.426  1.00  0.00     0.010 A 
ATOM     26  C   UNL A   1      40.445  26.592  27.761  1.00  0.00    -0.014 A 
BRANCH  26  27
ATOM     27  C   UNL A   1      41.100  27.834  28.250  1.00  0.00     0.031 A 
ATOM     28  C   UNL A   1      42.600  27.952  28.253  1.00  0.00     0.074 A 
ATOM     29  C   UNL A   1      40.345  28.829  28.758  1.00  0.00     0.049 A 
ATOM     30  N   UNL A   1      43.352  28.922  28.708  1.00  0.00    -0.248 NA
ATOM     31  C   UNL A   1      43.358  26.821  27.693  1.00  0.00     0.031 C 
ATOM     32  C   UNL A   1      38.883  28.817  28.855  1.00  0.00     0.029 A 
ATOM     33  N   UNL A   1      40.700  30.040  29.299  1.00  0.00    -0.354 N 
ATOM     34  C   UNL A   1      44.666  28.514  28.505  1.00  0.00     0.074 A 
ATOM     35  C   UNL A   1      44.609  27.187  27.932  1.00  0.00     0.031 C 
ATOM     36  C   UNL A   1      38.468  29.971  29.401  1.00  0.00     0.029 A 
ATOM     37  C   UNL A   1      39.630  30.788  29.734  1.00  0.00     0.049 A 
ATOM     38  H   UNL A   1      41.634  30.345  29.369  1.00  0.00     0.167 HD
ATOM     39  C   UNL A   1      45.812  29.192  28.751  1.00  0.00     0.037 A 
ATOM     40  C   UNL A   1      39.588  31.990  30.343  1.00  0.00     0.037 A 
ATOM     41  C   UNL A   1      45.860  30.522  29.302  1.00  0.00     0.049 A 
ATOM     42  C   UNL A   1      40.876  32.720  30.616  1.00  0.00     0.074 A 
ATOM     43  C   UNL A   1      46.968  31.316  29.536  1.00  0.00     0.029 A 
ATOM     44  N   UNL A   1      44.753  31.253  29.710  1.00  0.00    -0.354 N 
ATOM     45  N   UNL A   1      42.106  32.346  30.355  1.00  0.00    -0.248 NA
ATOM     46  C   UNL A   1      40.772  34.037  31.260  1.00  0.00     0.031 C 
ATOM     47  C   UNL A   1      46.539  32.505  30.133  1.00  0.00     0.029 A 
ATOM     48  C   UNL A   1      45.156  32.478  30.216  1.00  0.00     0.049 A 
ATOM     49  H   UNL A   1      43.820  30.946  29.650  1.00  0.00     0.167 HD
ATOM     50  C   UNL A   1      42.918  33.394  30.772  1.00  0.00     0.074 A 
ATOM     51  C   UNL A   1      42.041  34.421  31.295  1.00  0.00     0.031 C 
ATOM     52  C   UNL A   1      44.270  33.499  30.722  1.00  0.00     0.037 A 
BRANCH  39  53
ATOM     53  C   UNL A   1      47.114  28.510  28.423  1.00  0.00     0.058 A 
ATOM     54  C   UNL A   1      47.781  27.703  29.359  1.00  0.00     0.135 A 
ATOM     55  C   UNL A   1      47.679  28.628  27.143  1.00  0.00     0.135 A 
ATOM     56  F   UNL A   1      47.293  27.564  30.602  1.00  0.00    -0.206 F 
ATOM     57  C   UNL A   1      48.977  27.065  29.049  1.00  0.00     0.059 A 
ATOM     58  C   UNL A   1      48.860  27.973  26.801  1.00  0.00     0.059 A 
ATOM     59  F   UNL A   1      47.084  29.385  26.207  1.00  0.00    -0.206 F 
ATOM     60  C   UNL A   1      49.508  27.206  27.766  1.00  0.00     0.060 A 
BRANCH  60  61
ATOM     61  S   UNL A   1      51.059  26.366  27.380  1.00  0.00     0.124 S 
ATOM     62  O   UNL A   1      51.955  26.935  28.382  1.00  0.00    -0.237 OA
ATOM     63  O   UNL A   1      50.708  24.962  27.568  1.00  0.00    -0.237 OA
ATOM     64  O   UNL A   1      51.328  26.763  26.002  1.00  0.00    -0.744 OA
ENDBRANCH  60  61
ENDBRANCH  39  53
BRANCH  40  65
ATOM     65  C   UNL A   1      38.278  32.587  30.719  1.00  0.00     0.058 A 
ATOM     66  C   UNL A   1      37.764  32.441  32.017  1.00  0.00     0.135 A 
ATOM     67  C   UNL A   1      37.518  33.324  29.797  1.00  0.00     0.135 A 
ATOM     68  F   UNL A   1      38.447  31.740  32.934  1.00  0.00    -0.206 F 
ATOM     69  C   UNL A   1      36.538  32.987  32.382  1.00  0.00     0.059 A 
ATOM     70  C   UNL A   1      36.303  33.905  30.146  1.00  0.00     0.059 A 
ATOM     71  F   UNL A   1      37.972  33.508  28.547  1.00  0.00    -0.206 F 
ATOM     72  C   UNL A   1      35.816  33.721  31.440  1.00  0.00     0.060 A 
BRANCH  72  73
ATOM     73  S   UNL A   1      34.248  34.465  31.940  1.00  0.00     0.124 S 
ATOM     74  O   UNL A   1      33.706  33.442  32.827  1.00  0.00    -0.237 OA
ATOM     75  O   UNL A   1      34.686  35.700  32.580  1.00  0.00    -0.237 OA
ATOM     76  O   UNL A   1      33.541  34.641  30.673  1.00  0.00    -0.744 OA
ENDBRANCH  72  73
ENDBRANCH  40  65
BRANCH  52  77
ATOM     77  C   UNL A   1      44.890  34.783  31.201  1.00  0.00     0.058 A 
ATOM     78  C   UNL A   1      45.312  34.954  32.528  1.00  0.00     0.135 A 
ATOM     79  C   UNL A   1      45.125  35.834  30.299  1.00  0.00     0.135 A 
ATOM     80  F   UNL A   1      45.104  33.984  33.433  1.00  0.00    -0.206 F 
ATOM     81  C   UNL A   1      45.929  36.128  32.949  1.00  0.00     0.059 A 
ATOM     82  C   UNL A   1      45.767  37.004  30.690  1.00  0.00     0.059 A 
ATOM     83  F   UNL A   1      44.751  35.720  29.015  1.00  0.00    -0.206 F 
ATOM     84  C   UNL A   1      46.157  37.146  32.021  1.00  0.00     0.060 A 
BRANCH  84  85
ATOM     85  S   UNL A   1      47.002  38.644  32.570  1.00  0.00     0.124 S 
ATOM     86  O   UNL A   1      48.403  38.262  32.427  1.00  0.00    -0.237 OA
ATOM     87  O   UNL A   1      46.516  39.641  31.621  1.00  0.00    -0.237 OA
ATOM     88  O   UNL A   1      46.535  38.814  33.943  1.00  0.00    -0.744 OA
ENDBRANCH  84  85
ENDBRANCH  52  77
ENDBRANCH  26  27
ENDBRANCH  18  21
ENDBRANCH  16  17
ENDBRANCH   1  16
TORSDOF 16
ENDMDL
MODEL 2
REMARK VINA RESULT:     -10.3      2.992     11.506
REMARK SMILES O=C(COC[C@@H]1CCCCO1)NCCCNC(=O)c1ccc(-c2c3nc(c(-c4c(F)cc(S(=O)(=O)[O-])cc4F)c4ccc([nH]4)c(-c4c(F)cc(S(=O)(=O)[O-])cc4F)c4nc(c(-c5c(F)cc(S(=O)(=O)[O-])cc5F)c5ccc2[nH]5)C=C4)C=C3)cc1
REMARK SMILES IDX 14 1 13 2 12 3 1 4 2 5 3 7 4 8 5 9 6 10 7 11 11 12 8 13
REMARK SMILES IDX 10 14 9 15 15 16 16 17 17 18 18 20 19 21 20 22 84 23 21 24
REMARK SMILES IDX 83 25 22 26 23 27 24 28 77 29 25 30 82 31 76 32 78 33 26 34
REMARK SMILES IDX 81 35 75 36 74 37 27 39 61 40 40 41 60 42 41 43 44 44 59 45
REMARK SMILES IDX 79 46 42 47 43 48 58 50 80 51 45 52 28 53 29 54 38 55 30 56
REMARK SMILES IDX 31 57 37 58 39 59 32 60 33 61 34 62 35 63 36 64 62 65 63 66
REMARK SMILES IDX 72 67 64 68 65 69 71 70 73 71 66 72 67 73 68 74 69 75 70 76
REMARK SMILES IDX 46 77 47 78 56 79 48 80 49 81 55 82 57 83 50 84 51 85 52 86
REMARK SMILES IDX 53 87 54 88
REMARK H PARENT 12 6 16 19 78 38 44 49
REMARK Flexibility Score: inf
ROOT
ATOM      1  C   UNL A   1      33.441  33.606  27.987  1.00  0.00     0.042 C 
ENDROOT
BRANCH   1   2
ATOM      2  C   UNL A   1      33.889  34.966  28.501  1.00  0.00     0.117 C 
BRANCH   2   3
ATOM      3  N   UNL A   1      34.101  34.998  29.931  1.00  0.00    -0.354 N 
ATOM      4  O   UNL A   1      32.382  36.446  30.396  1.00  0.00    -0.272 OA
ATOM      5  C   UNL A   1      33.263  35.686  30.786  1.00  0.00     0.246 C 
ATOM      6  H   UNL A   1      34.869  34.512  30.308  1.00  0.00     0.163 HD
BRANCH   5   7
ATOM      7  C   UNL A   1      33.541  35.414  32.271  1.00  0.00     0.260 C 
BRANCH   7   8
ATOM      8  O   UNL A   1      33.515  34.056  32.698  1.00  0.00    -0.369 OA
BRANCH   8   9
ATOM      9  C   UNL A   1      34.771  33.488  33.095  1.00  0.00     0.192 C 
BRANCH   9  10
ATOM     10  C   UNL A   1      35.477  32.614  32.036  1.00  0.00     0.144 C 
ATOM     11  C   UNL A   1      36.230  31.435  32.669  1.00  0.00     0.034 C 
ATOM     12  O   UNL A   1      36.372  33.352  31.192  1.00  0.00    -0.376 OA
ATOM     13  C   UNL A   1      37.505  31.882  33.378  1.00  0.00     0.005 C 
ATOM     14  C   UNL A   1      37.552  33.843  31.826  1.00  0.00     0.160 C 
ATOM     15  C   UNL A   1      38.366  32.718  32.440  1.00  0.00     0.029 C 
ENDBRANCH   9  10
ENDBRANCH   8   9
ENDBRANCH   7   8
ENDBRANCH   5   7
ENDBRANCH   2   3
ENDBRANCH   1   2
BRANCH   1  16
ATOM     16  C   UNL A   1      34.374  32.462  28.361  1.00  0.00     0.118 C 
BRANCH  16  17
ATOM     17  N   UNL A   1      33.800  31.146  28.106  1.00  0.00    -0.352 N 
ATOM     18  C   UNL A   1      34.414  29.922  27.994  1.00  0.00     0.251 C 
ATOM     19  H   UNL A   1      32.823  31.132  27.997  1.00  0.00     0.163 HD
ATOM     20  O   UNL A   1      33.753  28.947  27.639  1.00  0.00    -0.269 OA
BRANCH  18  21
ATOM     21  C   UNL A   1      35.861  29.776  28.267  1.00  0.00     0.039 A 
ATOM     22  C   UNL A   1      36.271  29.408  29.551  1.00  0.00     0.014 A 
ATOM     23  C   UNL A   1      36.814  30.000  27.270  1.00  0.00     0.014 A 
ATOM     24  C   UNL A   1      37.626  29.190  29.813  1.00  0.00     0.010 A 
ATOM     25  C   UNL A   1      38.155  29.705  27.511  1.00  0.00     0.010 A 
ATOM     26  C   UNL A   1      38.576  29.295  28.784  1.00  0.00    -0.014 A 
BRANCH  26  27
ATOM     27  C   UNL A   1      40.007  28.964  29.015  1.00  0.00     0.031 A 
ATOM     28  C   UNL A   1      40.955  30.011  29.534  1.00  0.00     0.074 A 
ATOM     29  C   UNL A   1      40.468  27.739  28.691  1.00  0.00     0.049 A 
ATOM     30  N   UNL A   1      42.247  29.933  29.728  1.00  0.00    -0.248 NA
ATOM     31  C   UNL A   1      40.381  31.327  29.857  1.00  0.00     0.031 C 
ATOM     32  C   UNL A   1      39.660  26.651  28.134  1.00  0.00     0.029 A 
ATOM     33  N   UNL A   1      41.731  27.204  28.769  1.00  0.00    -0.354 N 
ATOM     34  C   UNL A   1      42.642  31.188  30.177  1.00  0.00     0.074 A 
ATOM     35  C   UNL A   1      41.462  32.024  30.179  1.00  0.00     0.031 C 
ATOM     36  C   UNL A   1      40.441  25.575  27.942  1.00  0.00     0.029 A 
ATOM     37  C   UNL A   1      41.812  25.907  28.318  1.00  0.00     0.049 A 
ATOM     38  H   UNL A   1      42.506  27.702  29.116  1.00  0.00     0.167 HD
ATOM     39  C   UNL A   1      43.871  31.599  30.574  1.00  0.00     0.037 A 
ATOM     40  C   UNL A   1      42.870  25.079  28.207  1.00  0.00     0.037 A 
ATOM     41  C   UNL A   1      45.037  30.755  30.589  1.00  0.00     0.049 A 
ATOM     42  C   UNL A   1      44.228  25.563  28.645  1.00  0.00     0.074 A 
ATOM     43  C   UNL A   1      46.314  31.061  31.026  1.00  0.00     0.029 A 
ATOM     44  N   UNL A   1      45.073  29.442  30.143  1.00  0.00    -0.354 N 
ATOM     45  N   UNL A   1      44.569  26.732  29.130  1.00  0.00    -0.248 NA
ATOM     46  C   UNL A   1      45.343  24.613  28.525  1.00  0.00     0.031 C 
ATOM     47  C   UNL A   1      47.134  29.952  30.797  1.00  0.00     0.029 A 
ATOM     48  C   UNL A   1      46.355  28.932  30.273  1.00  0.00     0.049 A 
ATOM     49  H   UNL A   1      44.302  28.944  29.787  1.00  0.00     0.167 HD
ATOM     50  C   UNL A   1      45.929  26.648  29.405  1.00  0.00     0.074 A 
ATOM     51  C   UNL A   1      46.347  25.311  29.039  1.00  0.00     0.031 C 
ATOM     52  C   UNL A   1      46.756  27.592  29.917  1.00  0.00     0.037 A 
BRANCH  39  53
ATOM     53  C   UNL A   1      44.018  33.027  31.029  1.00  0.00     0.058 A 
ATOM     54  C   UNL A   1      43.811  33.401  32.367  1.00  0.00     0.135 A 
ATOM     55  C   UNL A   1      44.414  34.027  30.125  1.00  0.00     0.135 A 
ATOM     56  F   UNL A   1      43.419  32.489  33.271  1.00  0.00    -0.206 F 
ATOM     57  C   UNL A   1      43.959  34.719  32.786  1.00  0.00     0.059 A 
ATOM     58  C   UNL A   1      44.599  35.347  30.530  1.00  0.00     0.059 A 
ATOM     59  F   UNL A   1      44.628  33.726  28.835  1.00  0.00    -0.206 F 
ATOM     60  C   UNL A   1      44.355  35.685  31.859  1.00  0.00     0.060 A 
BRANCH  60  61
ATOM     61  S   UNL A   1      44.547  37.389  32.422  1.00  0.00     0.124 S 
ATOM     62  O   UNL A   1      43.766  37.378  33.655  1.00  0.00    -0.237 OA
ATOM     63  O   UNL A   1      45.993  37.500  32.590  1.00  0.00    -0.237 OA
ATOM     64  O   UNL A   1      43.983  38.175  31.330  1.00  0.00    -0.744 OA
ENDBRANCH  60  61
ENDBRANCH  39  53
BRANCH  40  65
ATOM     65  C   UNL A   1      42.685  23.702  27.676  1.00  0.00     0.058 A 
ATOM     66  C   UNL A   1      42.721  23.450  26.296  1.00  0.00     0.135 A 
ATOM     67  C   UNL A   1      42.480  22.609  28.533  1.00  0.00     0.135 A 
ATOM     68  F   UNL A   1      42.907  24.460  25.434  1.00  0.00    -0.206 F 
ATOM     69  C   UNL A   1      42.543  22.169  25.784  1.00  0.00     0.059 A 
ATOM     70  C   UNL A   1      42.329  21.314  28.047  1.00  0.00     0.059 A 
ATOM     71  F   UNL A   1      42.454  22.794  29.863  1.00  0.00    -0.206 F 
ATOM     72  C   UNL A   1      42.351  21.106  26.668  1.00  0.00     0.060 A 
BRANCH  72  73
ATOM     73  S   UNL A   1      42.168  19.441  25.993  1.00  0.00     0.124 S 
ATOM     74  O   UNL A   1      40.732  19.380  25.746  1.00  0.00    -0.237 OA
ATOM     75  O   UNL A   1      43.018  19.496  24.809  1.00  0.00    -0.237 OA
ATOM     76  O   UNL A   1      42.659  18.586  27.071  1.00  0.00    -0.744 OA
ENDBRANCH  72  73
ENDBRANCH  40  65
BRANCH  52  77
ATOM     77  C   UNL A   1      48.190  27.208  30.162  1.00  0.00     0.058 A 
ATOM     78  C   UNL A   1      49.218  27.577  29.281  1.00  0.00     0.135 A 
ATOM     79  C   UNL A   1      48.547  26.516  31.331  1.00  0.00     0.135 A 
ATOM     80  F   UNL A   1      48.932  28.232  28.145  1.00  0.00    -0.206 F 
ATOM     81  C   UNL A   1      50.547  27.258  29.541  1.00  0.00     0.059 A 
ATOM     82  C   UNL A   1      49.872  26.213  31.627  1.00  0.00     0.059 A 
ATOM     83  F   UNL A   1      47.604  26.147  32.213  1.00  0.00    -0.206 F 
ATOM     84  C   UNL A   1      50.865  26.580  30.720  1.00  0.00     0.060 A 
BRANCH  84  85
ATOM     85  S   UNL A   1      52.599  26.216  31.068  1.00  0.00     0.124 S 
ATOM     86  O   UNL A   1      52.988  27.371  31.869  1.00  0.00    -0.237 OA
ATOM     87  O   UNL A   1      52.512  24.947  31.786  1.00  0.00    -0.237 OA
ATOM     88  O   UNL A   1      53.204  26.140  29.742  1.00  0.00    -0.744 OA
ENDBRANCH  84  85
ENDBRANCH  52  77
ENDBRANCH  26  27
ENDBRANCH  18  21
ENDBRANCH  16  17
ENDBRANCH   1  16
TORSDOF 16
ENDMDL
MODEL 3
REMARK VINA RESULT:     -10.2      4.246     12.250
REMARK SMILES O=C(COC[C@@H]1CCCCO1)NCCCNC(=O)c1ccc(-c2c3nc(c(-c4c(F)cc(S(=O)(=O)[O-])cc4F)c4ccc([nH]4)c(-c4c(F)cc(S(=O)(=O)[O-])cc4F)c4nc(c(-c5c(F)cc(S(=O)(=O)[O-])cc5F)c5ccc2[nH]5)C=C4)C=C3)cc1
REMARK SMILES IDX 14 1 13 2 12 3 1 4 2 5 3 7 4 8 5 9 6 10 7 11 11 12 8 13
REMARK SMILES IDX 10 14 9 15 15 16 16 17 17 18 18 20 19 21 20 22 84 23 21 24
REMARK SMILES IDX 83 25 22 26 23 27 24 28 77 29 25 30 82 31 76 32 78 33 26 34
REMARK SMILES IDX 81 35 75 36 74 37 27 39 61 40 40 41 60 42 41 43 44 44 59 45
REMARK SMILES IDX 79 46 42 47 43 48 58 50 80 51 45 52 28 53 29 54 38 55 30 56
REMARK SMILES IDX 31 57 37 58 39 59 32 60 33 61 34 62 35 63 36 64 62 65 63 66
REMARK SMILES IDX 72 67 64 68 65 69 71 70 73 71 66 72 67 73 68 74 69 75 70 76
REMARK SMILES IDX 46 77 47 78 56 79 48 80 49 81 55 82 57 83 50 84 51 85 52 86
REMARK SMILES IDX 53 87 54 88
REMARK H PARENT 12 6 16 19 78 38 44 49
REMARK Flexibility Score: inf
ROOT
ATOM      1  C   UNL A   1      34.397  34.568  28.005  1.00  0.00     0.042 C 
ENDROOT
BRANCH   1   2
ATOM      2  C   UNL A   1      33.011  34.578  28.631  1.00  0.00     0.117 C 
BRANCH   2   3
ATOM      3  N   UNL A   1      33.015  34.947  30.029  1.00  0.00    -0.354 N 
ATOM      4  O   UNL A   1      32.983  37.216  29.679  1.00  0.00    -0.272 OA
ATOM      5  C   UNL A   1      32.918  36.260  30.446  1.00  0.00     0.246 C 
ATOM      6  H   UNL A   1      33.089  34.238  30.707  1.00  0.00     0.163 HD
BRANCH   5   7
ATOM      7  C   UNL A   1      32.724  36.411  31.961  1.00  0.00     0.260 C 
BRANCH   7   8
ATOM      8  O   UNL A   1      33.894  36.617  32.747  1.00  0.00    -0.369 OA
BRANCH   8   9
ATOM      9  C   UNL A   1      34.839  35.539  32.777  1.00  0.00     0.192 C 
BRANCH   9  10
ATOM     10  C   UNL A   1      34.385  34.268  33.527  1.00  0.00     0.144 C 
ATOM     11  C   UNL A   1      35.514  33.662  34.374  1.00  0.00     0.034 C 
ATOM     12  O   UNL A   1      33.843  33.259  32.664  1.00  0.00    -0.376 OA
ATOM     13  C   UNL A   1      36.566  32.968  33.514  1.00  0.00     0.005 C 
ATOM     14  C   UNL A   1      34.780  32.622  31.797  1.00  0.00     0.160 C 
ATOM     15  C   UNL A   1      35.906  31.965  32.578  1.00  0.00     0.029 C 
ENDBRANCH   9  10
ENDBRANCH   8   9
ENDBRANCH   7   8
ENDBRANCH   5   7
ENDBRANCH   2   3
ENDBRANCH   1   2
BRANCH   1  16
ATOM     16  C   UNL A   1      35.104  33.220  28.085  1.00  0.00     0.118 C 
BRANCH  16  17
ATOM     17  N   UNL A   1      34.275  32.109  27.634  1.00  0.00    -0.352 N 
ATOM     18  C   UNL A   1      34.549  30.763  27.595  1.00  0.00     0.251 C 
ATOM     19  H   UNL A   1      33.383  32.362  27.305  1.00  0.00     0.163 HD
ATOM     20  O   UNL A   1      33.752  30.002  27.046  1.00  0.00    -0.269 OA
BRANCH  18  21
ATOM     21  C   UNL A   1      35.799  30.230  28.180  1.00  0.00     0.039 A 
ATOM     22  C   UNL A   1      36.972  30.281  27.422  1.00  0.00     0.014 A 
ATOM     23  C   UNL A   1      35.824  29.682  29.465  1.00  0.00     0.014 A 
ATOM     24  C   UNL A   1      38.180  29.854  27.980  1.00  0.00     0.010 A 
ATOM     25  C   UNL A   1      37.040  29.331  30.047  1.00  0.00     0.010 A 
ATOM     26  C   UNL A   1      38.232  29.416  29.313  1.00  0.00    -0.014 A 
BRANCH  26  27
ATOM     27  C   UNL A   1      39.523  29.058  29.960  1.00  0.00     0.031 A 
ATOM     28  C   UNL A   1      40.039  29.863  31.122  1.00  0.00     0.074 A 
ATOM     29  C   UNL A   1      40.264  28.051  29.456  1.00  0.00     0.049 A 
ATOM     30  N   UNL A   1      41.173  29.752  31.766  1.00  0.00    -0.248 NA
ATOM     31  C   UNL A   1      39.179  30.954  31.611  1.00  0.00     0.031 C 
ATOM     32  C   UNL A   1      39.897  27.225  28.303  1.00  0.00     0.029 A 
ATOM     33  N   UNL A   1      41.487  27.557  29.839  1.00  0.00    -0.354 N 
ATOM     34  C   UNL A   1      41.170  30.762  32.721  1.00  0.00     0.074 A 
ATOM     35  C   UNL A   1      39.945  31.509  32.539  1.00  0.00     0.031 C 
ATOM     36  C   UNL A   1      40.861  26.316  28.087  1.00  0.00     0.029 A 
ATOM     37  C   UNL A   1      41.935  26.519  29.054  1.00  0.00     0.049 A 
ATOM     38  H   UNL A   1      41.995  27.911  30.604  1.00  0.00     0.167 HD
ATOM     39  C   UNL A   1      42.092  31.028  33.677  1.00  0.00     0.037 A 
ATOM     40  C   UNL A   1      43.085  25.817  29.098  1.00  0.00     0.037 A 
ATOM     41  C   UNL A   1      43.300  30.267  33.866  1.00  0.00     0.049 A 
ATOM     42  C   UNL A   1      44.100  26.139  30.163  1.00  0.00     0.074 A 
ATOM     43  C   UNL A   1      44.270  30.422  34.840  1.00  0.00     0.029 A 
ATOM     44  N   UNL A   1      43.708  29.212  33.063  1.00  0.00    -0.354 N 
ATOM     45  N   UNL A   1      44.050  27.055  31.100  1.00  0.00    -0.248 NA
ATOM     46  C   UNL A   1      45.326  25.328  30.181  1.00  0.00     0.031 C 
ATOM     47  C   UNL A   1      45.289  29.497  34.597  1.00  0.00     0.029 A 
ATOM     48  C   UNL A   1      44.926  28.722  33.506  1.00  0.00     0.049 A 
ATOM     49  H   UNL A   1      43.206  28.862  32.291  1.00  0.00     0.167 HD
ATOM     50  C   UNL A   1      45.218  26.910  31.838  1.00  0.00     0.074 A 
ATOM     51  C   UNL A   1      45.953  25.812  31.245  1.00  0.00     0.031 C 
ATOM     52  C   UNL A   1      45.642  27.618  32.913  1.00  0.00     0.037 A 
BRANCH  39  53
ATOM     53  C   UNL A   1      41.832  32.191  34.598  1.00  0.00     0.058 A 
ATOM     54  C   UNL A   1      42.297  33.484  34.305  1.00  0.00     0.135 A 
ATOM     55  C   UNL A   1      41.070  32.020  35.766  1.00  0.00     0.135 A 
ATOM     56  F   UNL A   1      43.041  33.702  33.209  1.00  0.00    -0.206 F 
ATOM     57  C   UNL A   1      42.044  34.557  35.152  1.00  0.00     0.059 A 
ATOM     58  C   UNL A   1      40.779  33.087  36.612  1.00  0.00     0.059 A 
ATOM     59  F   UNL A   1      40.598  30.807  36.094  1.00  0.00    -0.206 F 
ATOM     60  C   UNL A   1      41.283  34.349  36.303  1.00  0.00     0.060 A 
BRANCH  60  61
ATOM     61  S   UNL A   1      40.961  35.755  37.388  1.00  0.00     0.124 S 
ATOM     62  O   UNL A   1      39.908  36.452  36.657  1.00  0.00    -0.237 OA
ATOM     63  O   UNL A   1      40.547  35.104  38.628  1.00  0.00    -0.237 OA
ATOM     64  O   UNL A   1      42.246  36.444  37.445  1.00  0.00    -0.744 OA
ENDBRANCH  60  61
ENDBRANCH  39  53
BRANCH  40  65
ATOM     65  C   UNL A   1      43.330  24.729  28.114  1.00  0.00     0.058 A 
ATOM     66  C   UNL A   1      44.002  24.983  26.908  1.00  0.00     0.135 A 
ATOM     67  C   UNL A   1      42.910  23.412  28.361  1.00  0.00     0.135 A 
ATOM     68  F   UNL A   1      44.418  26.225  26.621  1.00  0.00    -0.206 F 
ATOM     69  C   UNL A   1      44.233  23.977  25.975  1.00  0.00     0.059 A 
ATOM     70  C   UNL A   1      43.155  22.383  27.456  1.00  0.00     0.059 A 
ATOM     71  F   UNL A   1      42.278  23.112  29.506  1.00  0.00    -0.206 F 
ATOM     72  C   UNL A   1      43.808  22.678  26.260  1.00  0.00     0.060 A 
BRANCH  72  73
ATOM     73  S   UNL A   1      44.154  21.372  25.062  1.00  0.00     0.124 S 
ATOM     74  O   UNL A   1      44.142  22.114  23.807  1.00  0.00    -0.237 OA
ATOM     75  O   UNL A   1      45.457  20.889  25.506  1.00  0.00    -0.237 OA
ATOM     76  O   UNL A   1      43.048  20.438  25.254  1.00  0.00    -0.744 OA
ENDBRANCH  72  73
ENDBRANCH  40  65
BRANCH  52  77
ATOM     77  C   UNL A   1      46.939  27.206  33.555  1.00  0.00     0.058 A 
ATOM     78  C   UNL A   1      48.165  27.778  33.184  1.00  0.00     0.135 A 
ATOM     79  C   UNL A   1      46.943  26.272  34.605  1.00  0.00     0.135 A 
ATOM     80  F   UNL A   1      48.220  28.670  32.182  1.00  0.00    -0.206 F 
ATOM     81  C   UNL A   1      49.353  27.425  33.818  1.00  0.00     0.059 A 
ATOM     82  C   UNL A   1      48.113  25.927  35.273  1.00  0.00     0.059 A 
ATOM     83  F   UNL A   1      45.796  25.702  35.007  1.00  0.00    -0.206 F 
ATOM     84  C   UNL A   1      49.316  26.503  34.865  1.00  0.00     0.060 A 
BRANCH  84  85
ATOM     85  S   UNL A   1      50.857  26.090  35.710  1.00  0.00     0.124 S 
ATOM     86  O   UNL A   1      50.452  24.949  36.524  1.00  0.00    -0.237 OA
ATOM     87  O   UNL A   1      51.753  25.790  34.598  1.00  0.00    -0.237 OA
ATOM     88  O   UNL A   1      51.175  27.308  36.452  1.00  0.00    -0.744 OA
ENDBRANCH  84  85
ENDBRANCH  52  77
ENDBRANCH  26  27
ENDBRANCH  18  21
ENDBRANCH  16  17
ENDBRANCH   1  16
TORSDOF 16
ENDMDL
