MODEL 1
REMARK VINA RESULT:     -10.9      0.000      0.000
REMARK SMILES CCNC(=O)c1ccc(N(CC(=O)NCCCNC(=O)c2ccc(-c3c4nc(c(-c5c(F)cc(S(=O)(=O)[O-])cc5F)c5ccc([nH]5)c(-c5c(F)cc(S(=O)(=O)[O-])cc5F)c5nc(c(-c6c(F)cc(S(=O)(=O)[O-])cc6F)c6ccc3[nH]6)C=C5)C=C4)cc2)C(C)(C)C)nn1
REMARK SMILES IDX 15 1 14 2 12 3 13 4 11 6 10 7 9 8 6 9 7 10 92 11 8 12 91 13
REMARK SMILES IDX 4 14 3 15 5 17 2 18 1 19 87 20 88 21 89 22 90 23 16 24 17 25
REMARK SMILES IDX 18 26 19 27 20 29 21 30 22 31 86 32 23 33 85 34 24 35 25 36
REMARK SMILES IDX 26 37 79 38 27 39 84 40 78 41 80 42 28 43 83 44 77 45 76 46
REMARK SMILES IDX 29 48 63 49 42 50 62 51 43 52 46 53 61 54 81 55 44 56 45 57
REMARK SMILES IDX 60 59 82 60 47 61 30 62 31 63 40 64 32 65 33 66 39 67 41 68
REMARK SMILES IDX 34 69 35 70 36 71 37 72 38 73 64 74 65 75 74 76 66 77 67 78
REMARK SMILES IDX 73 79 75 80 68 81 69 82 70 83 71 84 72 85 48 86 49 87 58 88
REMARK SMILES IDX 50 89 51 90 57 91 59 92 52 93 53 94 54 95 55 96 56 97
REMARK H PARENT 14 5 3 16 18 28 80 47 46 58
REMARK Flexibility Score: inf
ROOT
ATOM      1  C   UNL A   1      31.209  27.524  26.118  1.00  0.00     0.117 C 
ENDROOT
BRANCH   1   2
ATOM      2  N   UNL A   1      30.875  26.156  26.459  1.00  0.00    -0.354 N 
ATOM      3  C   UNL A   1      30.681  25.083  25.642  1.00  0.00     0.239 C 
ATOM      4  O   UNL A   1      30.596  23.974  26.184  1.00  0.00    -0.273 OA
ATOM      5  H   UNL A   1      30.772  25.976  27.422  1.00  0.00     0.163 HD
BRANCH   3   6
ATOM      6  C   UNL A   1      30.633  25.223  24.112  1.00  0.00     0.218 C 
BRANCH   6   7
ATOM      7  N   UNL A   1      31.964  25.357  23.450  1.00  0.00    -0.341 N 
BRANCH   7   8
ATOM      8  C   UNL A   1      32.867  24.332  23.761  1.00  0.00     0.152 A 
ATOM      9  C   UNL A   1      34.437  22.131  24.483  1.00  0.00     0.150 A 
ATOM     10  C   UNL A   1      34.764  23.377  24.965  1.00  0.00     0.040 A 
ATOM     11  N   UNL A   1      33.437  21.983  23.602  1.00  0.00    -0.143 NA
ATOM     12  C   UNL A   1      33.950  24.465  24.624  1.00  0.00     0.051 A 
ATOM     13  N   UNL A   1      32.683  23.097  23.239  1.00  0.00    -0.132 NA
BRANCH   9  14
ATOM     14  C   UNL A   1      35.134  20.898  24.925  1.00  0.00     0.271 C 
ATOM     15  N   UNL A   1      34.412  19.816  25.385  1.00  0.00    -0.351 N 
ATOM     16  H   UNL A   1      34.953  19.084  25.758  1.00  0.00     0.163 HD
ATOM     17  O   UNL A   1      36.361  20.830  24.882  1.00  0.00    -0.267 OA
BRANCH  15  18
ATOM     18  C   UNL A   1      32.973  19.589  25.406  1.00  0.00     0.113 C 
ATOM     19  C   UNL A   1      32.579  18.441  24.497  1.00  0.00     0.027 C 
ENDBRANCH  15  18
ENDBRANCH   9  14
ENDBRANCH   7   8
BRANCH   7  20
ATOM     20  C   UNL A   1      32.180  26.405  22.394  1.00  0.00     0.034 C 
ATOM     21  C   UNL A   1      32.356  25.746  21.009  1.00  0.00     0.034 C 
ATOM     22  C   UNL A   1      31.048  27.457  22.411  1.00  0.00     0.034 C 
ATOM     23  C   UNL A   1      33.471  27.241  22.598  1.00  0.00     0.034 C 
ENDBRANCH   7  20
ENDBRANCH   6   7
ENDBRANCH   3   6
ENDBRANCH   1   2
BRANCH   1  24
ATOM     24  C   UNL A   1      32.708  27.801  26.167  1.00  0.00     0.042 C 
BRANCH  24  25
ATOM     25  C   UNL A   1      33.192  28.330  27.514  1.00  0.00     0.118 C 
BRANCH  25  26
ATOM     26  N   UNL A   1      33.207  29.788  27.566  1.00  0.00    -0.352 N 
ATOM     27  C   UNL A   1      34.195  30.644  27.981  1.00  0.00     0.251 C 
ATOM     28  H   UNL A   1      32.380  30.224  27.256  1.00  0.00     0.163 HD
ATOM     29  O   UNL A   1      33.937  31.836  28.154  1.00  0.00    -0.269 OA
BRANCH  27  30
ATOM     30  C   UNL A   1      35.560  30.141  28.242  1.00  0.00     0.039 A 
ATOM     31  C   UNL A   1      36.484  30.111  27.194  1.00  0.00     0.014 A 
ATOM     32  C   UNL A   1      35.924  29.686  29.512  1.00  0.00     0.014 A 
ATOM     33  C   UNL A   1      37.798  29.703  27.441  1.00  0.00     0.010 A 
ATOM     34  C   UNL A   1      37.249  29.341  29.770  1.00  0.00     0.010 A 
ATOM     35  C   UNL A   1      38.203  29.360  28.740  1.00  0.00    -0.014 A 
BRANCH  35  36
ATOM     36  C   UNL A   1      39.623  29.054  29.058  1.00  0.00     0.031 A 
ATOM     37  C   UNL A   1      40.519  30.118  29.631  1.00  0.00     0.074 A 
ATOM     38  C   UNL A   1      40.121  27.839  28.755  1.00  0.00     0.049 A 
ATOM     39  N   UNL A   1      41.808  30.081  29.848  1.00  0.00    -0.248 NA
ATOM     40  C   UNL A   1      39.886  31.399  29.988  1.00  0.00     0.031 C 
ATOM     41  C   UNL A   1      39.358  26.729  28.178  1.00  0.00     0.029 A 
ATOM     42  N   UNL A   1      41.393  27.334  28.875  1.00  0.00    -0.354 N 
ATOM     43  C   UNL A   1      42.142  31.326  30.369  1.00  0.00     0.074 A 
ATOM     44  C   UNL A   1      40.929  32.116  30.383  1.00  0.00     0.031 C 
ATOM     45  C   UNL A   1      40.172  25.675  28.006  1.00  0.00     0.029 A 
ATOM     46  C   UNL A   1      41.524  26.047  28.409  1.00  0.00     0.049 A 
ATOM     47  H   UNL A   1      42.142  27.848  29.257  1.00  0.00     0.167 HD
ATOM     48  C   UNL A   1      43.344  31.761  30.817  1.00  0.00     0.037 A 
ATOM     49  C   UNL A   1      42.614  25.262  28.295  1.00  0.00     0.037 A 
ATOM     50  C   UNL A   1      44.545  30.967  30.808  1.00  0.00     0.049 A 
ATOM     51  C   UNL A   1      43.953  25.797  28.733  1.00  0.00     0.074 A 
ATOM     52  C   UNL A   1      45.806  31.310  31.266  1.00  0.00     0.029 A 
ATOM     53  N   UNL A   1      44.637  29.672  30.320  1.00  0.00    -0.354 N 
ATOM     54  N   UNL A   1      44.240  26.962  29.263  1.00  0.00    -0.248 NA
ATOM     55  C   UNL A   1      45.116  24.917  28.550  1.00  0.00     0.031 C 
ATOM     56  C   UNL A   1      46.670  30.241  31.012  1.00  0.00     0.029 A 
ATOM     57  C   UNL A   1      45.938  29.212  30.441  1.00  0.00     0.049 A 
ATOM     58  H   UNL A   1      43.888  29.155  29.943  1.00  0.00     0.167 HD
ATOM     59  C   UNL A   1      45.610  26.942  29.502  1.00  0.00     0.074 A 
ATOM     60  C   UNL A   1      46.092  25.647  29.073  1.00  0.00     0.031 C 
ATOM     61  C   UNL A   1      46.399  27.912  30.025  1.00  0.00     0.037 A 
BRANCH  48  62
ATOM     62  C   UNL A   1      43.423  33.156  31.374  1.00  0.00     0.058 A 
ATOM     63  C   UNL A   1      43.248  33.405  32.745  1.00  0.00     0.135 A 
ATOM     64  C   UNL A   1      43.747  34.244  30.548  1.00  0.00     0.135 A 
ATOM     65  F   UNL A   1      42.923  32.404  33.578  1.00  0.00    -0.206 F 
ATOM     66  C   UNL A   1      43.375  34.685  33.273  1.00  0.00     0.059 A 
ATOM     67  C   UNL A   1      43.907  35.529  31.059  1.00  0.00     0.059 A 
ATOM     68  F   UNL A   1      43.925  34.061  29.229  1.00  0.00    -0.206 F 
ATOM     69  C   UNL A   1      43.710  35.740  32.423  1.00  0.00     0.060 A 
BRANCH  69  70
ATOM     70  S   UNL A   1      43.898  37.389  33.135  1.00  0.00     0.124 S 
ATOM     71  O   UNL A   1      42.761  37.443  34.048  1.00  0.00    -0.237 OA
ATOM     72  O   UNL A   1      45.212  37.307  33.764  1.00  0.00    -0.237 OA
ATOM     73  O   UNL A   1      43.813  38.272  31.976  1.00  0.00    -0.744 OA
ENDBRANCH  69  70
ENDBRANCH  48  62
BRANCH  49  74
ATOM     74  C   UNL A   1      42.501  23.889  27.731  1.00  0.00     0.058 A 
ATOM     75  C   UNL A   1      42.439  22.767  28.572  1.00  0.00     0.135 A 
ATOM     76  C   UNL A   1      42.485  23.668  26.345  1.00  0.00     0.135 A 
ATOM     77  F   UNL A   1      42.458  22.926  29.904  1.00  0.00    -0.206 F 
ATOM     78  C   UNL A   1      42.399  21.474  28.061  1.00  0.00     0.059 A 
ATOM     79  C   UNL A   1      42.415  22.385  25.811  1.00  0.00     0.059 A 
ATOM     80  F   UNL A   1      42.522  24.706  25.495  1.00  0.00    -0.206 F 
ATOM     81  C   UNL A   1      42.390  21.295  26.677  1.00  0.00     0.060 A 
BRANCH  81  82
ATOM     82  S   UNL A   1      42.321  19.614  26.020  1.00  0.00     0.124 S 
ATOM     83  O   UNL A   1      42.800  18.836  27.156  1.00  0.00    -0.237 OA
ATOM     84  O   UNL A   1      40.905  19.471  25.695  1.00  0.00    -0.237 OA
ATOM     85  O   UNL A   1      43.217  19.671  24.868  1.00  0.00    -0.744 OA
ENDBRANCH  81  82
ENDBRANCH  49  74
BRANCH  61  86
ATOM     86  C   UNL A   1      47.861  27.606  30.193  1.00  0.00     0.058 A 
ATOM     87  C   UNL A   1      48.346  26.941  31.330  1.00  0.00     0.135 A 
ATOM     88  C   UNL A   1      48.776  27.913  29.171  1.00  0.00     0.135 A 
ATOM     89  F   UNL A   1      47.516  26.638  32.340  1.00  0.00    -0.206 F 
ATOM     90  C   UNL A   1      49.688  26.594  31.449  1.00  0.00     0.059 A 
ATOM     91  C   UNL A   1      50.116  27.550  29.258  1.00  0.00     0.059 A 
ATOM     92  F   UNL A   1      48.361  28.544  28.060  1.00  0.00    -0.206 F 
ATOM     93  C   UNL A   1      50.563  26.894  30.404  1.00  0.00     0.060 A 
BRANCH  93  94
ATOM     94  S   UNL A   1      52.286  26.374  30.547  1.00  0.00     0.124 S 
ATOM     95  O   UNL A   1      52.167  25.187  31.386  1.00  0.00    -0.237 OA
ATOM     96  O   UNL A   1      52.652  26.133  29.155  1.00  0.00    -0.237 OA
ATOM     97  O   UNL A   1      52.937  27.522  31.170  1.00  0.00    -0.744 OA
ENDBRANCH  93  94
ENDBRANCH  61  86
ENDBRANCH  35  36
ENDBRANCH  27  30
ENDBRANCH  25  26
ENDBRANCH  24  25
ENDBRANCH   1  24
TORSDOF 18
ENDMDL
MODEL 2
REMARK VINA RESULT:     -10.9      3.551      7.843
REMARK SMILES CCNC(=O)c1ccc(N(CC(=O)NCCCNC(=O)c2ccc(-c3c4nc(c(-c5c(F)cc(S(=O)(=O)[O-])cc5F)c5ccc([nH]5)c(-c5c(F)cc(S(=O)(=O)[O-])cc5F)c5nc(c(-c6c(F)cc(S(=O)(=O)[O-])cc6F)c6ccc3[nH]6)C=C5)C=C4)cc2)C(C)(C)C)nn1
REMARK SMILES IDX 15 1 14 2 12 3 13 4 11 6 10 7 9 8 6 9 7 10 92 11 8 12 91 13
REMARK SMILES IDX 4 14 3 15 5 17 2 18 1 19 87 20 88 21 89 22 90 23 16 24 17 25
REMARK SMILES IDX 18 26 19 27 20 29 21 30 22 31 86 32 23 33 85 34 24 35 25 36
REMARK SMILES IDX 26 37 79 38 27 39 84 40 78 41 80 42 28 43 83 44 77 45 76 46
REMARK SMILES IDX 29 48 63 49 42 50 62 51 43 52 46 53 61 54 81 55 44 56 45 57
REMARK SMILES IDX 60 59 82 60 47 61 30 62 31 63 40 64 32 65 33 66 39 67 41 68
REMARK SMILES IDX 34 69 35 70 36 71 37 72 38 73 64 74 65 75 74 76 66 77 67 78
REMARK SMILES IDX 73 79 75 80 68 81 69 82 70 83 71 84 72 85 48 86 49 87 58 88
REMARK SMILES IDX 50 89 51 90 57 91 59 92 52 93 53 94 54 95 55 96 56 97
REMARK H PARENT 14 5 3 16 18 28 80 47 46 58
REMARK Flexibility Score: inf
ROOT
ATOM      1  C   UNL A   1      37.412  22.203  25.059  1.00  0.00     0.117 C 
ENDROOT
BRANCH   1   2
ATOM      2  N   UNL A   1      36.705  22.408  23.811  1.00  0.00    -0.354 N 
ATOM      3  C   UNL A   1      35.444  22.879  23.598  1.00  0.00     0.239 C 
ATOM      4  O   UNL A   1      35.135  23.147  22.431  1.00  0.00    -0.273 OA
ATOM      5  H   UNL A   1      37.209  22.172  22.998  1.00  0.00     0.163 HD
BRANCH   3   6
ATOM      6  C   UNL A   1      34.464  23.130  24.755  1.00  0.00     0.218 C 
BRANCH   6   7
ATOM      7  N   UNL A   1      33.132  22.474  24.605  1.00  0.00    -0.341 N 
BRANCH   7   8
ATOM      8  C   UNL A   1      33.192  21.090  24.395  1.00  0.00     0.152 A 
ATOM      9  C   UNL A   1      33.586  18.371  23.862  1.00  0.00     0.150 A 
ATOM     10  C   UNL A   1      32.467  18.998  23.366  1.00  0.00     0.040 A 
ATOM     11  N   UNL A   1      34.432  19.026  24.670  1.00  0.00    -0.143 NA
ATOM     12  C   UNL A   1      32.299  20.367  23.612  1.00  0.00     0.051 A 
ATOM     13  N   UNL A   1      34.204  20.374  24.941  1.00  0.00    -0.132 NA
BRANCH   9  14
ATOM     14  C   UNL A   1      33.935  16.972  23.513  1.00  0.00     0.271 C 
ATOM     15  N   UNL A   1      33.849  15.974  24.462  1.00  0.00    -0.351 N 
ATOM     16  H   UNL A   1      34.200  15.100  24.178  1.00  0.00     0.163 HD
ATOM     17  O   UNL A   1      34.301  16.690  22.373  1.00  0.00    -0.267 OA
BRANCH  15  18
ATOM     18  C   UNL A   1      33.320  16.013  25.819  1.00  0.00     0.113 C 
ATOM     19  C   UNL A   1      32.048  15.198  25.942  1.00  0.00     0.027 C 
ENDBRANCH  15  18
ENDBRANCH   9  14
ENDBRANCH   7   8
BRANCH   7  20
ATOM     20  C   UNL A   1      31.872  23.250  24.873  1.00  0.00     0.034 C 
ATOM     21  C   UNL A   1      31.133  23.549  23.550  1.00  0.00     0.034 C 
ATOM     22  C   UNL A   1      30.977  22.523  25.901  1.00  0.00     0.034 C 
ATOM     23  C   UNL A   1      32.119  24.643  25.508  1.00  0.00     0.034 C 
ENDBRANCH   7  20
ENDBRANCH   6   7
ENDBRANCH   3   6
ENDBRANCH   1   2
BRANCH   1  24
ATOM     24  C   UNL A   1      38.231  20.916  25.075  1.00  0.00     0.042 C 
BRANCH  24  25
ATOM     25  C   UNL A   1      39.183  20.807  26.264  1.00  0.00     0.118 C 
BRANCH  25  26
ATOM     26  N   UNL A   1      40.131  19.709  26.117  1.00  0.00    -0.352 N 
ATOM     27  C   UNL A   1      41.501  19.732  26.043  1.00  0.00     0.251 C 
ATOM     28  H   UNL A   1      39.726  18.813  26.062  1.00  0.00     0.163 HD
ATOM     29  O   UNL A   1      42.111  18.719  25.702  1.00  0.00    -0.269 OA
BRANCH  27  30
ATOM     30  C   UNL A   1      42.245  20.971  26.351  1.00  0.00     0.039 A 
ATOM     31  C   UNL A   1      42.642  21.805  25.301  1.00  0.00     0.014 A 
ATOM     32  C   UNL A   1      42.565  21.304  27.670  1.00  0.00     0.014 A 
ATOM     33  C   UNL A   1      43.285  23.014  25.582  1.00  0.00     0.010 A 
ATOM     34  C   UNL A   1      43.148  22.538  27.951  1.00  0.00     0.010 A 
ATOM     35  C   UNL A   1      43.500  23.412  26.910  1.00  0.00    -0.014 A 
BRANCH  35  36
ATOM     36  C   UNL A   1      44.058  24.750  27.241  1.00  0.00     0.031 A 
ATOM     37  C   UNL A   1      43.151  25.856  27.710  1.00  0.00     0.074 A 
ATOM     38  C   UNL A   1      45.370  24.988  27.042  1.00  0.00     0.049 A 
ATOM     39  N   UNL A   1      43.428  27.116  27.918  1.00  0.00    -0.248 NA
ATOM     40  C   UNL A   1      41.744  25.500  27.958  1.00  0.00     0.031 C 
ATOM     41  C   UNL A   1      46.348  24.004  26.572  1.00  0.00     0.029 A 
ATOM     42  N   UNL A   1      46.108  26.136  27.194  1.00  0.00    -0.354 N 
ATOM     43  C   UNL A   1      42.237  27.706  28.324  1.00  0.00     0.074 A 
ATOM     44  C   UNL A   1      41.221  26.675  28.280  1.00  0.00     0.031 C 
ATOM     45  C   UNL A   1      47.555  24.586  26.486  1.00  0.00     0.029 A 
ATOM     46  C   UNL A   1      47.430  25.995  26.842  1.00  0.00     0.049 A 
ATOM     47  H   UNL A   1      45.725  26.982  27.522  1.00  0.00     0.167 HD
ATOM     48  C   UNL A   1      42.016  28.981  28.721  1.00  0.00     0.037 A 
ATOM     49  C   UNL A   1      48.425  26.903  26.788  1.00  0.00     0.037 A 
ATOM     50  C   UNL A   1      43.033  30.000  28.772  1.00  0.00     0.049 A 
ATOM     51  C   UNL A   1      48.134  28.333  27.165  1.00  0.00     0.074 A 
ATOM     52  C   UNL A   1      42.913  31.315  29.186  1.00  0.00     0.029 A 
ATOM     53  N   UNL A   1      44.356  29.818  28.399  1.00  0.00    -0.354 N 
ATOM     54  N   UNL A   1      47.011  28.861  27.588  1.00  0.00    -0.248 NA
ATOM     55  C   UNL A   1      49.243  29.292  27.050  1.00  0.00     0.031 C 
ATOM     56  C   UNL A   1      44.151  31.942  29.019  1.00  0.00     0.029 A 
ATOM     57  C   UNL A   1      45.057  31.004  28.548  1.00  0.00     0.049 A 
ATOM     58  H   UNL A   1      44.742  28.972  28.076  1.00  0.00     0.167 HD
ATOM     59  C   UNL A   1      47.285  30.205  27.816  1.00  0.00     0.074 A 
ATOM     60  C   UNL A   1      48.683  30.407  27.498  1.00  0.00     0.031 C 
ATOM     61  C   UNL A   1      46.454  31.186  28.244  1.00  0.00     0.037 A 
BRANCH  48  62
ATOM     62  C   UNL A   1      40.623  29.353  29.153  1.00  0.00     0.058 A 
ATOM     63  C   UNL A   1      40.304  29.536  30.508  1.00  0.00     0.135 A 
ATOM     64  C   UNL A   1      39.617  29.597  28.204  1.00  0.00     0.135 A 
ATOM     65  F   UNL A   1      41.224  29.303  31.457  1.00  0.00    -0.206 F 
ATOM     66  C   UNL A   1      39.033  29.933  30.908  1.00  0.00     0.059 A 
ATOM     67  C   UNL A   1      38.345  30.021  28.580  1.00  0.00     0.059 A 
ATOM     68  F   UNL A   1      39.869  29.436  26.895  1.00  0.00    -0.206 F 
ATOM     69  C   UNL A   1      38.061  30.178  29.936  1.00  0.00     0.060 A 
BRANCH  69  70
ATOM     70  S   UNL A   1      36.426  30.720  30.476  1.00  0.00     0.124 S 
ATOM     71  O   UNL A   1      35.643  30.542  29.257  1.00  0.00    -0.237 OA
ATOM     72  O   UNL A   1      36.132  29.787  31.559  1.00  0.00    -0.237 OA
ATOM     73  O   UNL A   1      36.643  32.104  30.885  1.00  0.00    -0.744 OA
ENDBRANCH  69  70
ENDBRANCH  48  62
BRANCH  49  74
ATOM     74  C   UNL A   1      49.789  26.504  26.349  1.00  0.00     0.058 A 
ATOM     75  C   UNL A   1      50.709  25.956  27.257  1.00  0.00     0.135 A 
ATOM     76  C   UNL A   1      50.214  26.689  25.023  1.00  0.00     0.135 A 
ATOM     77  F   UNL A   1      50.352  25.765  28.536  1.00  0.00    -0.206 F 
ATOM     78  C   UNL A   1      52.008  25.638  26.878  1.00  0.00     0.059 A 
ATOM     79  C   UNL A   1      51.499  26.351  24.613  1.00  0.00     0.059 A 
ATOM     80  F   UNL A   1      49.369  27.190  24.108  1.00  0.00    -0.206 F 
ATOM     81  C   UNL A   1      52.394  25.843  25.552  1.00  0.00     0.060 A 
BRANCH  81  82
ATOM     82  S   UNL A   1      54.078  25.411  25.062  1.00  0.00     0.124 S 
ATOM     83  O   UNL A   1      54.162  26.022  23.740  1.00  0.00    -0.237 OA
ATOM     84  O   UNL A   1      54.873  26.039  26.112  1.00  0.00    -0.237 OA
ATOM     85  O   UNL A   1      54.065  23.951  25.085  1.00  0.00    -0.744 OA
ENDBRANCH  81  82
ENDBRANCH  49  74
BRANCH  61  86
ATOM     86  C   UNL A   1      47.032  32.561  28.425  1.00  0.00     0.058 A 
ATOM     87  C   UNL A   1      47.014  33.507  27.388  1.00  0.00     0.135 A 
ATOM     88  C   UNL A   1      47.537  32.964  29.673  1.00  0.00     0.135 A 
ATOM     89  F   UNL A   1      46.555  33.168  26.173  1.00  0.00    -0.206 F 
ATOM     90  C   UNL A   1      47.482  34.802  27.580  1.00  0.00     0.059 A 
ATOM     91  C   UNL A   1      47.984  34.262  29.895  1.00  0.00     0.059 A 
ATOM     92  F   UNL A   1      47.570  32.099  30.700  1.00  0.00    -0.206 F 
ATOM     93  C   UNL A   1      47.956  35.174  28.840  1.00  0.00     0.060 A 
BRANCH  93  94
ATOM     94  S   UNL A   1      48.494  36.878  29.090  1.00  0.00     0.124 S 
ATOM     95  O   UNL A   1      48.329  37.031  30.531  1.00  0.00    -0.237 OA
ATOM     96  O   UNL A   1      49.872  36.841  28.610  1.00  0.00    -0.237 OA
ATOM     97  O   UNL A   1      47.570  37.652  28.266  1.00  0.00    -0.744 OA
ENDBRANCH  93  94
ENDBRANCH  61  86
ENDBRANCH  35  36
ENDBRANCH  27  30
ENDBRANCH  25  26
ENDBRANCH  24  25
ENDBRANCH   1  24
TORSDOF 18
ENDMDL
MODEL 3
REMARK VINA RESULT:     -10.9      5.003      9.912
REMARK SMILES CCNC(=O)c1ccc(N(CC(=O)NCCCNC(=O)c2ccc(-c3c4nc(c(-c5c(F)cc(S(=O)(=O)[O-])cc5F)c5ccc([nH]5)c(-c5c(F)cc(S(=O)(=O)[O-])cc5F)c5nc(c(-c6c(F)cc(S(=O)(=O)[O-])cc6F)c6ccc3[nH]6)C=C5)C=C4)cc2)C(C)(C)C)nn1
REMARK SMILES IDX 15 1 14 2 12 3 13 4 11 6 10 7 9 8 6 9 7 10 92 11 8 12 91 13
REMARK SMILES IDX 4 14 3 15 5 17 2 18 1 19 87 20 88 21 89 22 90 23 16 24 17 25
REMARK SMILES IDX 18 26 19 27 20 29 21 30 22 31 86 32 23 33 85 34 24 35 25 36
REMARK SMILES IDX 26 37 79 38 27 39 84 40 78 41 80 42 28 43 83 44 77 45 76 46
REMARK SMILES IDX 29 48 63 49 42 50 62 51 43 52 46 53 61 54 81 55 44 56 45 57
REMARK SMILES IDX 60 59 82 60 47 61 30 62 31 63 40 64 32 65 33 66 39 67 41 68
REMARK SMILES IDX 34 69 35 70 36 71 37 72 38 73 64 74 65 75 74 76 66 77 67 78
REMARK SMILES IDX 73 79 75 80 68 81 69 82 70 83 71 84 72 85 48 86 49 87 58 88
REMARK SMILES IDX 50 89 51 90 57 91 59 92 52 93 53 94 54 95 55 96 56 97
REMARK H PARENT 14 5 3 16 18 28 80 47 46 58
REMARK Flexibility Score: inf
ROOT
ATOM      1  C   UNL A   1      37.719  23.005  25.608  1.00  0.00     0.117 C 
ENDROOT
BRANCH   1   2
ATOM      2  N   UNL A   1      36.582  22.958  26.505  1.00  0.00    -0.354 N 
ATOM      3  C   UNL A   1      35.251  22.953  26.214  1.00  0.00     0.239 C 
ATOM      4  O   UNL A   1      34.474  22.713  27.146  1.00  0.00    -0.273 OA
ATOM      5  H   UNL A   1      36.803  22.927  27.464  1.00  0.00     0.163 HD
BRANCH   3   6
ATOM      6  C   UNL A   1      34.729  23.171  24.785  1.00  0.00     0.218 C 
BRANCH   6   7
ATOM      7  N   UNL A   1      33.358  23.753  24.697  1.00  0.00    -0.341 N 
BRANCH   7   8
ATOM      8  C   UNL A   1      33.316  25.149  24.805  1.00  0.00     0.152 A 
ATOM      9  C   UNL A   1      32.936  27.910  25.057  1.00  0.00     0.150 A 
ATOM     10  C   UNL A   1      33.598  27.420  23.956  1.00  0.00     0.040 A 
ATOM     11  N   UNL A   1      32.559  27.087  26.046  1.00  0.00    -0.143 NA
ATOM     12  C   UNL A   1      33.752  26.034  23.825  1.00  0.00     0.051 A 
ATOM     13  N   UNL A   1      32.779  25.718  25.910  1.00  0.00    -0.132 NA
BRANCH   9  14
ATOM     14  C   UNL A   1      32.576  29.342  25.198  1.00  0.00     0.271 C 
ATOM     15  N   UNL A   1      31.466  29.848  24.554  1.00  0.00    -0.351 N 
ATOM     16  H   UNL A   1      31.361  30.825  24.612  1.00  0.00     0.163 HD
ATOM     17  O   UNL A   1      33.263  30.089  25.893  1.00  0.00    -0.267 OA
BRANCH  15  18
ATOM     18  C   UNL A   1      30.425  29.163  23.800  1.00  0.00     0.113 C 
ATOM     19  C   UNL A   1      30.716  29.180  22.311  1.00  0.00     0.027 C 
ENDBRANCH  15  18
ENDBRANCH   9  14
ENDBRANCH   7   8
BRANCH   7  20
ATOM     20  C   UNL A   1      32.191  22.883  24.318  1.00  0.00     0.034 C 
ATOM     21  C   UNL A   1      31.188  23.675  23.452  1.00  0.00     0.034 C 
ATOM     22  C   UNL A   1      32.665  21.580  23.635  1.00  0.00     0.034 C 
ATOM     23  C   UNL A   1      31.359  22.390  25.530  1.00  0.00     0.034 C 
ENDBRANCH   7  20
ENDBRANCH   6   7
ENDBRANCH   3   6
ENDBRANCH   1   2
BRANCH   1  24
ATOM     24  C   UNL A   1      38.988  22.425  26.225  1.00  0.00     0.042 C 
BRANCH  24  25
ATOM     25  C   UNL A   1      39.865  23.464  26.920  1.00  0.00     0.118 C 
BRANCH  25  26
ATOM     26  N   UNL A   1      40.614  24.283  25.973  1.00  0.00    -0.352 N 
ATOM     27  C   UNL A   1      41.030  25.586  26.073  1.00  0.00     0.251 C 
ATOM     28  H   UNL A   1      40.856  23.831  25.132  1.00  0.00     0.163 HD
ATOM     29  O   UNL A   1      41.462  26.167  25.077  1.00  0.00    -0.269 OA
BRANCH  27  30
ATOM     30  C   UNL A   1      40.946  26.301  27.364  1.00  0.00     0.039 A 
ATOM     31  C   UNL A   1      41.952  27.210  27.705  1.00  0.00     0.014 A 
ATOM     32  C   UNL A   1      39.886  26.066  28.244  1.00  0.00     0.014 A 
ATOM     33  C   UNL A   1      41.850  27.944  28.889  1.00  0.00     0.010 A 
ATOM     34  C   UNL A   1      39.754  26.844  29.392  1.00  0.00     0.010 A 
ATOM     35  C   UNL A   1      40.726  27.802  29.719  1.00  0.00    -0.014 A 
BRANCH  35  36
ATOM     36  C   UNL A   1      40.525  28.665  30.912  1.00  0.00     0.031 A 
ATOM     37  C   UNL A   1      39.518  29.783  30.879  1.00  0.00     0.074 A 
ATOM     38  C   UNL A   1      41.307  28.489  31.996  1.00  0.00     0.049 A 
ATOM     39  N   UNL A   1      39.295  30.717  31.766  1.00  0.00    -0.248 NA
ATOM     40  C   UNL A   1      38.664  29.872  29.684  1.00  0.00     0.031 C 
ATOM     41  C   UNL A   1      42.333  27.453  32.141  1.00  0.00     0.029 A 
ATOM     42  N   UNL A   1      41.375  29.186  33.178  1.00  0.00    -0.354 N 
ATOM     43  C   UNL A   1      38.276  31.504  31.242  1.00  0.00     0.074 A 
ATOM     44  C   UNL A   1      37.962  30.970  29.934  1.00  0.00     0.031 C 
ATOM     45  C   UNL A   1      42.917  27.575  33.345  1.00  0.00     0.029 A 
ATOM     46  C   UNL A   1      42.348  28.727  34.035  1.00  0.00     0.049 A 
ATOM     47  H   UNL A   1      40.784  29.944  33.390  1.00  0.00     0.167 HD
ATOM     48  C   UNL A   1      37.644  32.559  31.810  1.00  0.00     0.037 A 
ATOM     49  C   UNL A   1      42.753  29.196  35.232  1.00  0.00     0.037 A 
ATOM     50  C   UNL A   1      37.955  33.080  33.115  1.00  0.00     0.049 A 
ATOM     51  C   UNL A   1      42.083  30.416  35.808  1.00  0.00     0.074 A 
ATOM     52  C   UNL A   1      37.353  34.129  33.788  1.00  0.00     0.029 A 
ATOM     53  N   UNL A   1      38.953  32.594  33.947  1.00  0.00    -0.354 N 
ATOM     54  N   UNL A   1      41.091  31.119  35.316  1.00  0.00    -0.248 NA
ATOM     55  C   UNL A   1      42.590  30.911  37.096  1.00  0.00     0.031 C 
ATOM     56  C   UNL A   1      38.015  34.307  35.006  1.00  0.00     0.029 A 
ATOM     57  C   UNL A   1      38.999  33.337  35.115  1.00  0.00     0.049 A 
ATOM     58  H   UNL A   1      39.541  31.832  33.739  1.00  0.00     0.167 HD
ATOM     59  C   UNL A   1      40.838  32.121  36.247  1.00  0.00     0.074 A 
ATOM     60  C   UNL A   1      41.770  31.925  37.337  1.00  0.00     0.031 C 
ATOM     61  C   UNL A   1      39.921  33.118  36.201  1.00  0.00     0.037 A 
BRANCH  48  62
ATOM     62  C   UNL A   1      36.535  33.216  31.033  1.00  0.00     0.058 A 
ATOM     63  C   UNL A   1      35.192  33.069  31.414  1.00  0.00     0.135 A 
ATOM     64  C   UNL A   1      36.819  34.055  29.943  1.00  0.00     0.135 A 
ATOM     65  F   UNL A   1      34.863  32.267  32.439  1.00  0.00    -0.206 F 
ATOM     66  C   UNL A   1      34.169  33.718  30.732  1.00  0.00     0.059 A 
ATOM     67  C   UNL A   1      35.813  34.736  29.264  1.00  0.00     0.059 A 
ATOM     68  F   UNL A   1      38.087  34.230  29.537  1.00  0.00    -0.206 F 
ATOM     69  C   UNL A   1      34.489  34.554  29.661  1.00  0.00     0.060 A 
BRANCH  69  70
ATOM     70  S   UNL A   1      33.147  35.409  28.809  1.00  0.00     0.124 S 
ATOM     71  O   UNL A   1      32.550  34.321  28.041  1.00  0.00    -0.237 OA
ATOM     72  O   UNL A   1      32.346  35.914  29.920  1.00  0.00    -0.237 OA
ATOM     73  O   UNL A   1      33.837  36.427  28.023  1.00  0.00    -0.744 OA
ENDBRANCH  69  70
ENDBRANCH  48  62
BRANCH  49  74
ATOM     74  C   UNL A   1      43.859  28.527  35.970  1.00  0.00     0.058 A 
ATOM     75  C   UNL A   1      43.598  27.479  36.867  1.00  0.00     0.135 A 
ATOM     76  C   UNL A   1      45.193  28.940  35.820  1.00  0.00     0.135 A 
ATOM     77  F   UNL A   1      42.339  27.053  37.049  1.00  0.00    -0.206 F 
ATOM     78  C   UNL A   1      44.612  26.887  37.612  1.00  0.00     0.059 A 
ATOM     79  C   UNL A   1      46.227  28.343  36.533  1.00  0.00     0.059 A 
ATOM     80  F   UNL A   1      45.502  29.923  34.961  1.00  0.00    -0.206 F 
ATOM     81  C   UNL A   1      45.924  27.330  37.440  1.00  0.00     0.060 A 
BRANCH  81  82
ATOM     82  S   UNL A   1      47.238  26.545  38.398  1.00  0.00     0.124 S 
ATOM     83  O   UNL A   1      48.271  26.366  37.385  1.00  0.00    -0.237 OA
ATOM     84  O   UNL A   1      47.510  27.548  39.423  1.00  0.00    -0.237 OA
ATOM     85  O   UNL A   1      46.608  25.320  38.884  1.00  0.00    -0.744 OA
ENDBRANCH  81  82
ENDBRANCH  49  74
BRANCH  61  86
ATOM     86  C   UNL A   1      39.853  34.059  37.371  1.00  0.00     0.058 A 
ATOM     87  C   UNL A   1      40.556  35.273  37.377  1.00  0.00     0.135 A 
ATOM     88  C   UNL A   1      39.014  33.779  38.463  1.00  0.00     0.135 A 
ATOM     89  F   UNL A   1      41.381  35.581  36.365  1.00  0.00    -0.206 F 
ATOM     90  C   UNL A   1      40.434  36.176  38.429  1.00  0.00     0.059 A 
ATOM     91  C   UNL A   1      38.856  34.680  39.511  1.00  0.00     0.059 A 
ATOM     92  F   UNL A   1      38.315  32.633  38.502  1.00  0.00    -0.206 F 
ATOM     93  C   UNL A   1      39.574  35.875  39.486  1.00  0.00     0.060 A 
BRANCH  93  94
ATOM     94  S   UNL A   1      39.374  37.089  40.807  1.00  0.00     0.124 S 
ATOM     95  O   UNL A   1      38.431  38.026  40.206  1.00  0.00    -0.237 OA
ATOM     96  O   UNL A   1      38.850  36.274  41.899  1.00  0.00    -0.237 OA
ATOM     97  O   UNL A   1      40.727  37.600  41.007  1.00  0.00    -0.744 OA
ENDBRANCH  93  94
ENDBRANCH  61  86
ENDBRANCH  35  36
ENDBRANCH  27  30
ENDBRANCH  25  26
ENDBRANCH  24  25
ENDBRANCH   1  24
TORSDOF 18
ENDMDL
