MODEL 1
REMARK VINA RESULT:     -14.3      0.000      0.000
REMARK SMILES Cc1cc([N+](=O)[O-])ccc1NC(=O)[C@@H]1[C@@H](C(=O)NCCCNC(=O)c2ccc(-c3c4nc(c(-c5c(F)cc(S(=O)(=O)[O-])cc5F)c5ccc([nH]5)c(-c5c(F)cc(S(=O)(=O)[O-])cc5F)c5nc(c(-c6c(F)cc(S(=O)(=O)[O-])cc6F)c6ccc3[nH]6)C=C5)C=C4)cc2)[C@H]2C=C[C@@H]1C2
REMARK SMILES IDX 20 1 19 2 18 3 16 4 17 5 15 7 14 8 94 9 91 10 93 11 95 12
REMARK SMILES IDX 92 13 12 14 11 15 13 17 10 18 1 19 2 20 3 21 4 22 9 23 8 24
REMARK SMILES IDX 5 25 6 26 7 27 21 28 22 29 23 30 24 32 25 33 26 34 90 35
REMARK SMILES IDX 27 36 89 37 28 38 29 39 30 40 83 41 31 42 88 43 82 44 84 45
REMARK SMILES IDX 32 46 87 47 81 48 80 49 33 51 67 52 46 53 66 54 47 55 50 56
REMARK SMILES IDX 65 57 85 58 48 59 49 60 64 62 86 63 51 64 34 65 35 66 44 67
REMARK SMILES IDX 36 68 37 69 43 70 45 71 38 72 39 73 40 74 41 75 42 76 68 77
REMARK SMILES IDX 69 78 78 79 70 80 71 81 77 82 79 83 72 84 73 85 74 86 75 87
REMARK SMILES IDX 76 88 52 89 53 90 62 91 54 92 55 93 61 94 63 95 56 96 57 97
REMARK SMILES IDX 58 98 59 99 60 100
REMARK H PARENT 18 6 11 16 22 31 84 50 50 61
REMARK Flexibility Score: inf
ROOT
ATOM      1  C   UNL A   1      37.760  22.253  25.373  1.00  0.00     0.042 C 
ENDROOT
BRANCH   1   2
ATOM      2  C   UNL A   1      36.752  22.751  24.349  1.00  0.00     0.117 C 
BRANCH   2   3
ATOM      3  N   UNL A   1      35.986  23.884  24.852  1.00  0.00    -0.356 N 
ATOM      4  C   UNL A   1      34.780  24.407  24.524  1.00  0.00     0.224 C 
ATOM      5  O   UNL A   1      34.441  25.425  25.141  1.00  0.00    -0.275 OA
ATOM      6  H   UNL A   1      36.438  24.369  25.581  1.00  0.00     0.163 HD
BRANCH   4   7
ATOM      7  C   UNL A   1      33.900  23.877  23.391  1.00  0.00     0.098 C 
ATOM      8  C   UNL A   1      32.684  24.877  23.172  1.00  0.00     0.099 C 
ATOM      9  C   UNL A   1      31.460  23.926  23.182  1.00  0.00     0.025 C 
ATOM     10  C   UNL A   1      33.157  22.535  23.584  1.00  0.00     0.025 C 
ATOM     11  C   UNL A   1      31.292  23.431  24.598  1.00  0.00    -0.027 C 
ATOM     12  C   UNL A   1      32.038  22.662  22.550  1.00  0.00     0.017 C 
ATOM     13  C   UNL A   1      32.309  22.592  24.839  1.00  0.00    -0.027 C 
BRANCH   8  14
ATOM     14  C   UNL A   1      32.733  25.701  21.896  1.00  0.00     0.228 C 
ATOM     15  N   UNL A   1      32.657  27.074  21.919  1.00  0.00    -0.326 N 
ATOM     16  H   UNL A   1      32.691  27.482  21.024  1.00  0.00     0.169 HD
ATOM     17  O   UNL A   1      32.766  25.168  20.783  1.00  0.00    -0.274 OA
BRANCH  15  18
ATOM     18  C   UNL A   1      32.542  28.021  22.960  1.00  0.00     0.044 A 
ATOM     19  C   UNL A   1      29.982  28.136  22.622  1.00  0.00     0.047 C 
ATOM     20  C   UNL A   1      31.259  28.468  23.351  1.00  0.00    -0.021 A 
ATOM     21  C   UNL A   1      31.129  29.293  24.492  1.00  0.00     0.091 A 
ATOM     22  C   UNL A   1      32.255  29.678  25.226  1.00  0.00     0.269 A 
ATOM     23  C   UNL A   1      33.655  28.524  23.647  1.00  0.00     0.033 A 
ATOM     24  C   UNL A   1      33.525  29.321  24.787  1.00  0.00     0.088 A 
BRANCH  22  25
ATOM     25  N   UNL A   1      32.101  30.457  26.458  1.00  0.00     0.062 N 
ATOM     26  O   UNL A   1      32.729  30.083  27.459  1.00  0.00    -0.258 OA
ATOM     27  O   UNL A   1      31.363  31.452  26.423  1.00  0.00    -0.258 OA
ENDBRANCH  22  25
ENDBRANCH  15  18
ENDBRANCH   8  14
ENDBRANCH   4   7
ENDBRANCH   2   3
ENDBRANCH   1   2
BRANCH   1  28
ATOM     28  C   UNL A   1      38.320  23.406  26.195  1.00  0.00     0.118 C 
BRANCH  28  29
ATOM     29  N   UNL A   1      39.709  23.217  26.598  1.00  0.00    -0.352 N 
ATOM     30  C   UNL A   1      40.608  24.188  27.007  1.00  0.00     0.251 C 
ATOM     31  H   UNL A   1      40.047  22.293  26.576  1.00  0.00     0.163 HD
ATOM     32  O   UNL A   1      41.801  23.977  27.124  1.00  0.00    -0.269 OA
BRANCH  30  33
ATOM     33  C   UNL A   1      40.026  25.483  27.412  1.00  0.00     0.039 A 
ATOM     34  C   UNL A   1      40.361  26.601  26.638  1.00  0.00     0.014 A 
ATOM     35  C   UNL A   1      39.474  25.615  28.683  1.00  0.00     0.014 A 
ATOM     36  C   UNL A   1      40.307  27.865  27.216  1.00  0.00     0.010 A 
ATOM     37  C   UNL A   1      39.522  26.856  29.285  1.00  0.00     0.010 A 
ATOM     38  C   UNL A   1      39.973  27.974  28.567  1.00  0.00    -0.014 A 
BRANCH  38  39
ATOM     39  C   UNL A   1      40.144  29.200  29.338  1.00  0.00     0.031 A 
ATOM     40  C   UNL A   1      39.076  30.226  29.336  1.00  0.00     0.074 A 
ATOM     41  C   UNL A   1      41.242  29.372  30.108  1.00  0.00     0.049 A 
ATOM     42  N   UNL A   1      39.271  31.476  29.592  1.00  0.00    -0.248 NA
ATOM     43  C   UNL A   1      37.687  29.920  29.004  1.00  0.00     0.031 C 
ATOM     44  C   UNL A   1      41.440  30.378  31.146  1.00  0.00     0.029 A 
ATOM     45  N   UNL A   1      42.493  28.765  29.971  1.00  0.00    -0.354 N 
ATOM     46  C   UNL A   1      38.039  32.074  29.715  1.00  0.00     0.074 A 
ATOM     47  C   UNL A   1      37.084  31.076  29.296  1.00  0.00     0.031 C 
ATOM     48  C   UNL A   1      42.754  30.506  31.387  1.00  0.00     0.029 A 
ATOM     49  C   UNL A   1      43.457  29.692  30.410  1.00  0.00     0.049 A 
ATOM     50  H   UNL A   1      42.669  27.858  29.630  1.00  0.00     0.167 HD
ATOM     51  C   UNL A   1      37.933  33.310  30.280  1.00  0.00     0.037 A 
ATOM     52  C   UNL A   1      44.423  30.161  29.564  1.00  0.00     0.037 A 
ATOM     53  C   UNL A   1      39.239  33.846  30.640  1.00  0.00     0.049 A 
ATOM     54  C   UNL A   1      44.331  31.648  29.297  1.00  0.00     0.074 A 
ATOM     55  C   UNL A   1      39.963  33.818  31.820  1.00  0.00     0.029 A 
ATOM     56  N   UNL A   1      40.134  34.207  29.638  1.00  0.00    -0.354 N 
ATOM     57  N   UNL A   1      43.294  32.382  29.596  1.00  0.00    -0.248 NA
ATOM     58  C   UNL A   1      45.391  32.426  28.657  1.00  0.00     0.031 C 
ATOM     59  C   UNL A   1      41.320  34.082  31.512  1.00  0.00     0.029 A 
ATOM     60  C   UNL A   1      41.416  34.301  30.149  1.00  0.00     0.049 A 
ATOM     61  H   UNL A   1      39.890  34.374  28.700  1.00  0.00     0.167 HD
ATOM     62  C   UNL A   1      43.497  33.668  29.166  1.00  0.00     0.074 A 
ATOM     63  C   UNL A   1      44.838  33.652  28.613  1.00  0.00     0.031 C 
ATOM     64  C   UNL A   1      42.542  34.636  29.290  1.00  0.00     0.037 A 
BRANCH  51  65
ATOM     65  C   UNL A   1      36.611  33.847  30.766  1.00  0.00     0.058 A 
ATOM     66  C   UNL A   1      35.594  34.206  29.859  1.00  0.00     0.135 A 
ATOM     67  C   UNL A   1      36.322  34.094  32.123  1.00  0.00     0.135 A 
ATOM     68  F   UNL A   1      35.712  33.974  28.546  1.00  0.00    -0.206 F 
ATOM     69  C   UNL A   1      34.422  34.852  30.255  1.00  0.00     0.059 A 
ATOM     70  C   UNL A   1      35.179  34.784  32.540  1.00  0.00     0.059 A 
ATOM     71  F   UNL A   1      37.150  33.666  33.090  1.00  0.00    -0.206 F 
ATOM     72  C   UNL A   1      34.236  35.168  31.595  1.00  0.00     0.060 A 
BRANCH  72  73
ATOM     73  S   UNL A   1      32.770  36.109  32.064  1.00  0.00     0.124 S 
ATOM     74  O   UNL A   1      33.250  36.887  33.203  1.00  0.00    -0.237 OA
ATOM     75  O   UNL A   1      32.496  36.866  30.848  1.00  0.00    -0.237 OA
ATOM     76  O   UNL A   1      31.794  35.073  32.393  1.00  0.00    -0.744 OA
ENDBRANCH  72  73
ENDBRANCH  51  65
BRANCH  52  77
ATOM     77  C   UNL A   1      44.906  29.128  28.607  1.00  0.00     0.058 A 
ATOM     78  C   UNL A   1      44.268  29.055  27.352  1.00  0.00     0.135 A 
ATOM     79  C   UNL A   1      46.185  28.567  28.715  1.00  0.00     0.135 A 
ATOM     80  F   UNL A   1      43.033  29.560  27.197  1.00  0.00    -0.206 F 
ATOM     81  C   UNL A   1      44.933  28.604  26.216  1.00  0.00     0.059 A 
ATOM     82  C   UNL A   1      46.868  28.101  27.589  1.00  0.00     0.059 A 
ATOM     83  F   UNL A   1      46.840  28.600  29.885  1.00  0.00    -0.206 F 
ATOM     84  C   UNL A   1      46.257  28.192  26.336  1.00  0.00     0.060 A 
BRANCH  84  85
ATOM     85  S   UNL A   1      47.206  27.947  24.815  1.00  0.00     0.124 S 
ATOM     86  O   UNL A   1      48.580  28.051  25.294  1.00  0.00    -0.237 OA
ATOM     87  O   UNL A   1      46.784  26.605  24.411  1.00  0.00    -0.237 OA
ATOM     88  O   UNL A   1      46.750  29.032  23.956  1.00  0.00    -0.744 OA
ENDBRANCH  84  85
ENDBRANCH  52  77
BRANCH  64  89
ATOM     89  C   UNL A   1      42.606  36.020  28.692  1.00  0.00     0.058 A 
ATOM     90  C   UNL A   1      42.077  36.355  27.435  1.00  0.00     0.135 A 
ATOM     91  C   UNL A   1      43.091  37.103  29.465  1.00  0.00     0.135 A 
ATOM     92  F   UNL A   1      41.499  35.431  26.655  1.00  0.00    -0.206 F 
ATOM     93  C   UNL A   1      42.083  37.665  26.950  1.00  0.00     0.059 A 
ATOM     94  C   UNL A   1      43.057  38.423  29.023  1.00  0.00     0.059 A 
ATOM     95  F   UNL A   1      43.607  36.912  30.688  1.00  0.00    -0.206 F 
ATOM     96  C   UNL A   1      42.574  38.692  27.751  1.00  0.00     0.060 A 
BRANCH  96  97
ATOM     97  S   UNL A   1      42.533  40.395  27.161  1.00  0.00     0.124 S 
ATOM     98  O   UNL A   1      43.379  40.312  25.975  1.00  0.00    -0.237 OA
ATOM     99  O   UNL A   1      41.113  40.618  26.907  1.00  0.00    -0.237 OA
ATOM    100  O   UNL A   1      43.087  41.147  28.282  1.00  0.00    -0.744 OA
ENDBRANCH  96  97
ENDBRANCH  64  89
ENDBRANCH  38  39
ENDBRANCH  30  33
ENDBRANCH  28  29
ENDBRANCH   1  28
TORSDOF 16
ENDMDL
MODEL 2
REMARK VINA RESULT:     -14.1      5.064     11.567
REMARK SMILES Cc1cc([N+](=O)[O-])ccc1NC(=O)[C@@H]1[C@@H](C(=O)NCCCNC(=O)c2ccc(-c3c4nc(c(-c5c(F)cc(S(=O)(=O)[O-])cc5F)c5ccc([nH]5)c(-c5c(F)cc(S(=O)(=O)[O-])cc5F)c5nc(c(-c6c(F)cc(S(=O)(=O)[O-])cc6F)c6ccc3[nH]6)C=C5)C=C4)cc2)[C@H]2C=C[C@@H]1C2
REMARK SMILES IDX 20 1 19 2 18 3 16 4 17 5 15 7 14 8 94 9 91 10 93 11 95 12
REMARK SMILES IDX 92 13 12 14 11 15 13 17 10 18 1 19 2 20 3 21 4 22 9 23 8 24
REMARK SMILES IDX 5 25 6 26 7 27 21 28 22 29 23 30 24 32 25 33 26 34 90 35
REMARK SMILES IDX 27 36 89 37 28 38 29 39 30 40 83 41 31 42 88 43 82 44 84 45
REMARK SMILES IDX 32 46 87 47 81 48 80 49 33 51 67 52 46 53 66 54 47 55 50 56
REMARK SMILES IDX 65 57 85 58 48 59 49 60 64 62 86 63 51 64 34 65 35 66 44 67
REMARK SMILES IDX 36 68 37 69 43 70 45 71 38 72 39 73 40 74 41 75 42 76 68 77
REMARK SMILES IDX 69 78 78 79 70 80 71 81 77 82 79 83 72 84 73 85 74 86 75 87
REMARK SMILES IDX 76 88 52 89 53 90 62 91 54 92 55 93 61 94 63 95 56 96 57 97
REMARK SMILES IDX 58 98 59 99 60 100
REMARK H PARENT 18 6 11 16 22 31 84 50 50 61
REMARK Flexibility Score: inf
ROOT
ATOM      1  C   UNL A   1      32.969  29.980  27.180  1.00  0.00     0.042 C 
ENDROOT
BRANCH   1   2
ATOM      2  C   UNL A   1      32.330  28.678  26.721  1.00  0.00     0.117 C 
BRANCH   2   3
ATOM      3  N   UNL A   1      33.288  27.817  26.042  1.00  0.00    -0.356 N 
ATOM      4  C   UNL A   1      33.158  26.693  25.295  1.00  0.00     0.224 C 
ATOM      5  O   UNL A   1      34.211  26.181  24.894  1.00  0.00    -0.275 OA
ATOM      6  H   UNL A   1      34.222  28.111  26.146  1.00  0.00     0.163 HD
BRANCH   4   7
ATOM      7  C   UNL A   1      31.823  25.997  25.026  1.00  0.00     0.098 C 
ATOM      8  C   UNL A   1      32.047  24.424  25.058  1.00  0.00     0.099 C 
ATOM      9  C   UNL A   1      31.379  23.961  23.739  1.00  0.00     0.025 C 
ATOM     10  C   UNL A   1      31.148  26.178  23.647  1.00  0.00     0.025 C 
ATOM     11  C   UNL A   1      32.250  24.443  22.605  1.00  0.00    -0.027 C 
ATOM     12  C   UNL A   1      30.229  24.957  23.602  1.00  0.00     0.017 C 
ATOM     13  C   UNL A   1      32.109  25.774  22.546  1.00  0.00    -0.027 C 
BRANCH   8  14
ATOM     14  C   UNL A   1      31.458  23.702  26.259  1.00  0.00     0.228 C 
ATOM     15  N   UNL A   1      31.701  22.369  26.491  1.00  0.00    -0.326 N 
ATOM     16  H   UNL A   1      31.251  22.024  27.296  1.00  0.00     0.169 HD
ATOM     17  O   UNL A   1      30.676  24.264  27.032  1.00  0.00    -0.274 OA
BRANCH  15  18
ATOM     18  C   UNL A   1      32.462  21.390  25.815  1.00  0.00     0.044 A 
ATOM     19  C   UNL A   1      34.603  22.150  27.049  1.00  0.00     0.047 C 
ATOM     20  C   UNL A   1      33.829  21.230  26.139  1.00  0.00    -0.021 A 
ATOM     21  C   UNL A   1      34.553  20.151  25.581  1.00  0.00     0.091 A 
ATOM     22  C   UNL A   1      33.934  19.253  24.706  1.00  0.00     0.269 A 
ATOM     23  C   UNL A   1      31.909  20.543  24.844  1.00  0.00     0.033 A 
ATOM     24  C   UNL A   1      32.618  19.465  24.309  1.00  0.00     0.088 A 
BRANCH  22  25
ATOM     25  N   UNL A   1      34.668  18.087  24.205  1.00  0.00     0.062 N 
ATOM     26  O   UNL A   1      34.074  17.320  23.435  1.00  0.00    -0.258 OA
ATOM     27  O   UNL A   1      35.844  17.946  24.570  1.00  0.00    -0.258 OA
ENDBRANCH  22  25
ENDBRANCH  15  18
ENDBRANCH   8  14
ENDBRANCH   4   7
ENDBRANCH   2   3
ENDBRANCH   1   2
BRANCH   1  28
ATOM     28  C   UNL A   1      34.477  29.826  27.328  1.00  0.00     0.118 C 
BRANCH  28  29
ATOM     29  N   UNL A   1      35.135  31.012  27.867  1.00  0.00    -0.352 N 
ATOM     30  C   UNL A   1      36.333  31.068  28.561  1.00  0.00     0.251 C 
ATOM     31  H   UNL A   1      34.675  31.870  27.722  1.00  0.00     0.163 HD
ATOM     32  O   UNL A   1      36.706  32.064  29.155  1.00  0.00    -0.269 OA
BRANCH  30  33
ATOM     33  C   UNL A   1      37.205  29.883  28.450  1.00  0.00     0.039 A 
ATOM     34  C   UNL A   1      37.363  29.099  29.600  1.00  0.00     0.014 A 
ATOM     35  C   UNL A   1      38.076  29.776  27.370  1.00  0.00     0.014 A 
ATOM     36  C   UNL A   1      38.512  28.327  29.740  1.00  0.00     0.010 A 
ATOM     37  C   UNL A   1      39.260  29.092  27.557  1.00  0.00     0.010 A 
ATOM     38  C   UNL A   1      39.497  28.400  28.754  1.00  0.00    -0.014 A 
BRANCH  38  39
ATOM     39  C   UNL A   1      40.838  27.853  28.920  1.00  0.00     0.031 A 
ATOM     40  C   UNL A   1      41.134  26.476  28.464  1.00  0.00     0.074 A 
ATOM     41  C   UNL A   1      41.828  28.624  29.425  1.00  0.00     0.049 A 
ATOM     42  N   UNL A   1      42.095  25.749  28.928  1.00  0.00    -0.248 NA
ATOM     43  C   UNL A   1      40.331  25.787  27.456  1.00  0.00     0.031 C 
ATOM     44  C   UNL A   1      43.261  28.347  29.393  1.00  0.00     0.029 A 
ATOM     45  N   UNL A   1      41.711  29.748  30.246  1.00  0.00    -0.354 N 
ATOM     46  C   UNL A   1      42.201  24.637  28.127  1.00  0.00     0.074 A 
ATOM     47  C   UNL A   1      41.054  24.682  27.252  1.00  0.00     0.031 C 
ATOM     48  C   UNL A   1      43.872  29.093  30.327  1.00  0.00     0.029 A 
ATOM     49  C   UNL A   1      42.837  29.767  31.092  1.00  0.00     0.049 A 
ATOM     50  H   UNL A   1      40.977  30.405  30.236  1.00  0.00     0.167 HD
ATOM     51  C   UNL A   1      43.314  23.853  28.190  1.00  0.00     0.037 A 
ATOM     52  C   UNL A   1      42.701  29.687  32.449  1.00  0.00     0.037 A 
ATOM     53  C   UNL A   1      44.247  24.332  29.202  1.00  0.00     0.049 A 
ATOM     54  C   UNL A   1      43.312  28.440  33.051  1.00  0.00     0.074 A 
ATOM     55  C   UNL A   1      45.344  25.175  29.131  1.00  0.00     0.029 A 
ATOM     56  N   UNL A   1      43.910  24.238  30.548  1.00  0.00    -0.354 N 
ATOM     57  N   UNL A   1      43.685  27.400  32.356  1.00  0.00    -0.248 NA
ATOM     58  C   UNL A   1      43.537  28.255  34.484  1.00  0.00     0.031 C 
ATOM     59  C   UNL A   1      45.616  25.656  30.434  1.00  0.00     0.029 A 
ATOM     60  C   UNL A   1      44.703  25.083  31.303  1.00  0.00     0.049 A 
ATOM     61  H   UNL A   1      43.209  23.652  30.912  1.00  0.00     0.167 HD
ATOM     62  C   UNL A   1      44.133  26.416  33.199  1.00  0.00     0.074 A 
ATOM     63  C   UNL A   1      44.051  27.012  34.519  1.00  0.00     0.031 C 
ATOM     64  C   UNL A   1      44.524  25.190  32.743  1.00  0.00     0.037 A 
BRANCH  51  65
ATOM     65  C   UNL A   1      43.645  22.859  27.107  1.00  0.00     0.058 A 
ATOM     66  C   UNL A   1      42.922  21.656  26.978  1.00  0.00     0.135 A 
ATOM     67  C   UNL A   1      44.720  23.014  26.208  1.00  0.00     0.135 A 
ATOM     68  F   UNL A   1      41.842  21.404  27.728  1.00  0.00    -0.206 F 
ATOM     69  C   UNL A   1      43.295  20.642  26.095  1.00  0.00     0.059 A 
ATOM     70  C   UNL A   1      45.144  21.994  25.351  1.00  0.00     0.059 A 
ATOM     71  F   UNL A   1      45.393  24.174  26.138  1.00  0.00    -0.206 F 
ATOM     72  C   UNL A   1      44.427  20.804  25.307  1.00  0.00     0.060 A 
BRANCH  72  73
ATOM     73  S   UNL A   1      44.956  19.430  24.263  1.00  0.00     0.124 S 
ATOM     74  O   UNL A   1      44.284  18.291  24.883  1.00  0.00    -0.237 OA
ATOM     75  O   UNL A   1      44.448  19.833  22.956  1.00  0.00    -0.237 OA
ATOM     76  O   UNL A   1      46.409  19.439  24.404  1.00  0.00    -0.744 OA
ENDBRANCH  72  73
ENDBRANCH  51  65
BRANCH  52  77
ATOM     77  C   UNL A   1      41.497  30.404  32.955  1.00  0.00     0.058 A 
ATOM     78  C   UNL A   1      40.343  29.637  33.210  1.00  0.00     0.135 A 
ATOM     79  C   UNL A   1      41.596  31.651  33.584  1.00  0.00     0.135 A 
ATOM     80  F   UNL A   1      40.188  28.441  32.618  1.00  0.00    -0.206 F 
ATOM     81  C   UNL A   1      39.413  30.010  34.174  1.00  0.00     0.059 A 
ATOM     82  C   UNL A   1      40.670  32.050  34.550  1.00  0.00     0.059 A 
ATOM     83  F   UNL A   1      42.669  32.430  33.375  1.00  0.00    -0.206 F 
ATOM     84  C   UNL A   1      39.624  31.188  34.886  1.00  0.00     0.060 A 
BRANCH  84  85
ATOM     85  S   UNL A   1      38.613  31.477  36.359  1.00  0.00     0.124 S 
ATOM     86  O   UNL A   1      37.509  32.263  35.821  1.00  0.00    -0.237 OA
ATOM     87  O   UNL A   1      38.271  30.111  36.762  1.00  0.00    -0.237 OA
ATOM     88  O   UNL A   1      39.518  32.185  37.255  1.00  0.00    -0.744 OA
ENDBRANCH  84  85
ENDBRANCH  52  77
BRANCH  64  89
ATOM     89  C   UNL A   1      44.861  23.996  33.602  1.00  0.00     0.058 A 
ATOM     90  C   UNL A   1      43.926  23.023  33.993  1.00  0.00     0.135 A 
ATOM     91  C   UNL A   1      46.209  23.723  33.940  1.00  0.00     0.135 A 
ATOM     92  F   UNL A   1      42.635  23.120  33.644  1.00  0.00    -0.206 F 
ATOM     93  C   UNL A   1      44.292  21.888  34.720  1.00  0.00     0.059 A 
ATOM     94  C   UNL A   1      46.602  22.572  34.617  1.00  0.00     0.059 A 
ATOM     95  F   UNL A   1      47.196  24.570  33.608  1.00  0.00    -0.206 F 
ATOM     96  C   UNL A   1      45.632  21.671  35.027  1.00  0.00     0.060 A 
BRANCH  96  97
ATOM     97  S   UNL A   1      46.125  20.181  35.914  1.00  0.00     0.124 S 
ATOM     98  O   UNL A   1      47.568  20.178  35.696  1.00  0.00    -0.237 OA
ATOM     99  O   UNL A   1      45.696  20.458  37.282  1.00  0.00    -0.237 OA
ATOM    100  O   UNL A   1      45.379  19.128  35.233  1.00  0.00    -0.744 OA
ENDBRANCH  96  97
ENDBRANCH  64  89
ENDBRANCH  38  39
ENDBRANCH  30  33
ENDBRANCH  28  29
ENDBRANCH   1  28
TORSDOF 16
ENDMDL
MODEL 3
REMARK VINA RESULT:     -13.6      4.826     11.016
REMARK SMILES Cc1cc([N+](=O)[O-])ccc1NC(=O)[C@@H]1[C@@H](C(=O)NCCCNC(=O)c2ccc(-c3c4nc(c(-c5c(F)cc(S(=O)(=O)[O-])cc5F)c5ccc([nH]5)c(-c5c(F)cc(S(=O)(=O)[O-])cc5F)c5nc(c(-c6c(F)cc(S(=O)(=O)[O-])cc6F)c6ccc3[nH]6)C=C5)C=C4)cc2)[C@H]2C=C[C@@H]1C2
REMARK SMILES IDX 20 1 19 2 18 3 16 4 17 5 15 7 14 8 94 9 91 10 93 11 95 12
REMARK SMILES IDX 92 13 12 14 11 15 13 17 10 18 1 19 2 20 3 21 4 22 9 23 8 24
REMARK SMILES IDX 5 25 6 26 7 27 21 28 22 29 23 30 24 32 25 33 26 34 90 35
REMARK SMILES IDX 27 36 89 37 28 38 29 39 30 40 83 41 31 42 88 43 82 44 84 45
REMARK SMILES IDX 32 46 87 47 81 48 80 49 33 51 67 52 46 53 66 54 47 55 50 56
REMARK SMILES IDX 65 57 85 58 48 59 49 60 64 62 86 63 51 64 34 65 35 66 44 67
REMARK SMILES IDX 36 68 37 69 43 70 45 71 38 72 39 73 40 74 41 75 42 76 68 77
REMARK SMILES IDX 69 78 78 79 70 80 71 81 77 82 79 83 72 84 73 85 74 86 75 87
REMARK SMILES IDX 76 88 52 89 53 90 62 91 54 92 55 93 61 94 63 95 56 96 57 97
REMARK SMILES IDX 58 98 59 99 60 100
REMARK H PARENT 18 6 11 16 22 31 84 50 50 61
REMARK Flexibility Score: inf
ROOT
ATOM      1  C   UNL A   1      33.870  29.009  27.573  1.00  0.00     0.042 C 
ENDROOT
BRANCH   1   2
ATOM      2  C   UNL A   1      33.687  27.831  26.629  1.00  0.00     0.117 C 
BRANCH   2   3
ATOM      3  N   UNL A   1      32.323  27.321  26.661  1.00  0.00    -0.356 N 
ATOM      4  C   UNL A   1      31.764  26.142  26.295  1.00  0.00     0.224 C 
ATOM      5  O   UNL A   1      30.536  26.057  26.422  1.00  0.00    -0.275 OA
ATOM      6  H   UNL A   1      31.672  27.966  27.021  1.00  0.00     0.163 HD
BRANCH   4   7
ATOM      7  C   UNL A   1      32.543  24.991  25.656  1.00  0.00     0.098 C 
ATOM      8  C   UNL A   1      31.682  24.384  24.466  1.00  0.00     0.099 C 
ATOM      9  C   UNL A   1      31.706  22.865  24.774  1.00  0.00     0.025 C 
ATOM     10  C   UNL A   1      32.834  23.725  26.495  1.00  0.00     0.025 C 
ATOM     11  C   UNL A   1      30.858  22.646  26.004  1.00  0.00    -0.027 C 
ATOM     12  C   UNL A   1      33.088  22.691  25.398  1.00  0.00     0.017 C 
ATOM     13  C   UNL A   1      31.537  23.158  27.039  1.00  0.00    -0.027 C 
BRANCH   8  14
ATOM     14  C   UNL A   1      32.201  24.672  23.067  1.00  0.00     0.228 C 
ATOM     15  N   UNL A   1      31.918  25.852  22.421  1.00  0.00    -0.326 N 
ATOM     16  H   UNL A   1      32.307  25.906  21.518  1.00  0.00     0.169 HD
ATOM     17  O   UNL A   1      32.832  23.827  22.424  1.00  0.00    -0.274 OA
BRANCH  15  18
ATOM     18  C   UNL A   1      31.187  27.005  22.783  1.00  0.00     0.044 A 
ATOM     19  C   UNL A   1      33.349  28.422  22.783  1.00  0.00     0.047 C 
ATOM     20  C   UNL A   1      31.854  28.248  22.877  1.00  0.00    -0.021 A 
ATOM     21  C   UNL A   1      31.102  29.426  23.083  1.00  0.00     0.091 A 
ATOM     22  C   UNL A   1      29.710  29.371  23.208  1.00  0.00     0.269 A 
ATOM     23  C   UNL A   1      29.807  26.975  23.032  1.00  0.00     0.033 A 
ATOM     24  C   UNL A   1      29.061  28.142  23.214  1.00  0.00     0.088 A 
BRANCH  22  25
ATOM     25  N   UNL A   1      28.932  30.608  23.330  1.00  0.00     0.062 N 
ATOM     26  O   UNL A   1      27.935  30.735  22.604  1.00  0.00    -0.258 OA
ATOM     27  O   UNL A   1      29.306  31.445  24.163  1.00  0.00    -0.258 OA
ENDBRANCH  22  25
ENDBRANCH  15  18
ENDBRANCH   8  14
ENDBRANCH   4   7
ENDBRANCH   2   3
ENDBRANCH   1   2
BRANCH   1  28
ATOM     28  C   UNL A   1      34.918  29.977  27.043  1.00  0.00     0.118 C 
BRANCH  28  29
ATOM     29  N   UNL A   1      35.362  30.956  28.029  1.00  0.00    -0.352 N 
ATOM     30  C   UNL A   1      36.296  30.774  29.036  1.00  0.00     0.251 C 
ATOM     31  H   UNL A   1      34.952  31.849  27.973  1.00  0.00     0.163 HD
ATOM     32  O   UNL A   1      36.455  31.572  29.942  1.00  0.00    -0.269 OA
BRANCH  30  33
ATOM     33  C   UNL A   1      37.183  29.603  28.897  1.00  0.00     0.039 A 
ATOM     34  C   UNL A   1      37.437  28.855  30.053  1.00  0.00     0.014 A 
ATOM     35  C   UNL A   1      37.979  29.482  27.762  1.00  0.00     0.014 A 
ATOM     36  C   UNL A   1      38.608  28.108  30.133  1.00  0.00     0.010 A 
ATOM     37  C   UNL A   1      39.188  28.827  27.883  1.00  0.00     0.010 A 
ATOM     38  C   UNL A   1      39.520  28.172  29.079  1.00  0.00    -0.014 A 
BRANCH  38  39
ATOM     39  C   UNL A   1      40.881  27.656  29.166  1.00  0.00     0.031 A 
ATOM     40  C   UNL A   1      41.184  26.293  28.675  1.00  0.00     0.074 A 
ATOM     41  C   UNL A   1      41.879  28.444  29.628  1.00  0.00     0.049 A 
ATOM     42  N   UNL A   1      42.186  25.584  29.077  1.00  0.00    -0.248 NA
ATOM     43  C   UNL A   1      40.345  25.597  27.702  1.00  0.00     0.031 C 
ATOM     44  C   UNL A   1      43.314  28.203  29.515  1.00  0.00     0.029 A 
ATOM     45  N   UNL A   1      41.779  29.555  30.470  1.00  0.00    -0.354 N 
ATOM     46  C   UNL A   1      42.275  24.484  28.256  1.00  0.00     0.074 A 
ATOM     47  C   UNL A   1      41.082  24.513  27.444  1.00  0.00     0.031 C 
ATOM     48  C   UNL A   1      43.956  28.951  30.426  1.00  0.00     0.029 A 
ATOM     49  C   UNL A   1      42.948  29.590  31.254  1.00  0.00     0.049 A 
ATOM     50  H   UNL A   1      41.031  30.194  30.508  1.00  0.00     0.167 HD
ATOM     51  C   UNL A   1      43.407  23.727  28.249  1.00  0.00     0.037 A 
ATOM     52  C   UNL A   1      42.887  29.490  32.615  1.00  0.00     0.037 A 
ATOM     53  C   UNL A   1      44.382  24.215  29.216  1.00  0.00     0.049 A 
ATOM     54  C   UNL A   1      43.559  28.250  33.167  1.00  0.00     0.074 A 
ATOM     55  C   UNL A   1      45.454  25.086  29.098  1.00  0.00     0.029 A 
ATOM     56  N   UNL A   1      44.120  24.096  30.577  1.00  0.00    -0.354 N 
ATOM     57  N   UNL A   1      43.918  27.228  32.439  1.00  0.00    -0.248 NA
ATOM     58  C   UNL A   1      43.864  28.053  34.582  1.00  0.00     0.031 C 
ATOM     59  C   UNL A   1      45.783  25.556  30.392  1.00  0.00     0.029 A 
ATOM     60  C   UNL A   1      44.933  24.950  31.300  1.00  0.00     0.049 A 
ATOM     61  H   UNL A   1      43.453  23.489  30.969  1.00  0.00     0.167 HD
ATOM     62  C   UNL A   1      44.434  26.245  33.243  1.00  0.00     0.074 A 
ATOM     63  C   UNL A   1      44.409  26.822  34.573  1.00  0.00     0.031 C 
ATOM     64  C   UNL A   1      44.829  25.034  32.749  1.00  0.00     0.037 A 
BRANCH  51  65
ATOM     65  C   UNL A   1      43.703  22.754  27.136  1.00  0.00     0.058 A 
ATOM     66  C   UNL A   1      43.015  21.529  27.039  1.00  0.00     0.135 A 
ATOM     67  C   UNL A   1      44.713  22.955  26.173  1.00  0.00     0.135 A 
ATOM     68  F   UNL A   1      41.994  21.232  27.853  1.00  0.00    -0.206 F 
ATOM     69  C   UNL A   1      43.365  20.536  26.123  1.00  0.00     0.059 A 
ATOM     70  C   UNL A   1      45.116  21.958  25.279  1.00  0.00     0.059 A 
ATOM     71  F   UNL A   1      45.340  24.138  26.074  1.00  0.00    -0.206 F 
ATOM     72  C   UNL A   1      44.439  20.744  25.267  1.00  0.00     0.060 A 
BRANCH  72  73
ATOM     73  S   UNL A   1      44.948  19.400  24.177  1.00  0.00     0.124 S 
ATOM     74  O   UNL A   1      44.475  19.860  22.874  1.00  0.00    -0.237 OA
ATOM     75  O   UNL A   1      46.395  19.394  24.361  1.00  0.00    -0.237 OA
ATOM     76  O   UNL A   1      44.239  18.242  24.715  1.00  0.00    -0.744 OA
ENDBRANCH  72  73
ENDBRANCH  51  65
BRANCH  52  77
ATOM     77  C   UNL A   1      41.696  30.171  33.194  1.00  0.00     0.058 A 
ATOM     78  C   UNL A   1      41.791  31.556  33.432  1.00  0.00     0.135 A 
ATOM     79  C   UNL A   1      40.413  29.619  33.091  1.00  0.00     0.135 A 
ATOM     80  F   UNL A   1      42.997  32.134  33.559  1.00  0.00    -0.206 F 
ATOM     81  C   UNL A   1      40.673  32.384  33.398  1.00  0.00     0.059 A 
ATOM     82  C   UNL A   1      39.276  30.430  33.062  1.00  0.00     0.059 A 
ATOM     83  F   UNL A   1      40.258  28.304  32.872  1.00  0.00    -0.206 F 
ATOM     84  C   UNL A   1      39.428  31.817  33.145  1.00  0.00     0.060 A 
BRANCH  84  85
ATOM     85  S   UNL A   1      38.055  32.930  32.757  1.00  0.00     0.124 S 
ATOM     86  O   UNL A   1      38.165  33.928  33.815  1.00  0.00    -0.237 OA
ATOM     87  O   UNL A   1      38.416  33.396  31.417  1.00  0.00    -0.237 OA
ATOM     88  O   UNL A   1      36.888  32.061  32.823  1.00  0.00    -0.744 OA
ENDBRANCH  84  85
ENDBRANCH  52  77
BRANCH  64  89
ATOM     89  C   UNL A   1      45.239  23.838  33.572  1.00  0.00     0.058 A 
ATOM     90  C   UNL A   1      46.513  23.678  34.140  1.00  0.00     0.135 A 
ATOM     91  C   UNL A   1      44.276  22.866  33.939  1.00  0.00     0.135 A 
ATOM     92  F   UNL A   1      47.479  24.588  33.948  1.00  0.00    -0.206 F 
ATOM     93  C   UNL A   1      46.831  22.596  34.965  1.00  0.00     0.059 A 
ATOM     94  C   UNL A   1      44.557  21.811  34.802  1.00  0.00     0.059 A 
ATOM     95  F   UNL A   1      43.019  22.919  33.473  1.00  0.00    -0.206 F 
ATOM     96  C   UNL A   1      45.846  21.668  35.291  1.00  0.00     0.060 A 
BRANCH  96  97
ATOM     97  S   UNL A   1      46.227  20.301  36.402  1.00  0.00     0.124 S 
ATOM     98  O   UNL A   1      45.755  20.825  37.679  1.00  0.00    -0.237 OA
ATOM     99  O   UNL A   1      45.444  19.201  35.845  1.00  0.00    -0.237 OA
ATOM    100  O   UNL A   1      47.673  20.160  36.270  1.00  0.00    -0.744 OA
ENDBRANCH  96  97
ENDBRANCH  64  89
ENDBRANCH  38  39
ENDBRANCH  30  33
ENDBRANCH  28  29
ENDBRANCH   1  28
TORSDOF 16
ENDMDL
