MODEL 1
REMARK VINA RESULT:     -13.1      0.000      0.000
REMARK SMILES C[C@H]1CCC[C@H](C)N1C(=O)[C@H]1[C@@H](C(=O)NCCCNC(=O)c2ccc(-c3c4nc(c(-c5c(F)cc(S(=O)(=O)[O-])cc5F)c5ccc([nH]5)c(-c5c(F)cc(S(=O)(=O)[O-])cc5F)c5nc(c(-c6c(F)cc(S(=O)(=O)[O-])cc6F)c6ccc3[nH]6)C=C5)C=C4)cc2)[C@H]2CC[C@@H]1O2
REMARK SMILES IDX 18 1 17 2 16 3 15 4 13 5 14 6 12 8 11 9 91 10 88 11 90 12
REMARK SMILES IDX 92 13 89 14 9 15 1 16 2 17 3 18 8 19 4 20 6 21 5 22 7 23
REMARK SMILES IDX 10 24 19 25 20 26 21 28 22 29 23 30 87 31 24 32 86 33 25 34
REMARK SMILES IDX 26 35 27 36 80 37 28 38 85 39 79 40 81 41 29 42 84 43 78 44
REMARK SMILES IDX 77 45 30 47 64 48 43 49 63 50 44 51 47 52 62 53 82 54 45 55
REMARK SMILES IDX 46 56 61 58 83 59 48 60 31 61 32 62 41 63 33 64 34 65 40 66
REMARK SMILES IDX 42 67 35 68 36 69 37 70 38 71 39 72 65 73 66 74 75 75 67 76
REMARK SMILES IDX 68 77 74 78 76 79 69 80 70 81 71 82 72 83 73 84 49 85 50 86
REMARK SMILES IDX 59 87 51 88 52 89 58 90 60 91 53 92 54 93 55 94 56 95 57 96
REMARK H PARENT 15 7 19 27 81 46 47 57
REMARK Flexibility Score: inf
ROOT
ATOM      1  C   UNL A   1      40.312  23.251  26.673  1.00  0.00     0.118 C 
ENDROOT
BRANCH   1   2
ATOM      2  C   UNL A   1      39.033  22.405  26.490  1.00  0.00     0.042 C 
BRANCH   2   3
ATOM      3  C   UNL A   1      37.806  23.065  25.798  1.00  0.00     0.117 C 
BRANCH   3   4
ATOM      4  N   UNL A   1      37.432  22.556  24.484  1.00  0.00    -0.356 N 
ATOM      5  C   UNL A   1      36.228  22.690  23.782  1.00  0.00     0.226 C 
ATOM      6  O   UNL A   1      36.103  23.099  22.680  1.00  0.00    -0.275 OA
ATOM      7  H   UNL A   1      38.131  22.041  24.020  1.00  0.00     0.163 HD
BRANCH   5   8
ATOM      8  C   UNL A   1      35.118  22.090  24.578  1.00  0.00     0.122 C 
ATOM      9  C   UNL A   1      33.771  22.711  24.385  1.00  0.00     0.122 C 
ATOM     10  C   UNL A   1      33.097  21.745  25.449  1.00  0.00     0.132 C 
ATOM     11  C   UNL A   1      35.158  21.926  26.089  1.00  0.00     0.132 C 
ATOM     12  C   UNL A   1      32.842  22.326  26.803  1.00  0.00     0.035 C 
ATOM     13  O   UNL A   1      34.231  20.824  25.931  1.00  0.00    -0.373 OA
ATOM     14  C   UNL A   1      34.296  22.539  27.239  1.00  0.00     0.035 C 
BRANCH   9  15
ATOM     15  C   UNL A   1      33.995  24.292  24.526  1.00  0.00     0.229 C 
ATOM     16  C   UNL A   1      33.142  26.141  21.664  1.00  0.00     0.031 C 
ATOM     17  C   UNL A   1      32.911  26.350  23.180  1.00  0.00     0.082 C 
ATOM     18  C   UNL A   1      31.549  27.111  23.160  1.00  0.00     0.025 C 
ATOM     19  N   UNL A   1      32.898  25.196  24.232  1.00  0.00    -0.337 N 
ATOM     20  C   UNL A   1      31.048  27.563  24.507  1.00  0.00     0.004 C 
ATOM     21  C   UNL A   1      32.454  25.757  25.551  1.00  0.00     0.082 C 
ATOM     22  C   UNL A   1      31.062  26.383  25.461  1.00  0.00     0.025 C 
ATOM     23  C   UNL A   1      33.420  26.820  26.145  1.00  0.00     0.031 C 
ATOM     24  O   UNL A   1      35.055  24.740  24.958  1.00  0.00    -0.274 OA
ENDBRANCH   9  15
ENDBRANCH   5   8
ENDBRANCH   3   4
ENDBRANCH   2   3
ENDBRANCH   1   2
BRANCH   1  25
ATOM     25  N   UNL A   1      40.412  24.381  25.757  1.00  0.00    -0.352 N 
ATOM     26  C   UNL A   1      41.060  25.584  25.975  1.00  0.00     0.251 C 
ATOM     27  H   UNL A   1      39.967  24.278  24.885  1.00  0.00     0.163 HD
ATOM     28  O   UNL A   1      41.743  26.064  25.073  1.00  0.00    -0.269 OA
BRANCH  26  29
ATOM     29  C   UNL A   1      40.872  26.374  27.218  1.00  0.00     0.039 A 
ATOM     30  C   UNL A   1      41.777  27.387  27.526  1.00  0.00     0.014 A 
ATOM     31  C   UNL A   1      39.964  25.982  28.200  1.00  0.00     0.014 A 
ATOM     32  C   UNL A   1      41.712  28.040  28.771  1.00  0.00     0.010 A 
ATOM     33  C   UNL A   1      39.815  26.722  29.394  1.00  0.00     0.010 A 
ATOM     34  C   UNL A   1      40.682  27.780  29.704  1.00  0.00    -0.014 A 
BRANCH  34  35
ATOM     35  C   UNL A   1      40.512  28.673  30.914  1.00  0.00     0.031 A 
ATOM     36  C   UNL A   1      41.373  28.586  32.164  1.00  0.00     0.074 A 
ATOM     37  C   UNL A   1      39.517  29.592  30.904  1.00  0.00     0.049 A 
ATOM     38  N   UNL A   1      41.362  29.359  33.229  1.00  0.00    -0.248 NA
ATOM     39  C   UNL A   1      42.332  27.477  32.263  1.00  0.00     0.031 C 
ATOM     40  C   UNL A   1      38.505  29.723  29.852  1.00  0.00     0.029 A 
ATOM     41  N   UNL A   1      39.195  30.603  31.783  1.00  0.00    -0.354 N 
ATOM     42  C   UNL A   1      42.284  28.819  34.124  1.00  0.00     0.074 A 
ATOM     43  C   UNL A   1      42.801  27.620  33.497  1.00  0.00     0.031 C 
ATOM     44  C   UNL A   1      37.746  30.801  30.092  1.00  0.00     0.029 A 
ATOM     45  C   UNL A   1      38.169  31.413  31.346  1.00  0.00     0.049 A 
ATOM     46  H   UNL A   1      39.656  30.735  32.644  1.00  0.00     0.167 HD
ATOM     47  C   UNL A   1      42.688  29.282  35.338  1.00  0.00     0.037 A 
ATOM     48  C   UNL A   1      37.623  32.530  31.870  1.00  0.00     0.037 A 
ATOM     49  C   UNL A   1      42.221  30.505  35.948  1.00  0.00     0.049 A 
ATOM     50  C   UNL A   1      38.151  33.080  33.164  1.00  0.00     0.074 A 
ATOM     51  C   UNL A   1      42.663  31.110  37.115  1.00  0.00     0.029 A 
ATOM     52  N   UNL A   1      41.210  31.312  35.448  1.00  0.00    -0.354 N 
ATOM     53  N   UNL A   1      39.111  32.614  33.923  1.00  0.00    -0.248 NA
ATOM     54  C   UNL A   1      37.522  34.308  33.673  1.00  0.00     0.031 C 
ATOM     55  C   UNL A   1      41.894  32.256  37.341  1.00  0.00     0.029 A 
ATOM     56  C   UNL A   1      40.999  32.392  36.294  1.00  0.00     0.049 A 
ATOM     57  H   UNL A   1      40.713  31.142  34.615  1.00  0.00     0.167 HD
ATOM     58  C   UNL A   1      39.204  33.491  34.998  1.00  0.00     0.074 A 
ATOM     59  C   UNL A   1      38.226  34.534  34.775  1.00  0.00     0.031 C 
ATOM     60  C   UNL A   1      40.020  33.427  36.078  1.00  0.00     0.037 A 
BRANCH  47  61
ATOM     61  C   UNL A   1      43.722  28.483  36.099  1.00  0.00     0.058 A 
ATOM     62  C   UNL A   1      43.365  27.366  36.873  1.00  0.00     0.135 A 
ATOM     63  C   UNL A   1      45.092  28.784  35.992  1.00  0.00     0.135 A 
ATOM     64  F   UNL A   1      42.074  27.024  37.009  1.00  0.00    -0.206 F 
ATOM     65  C   UNL A   1      44.319  26.606  37.544  1.00  0.00     0.059 A 
ATOM     66  C   UNL A   1      46.066  28.018  36.631  1.00  0.00     0.059 A 
ATOM     67  F   UNL A   1      45.498  29.826  35.250  1.00  0.00    -0.206 F 
ATOM     68  C   UNL A   1      45.668  26.941  37.421  1.00  0.00     0.060 A 
BRANCH  68  69
ATOM     69  S   UNL A   1      46.889  25.944  38.303  1.00  0.00     0.124 S 
ATOM     70  O   UNL A   1      47.999  26.885  38.424  1.00  0.00    -0.237 OA
ATOM     71  O   UNL A   1      46.194  25.623  39.545  1.00  0.00    -0.237 OA
ATOM     72  O   UNL A   1      47.119  24.815  37.407  1.00  0.00    -0.744 OA
ENDBRANCH  68  69
ENDBRANCH  47  61
BRANCH  48  73
ATOM     73  C   UNL A   1      36.527  33.228  31.142  1.00  0.00     0.058 A 
ATOM     74  C   UNL A   1      35.212  33.214  31.634  1.00  0.00     0.135 A 
ATOM     75  C   UNL A   1      36.775  33.947  29.962  1.00  0.00     0.135 A 
ATOM     76  F   UNL A   1      34.922  32.535  32.755  1.00  0.00    -0.206 F 
ATOM     77  C   UNL A   1      34.180  33.875  30.976  1.00  0.00     0.059 A 
ATOM     78  C   UNL A   1      35.765  34.641  29.303  1.00  0.00     0.059 A 
ATOM     79  F   UNL A   1      38.019  34.010  29.463  1.00  0.00    -0.206 F 
ATOM     80  C   UNL A   1      34.468  34.592  29.813  1.00  0.00     0.060 A 
BRANCH  80  81
ATOM     81  S   UNL A   1      33.137  35.504  29.003  1.00  0.00     0.124 S 
ATOM     82  O   UNL A   1      33.882  36.517  28.266  1.00  0.00    -0.237 OA
ATOM     83  O   UNL A   1      32.498  34.466  28.199  1.00  0.00    -0.237 OA
ATOM     84  O   UNL A   1      32.340  35.994  30.124  1.00  0.00    -0.744 OA
ENDBRANCH  80  81
ENDBRANCH  48  73
BRANCH  60  85
ATOM     85  C   UNL A   1      39.894  34.516  37.108  1.00  0.00     0.058 A 
ATOM     86  C   UNL A   1      40.557  35.745  36.960  1.00  0.00     0.135 A 
ATOM     87  C   UNL A   1      39.071  34.348  38.233  1.00  0.00     0.135 A 
ATOM     88  F   UNL A   1      41.364  35.954  35.909  1.00  0.00    -0.206 F 
ATOM     89  C   UNL A   1      40.426  36.761  37.901  1.00  0.00     0.059 A 
ATOM     90  C   UNL A   1      38.904  35.360  39.175  1.00  0.00     0.059 A 
ATOM     91  F   UNL A   1      38.409  33.195  38.421  1.00  0.00    -0.206 F 
ATOM     92  C   UNL A   1      39.594  36.560  39.005  1.00  0.00     0.060 A 
BRANCH  92  93
ATOM     93  S   UNL A   1      39.404  37.902  40.200  1.00  0.00     0.124 S 
ATOM     94  O   UNL A   1      40.654  38.633  40.022  1.00  0.00    -0.237 OA
ATOM     95  O   UNL A   1      38.201  38.577  39.724  1.00  0.00    -0.237 OA
ATOM     96  O   UNL A   1      39.261  37.203  41.474  1.00  0.00    -0.744 OA
ENDBRANCH  92  93
ENDBRANCH  60  85
ENDBRANCH  34  35
ENDBRANCH  26  29
ENDBRANCH   1  25
TORSDOF 14
ENDMDL
MODEL 2
REMARK VINA RESULT:     -12.9      6.844     12.349
REMARK SMILES C[C@H]1CCC[C@H](C)N1C(=O)[C@H]1[C@@H](C(=O)NCCCNC(=O)c2ccc(-c3c4nc(c(-c5c(F)cc(S(=O)(=O)[O-])cc5F)c5ccc([nH]5)c(-c5c(F)cc(S(=O)(=O)[O-])cc5F)c5nc(c(-c6c(F)cc(S(=O)(=O)[O-])cc6F)c6ccc3[nH]6)C=C5)C=C4)cc2)[C@H]2CC[C@@H]1O2
REMARK SMILES IDX 18 1 17 2 16 3 15 4 13 5 14 6 12 8 11 9 91 10 88 11 90 12
REMARK SMILES IDX 92 13 89 14 9 15 1 16 2 17 3 18 8 19 4 20 6 21 5 22 7 23
REMARK SMILES IDX 10 24 19 25 20 26 21 28 22 29 23 30 87 31 24 32 86 33 25 34
REMARK SMILES IDX 26 35 27 36 80 37 28 38 85 39 79 40 81 41 29 42 84 43 78 44
REMARK SMILES IDX 77 45 30 47 64 48 43 49 63 50 44 51 47 52 62 53 82 54 45 55
REMARK SMILES IDX 46 56 61 58 83 59 48 60 31 61 32 62 41 63 33 64 34 65 40 66
REMARK SMILES IDX 42 67 35 68 36 69 37 70 38 71 39 72 65 73 66 74 75 75 67 76
REMARK SMILES IDX 68 77 74 78 76 79 69 80 70 81 71 82 72 83 73 84 49 85 50 86
REMARK SMILES IDX 59 87 51 88 52 89 58 90 60 91 53 92 54 93 55 94 56 95 57 96
REMARK H PARENT 15 7 19 27 81 46 47 57
REMARK Flexibility Score: inf
ROOT
ATOM      1  C   UNL A   1      35.385  31.376  28.832  1.00  0.00     0.118 C 
ENDROOT
BRANCH   1   2
ATOM      2  C   UNL A   1      34.800  30.909  27.481  1.00  0.00     0.042 C 
BRANCH   2   3
ATOM      3  C   UNL A   1      34.224  29.468  27.386  1.00  0.00     0.117 C 
BRANCH   3   4
ATOM      4  N   UNL A   1      32.810  29.296  27.698  1.00  0.00    -0.356 N 
ATOM      5  C   UNL A   1      31.897  28.348  27.220  1.00  0.00     0.226 C 
ATOM      6  O   UNL A   1      31.218  27.638  27.878  1.00  0.00    -0.275 OA
ATOM      7  H   UNL A   1      32.441  29.943  28.341  1.00  0.00     0.163 HD
BRANCH   5   8
ATOM      8  C   UNL A   1      31.786  28.466  25.737  1.00  0.00     0.122 C 
ATOM      9  C   UNL A   1      31.527  27.190  25.002  1.00  0.00     0.122 C 
ATOM     10  C   UNL A   1      31.563  27.917  23.590  1.00  0.00     0.132 C 
ATOM     11  C   UNL A   1      32.851  29.106  24.861  1.00  0.00     0.132 C 
ATOM     12  C   UNL A   1      32.825  27.768  22.801  1.00  0.00     0.035 C 
ATOM     13  O   UNL A   1      31.800  29.402  23.909  1.00  0.00    -0.373 OA
ATOM     14  C   UNL A   1      33.770  28.537  23.732  1.00  0.00     0.035 C 
BRANCH   9  15
ATOM     15  C   UNL A   1      32.592  26.135  25.569  1.00  0.00     0.229 C 
ATOM     16  C   UNL A   1      31.183  23.151  26.771  1.00  0.00     0.031 C 
ATOM     17  C   UNL A   1      32.425  23.474  25.907  1.00  0.00     0.082 C 
ATOM     18  C   UNL A   1      32.486  22.202  25.006  1.00  0.00     0.025 C 
ATOM     19  N   UNL A   1      32.589  24.776  25.060  1.00  0.00    -0.337 N 
ATOM     20  C   UNL A   1      33.664  22.137  24.069  1.00  0.00     0.004 C 
ATOM     21  C   UNL A   1      33.822  24.643  24.215  1.00  0.00     0.082 C 
ATOM     22  C   UNL A   1      33.744  23.434  23.284  1.00  0.00     0.025 C 
ATOM     23  C   UNL A   1      35.141  24.536  25.030  1.00  0.00     0.031 C 
ATOM     24  O   UNL A   1      33.460  26.486  26.365  1.00  0.00    -0.274 OA
ENDBRANCH   9  15
ENDBRANCH   5   8
ENDBRANCH   3   4
ENDBRANCH   2   3
ENDBRANCH   1   2
BRANCH   1  25
ATOM     25  N   UNL A   1      35.422  30.337  29.853  1.00  0.00    -0.352 N 
ATOM     26  C   UNL A   1      36.501  29.969  30.638  1.00  0.00     0.251 C 
ATOM     27  H   UNL A   1      34.586  29.838  30.000  1.00  0.00     0.163 HD
ATOM     28  O   UNL A   1      36.320  29.756  31.835  1.00  0.00    -0.269 OA
BRANCH  26  29
ATOM     29  C   UNL A   1      37.847  29.713  30.069  1.00  0.00     0.039 A 
ATOM     30  C   UNL A   1      38.928  29.534  30.929  1.00  0.00     0.014 A 
ATOM     31  C   UNL A   1      38.107  29.880  28.709  1.00  0.00     0.014 A 
ATOM     32  C   UNL A   1      40.236  29.449  30.413  1.00  0.00     0.010 A 
ATOM     33  C   UNL A   1      39.400  29.664  28.182  1.00  0.00     0.010 A 
ATOM     34  C   UNL A   1      40.497  29.432  29.024  1.00  0.00    -0.014 A 
BRANCH  34  35
ATOM     35  C   UNL A   1      41.883  29.095  28.518  1.00  0.00     0.031 A 
ATOM     36  C   UNL A   1      43.032  30.088  28.457  1.00  0.00     0.074 A 
ATOM     37  C   UNL A   1      42.117  27.841  28.062  1.00  0.00     0.049 A 
ATOM     38  N   UNL A   1      44.285  29.879  28.114  1.00  0.00    -0.248 NA
ATOM     39  C   UNL A   1      42.744  31.493  28.774  1.00  0.00     0.031 C 
ATOM     40  C   UNL A   1      41.098  26.798  27.912  1.00  0.00     0.029 A 
ATOM     41  N   UNL A   1      43.276  27.213  27.661  1.00  0.00    -0.354 N 
ATOM     42  C   UNL A   1      44.921  31.119  28.148  1.00  0.00     0.074 A 
ATOM     43  C   UNL A   1      43.900  32.086  28.498  1.00  0.00     0.031 C 
ATOM     44  C   UNL A   1      41.683  25.648  27.550  1.00  0.00     0.029 A 
ATOM     45  C   UNL A   1      43.113  25.873  27.382  1.00  0.00     0.049 A 
ATOM     46  H   UNL A   1      44.140  27.679  27.581  1.00  0.00     0.167 HD
ATOM     47  C   UNL A   1      46.229  31.430  27.938  1.00  0.00     0.037 A 
ATOM     48  C   UNL A   1      43.999  24.915  27.041  1.00  0.00     0.037 A 
ATOM     49  C   UNL A   1      47.265  30.468  27.644  1.00  0.00     0.049 A 
ATOM     50  C   UNL A   1      45.456  25.259  26.909  1.00  0.00     0.074 A 
ATOM     51  C   UNL A   1      48.631  30.679  27.536  1.00  0.00     0.029 A 
ATOM     52  N   UNL A   1      47.058  29.117  27.410  1.00  0.00    -0.354 N 
ATOM     53  N   UNL A   1      46.043  26.419  27.073  1.00  0.00    -0.248 NA
ATOM     54  C   UNL A   1      46.371  24.166  26.549  1.00  0.00     0.031 C 
ATOM     55  C   UNL A   1      49.243  29.467  27.197  1.00  0.00     0.029 A 
ATOM     56  C   UNL A   1      48.265  28.490  27.135  1.00  0.00     0.049 A 
ATOM     57  H   UNL A   1      46.182  28.669  27.435  1.00  0.00     0.167 HD
ATOM     58  C   UNL A   1      47.395  26.196  26.837  1.00  0.00     0.074 A 
ATOM     59  C   UNL A   1      47.544  24.784  26.553  1.00  0.00     0.031 C 
ATOM     60  C   UNL A   1      48.416  27.087  26.845  1.00  0.00     0.037 A 
BRANCH  47  61
ATOM     61  C   UNL A   1      46.645  32.880  28.047  1.00  0.00     0.058 A 
ATOM     62  C   UNL A   1      47.200  33.400  29.229  1.00  0.00     0.135 A 
ATOM     63  C   UNL A   1      46.565  33.741  26.937  1.00  0.00     0.135 A 
ATOM     64  F   UNL A   1      47.308  32.627  30.321  1.00  0.00    -0.206 F 
ATOM     65  C   UNL A   1      47.619  34.725  29.319  1.00  0.00     0.059 A 
ATOM     66  C   UNL A   1      47.007  35.062  26.997  1.00  0.00     0.059 A 
ATOM     67  F   UNL A   1      46.065  33.298  25.774  1.00  0.00    -0.206 F 
ATOM     68  C   UNL A   1      47.516  35.551  28.199  1.00  0.00     0.060 A 
BRANCH  68  69
ATOM     69  S   UNL A   1      48.062  37.267  28.340  1.00  0.00     0.124 S 
ATOM     70  O   UNL A   1      47.001  37.968  27.623  1.00  0.00    -0.237 OA
ATOM     71  O   UNL A   1      48.090  37.470  29.784  1.00  0.00    -0.237 OA
ATOM     72  O   UNL A   1      49.366  37.264  27.685  1.00  0.00    -0.744 OA
ENDBRANCH  68  69
ENDBRANCH  47  61
BRANCH  48  73
ATOM     73  C   UNL A   1      43.532  23.516  26.831  1.00  0.00     0.058 A 
ATOM     74  C   UNL A   1      43.371  22.995  25.538  1.00  0.00     0.135 A 
ATOM     75  C   UNL A   1      43.266  22.665  27.916  1.00  0.00     0.135 A 
ATOM     76  F   UNL A   1      43.606  23.770  24.469  1.00  0.00    -0.206 F 
ATOM     77  C   UNL A   1      42.953  21.685  25.326  1.00  0.00     0.059 A 
ATOM     78  C   UNL A   1      42.875  21.343  27.729  1.00  0.00     0.059 A 
ATOM     79  F   UNL A   1      43.426  23.108  29.172  1.00  0.00    -0.206 F 
ATOM     80  C   UNL A   1      42.712  20.865  26.429  1.00  0.00     0.060 A 
BRANCH  80  81
ATOM     81  S   UNL A   1      42.234  19.146  26.145  1.00  0.00     0.124 S 
ATOM     82  O   UNL A   1      42.483  18.553  27.453  1.00  0.00    -0.237 OA
ATOM     83  O   UNL A   1      40.833  19.277  25.756  1.00  0.00    -0.237 OA
ATOM     84  O   UNL A   1      43.135  18.723  25.077  1.00  0.00    -0.744 OA
ENDBRANCH  80  81
ENDBRANCH  48  73
BRANCH  60  85
ATOM     85  C   UNL A   1      49.792  26.566  26.534  1.00  0.00     0.058 A 
ATOM     86  C   UNL A   1      50.613  26.024  27.537  1.00  0.00     0.135 A 
ATOM     87  C   UNL A   1      50.283  26.569  25.219  1.00  0.00     0.135 A 
ATOM     88  F   UNL A   1      50.198  26.005  28.813  1.00  0.00    -0.206 F 
ATOM     89  C   UNL A   1      51.879  25.523  27.250  1.00  0.00     0.059 A 
ATOM     90  C   UNL A   1      51.536  26.050  24.904  1.00  0.00     0.059 A 
ATOM     91  F   UNL A   1      49.538  27.070  24.221  1.00  0.00    -0.206 F 
ATOM     92  C   UNL A   1      52.331  25.537  25.929  1.00  0.00     0.060 A 
BRANCH  92  93
ATOM     93  S   UNL A   1      53.961  24.850  25.565  1.00  0.00     0.124 S 
ATOM     94  O   UNL A   1      54.334  25.596  24.368  1.00  0.00    -0.237 OA
ATOM     95  O   UNL A   1      54.714  25.174  26.773  1.00  0.00    -0.237 OA
ATOM     96  O   UNL A   1      53.693  23.429  25.363  1.00  0.00    -0.744 OA
ENDBRANCH  92  93
ENDBRANCH  60  85
ENDBRANCH  34  35
ENDBRANCH  26  29
ENDBRANCH   1  25
TORSDOF 14
ENDMDL
MODEL 3
REMARK VINA RESULT:     -12.7      5.543     10.292
REMARK SMILES C[C@H]1CCC[C@H](C)N1C(=O)[C@H]1[C@@H](C(=O)NCCCNC(=O)c2ccc(-c3c4nc(c(-c5c(F)cc(S(=O)(=O)[O-])cc5F)c5ccc([nH]5)c(-c5c(F)cc(S(=O)(=O)[O-])cc5F)c5nc(c(-c6c(F)cc(S(=O)(=O)[O-])cc6F)c6ccc3[nH]6)C=C5)C=C4)cc2)[C@H]2CC[C@@H]1O2
REMARK SMILES IDX 18 1 17 2 16 3 15 4 13 5 14 6 12 8 11 9 91 10 88 11 90 12
REMARK SMILES IDX 92 13 89 14 9 15 1 16 2 17 3 18 8 19 4 20 6 21 5 22 7 23
REMARK SMILES IDX 10 24 19 25 20 26 21 28 22 29 23 30 87 31 24 32 86 33 25 34
REMARK SMILES IDX 26 35 27 36 80 37 28 38 85 39 79 40 81 41 29 42 84 43 78 44
REMARK SMILES IDX 77 45 30 47 64 48 43 49 63 50 44 51 47 52 62 53 82 54 45 55
REMARK SMILES IDX 46 56 61 58 83 59 48 60 31 61 32 62 41 63 33 64 34 65 40 66
REMARK SMILES IDX 42 67 35 68 36 69 37 70 38 71 39 72 65 73 66 74 75 75 67 76
REMARK SMILES IDX 68 77 74 78 76 79 69 80 70 81 71 82 72 83 73 84 49 85 50 86
REMARK SMILES IDX 59 87 51 88 52 89 58 90 60 91 53 92 54 93 55 94 56 95 57 96
REMARK H PARENT 15 7 19 27 81 46 47 57
REMARK Flexibility Score: inf
ROOT
ATOM      1  C   UNL A   1      33.701  28.892  26.444  1.00  0.00     0.118 C 
ENDROOT
BRANCH   1   2
ATOM      2  C   UNL A   1      32.795  29.332  25.272  1.00  0.00     0.042 C 
BRANCH   2   3
ATOM      3  C   UNL A   1      33.197  28.905  23.831  1.00  0.00     0.117 C 
BRANCH   3   4
ATOM      4  N   UNL A   1      33.838  27.604  23.678  1.00  0.00    -0.356 N 
ATOM      5  C   UNL A   1      33.318  26.403  23.180  1.00  0.00     0.226 C 
ATOM      6  O   UNL A   1      33.785  25.745  22.316  1.00  0.00    -0.275 OA
ATOM      7  H   UNL A   1      34.777  27.563  23.970  1.00  0.00     0.163 HD
BRANCH   5   8
ATOM      8  C   UNL A   1      32.152  25.982  24.010  1.00  0.00     0.122 C 
ATOM      9  C   UNL A   1      32.450  25.685  25.445  1.00  0.00     0.122 C 
ATOM     10  C   UNL A   1      30.944  25.280  25.745  1.00  0.00     0.132 C 
ATOM     11  C   UNL A   1      31.236  24.823  23.648  1.00  0.00     0.132 C 
ATOM     12  C   UNL A   1      30.653  23.814  25.811  1.00  0.00     0.035 C 
ATOM     13  O   UNL A   1      30.200  25.485  24.414  1.00  0.00    -0.373 OA
ATOM     14  C   UNL A   1      30.938  23.458  24.347  1.00  0.00     0.035 C 
BRANCH   9  15
ATOM     15  C   UNL A   1      33.724  24.713  25.435  1.00  0.00     0.229 C 
ATOM     16  C   UNL A   1      33.692  22.249  27.938  1.00  0.00     0.031 C 
ATOM     17  C   UNL A   1      34.061  22.241  26.435  1.00  0.00     0.082 C 
ATOM     18  C   UNL A   1      33.651  20.787  26.047  1.00  0.00     0.025 C 
ATOM     19  N   UNL A   1      33.525  23.276  25.396  1.00  0.00    -0.337 N 
ATOM     20  C   UNL A   1      33.960  20.392  24.626  1.00  0.00     0.004 C 
ATOM     21  C   UNL A   1      33.940  22.834  24.023  1.00  0.00     0.082 C 
ATOM     22  C   UNL A   1      33.399  21.444  23.688  1.00  0.00     0.025 C 
ATOM     23  C   UNL A   1      35.479  22.816  23.802  1.00  0.00     0.031 C 
ATOM     24  O   UNL A   1      34.863  25.171  25.377  1.00  0.00    -0.274 OA
ENDBRANCH   9  15
ENDBRANCH   5   8
ENDBRANCH   3   4
ENDBRANCH   2   3
ENDBRANCH   1   2
BRANCH   1  25
ATOM     25  N   UNL A   1      33.594  29.740  27.625  1.00  0.00    -0.352 N 
ATOM     26  C   UNL A   1      34.554  30.599  28.131  1.00  0.00     0.251 C 
ATOM     27  H   UNL A   1      32.745  29.695  28.119  1.00  0.00     0.163 HD
ATOM     28  O   UNL A   1      34.210  31.715  28.515  1.00  0.00    -0.269 OA
BRANCH  26  29
ATOM     29  C   UNL A   1      35.965  30.185  28.331  1.00  0.00     0.039 A 
ATOM     30  C   UNL A   1      36.850  30.238  27.257  1.00  0.00     0.014 A 
ATOM     31  C   UNL A   1      36.373  29.524  29.489  1.00  0.00     0.014 A 
ATOM     32  C   UNL A   1      38.147  29.703  27.381  1.00  0.00     0.010 A 
ATOM     33  C   UNL A   1      37.712  29.105  29.657  1.00  0.00     0.010 A 
ATOM     34  C   UNL A   1      38.636  29.196  28.607  1.00  0.00    -0.014 A 
BRANCH  34  35
ATOM     35  C   UNL A   1      40.105  28.860  28.754  1.00  0.00     0.031 A 
ATOM     36  C   UNL A   1      40.720  27.532  28.343  1.00  0.00     0.074 A 
ATOM     37  C   UNL A   1      40.926  29.781  29.312  1.00  0.00     0.049 A 
ATOM     38  N   UNL A   1      41.985  27.170  28.354  1.00  0.00    -0.248 NA
ATOM     39  C   UNL A   1      39.815  26.459  27.909  1.00  0.00     0.031 C 
ATOM     40  C   UNL A   1      40.487  31.053  29.895  1.00  0.00     0.029 A 
ATOM     41  N   UNL A   1      42.294  29.815  29.467  1.00  0.00    -0.354 N 
ATOM     42  C   UNL A   1      42.023  25.834  27.957  1.00  0.00     0.074 A 
ATOM     43  C   UNL A   1      40.645  25.433  27.761  1.00  0.00     0.031 C 
ATOM     44  C   UNL A   1      41.558  31.776  30.251  1.00  0.00     0.029 A 
ATOM     45  C   UNL A   1      42.766  31.005  29.981  1.00  0.00     0.049 A 
ATOM     46  H   UNL A   1      42.881  29.060  29.233  1.00  0.00     0.167 HD
ATOM     47  C   UNL A   1      43.093  25.021  27.746  1.00  0.00     0.037 A 
ATOM     48  C   UNL A   1      44.019  31.450  30.204  1.00  0.00     0.037 A 
ATOM     49  C   UNL A   1      44.472  25.427  27.885  1.00  0.00     0.049 A 
ATOM     50  C   UNL A   1      45.192  30.572  29.874  1.00  0.00     0.074 A 
ATOM     51  C   UNL A   1      45.617  24.707  27.577  1.00  0.00     0.029 A 
ATOM     52  N   UNL A   1      44.900  26.653  28.369  1.00  0.00    -0.354 N 
ATOM     53  N   UNL A   1      45.195  29.358  29.380  1.00  0.00    -0.248 NA
ATOM     54  C   UNL A   1      46.531  31.122  30.128  1.00  0.00     0.031 C 
ATOM     55  C   UNL A   1      46.733  25.481  27.913  1.00  0.00     0.029 A 
ATOM     56  C   UNL A   1      46.287  26.700  28.391  1.00  0.00     0.049 A 
ATOM     57  H   UNL A   1      44.306  27.384  28.657  1.00  0.00     0.167 HD
ATOM     58  C   UNL A   1      46.534  29.000  29.263  1.00  0.00     0.074 A 
ATOM     59  C   UNL A   1      47.313  30.137  29.705  1.00  0.00     0.031 C 
ATOM     60  C   UNL A   1      47.065  27.828  28.838  1.00  0.00     0.037 A 
BRANCH  47  61
ATOM     61  C   UNL A   1      42.833  23.597  27.308  1.00  0.00     0.058 A 
ATOM     62  C   UNL A   1      42.968  23.204  25.965  1.00  0.00     0.135 A 
ATOM     63  C   UNL A   1      42.526  22.596  28.247  1.00  0.00     0.135 A 
ATOM     64  F   UNL A   1      43.265  24.113  25.023  1.00  0.00    -0.206 F 
ATOM     65  C   UNL A   1      42.767  21.886  25.565  1.00  0.00     0.059 A 
ATOM     66  C   UNL A   1      42.350  21.264  27.872  1.00  0.00     0.059 A 
ATOM     67  F   UNL A   1      42.405  22.904  29.547  1.00  0.00    -0.206 F 
ATOM     68  C   UNL A   1      42.455  20.922  26.525  1.00  0.00     0.060 A 
BRANCH  68  69
ATOM     69  S   UNL A   1      42.194  19.219  25.984  1.00  0.00     0.124 S 
ATOM     70  O   UNL A   1      40.753  19.206  25.751  1.00  0.00    -0.237 OA
ATOM     71  O   UNL A   1      43.028  19.138  24.789  1.00  0.00    -0.237 OA
ATOM     72  O   UNL A   1      42.652  18.426  27.120  1.00  0.00    -0.744 OA
ENDBRANCH  68  69
ENDBRANCH  47  61
BRANCH  48  73
ATOM     73  C   UNL A   1      44.231  32.822  30.745  1.00  0.00     0.058 A 
ATOM     74  C   UNL A   1      44.382  33.039  32.123  1.00  0.00     0.135 A 
ATOM     75  C   UNL A   1      44.317  33.936  29.895  1.00  0.00     0.135 A 
ATOM     76  F   UNL A   1      44.301  32.007  32.977  1.00  0.00    -0.206 F 
ATOM     77  C   UNL A   1      44.598  34.312  32.642  1.00  0.00     0.059 A 
ATOM     78  C   UNL A   1      44.562  35.214  30.388  1.00  0.00     0.059 A 
ATOM     79  F   UNL A   1      44.202  33.779  28.567  1.00  0.00    -0.206 F 
ATOM     80  C   UNL A   1      44.692  35.393  31.765  1.00  0.00     0.060 A 
BRANCH  80  81
ATOM     81  S   UNL A   1      45.040  37.031  32.440  1.00  0.00     0.124 S 
ATOM     82  O   UNL A   1      43.778  37.721  32.200  1.00  0.00    -0.237 OA
ATOM     83  O   UNL A   1      45.350  36.729  33.834  1.00  0.00    -0.237 OA
ATOM     84  O   UNL A   1      46.173  37.487  31.640  1.00  0.00    -0.744 OA
ENDBRANCH  80  81
ENDBRANCH  48  73
BRANCH  60  85
ATOM     85  C   UNL A   1      48.564  27.709  28.831  1.00  0.00     0.058 A 
ATOM     86  C   UNL A   1      49.265  27.216  29.944  1.00  0.00     0.135 A 
ATOM     87  C   UNL A   1      49.307  28.050  27.689  1.00  0.00     0.135 A 
ATOM     88  F   UNL A   1      48.605  26.885  31.065  1.00  0.00    -0.206 F 
ATOM     89  C   UNL A   1      50.650  27.085  29.933  1.00  0.00     0.059 A 
ATOM     90  C   UNL A   1      50.690  27.903  27.646  1.00  0.00     0.059 A 
ATOM     91  F   UNL A   1      48.687  28.520  26.595  1.00  0.00    -0.206 F 
ATOM     92  C   UNL A   1      51.354  27.429  28.777  1.00  0.00     0.060 A 
BRANCH  92  93
ATOM     93  S   UNL A   1      53.149  27.219  28.764  1.00  0.00     0.124 S 
ATOM     94  O   UNL A   1      53.607  28.593  28.946  1.00  0.00    -0.237 OA
ATOM     95  O   UNL A   1      53.368  26.324  29.895  1.00  0.00    -0.237 OA
ATOM     96  O   UNL A   1      53.413  26.638  27.451  1.00  0.00    -0.744 OA
ENDBRANCH  92  93
ENDBRANCH  60  85
ENDBRANCH  34  35
ENDBRANCH  26  29
ENDBRANCH   1  25
TORSDOF 14
ENDMDL
