MODEL 1
REMARK VINA RESULT:     -13.1      0.000      0.000
REMARK SMILES COc1ccc(Cl)c2c1N[C@@H](c1ccc(C(=O)NCCCNC(=O)c3ccc(-c4c5nc(c(-c6c(F)cc(S(=O)(=O)[O-])cc6F)c6ccc([nH]6)c(-c6c(F)cc(S(=O)(=O)[O-])cc6F)c6nc(c(-c7c(F)cc(S(=O)(=O)[O-])cc7F)c7ccc4[nH]7)C=C6)C=C5)cc3)cc1)[C@@H]1CC=C[C@H]21
REMARK SMILES IDX 20 1 19 2 18 3 16 4 17 5 15 7 12 8 13 9 92 10 14 11 91 12
REMARK SMILES IDX 11 13 3 14 4 15 9 16 5 17 8 18 10 19 6 20 97 21 7 23 93 24
REMARK SMILES IDX 96 25 94 26 95 27 2 28 1 29 21 30 22 31 23 32 24 34 25 35
REMARK SMILES IDX 26 36 90 37 27 38 89 39 28 40 29 41 30 42 83 43 31 44 88 45
REMARK SMILES IDX 82 46 84 47 32 48 87 49 81 50 80 51 33 53 67 54 46 55 66 56
REMARK SMILES IDX 47 57 50 58 65 59 85 60 48 61 49 62 64 64 86 65 51 66 34 67
REMARK SMILES IDX 35 68 44 69 36 70 37 71 43 72 45 73 38 74 39 75 40 76 41 77
REMARK SMILES IDX 42 78 68 79 69 80 78 81 70 82 71 83 77 84 79 85 72 86 73 87
REMARK SMILES IDX 74 88 75 89 76 90 52 91 53 92 62 93 54 94 55 95 61 96 63 97
REMARK SMILES IDX 56 98 57 99 58 100 59 101 60 102
REMARK H PARENT 18 6 10 22 22 33 84 52 50 63
REMARK Flexibility Score: inf
ROOT
ATOM      1  C   UNL A   1      40.402  21.827  27.197  1.00  0.00     0.042 C 
ENDROOT
BRANCH   1   2
ATOM      2  C   UNL A   1      39.347  22.220  26.165  1.00  0.00     0.118 C 
BRANCH   2   3
ATOM      3  N   UNL A   1      38.573  21.065  25.750  1.00  0.00    -0.352 N 
ATOM      4  C   UNL A   1      37.299  20.945  25.259  1.00  0.00     0.251 C 
ATOM      5  O   UNL A   1      36.912  19.820  24.940  1.00  0.00    -0.269 OA
ATOM      6  H   UNL A   1      39.052  20.210  25.835  1.00  0.00     0.163 HD
BRANCH   4   7
ATOM      7  C   UNL A   1      36.401  22.111  25.039  1.00  0.00     0.039 A 
ATOM      8  C   UNL A   1      34.817  24.389  24.453  1.00  0.00    -0.025 A 
ATOM      9  C   UNL A   1      35.552  23.744  23.446  1.00  0.00     0.006 A 
ATOM     10  C   UNL A   1      34.846  23.837  25.740  1.00  0.00     0.006 A 
ATOM     11  C   UNL A   1      36.316  22.607  23.732  1.00  0.00     0.014 A 
ATOM     12  C   UNL A   1      35.626  22.715  26.028  1.00  0.00     0.014 A 
BRANCH   8  13
ATOM     13  C   UNL A   1      33.976  25.635  24.200  1.00  0.00     0.114 C 
ATOM     14  C   UNL A   1      33.534  28.651  26.314  1.00  0.00     0.142 A 
ATOM     15  C   UNL A   1      32.754  29.799  26.417  1.00  0.00     0.050 A 
ATOM     16  C   UNL A   1      33.203  27.620  25.413  1.00  0.00     0.083 A 
ATOM     17  C   UNL A   1      31.647  29.948  25.589  1.00  0.00     0.025 A 
ATOM     18  C   UNL A   1      32.095  27.775  24.560  1.00  0.00     0.005 A 
ATOM     19  N   UNL A   1      33.946  26.450  25.399  1.00  0.00    -0.375 N 
ATOM     20  C   UNL A   1      31.320  28.948  24.667  1.00  0.00     0.047 A 
ATOM     21  C   UNL A   1      31.739  26.669  23.595  1.00  0.00     0.051 C 
ATOM     22  H   UNL A   1      34.451  26.174  26.197  1.00  0.00     0.161 HD
ATOM     23  Cl  UNL A   1      29.903  29.205  23.705  1.00  0.00    -0.084 Cl
ATOM     24  C   UNL A   1      32.521  25.338  23.766  1.00  0.00     0.031 C 
ATOM     25  C   UNL A   1      32.021  26.986  22.145  1.00  0.00    -0.023 C 
ATOM     26  C   UNL A   1      32.410  24.698  22.368  1.00  0.00     0.034 C 
ATOM     27  C   UNL A   1      32.385  25.890  21.468  1.00  0.00    -0.030 C 
BRANCH  14  28
ATOM     28  O   UNL A   1      34.605  28.540  27.170  1.00  0.00    -0.495 OA
ATOM     29  C   UNL A   1      35.276  29.795  27.323  1.00  0.00     0.278 C 
ENDBRANCH  14  28
ENDBRANCH   8  13
ENDBRANCH   4   7
ENDBRANCH   2   3
ENDBRANCH   1   2
BRANCH   1  30
ATOM     30  C   UNL A   1      41.367  22.961  27.520  1.00  0.00     0.118 C 
BRANCH  30  31
ATOM     31  N   UNL A   1      41.681  23.743  26.333  1.00  0.00    -0.352 N 
ATOM     32  C   UNL A   1      41.552  25.094  26.132  1.00  0.00     0.251 C 
ATOM     33  H   UNL A   1      42.036  23.232  25.570  1.00  0.00     0.163 HD
ATOM     34  O   UNL A   1      41.577  25.548  24.994  1.00  0.00    -0.269 OA
BRANCH  32  35
ATOM     35  C   UNL A   1      41.388  25.992  27.294  1.00  0.00     0.039 A 
ATOM     36  C   UNL A   1      40.270  25.845  28.119  1.00  0.00     0.014 A 
ATOM     37  C   UNL A   1      42.320  27.007  27.535  1.00  0.00     0.014 A 
ATOM     38  C   UNL A   1      40.105  26.698  29.210  1.00  0.00     0.010 A 
ATOM     39  C   UNL A   1      42.188  27.814  28.659  1.00  0.00     0.010 A 
ATOM     40  C   UNL A   1      41.068  27.682  29.491  1.00  0.00    -0.014 A 
BRANCH  40  41
ATOM     41  C   UNL A   1      40.881  28.637  30.607  1.00  0.00     0.031 A 
ATOM     42  C   UNL A   1      41.767  28.534  31.817  1.00  0.00     0.074 A 
ATOM     43  C   UNL A   1      39.903  29.559  30.546  1.00  0.00     0.049 A 
ATOM     44  N   UNL A   1      41.746  29.240  32.917  1.00  0.00    -0.248 NA
ATOM     45  C   UNL A   1      42.801  27.486  31.796  1.00  0.00     0.031 C 
ATOM     46  C   UNL A   1      38.972  29.730  29.428  1.00  0.00     0.029 A 
ATOM     47  N   UNL A   1      39.526  30.523  31.445  1.00  0.00    -0.354 N 
ATOM     48  C   UNL A   1      42.764  28.727  33.712  1.00  0.00     0.074 A 
ATOM     49  C   UNL A   1      43.338  27.608  33.000  1.00  0.00     0.031 C 
ATOM     50  C   UNL A   1      38.144  30.752  29.701  1.00  0.00     0.029 A 
ATOM     51  C   UNL A   1      38.464  31.288  31.022  1.00  0.00     0.049 A 
ATOM     52  H   UNL A   1      39.974  30.655  32.311  1.00  0.00     0.167 HD
ATOM     53  C   UNL A   1      43.201  29.172  34.913  1.00  0.00     0.037 A 
ATOM     54  C   UNL A   1      37.826  32.303  31.634  1.00  0.00     0.037 A 
ATOM     55  C   UNL A   1      42.628  30.295  35.606  1.00  0.00     0.049 A 
ATOM     56  C   UNL A   1      38.299  32.749  32.992  1.00  0.00     0.074 A 
ATOM     57  C   UNL A   1      43.017  30.849  36.811  1.00  0.00     0.029 A 
ATOM     58  N   UNL A   1      41.543  31.033  35.155  1.00  0.00    -0.354 N 
ATOM     59  N   UNL A   1      39.297  32.288  33.710  1.00  0.00    -0.248 NA
ATOM     60  C   UNL A   1      37.563  33.853  33.625  1.00  0.00     0.031 C 
ATOM     61  C   UNL A   1      42.136  31.891  37.114  1.00  0.00     0.029 A 
ATOM     62  C   UNL A   1      41.231  32.021  36.072  1.00  0.00     0.049 A 
ATOM     63  H   UNL A   1      41.066  30.876  34.309  1.00  0.00     0.167 HD
ATOM     64  C   UNL A   1      39.323  33.059  34.866  1.00  0.00     0.074 A 
ATOM     65  C   UNL A   1      38.251  34.026  34.746  1.00  0.00     0.031 C 
ATOM     66  C   UNL A   1      40.159  32.976  35.932  1.00  0.00     0.037 A 
BRANCH  53  67
ATOM     67  C   UNL A   1      44.363  28.454  35.543  1.00  0.00     0.058 A 
ATOM     68  C   UNL A   1      44.166  27.385  36.431  1.00  0.00     0.135 A 
ATOM     69  C   UNL A   1      45.684  28.807  35.225  1.00  0.00     0.135 A 
ATOM     70  F   UNL A   1      42.925  27.018  36.786  1.00  0.00    -0.206 F 
ATOM     71  C   UNL A   1      45.238  26.704  36.998  1.00  0.00     0.059 A 
ATOM     72  C   UNL A   1      46.771  28.122  35.758  1.00  0.00     0.059 A 
ATOM     73  F   UNL A   1      45.928  29.826  34.385  1.00  0.00    -0.206 F 
ATOM     74  C   UNL A   1      46.538  27.077  36.651  1.00  0.00     0.060 A 
BRANCH  74  75
ATOM     75  S   UNL A   1      47.914  26.167  37.382  1.00  0.00     0.124 S 
ATOM     76  O   UNL A   1      47.346  24.827  37.502  1.00  0.00    -0.237 OA
ATOM     77  O   UNL A   1      48.959  26.324  36.376  1.00  0.00    -0.237 OA
ATOM     78  O   UNL A   1      48.150  26.861  38.645  1.00  0.00    -0.744 OA
ENDBRANCH  74  75
ENDBRANCH  53  67
BRANCH  54  79
ATOM     79  C   UNL A   1      36.695  32.986  30.951  1.00  0.00     0.058 A 
ATOM     80  C   UNL A   1      35.375  32.802  31.388  1.00  0.00     0.135 A 
ATOM     81  C   UNL A   1      36.908  33.856  29.870  1.00  0.00     0.135 A 
ATOM     82  F   UNL A   1      35.117  31.975  32.412  1.00  0.00    -0.206 F 
ATOM     83  C   UNL A   1      34.306  33.449  30.776  1.00  0.00     0.059 A 
ATOM     84  C   UNL A   1      35.859  34.534  29.257  1.00  0.00     0.059 A 
ATOM     85  F   UNL A   1      38.155  34.079  29.422  1.00  0.00    -0.206 F 
ATOM     86  C   UNL A   1      34.560  34.319  29.715  1.00  0.00     0.060 A 
BRANCH  86  87
ATOM     87  S   UNL A   1      33.169  35.198  28.969  1.00  0.00     0.124 S 
ATOM     88  O   UNL A   1      32.675  34.214  28.014  1.00  0.00    -0.237 OA
ATOM     89  O   UNL A   1      32.316  35.452  30.127  1.00  0.00    -0.237 OA
ATOM     90  O   UNL A   1      33.793  36.384  28.389  1.00  0.00    -0.744 OA
ENDBRANCH  86  87
ENDBRANCH  54  79
BRANCH  66  91
ATOM     91  C   UNL A   1      39.961  33.958  37.053  1.00  0.00     0.058 A 
ATOM     92  C   UNL A   1      40.525  35.241  37.011  1.00  0.00     0.135 A 
ATOM     93  C   UNL A   1      39.124  33.643  38.137  1.00  0.00     0.135 A 
ATOM     94  F   UNL A   1      41.337  35.589  36.000  1.00  0.00    -0.206 F 
ATOM     95  C   UNL A   1      40.277  36.176  38.009  1.00  0.00     0.059 A 
ATOM     96  C   UNL A   1      38.838  34.573  39.132  1.00  0.00     0.059 A 
ATOM     97  F   UNL A   1      38.550  32.433  38.219  1.00  0.00    -0.206 F 
ATOM     98  C   UNL A   1      39.424  35.835  39.062  1.00  0.00     0.060 A 
BRANCH  98  99
ATOM     99  S   UNL A   1      39.070  37.080  40.320  1.00  0.00     0.124 S 
ATOM    100  O   UNL A   1      38.460  38.139  39.523  1.00  0.00    -0.237 OA
ATOM    101  O   UNL A   1      38.170  36.364  41.219  1.00  0.00    -0.237 OA
ATOM    102  O   UNL A   1      40.386  37.390  40.874  1.00  0.00    -0.744 OA
ENDBRANCH  98  99
ENDBRANCH  66  91
ENDBRANCH  40  41
ENDBRANCH  32  35
ENDBRANCH  30  31
ENDBRANCH   1  30
TORSDOF 15
ENDMDL
MODEL 2
REMARK VINA RESULT:     -13.0      6.279     12.033
REMARK SMILES COc1ccc(Cl)c2c1N[C@@H](c1ccc(C(=O)NCCCNC(=O)c3ccc(-c4c5nc(c(-c6c(F)cc(S(=O)(=O)[O-])cc6F)c6ccc([nH]6)c(-c6c(F)cc(S(=O)(=O)[O-])cc6F)c6nc(c(-c7c(F)cc(S(=O)(=O)[O-])cc7F)c7ccc4[nH]7)C=C6)C=C5)cc3)cc1)[C@@H]1CC=C[C@H]21
REMARK SMILES IDX 20 1 19 2 18 3 16 4 17 5 15 7 12 8 13 9 92 10 14 11 91 12
REMARK SMILES IDX 11 13 3 14 4 15 9 16 5 17 8 18 10 19 6 20 97 21 7 23 93 24
REMARK SMILES IDX 96 25 94 26 95 27 2 28 1 29 21 30 22 31 23 32 24 34 25 35
REMARK SMILES IDX 26 36 90 37 27 38 89 39 28 40 29 41 30 42 83 43 31 44 88 45
REMARK SMILES IDX 82 46 84 47 32 48 87 49 81 50 80 51 33 53 67 54 46 55 66 56
REMARK SMILES IDX 47 57 50 58 65 59 85 60 48 61 49 62 64 64 86 65 51 66 34 67
REMARK SMILES IDX 35 68 44 69 36 70 37 71 43 72 45 73 38 74 39 75 40 76 41 77
REMARK SMILES IDX 42 78 68 79 69 80 78 81 70 82 71 83 77 84 79 85 72 86 73 87
REMARK SMILES IDX 74 88 75 89 76 90 52 91 53 92 62 93 54 94 55 95 61 96 63 97
REMARK SMILES IDX 56 98 57 99 58 100 59 101 60 102
REMARK H PARENT 18 6 10 22 22 33 84 52 50 63
REMARK Flexibility Score: inf
ROOT
ATOM      1  C   UNL A   1      35.603  32.707  28.003  1.00  0.00     0.042 C 
ENDROOT
BRANCH   1   2
ATOM      2  C   UNL A   1      34.592  31.575  28.170  1.00  0.00     0.118 C 
BRANCH   2   3
ATOM      3  N   UNL A   1      33.350  31.884  27.488  1.00  0.00    -0.352 N 
ATOM      4  C   UNL A   1      32.430  31.090  26.852  1.00  0.00     0.251 C 
ATOM      5  O   UNL A   1      31.425  31.633  26.393  1.00  0.00    -0.269 OA
ATOM      6  H   UNL A   1      33.124  32.843  27.480  1.00  0.00     0.163 HD
BRANCH   4   7
ATOM      7  C   UNL A   1      32.566  29.611  26.754  1.00  0.00     0.039 A 
ATOM      8  C   UNL A   1      32.897  26.822  26.367  1.00  0.00    -0.025 A 
ATOM      9  C   UNL A   1      33.692  27.745  25.670  1.00  0.00     0.006 A 
ATOM     10  C   UNL A   1      31.979  27.321  27.300  1.00  0.00     0.006 A 
ATOM     11  C   UNL A   1      33.542  29.121  25.878  1.00  0.00     0.014 A 
ATOM     12  C   UNL A   1      31.817  28.695  27.491  1.00  0.00     0.014 A 
BRANCH   8  13
ATOM     13  C   UNL A   1      33.011  25.313  26.173  1.00  0.00     0.114 C 
ATOM     14  C   UNL A   1      36.003  23.250  25.434  1.00  0.00     0.142 A 
ATOM     15  C   UNL A   1      36.366  21.958  25.064  1.00  0.00     0.050 A 
ATOM     16  C   UNL A   1      34.659  23.668  25.407  1.00  0.00     0.083 A 
ATOM     17  C   UNL A   1      35.378  21.051  24.695  1.00  0.00     0.025 A 
ATOM     18  C   UNL A   1      33.654  22.749  25.053  1.00  0.00     0.005 A 
ATOM     19  N   UNL A   1      34.339  24.987  25.693  1.00  0.00    -0.375 N 
ATOM     20  C   UNL A   1      34.035  21.440  24.691  1.00  0.00     0.047 A 
ATOM     21  C   UNL A   1      32.212  23.198  25.022  1.00  0.00     0.051 C 
ATOM     22  H   UNL A   1      35.011  25.696  25.572  1.00  0.00     0.161 HD
ATOM     23  Cl  UNL A   1      32.880  20.255  24.181  1.00  0.00    -0.084 Cl
ATOM     24  C   UNL A   1      31.970  24.723  25.193  1.00  0.00     0.031 C 
ATOM     25  C   UNL A   1      31.358  22.642  26.138  1.00  0.00    -0.023 C 
ATOM     26  C   UNL A   1      30.522  24.779  25.719  1.00  0.00     0.034 C 
ATOM     27  C   UNL A   1      30.419  23.518  26.515  1.00  0.00    -0.030 C 
BRANCH  14  28
ATOM     28  O   UNL A   1      37.018  24.116  25.769  1.00  0.00    -0.495 OA
ATOM     29  C   UNL A   1      38.187  23.405  26.187  1.00  0.00     0.278 C 
ENDBRANCH  14  28
ENDBRANCH   8  13
ENDBRANCH   4   7
ENDBRANCH   2   3
ENDBRANCH   1   2
BRANCH   1  30
ATOM     30  C   UNL A   1      36.613  32.773  29.142  1.00  0.00     0.118 C 
BRANCH  30  31
ATOM     31  N   UNL A   1      36.183  31.970  30.278  1.00  0.00    -0.352 N 
ATOM     32  C   UNL A   1      36.660  30.757  30.706  1.00  0.00     0.251 C 
ATOM     33  H   UNL A   1      35.450  32.351  30.814  1.00  0.00     0.163 HD
ATOM     34  O   UNL A   1      36.000  30.083  31.489  1.00  0.00    -0.269 OA
BRANCH  32  35
ATOM     35  C   UNL A   1      37.969  30.275  30.220  1.00  0.00     0.039 A 
ATOM     36  C   UNL A   1      38.992  30.031  31.140  1.00  0.00     0.014 A 
ATOM     37  C   UNL A   1      38.193  30.109  28.849  1.00  0.00     0.014 A 
ATOM     38  C   UNL A   1      40.234  29.587  30.685  1.00  0.00     0.010 A 
ATOM     39  C   UNL A   1      39.408  29.605  28.403  1.00  0.00     0.010 A 
ATOM     40  C   UNL A   1      40.446  29.363  29.314  1.00  0.00    -0.014 A 
BRANCH  40  41
ATOM     41  C   UNL A   1      41.773  28.951  28.803  1.00  0.00     0.031 A 
ATOM     42  C   UNL A   1      42.865  29.977  28.687  1.00  0.00     0.074 A 
ATOM     43  C   UNL A   1      41.978  27.679  28.414  1.00  0.00     0.049 A 
ATOM     44  N   UNL A   1      44.081  29.839  28.229  1.00  0.00    -0.248 NA
ATOM     45  C   UNL A   1      42.541  31.345  29.128  1.00  0.00     0.031 C 
ATOM     46  C   UNL A   1      40.980  26.609  28.462  1.00  0.00     0.029 A 
ATOM     47  N   UNL A   1      43.094  27.072  27.897  1.00  0.00    -0.354 N 
ATOM     48  C   UNL A   1      44.667  31.095  28.331  1.00  0.00     0.074 A 
ATOM     49  C   UNL A   1      43.654  31.998  28.830  1.00  0.00     0.031 C 
ATOM     50  C   UNL A   1      41.535  25.472  28.013  1.00  0.00     0.029 A 
ATOM     51  C   UNL A   1      42.916  25.738  27.616  1.00  0.00     0.049 A 
ATOM     52  H   UNL A   1      43.942  27.547  27.742  1.00  0.00     0.167 HD
ATOM     53  C   UNL A   1      45.944  31.455  28.065  1.00  0.00     0.037 A 
ATOM     54  C   UNL A   1      43.772  24.837  27.098  1.00  0.00     0.037 A 
ATOM     55  C   UNL A   1      46.945  30.544  27.579  1.00  0.00     0.049 A 
ATOM     56  C   UNL A   1      45.174  25.272  26.763  1.00  0.00     0.074 A 
ATOM     57  C   UNL A   1      48.277  30.797  27.308  1.00  0.00     0.029 A 
ATOM     58  N   UNL A   1      46.723  29.205  27.290  1.00  0.00    -0.354 N 
ATOM     59  N   UNL A   1      45.729  26.452  26.914  1.00  0.00    -0.248 NA
ATOM     60  C   UNL A   1      46.068  24.256  26.188  1.00  0.00     0.031 C 
ATOM     61  C   UNL A   1      48.849  29.624  26.808  1.00  0.00     0.029 A 
ATOM     62  C   UNL A   1      47.887  28.625  26.817  1.00  0.00     0.049 A 
ATOM     63  H   UNL A   1      45.865  28.738  27.403  1.00  0.00     0.167 HD
ATOM     64  C   UNL A   1      47.042  26.315  26.476  1.00  0.00     0.074 A 
ATOM     65  C   UNL A   1      47.202  24.934  26.068  1.00  0.00     0.031 C 
ATOM     66  C   UNL A   1      48.026  27.246  26.417  1.00  0.00     0.037 A 
BRANCH  53  67
ATOM     67  C   UNL A   1      46.332  32.887  28.309  1.00  0.00     0.058 A 
ATOM     68  C   UNL A   1      46.226  33.855  27.297  1.00  0.00     0.135 A 
ATOM     69  C   UNL A   1      46.771  33.307  29.574  1.00  0.00     0.135 A 
ATOM     70  F   UNL A   1      45.830  33.506  26.063  1.00  0.00    -0.206 F 
ATOM     71  C   UNL A   1      46.563  35.185  27.525  1.00  0.00     0.059 A 
ATOM     72  C   UNL A   1      47.086  34.638  29.833  1.00  0.00     0.059 A 
ATOM     73  F   UNL A   1      46.895  32.421  30.575  1.00  0.00    -0.206 F 
ATOM     74  C   UNL A   1      46.987  35.568  28.798  1.00  0.00     0.060 A 
BRANCH  74  75
ATOM     75  S   UNL A   1      47.398  37.303  29.078  1.00  0.00     0.124 S 
ATOM     76  O   UNL A   1      48.245  37.591  27.924  1.00  0.00    -0.237 OA
ATOM     77  O   UNL A   1      46.084  37.937  29.073  1.00  0.00    -0.237 OA
ATOM     78  O   UNL A   1      48.082  37.288  30.368  1.00  0.00    -0.744 OA
ENDBRANCH  74  75
ENDBRANCH  53  67
BRANCH  54  79
ATOM     79  C   UNL A   1      43.335  23.430  26.898  1.00  0.00     0.058 A 
ATOM     80  C   UNL A   1      43.079  22.932  25.612  1.00  0.00     0.135 A 
ATOM     81  C   UNL A   1      43.190  22.546  27.979  1.00  0.00     0.135 A 
ATOM     82  F   UNL A   1      43.195  23.739  24.546  1.00  0.00    -0.206 F 
ATOM     83  C   UNL A   1      42.691  21.613  25.402  1.00  0.00     0.059 A 
ATOM     84  C   UNL A   1      42.827  21.215  27.794  1.00  0.00     0.059 A 
ATOM     85  F   UNL A   1      43.437  22.967  29.230  1.00  0.00    -0.206 F 
ATOM     86  C   UNL A   1      42.574  20.760  26.500  1.00  0.00     0.060 A 
BRANCH  86  87
ATOM     87  S   UNL A   1      42.127  19.034  26.208  1.00  0.00     0.124 S 
ATOM     88  O   UNL A   1      42.379  18.438  27.514  1.00  0.00    -0.237 OA
ATOM     89  O   UNL A   1      40.726  19.147  25.815  1.00  0.00    -0.237 OA
ATOM     90  O   UNL A   1      43.038  18.627  25.141  1.00  0.00    -0.744 OA
ENDBRANCH  86  87
ENDBRANCH  54  79
BRANCH  66  91
ATOM     91  C   UNL A   1      49.370  26.810  25.903  1.00  0.00     0.058 A 
ATOM     92  C   UNL A   1      49.753  27.032  24.573  1.00  0.00     0.135 A 
ATOM     93  C   UNL A   1      50.317  26.246  26.775  1.00  0.00     0.135 A 
ATOM     94  F   UNL A   1      48.883  27.562  23.698  1.00  0.00    -0.206 F 
ATOM     95  C   UNL A   1      51.025  26.700  24.119  1.00  0.00     0.059 A 
ATOM     96  C   UNL A   1      51.605  25.934  26.350  1.00  0.00     0.059 A 
ATOM     97  F   UNL A   1      50.004  26.024  28.061  1.00  0.00    -0.206 F 
ATOM     98  C   UNL A   1      51.947  26.160  25.018  1.00  0.00     0.060 A 
BRANCH  98  99
ATOM     99  S   UNL A   1      53.611  25.787  24.424  1.00  0.00     0.124 S 
ATOM    100  O   UNL A   1      53.788  24.416  24.891  1.00  0.00    -0.237 OA
ATOM    101  O   UNL A   1      53.468  25.952  22.981  1.00  0.00    -0.237 OA
ATOM    102  O   UNL A   1      54.442  26.788  25.086  1.00  0.00    -0.744 OA
ENDBRANCH  98  99
ENDBRANCH  66  91
ENDBRANCH  40  41
ENDBRANCH  32  35
ENDBRANCH  30  31
ENDBRANCH   1  30
TORSDOF 15
ENDMDL
MODEL 3
REMARK VINA RESULT:     -12.8      6.363     11.693
REMARK SMILES COc1ccc(Cl)c2c1N[C@@H](c1ccc(C(=O)NCCCNC(=O)c3ccc(-c4c5nc(c(-c6c(F)cc(S(=O)(=O)[O-])cc6F)c6ccc([nH]6)c(-c6c(F)cc(S(=O)(=O)[O-])cc6F)c6nc(c(-c7c(F)cc(S(=O)(=O)[O-])cc7F)c7ccc4[nH]7)C=C6)C=C5)cc3)cc1)[C@@H]1CC=C[C@H]21
REMARK SMILES IDX 20 1 19 2 18 3 16 4 17 5 15 7 12 8 13 9 92 10 14 11 91 12
REMARK SMILES IDX 11 13 3 14 4 15 9 16 5 17 8 18 10 19 6 20 97 21 7 23 93 24
REMARK SMILES IDX 96 25 94 26 95 27 2 28 1 29 21 30 22 31 23 32 24 34 25 35
REMARK SMILES IDX 26 36 90 37 27 38 89 39 28 40 29 41 30 42 83 43 31 44 88 45
REMARK SMILES IDX 82 46 84 47 32 48 87 49 81 50 80 51 33 53 67 54 46 55 66 56
REMARK SMILES IDX 47 57 50 58 65 59 85 60 48 61 49 62 64 64 86 65 51 66 34 67
REMARK SMILES IDX 35 68 44 69 36 70 37 71 43 72 45 73 38 74 39 75 40 76 41 77
REMARK SMILES IDX 42 78 68 79 69 80 78 81 70 82 71 83 77 84 79 85 72 86 73 87
REMARK SMILES IDX 74 88 75 89 76 90 52 91 53 92 62 93 54 94 55 95 61 96 63 97
REMARK SMILES IDX 56 98 57 99 58 100 59 101 60 102
REMARK H PARENT 18 6 10 22 22 33 84 52 50 63
REMARK Flexibility Score: inf
ROOT
ATOM      1  C   UNL A   1      35.451  32.580  28.009  1.00  0.00     0.042 C 
ENDROOT
BRANCH   1   2
ATOM      2  C   UNL A   1      34.367  31.524  28.212  1.00  0.00     0.118 C 
BRANCH   2   3
ATOM      3  N   UNL A   1      33.192  31.827  27.416  1.00  0.00    -0.352 N 
ATOM      4  C   UNL A   1      32.334  31.027  26.707  1.00  0.00     0.251 C 
ATOM      5  O   UNL A   1      31.375  31.565  26.153  1.00  0.00    -0.269 OA
ATOM      6  H   UNL A   1      32.969  32.785  27.379  1.00  0.00     0.163 HD
BRANCH   4   7
ATOM      7  C   UNL A   1      32.477  29.547  26.635  1.00  0.00     0.039 A 
ATOM      8  C   UNL A   1      32.805  26.751  26.293  1.00  0.00    -0.025 A 
ATOM      9  C   UNL A   1      33.536  27.664  25.516  1.00  0.00     0.006 A 
ATOM     10  C   UNL A   1      31.955  27.267  27.280  1.00  0.00     0.006 A 
ATOM     11  C   UNL A   1      33.389  29.042  25.700  1.00  0.00     0.014 A 
ATOM     12  C   UNL A   1      31.794  28.644  27.448  1.00  0.00     0.014 A 
BRANCH   8  13
ATOM     13  C   UNL A   1      32.919  25.240  26.128  1.00  0.00     0.114 C 
ATOM     14  C   UNL A   1      35.897  23.170  25.349  1.00  0.00     0.142 A 
ATOM     15  C   UNL A   1      36.253  21.872  24.996  1.00  0.00     0.050 A 
ATOM     16  C   UNL A   1      34.550  23.583  25.351  1.00  0.00     0.083 A 
ATOM     17  C   UNL A   1      35.259  20.954  24.675  1.00  0.00     0.025 A 
ATOM     18  C   UNL A   1      33.539  22.654  25.045  1.00  0.00     0.005 A 
ATOM     19  N   UNL A   1      34.234  24.907  25.618  1.00  0.00    -0.375 N 
ATOM     20  C   UNL A   1      33.914  21.339  24.700  1.00  0.00     0.047 A 
ATOM     21  C   UNL A   1      32.095  23.097  25.046  1.00  0.00     0.051 C 
ATOM     22  H   UNL A   1      34.899  25.616  25.462  1.00  0.00     0.161 HD
ATOM     23  Cl  UNL A   1      32.750  20.139  24.249  1.00  0.00    -0.084 Cl
ATOM     24  C   UNL A   1      31.853  24.625  25.191  1.00  0.00     0.031 C 
ATOM     25  C   UNL A   1      31.276  22.564  26.197  1.00  0.00    -0.023 C 
ATOM     26  C   UNL A   1      30.420  24.688  25.757  1.00  0.00     0.034 C 
ATOM     27  C   UNL A   1      30.344  23.444  26.582  1.00  0.00    -0.030 C 
BRANCH  14  28
ATOM     28  O   UNL A   1      36.917  24.046  25.636  1.00  0.00    -0.495 OA
ATOM     29  C   UNL A   1      38.061  23.356  26.150  1.00  0.00     0.278 C 
ENDBRANCH  14  28
ENDBRANCH   8  13
ENDBRANCH   4   7
ENDBRANCH   2   3
ENDBRANCH   1   2
BRANCH   1  30
ATOM     30  C   UNL A   1      36.515  32.554  29.100  1.00  0.00     0.118 C 
BRANCH  30  31
ATOM     31  N   UNL A   1      36.122  31.688  30.202  1.00  0.00    -0.352 N 
ATOM     32  C   UNL A   1      36.674  30.498  30.603  1.00  0.00     0.251 C 
ATOM     33  H   UNL A   1      35.356  32.001  30.735  1.00  0.00     0.163 HD
ATOM     34  O   UNL A   1      36.049  29.756  31.352  1.00  0.00    -0.269 OA
BRANCH  32  35
ATOM     35  C   UNL A   1      38.022  30.122  30.128  1.00  0.00     0.039 A 
ATOM     36  C   UNL A   1      39.054  29.964  31.055  1.00  0.00     0.014 A 
ATOM     37  C   UNL A   1      38.268  29.972  28.759  1.00  0.00     0.014 A 
ATOM     38  C   UNL A   1      40.331  29.621  30.611  1.00  0.00     0.010 A 
ATOM     39  C   UNL A   1      39.524  29.566  28.323  1.00  0.00     0.010 A 
ATOM     40  C   UNL A   1      40.571  29.411  29.242  1.00  0.00    -0.014 A 
BRANCH  40  41
ATOM     41  C   UNL A   1      41.931  29.107  28.742  1.00  0.00     0.031 A 
ATOM     42  C   UNL A   1      42.256  27.706  28.306  1.00  0.00     0.074 A 
ATOM     43  C   UNL A   1      42.869  30.072  28.718  1.00  0.00     0.049 A 
ATOM     44  N   UNL A   1      43.390  27.218  27.877  1.00  0.00    -0.248 NA
ATOM     45  C   UNL A   1      41.166  26.718  28.380  1.00  0.00     0.031 C 
ATOM     46  C   UNL A   1      42.666  31.459  29.141  1.00  0.00     0.029 A 
ATOM     47  N   UNL A   1      44.182  30.031  28.325  1.00  0.00    -0.354 N 
ATOM     48  C   UNL A   1      43.149  25.873  27.625  1.00  0.00     0.074 A 
ATOM     49  C   UNL A   1      41.782  25.605  28.013  1.00  0.00     0.031 C 
ATOM     50  C   UNL A   1      43.809  32.142  28.965  1.00  0.00     0.029 A 
ATOM     51  C   UNL A   1      44.832  31.237  28.447  1.00  0.00     0.049 A 
ATOM     52  H   UNL A   1      44.617  29.216  27.986  1.00  0.00     0.167 HD
ATOM     53  C   UNL A   1      43.983  24.953  27.087  1.00  0.00     0.037 A 
ATOM     54  C   UNL A   1      46.108  31.568  28.173  1.00  0.00     0.037 A 
ATOM     55  C   UNL A   1      45.338  25.236  26.694  1.00  0.00     0.049 A 
ATOM     56  C   UNL A   1      47.032  30.515  27.620  1.00  0.00     0.074 A 
ATOM     57  C   UNL A   1      46.257  24.386  26.109  1.00  0.00     0.029 A 
ATOM     58  N   UNL A   1      45.966  26.463  26.850  1.00  0.00    -0.354 N 
ATOM     59  N   UNL A   1      46.776  29.259  27.338  1.00  0.00    -0.248 NA
ATOM     60  C   UNL A   1      48.418  30.921  27.347  1.00  0.00     0.031 C 
ATOM     61  C   UNL A   1      47.458  25.083  25.956  1.00  0.00     0.029 A 
ATOM     62  C   UNL A   1      47.272  26.385  26.397  1.00  0.00     0.049 A 
ATOM     63  H   UNL A   1      45.547  27.269  27.228  1.00  0.00     0.167 HD
ATOM     64  C   UNL A   1      47.959  28.732  26.833  1.00  0.00     0.074 A 
ATOM     65  C   UNL A   1      48.928  29.809  26.835  1.00  0.00     0.031 C 
ATOM     66  C   UNL A   1      48.221  27.471  26.406  1.00  0.00     0.037 A 
BRANCH  53  67
ATOM     67  C   UNL A   1      43.448  23.563  26.877  1.00  0.00     0.058 A 
ATOM     68  C   UNL A   1      43.152  23.080  25.592  1.00  0.00     0.135 A 
ATOM     69  C   UNL A   1      43.271  22.690  27.962  1.00  0.00     0.135 A 
ATOM     70  F   UNL A   1      43.284  23.878  24.521  1.00  0.00    -0.206 F 
ATOM     71  C   UNL A   1      42.678  21.788  25.392  1.00  0.00     0.059 A 
ATOM     72  C   UNL A   1      42.825  21.384  27.782  1.00  0.00     0.059 A 
ATOM     73  F   UNL A   1      43.533  23.104  29.212  1.00  0.00    -0.206 F 
ATOM     74  C   UNL A   1      42.523  20.945  26.494  1.00  0.00     0.060 A 
BRANCH  74  75
ATOM     75  S   UNL A   1      41.928  19.266  26.210  1.00  0.00     0.124 S 
ATOM     76  O   UNL A   1      42.310  18.607  27.455  1.00  0.00    -0.237 OA
ATOM     77  O   UNL A   1      40.497  19.473  26.016  1.00  0.00    -0.237 OA
ATOM     78  O   UNL A   1      42.664  18.838  25.024  1.00  0.00    -0.744 OA
ENDBRANCH  74  75
ENDBRANCH  53  67
BRANCH  54  79
ATOM     79  C   UNL A   1      46.573  32.965  28.383  1.00  0.00     0.058 A 
ATOM     80  C   UNL A   1      47.118  33.363  29.613  1.00  0.00     0.135 A 
ATOM     81  C   UNL A   1      46.509  33.922  27.358  1.00  0.00     0.135 A 
ATOM     82  F   UNL A   1      47.194  32.488  30.627  1.00  0.00    -0.206 F 
ATOM     83  C   UNL A   1      47.578  34.659  29.823  1.00  0.00     0.059 A 
ATOM     84  C   UNL A   1      46.985  35.217  27.535  1.00  0.00     0.059 A 
ATOM     85  F   UNL A   1      46.010  33.588  26.157  1.00  0.00    -0.206 F 
ATOM     86  C   UNL A   1      47.513  35.577  28.774  1.00  0.00     0.060 A 
BRANCH  86  87
ATOM     87  S   UNL A   1      48.170  37.239  29.042  1.00  0.00     0.124 S 
ATOM     88  O   UNL A   1      48.963  37.053  30.250  1.00  0.00    -0.237 OA
ATOM     89  O   UNL A   1      48.921  37.470  27.812  1.00  0.00    -0.237 OA
ATOM     90  O   UNL A   1      46.968  38.055  29.195  1.00  0.00    -0.744 OA
ENDBRANCH  86  87
ENDBRANCH  54  79
BRANCH  66  91
ATOM     91  C   UNL A   1      49.605  27.181  25.894  1.00  0.00     0.058 A 
ATOM     92  C   UNL A   1      50.600  26.656  26.730  1.00  0.00     0.135 A 
ATOM     93  C   UNL A   1      49.908  27.344  24.532  1.00  0.00     0.135 A 
ATOM     94  F   UNL A   1      50.362  26.487  28.041  1.00  0.00    -0.206 F 
ATOM     95  C   UNL A   1      51.854  26.314  26.238  1.00  0.00     0.059 A 
ATOM     96  C   UNL A   1      51.147  26.981  24.012  1.00  0.00     0.059 A 
ATOM     97  F   UNL A   1      48.987  27.832  23.687  1.00  0.00    -0.206 F 
ATOM     98  C   UNL A   1      52.115  26.471  24.875  1.00  0.00     0.060 A 
BRANCH  98  99
ATOM     99  S   UNL A   1      53.731  25.970  24.244  1.00  0.00     0.124 S 
ATOM    100  O   UNL A   1      53.519  26.040  22.803  1.00  0.00    -0.237 OA
ATOM    101  O   UNL A   1      54.612  26.991  24.806  1.00  0.00    -0.237 OA
ATOM    102  O   UNL A   1      53.908  24.627  24.789  1.00  0.00    -0.744 OA
ENDBRANCH  98  99
ENDBRANCH  66  91
ENDBRANCH  40  41
ENDBRANCH  32  35
ENDBRANCH  30  31
ENDBRANCH   1  30
TORSDOF 15
ENDMDL
