MODEL 1
REMARK VINA RESULT:     -13.6      0.000      0.000
REMARK SMILES Cc1ccccc1CC(=O)Oc1cccc(C(=O)NCCCNC(=O)c2ccc(-c3c4nc(c(-c5c(F)cc(S(=O)(=O)[O-])cc5F)c5ccc([nH]5)c(-c5c(F)cc(S(=O)(=O)[O-])cc5F)c5nc(c(-c6c(F)cc(S(=O)(=O)[O-])cc6F)c6ccc3[nH]6)C=C5)C=C4)cc2)c1
REMARK SMILES IDX 20 1 19 2 17 3 18 4 16 6 12 7 13 8 92 9 14 10 15 11 11 12
REMARK SMILES IDX 9 13 10 14 8 15 7 16 1 17 2 18 3 19 4 20 6 21 5 22 21 23
REMARK SMILES IDX 22 24 23 25 24 26 25 28 26 29 27 30 91 31 28 32 90 33 29 34
REMARK SMILES IDX 30 35 31 36 84 37 32 38 89 39 83 40 85 41 33 42 88 43 82 44
REMARK SMILES IDX 81 45 34 47 68 48 47 49 67 50 48 51 51 52 66 53 86 54 49 55
REMARK SMILES IDX 50 56 65 58 87 59 52 60 35 61 36 62 45 63 37 64 38 65 44 66
REMARK SMILES IDX 46 67 39 68 40 69 41 70 42 71 43 72 69 73 70 74 79 75 71 76
REMARK SMILES IDX 72 77 78 78 80 79 73 80 74 81 75 82 76 83 77 84 53 85 54 86
REMARK SMILES IDX 63 87 55 88 56 89 62 90 64 91 57 92 58 93 59 94 60 95 61 96
REMARK H PARENT 19 5 23 27 85 46 51 57
REMARK Flexibility Score: inf
ROOT
ATOM      1  C   UNL A   1      32.499  30.346  25.965  1.00  0.00     0.118 C 
ENDROOT
BRANCH   1   2
ATOM      2  N   UNL A   1      33.245  29.780  24.848  1.00  0.00    -0.352 N 
ATOM      3  C   UNL A   1      33.250  28.540  24.260  1.00  0.00     0.251 C 
ATOM      4  O   UNL A   1      33.908  28.408  23.226  1.00  0.00    -0.269 OA
ATOM      5  H   UNL A   1      33.871  30.417  24.431  1.00  0.00     0.163 HD
BRANCH   3   6
ATOM      6  C   UNL A   1      32.514  27.346  24.781  1.00  0.00     0.043 A 
ATOM      7  C   UNL A   1      32.662  25.223  25.958  1.00  0.00     0.131 A 
ATOM      8  C   UNL A   1      31.277  25.089  25.955  1.00  0.00     0.047 A 
ATOM      9  C   UNL A   1      33.282  26.344  25.401  1.00  0.00     0.061 A 
ATOM     10  C   UNL A   1      30.508  26.071  25.347  1.00  0.00     0.005 A 
ATOM     11  C   UNL A   1      31.124  27.188  24.769  1.00  0.00     0.014 A 
BRANCH   7  12
ATOM     12  O   UNL A   1      33.469  24.281  26.604  1.00  0.00    -0.426 OA
BRANCH  12  13
ATOM     13  C   UNL A   1      32.851  23.066  26.880  1.00  0.00     0.315 C 
ATOM     14  O   UNL A   1      32.279  22.751  27.918  1.00  0.00    -0.251 OA
BRANCH  13  15
ATOM     15  C   UNL A   1      33.036  22.122  25.716  1.00  0.00     0.158 C 
BRANCH  15  16
ATOM     16  C   UNL A   1      34.427  22.146  25.121  1.00  0.00    -0.034 A 
ATOM     17  C   UNL A   1      33.757  23.429  22.981  1.00  0.00     0.044 C 
ATOM     18  C   UNL A   1      34.747  22.752  23.890  1.00  0.00    -0.047 A 
ATOM     19  C   UNL A   1      36.082  22.712  23.439  1.00  0.00     0.004 A 
ATOM     20  C   UNL A   1      37.084  22.099  24.188  1.00  0.00     0.000 A 
ATOM     21  C   UNL A   1      35.459  21.543  25.872  1.00  0.00     0.004 A 
ATOM     22  C   UNL A   1      36.773  21.515  25.408  1.00  0.00     0.000 A 
ENDBRANCH  15  16
ENDBRANCH  13  15
ENDBRANCH  12  13
ENDBRANCH   7  12
ENDBRANCH   3   6
ENDBRANCH   1   2
BRANCH   1  23
ATOM     23  C   UNL A   1      33.233  30.172  27.296  1.00  0.00     0.042 C 
BRANCH  23  24
ATOM     24  C   UNL A   1      34.733  29.947  27.150  1.00  0.00     0.118 C 
BRANCH  24  25
ATOM     25  N   UNL A   1      35.509  31.098  27.603  1.00  0.00    -0.352 N 
ATOM     26  C   UNL A   1      36.765  31.096  28.193  1.00  0.00     0.251 C 
ATOM     27  H   UNL A   1      35.092  31.980  27.476  1.00  0.00     0.163 HD
ATOM     28  O   UNL A   1      37.283  32.089  28.657  1.00  0.00    -0.269 OA
BRANCH  26  29
ATOM     29  C   UNL A   1      37.490  29.812  28.136  1.00  0.00     0.039 A 
ATOM     30  C   UNL A   1      37.549  29.077  29.324  1.00  0.00     0.014 A 
ATOM     31  C   UNL A   1      38.373  29.585  27.084  1.00  0.00     0.014 A 
ATOM     32  C   UNL A   1      38.635  28.240  29.546  1.00  0.00     0.010 A 
ATOM     33  C   UNL A   1      39.483  28.800  27.334  1.00  0.00     0.010 A 
ATOM     34  C   UNL A   1      39.647  28.190  28.590  1.00  0.00    -0.014 A 
BRANCH  34  35
ATOM     35  C   UNL A   1      40.973  27.642  28.856  1.00  0.00     0.031 A 
ATOM     36  C   UNL A   1      41.251  26.217  28.581  1.00  0.00     0.074 A 
ATOM     37  C   UNL A   1      41.974  28.466  29.242  1.00  0.00     0.049 A 
ATOM     38  N   UNL A   1      42.366  25.632  28.853  1.00  0.00    -0.248 NA
ATOM     39  C   UNL A   1      40.243  25.307  28.039  1.00  0.00     0.031 C 
ATOM     40  C   UNL A   1      43.409  28.209  29.178  1.00  0.00     0.029 A 
ATOM     41  N   UNL A   1      41.865  29.626  30.020  1.00  0.00    -0.354 N 
ATOM     42  C   UNL A   1      42.334  24.386  28.282  1.00  0.00     0.074 A 
ATOM     43  C   UNL A   1      40.959  24.185  27.905  1.00  0.00     0.031 C 
ATOM     44  C   UNL A   1      44.031  28.983  30.078  1.00  0.00     0.029 A 
ATOM     45  C   UNL A   1      43.005  29.647  30.859  1.00  0.00     0.049 A 
ATOM     46  H   UNL A   1      41.140  30.293  29.989  1.00  0.00     0.167 HD
ATOM     47  C   UNL A   1      43.510  23.728  28.088  1.00  0.00     0.037 A 
ATOM     48  C   UNL A   1      42.865  29.532  32.213  1.00  0.00     0.037 A 
ATOM     49  C   UNL A   1      44.548  24.261  28.974  1.00  0.00     0.049 A 
ATOM     50  C   UNL A   1      43.446  28.263  32.806  1.00  0.00     0.074 A 
ATOM     51  C   UNL A   1      45.679  25.045  28.835  1.00  0.00     0.029 A 
ATOM     52  N   UNL A   1      44.315  24.178  30.338  1.00  0.00    -0.354 N 
ATOM     53  N   UNL A   1      44.085  27.349  32.125  1.00  0.00    -0.248 NA
ATOM     54  C   UNL A   1      43.296  27.892  34.216  1.00  0.00     0.031 C 
ATOM     55  C   UNL A   1      46.047  25.520  30.137  1.00  0.00     0.029 A 
ATOM     56  C   UNL A   1      45.163  24.990  31.062  1.00  0.00     0.049 A 
ATOM     57  H   UNL A   1      43.626  23.604  30.744  1.00  0.00     0.167 HD
ATOM     58  C   UNL A   1      44.362  26.283  32.937  1.00  0.00     0.074 A 
ATOM     59  C   UNL A   1      43.873  26.678  34.245  1.00  0.00     0.031 C 
ATOM     60  C   UNL A   1      44.930  25.124  32.493  1.00  0.00     0.037 A 
BRANCH  47  61
ATOM     61  C   UNL A   1      43.739  22.677  27.020  1.00  0.00     0.058 A 
ATOM     62  C   UNL A   1      43.025  21.460  27.048  1.00  0.00     0.135 A 
ATOM     63  C   UNL A   1      44.747  22.739  26.029  1.00  0.00     0.135 A 
ATOM     64  F   UNL A   1      42.063  21.242  27.957  1.00  0.00    -0.206 F 
ATOM     65  C   UNL A   1      43.296  20.396  26.175  1.00  0.00     0.059 A 
ATOM     66  C   UNL A   1      44.999  21.715  25.117  1.00  0.00     0.059 A 
ATOM     67  F   UNL A   1      45.601  23.762  25.932  1.00  0.00    -0.206 F 
ATOM     68  C   UNL A   1      44.289  20.533  25.212  1.00  0.00     0.060 A 
BRANCH  68  69
ATOM     69  S   UNL A   1      44.687  19.154  24.123  1.00  0.00     0.124 S 
ATOM     70  O   UNL A   1      43.748  18.133  24.577  1.00  0.00    -0.237 OA
ATOM     71  O   UNL A   1      44.432  19.713  22.800  1.00  0.00    -0.237 OA
ATOM     72  O   UNL A   1      46.092  18.881  24.419  1.00  0.00    -0.744 OA
ENDBRANCH  68  69
ENDBRANCH  47  61
BRANCH  48  73
ATOM     73  C   UNL A   1      41.694  30.299  32.721  1.00  0.00     0.058 A 
ATOM     74  C   UNL A   1      40.544  29.557  33.063  1.00  0.00     0.135 A 
ATOM     75  C   UNL A   1      41.837  31.571  33.290  1.00  0.00     0.135 A 
ATOM     76  F   UNL A   1      40.347  28.340  32.528  1.00  0.00    -0.206 F 
ATOM     77  C   UNL A   1      39.681  29.970  34.068  1.00  0.00     0.059 A 
ATOM     78  C   UNL A   1      40.970  32.013  34.293  1.00  0.00     0.059 A 
ATOM     79  F   UNL A   1      42.903  32.329  32.994  1.00  0.00    -0.206 F 
ATOM     80  C   UNL A   1      39.947  31.167  34.728  1.00  0.00     0.060 A 
BRANCH  80  81
ATOM     81  S   UNL A   1      39.073  31.480  36.280  1.00  0.00     0.124 S 
ATOM     82  O   UNL A   1      40.175  31.705  37.208  1.00  0.00    -0.237 OA
ATOM     83  O   UNL A   1      38.281  32.663  35.941  1.00  0.00    -0.237 OA
ATOM     84  O   UNL A   1      38.311  30.254  36.487  1.00  0.00    -0.744 OA
ENDBRANCH  80  81
ENDBRANCH  48  73
BRANCH  60  85
ATOM     85  C   UNL A   1      45.271  23.996  33.422  1.00  0.00     0.058 A 
ATOM     86  C   UNL A   1      44.318  23.027  33.778  1.00  0.00     0.135 A 
ATOM     87  C   UNL A   1      46.518  23.921  34.072  1.00  0.00     0.135 A 
ATOM     88  F   UNL A   1      43.094  23.040  33.227  1.00  0.00    -0.206 F 
ATOM     89  C   UNL A   1      44.594  22.026  34.708  1.00  0.00     0.059 A 
ATOM     90  C   UNL A   1      46.801  22.958  35.036  1.00  0.00     0.059 A 
ATOM     91  F   UNL A   1      47.511  24.770  33.764  1.00  0.00    -0.206 F 
ATOM     92  C   UNL A   1      45.838  22.001  35.334  1.00  0.00     0.060 A 
BRANCH  92  93
ATOM     93  S   UNL A   1      46.192  20.731  36.565  1.00  0.00     0.124 S 
ATOM     94  O   UNL A   1      45.631  21.299  37.788  1.00  0.00    -0.237 OA
ATOM     95  O   UNL A   1      45.473  19.586  36.015  1.00  0.00    -0.237 OA
ATOM     96  O   UNL A   1      47.647  20.635  36.539  1.00  0.00    -0.744 OA
ENDBRANCH  92  93
ENDBRANCH  60  85
ENDBRANCH  34  35
ENDBRANCH  26  29
ENDBRANCH  24  25
ENDBRANCH  23  24
ENDBRANCH   1  23
TORSDOF 17
ENDMDL
MODEL 2
REMARK VINA RESULT:     -13.5      5.037     11.442
REMARK SMILES Cc1ccccc1CC(=O)Oc1cccc(C(=O)NCCCNC(=O)c2ccc(-c3c4nc(c(-c5c(F)cc(S(=O)(=O)[O-])cc5F)c5ccc([nH]5)c(-c5c(F)cc(S(=O)(=O)[O-])cc5F)c5nc(c(-c6c(F)cc(S(=O)(=O)[O-])cc6F)c6ccc3[nH]6)C=C5)C=C4)cc2)c1
REMARK SMILES IDX 20 1 19 2 17 3 18 4 16 6 12 7 13 8 92 9 14 10 15 11 11 12
REMARK SMILES IDX 9 13 10 14 8 15 7 16 1 17 2 18 3 19 4 20 6 21 5 22 21 23
REMARK SMILES IDX 22 24 23 25 24 26 25 28 26 29 27 30 91 31 28 32 90 33 29 34
REMARK SMILES IDX 30 35 31 36 84 37 32 38 89 39 83 40 85 41 33 42 88 43 82 44
REMARK SMILES IDX 81 45 34 47 68 48 47 49 67 50 48 51 51 52 66 53 86 54 49 55
REMARK SMILES IDX 50 56 65 58 87 59 52 60 35 61 36 62 45 63 37 64 38 65 44 66
REMARK SMILES IDX 46 67 39 68 40 69 41 70 42 71 43 72 69 73 70 74 79 75 71 76
REMARK SMILES IDX 72 77 78 78 80 79 73 80 74 81 75 82 76 83 77 84 53 85 54 86
REMARK SMILES IDX 63 87 55 88 56 89 62 90 64 91 57 92 58 93 59 94 60 95 61 96
REMARK H PARENT 19 5 23 27 85 46 51 57
REMARK Flexibility Score: inf
ROOT
ATOM      1  C   UNL A   1      36.677  21.299  25.657  1.00  0.00     0.118 C 
ENDROOT
BRANCH   1   2
ATOM      2  N   UNL A   1      35.702  21.903  26.557  1.00  0.00    -0.352 N 
ATOM      3  C   UNL A   1      34.473  22.477  26.352  1.00  0.00     0.251 C 
ATOM      4  O   UNL A   1      33.819  22.781  27.352  1.00  0.00    -0.269 OA
ATOM      5  H   UNL A   1      35.983  21.897  27.501  1.00  0.00     0.163 HD
BRANCH   3   6
ATOM      6  C   UNL A   1      33.872  22.753  25.010  1.00  0.00     0.043 A 
ATOM      7  C   UNL A   1      33.746  24.270  23.114  1.00  0.00     0.131 A 
ATOM      8  C   UNL A   1      32.950  23.373  22.408  1.00  0.00     0.047 A 
ATOM      9  C   UNL A   1      34.225  23.965  24.390  1.00  0.00     0.061 A 
ATOM     10  C   UNL A   1      32.596  22.173  23.008  1.00  0.00     0.005 A 
ATOM     11  C   UNL A   1      33.056  21.868  24.295  1.00  0.00     0.014 A 
BRANCH   7  12
ATOM     12  O   UNL A   1      34.167  25.467  22.525  1.00  0.00    -0.426 OA
BRANCH  12  13
ATOM     13  C   UNL A   1      33.247  26.055  21.663  1.00  0.00     0.315 C 
ATOM     14  O   UNL A   1      33.043  25.756  20.490  1.00  0.00    -0.251 OA
BRANCH  13  15
ATOM     15  C   UNL A   1      32.546  27.196  22.361  1.00  0.00     0.158 C 
BRANCH  15  16
ATOM     16  C   UNL A   1      31.826  26.789  23.628  1.00  0.00    -0.034 A 
ATOM     17  C   UNL A   1      33.581  27.786  25.240  1.00  0.00     0.044 C 
ATOM     18  C   UNL A   1      32.295  27.072  24.926  1.00  0.00    -0.047 A 
ATOM     19  C   UNL A   1      31.534  26.642  26.033  1.00  0.00     0.004 A 
ATOM     20  C   UNL A   1      30.331  25.958  25.867  1.00  0.00     0.000 A 
ATOM     21  C   UNL A   1      30.598  26.108  23.481  1.00  0.00     0.004 A 
ATOM     22  C   UNL A   1      29.861  25.692  24.588  1.00  0.00     0.000 A 
ENDBRANCH  15  16
ENDBRANCH  13  15
ENDBRANCH  12  13
ENDBRANCH   7  12
ENDBRANCH   3   6
ENDBRANCH   1   2
BRANCH   1  23
ATOM     23  C   UNL A   1      37.724  22.307  25.179  1.00  0.00     0.042 C 
BRANCH  23  24
ATOM     24  C   UNL A   1      38.048  23.392  26.199  1.00  0.00     0.118 C 
BRANCH  24  25
ATOM     25  N   UNL A   1      39.287  23.114  26.922  1.00  0.00    -0.352 N 
ATOM     26  C   UNL A   1      40.114  24.022  27.567  1.00  0.00     0.251 C 
ATOM     27  H   UNL A   1      39.569  22.172  26.955  1.00  0.00     0.163 HD
ATOM     28  O   UNL A   1      41.193  23.723  28.033  1.00  0.00    -0.269 OA
BRANCH  26  29
ATOM     29  C   UNL A   1      39.555  25.376  27.743  1.00  0.00     0.039 A 
ATOM     30  C   UNL A   1      40.059  26.372  26.900  1.00  0.00     0.014 A 
ATOM     31  C   UNL A   1      38.889  25.680  28.926  1.00  0.00     0.014 A 
ATOM     32  C   UNL A   1      40.077  27.687  27.346  1.00  0.00     0.010 A 
ATOM     33  C   UNL A   1      38.965  26.979  29.392  1.00  0.00     0.010 A 
ATOM     34  C   UNL A   1      39.624  27.963  28.634  1.00  0.00    -0.014 A 
BRANCH  34  35
ATOM     35  C   UNL A   1      39.913  29.210  29.335  1.00  0.00     0.031 A 
ATOM     36  C   UNL A   1      38.962  30.338  29.255  1.00  0.00     0.074 A 
ATOM     37  C   UNL A   1      40.991  29.287  30.148  1.00  0.00     0.049 A 
ATOM     38  N   UNL A   1      39.170  31.497  29.778  1.00  0.00    -0.248 NA
ATOM     39  C   UNL A   1      37.714  30.266  28.496  1.00  0.00     0.031 C 
ATOM     40  C   UNL A   1      41.234  30.261  31.208  1.00  0.00     0.029 A 
ATOM     41  N   UNL A   1      42.218  28.629  29.996  1.00  0.00    -0.354 N 
ATOM     42  C   UNL A   1      38.005  32.213  29.681  1.00  0.00     0.074 A 
ATOM     43  C   UNL A   1      37.181  31.462  28.770  1.00  0.00     0.031 C 
ATOM     44  C   UNL A   1      42.554  30.344  31.428  1.00  0.00     0.029 A 
ATOM     45  C   UNL A   1      43.212  29.546  30.412  1.00  0.00     0.049 A 
ATOM     46  H   UNL A   1      42.360  27.712  29.664  1.00  0.00     0.167 HD
ATOM     47  C   UNL A   1      37.838  33.297  30.487  1.00  0.00     0.037 A 
ATOM     48  C   UNL A   1      44.122  30.029  29.515  1.00  0.00     0.037 A 
ATOM     49  C   UNL A   1      39.134  33.789  30.961  1.00  0.00     0.049 A 
ATOM     50  C   UNL A   1      44.009  31.516  29.235  1.00  0.00     0.074 A 
ATOM     51  C   UNL A   1      39.833  33.785  32.154  1.00  0.00     0.029 A 
ATOM     52  N   UNL A   1      40.041  34.201  29.997  1.00  0.00    -0.354 N 
ATOM     53  N   UNL A   1      43.161  32.320  29.819  1.00  0.00    -0.248 NA
ATOM     54  C   UNL A   1      44.809  32.206  28.218  1.00  0.00     0.031 C 
ATOM     55  C   UNL A   1      41.203  34.092  31.861  1.00  0.00     0.029 A 
ATOM     56  C   UNL A   1      41.320  34.321  30.501  1.00  0.00     0.049 A 
ATOM     57  H   UNL A   1      39.801  34.388  29.060  1.00  0.00     0.167 HD
ATOM     58  C   UNL A   1      43.237  33.560  29.247  1.00  0.00     0.074 A 
ATOM     59  C   UNL A   1      44.301  33.450  28.266  1.00  0.00     0.031 C 
ATOM     60  C   UNL A   1      42.403  34.592  29.567  1.00  0.00     0.037 A 
BRANCH  47  61
ATOM     61  C   UNL A   1      36.493  33.838  30.929  1.00  0.00     0.058 A 
ATOM     62  C   UNL A   1      35.591  34.375  29.984  1.00  0.00     0.135 A 
ATOM     63  C   UNL A   1      36.087  33.996  32.276  1.00  0.00     0.135 A 
ATOM     64  F   UNL A   1      35.859  34.332  28.670  1.00  0.00    -0.206 F 
ATOM     65  C   UNL A   1      34.399  35.019  30.346  1.00  0.00     0.059 A 
ATOM     66  C   UNL A   1      34.882  34.585  32.657  1.00  0.00     0.059 A 
ATOM     67  F   UNL A   1      36.866  33.659  33.307  1.00  0.00    -0.206 F 
ATOM     68  C   UNL A   1      34.054  35.121  31.689  1.00  0.00     0.060 A 
BRANCH  68  69
ATOM     69  S   UNL A   1      32.555  35.996  32.173  1.00  0.00     0.124 S 
ATOM     70  O   UNL A   1      32.148  36.611  30.913  1.00  0.00    -0.237 OA
ATOM     71  O   UNL A   1      31.703  34.917  32.661  1.00  0.00    -0.237 OA
ATOM     72  O   UNL A   1      33.020  36.929  33.197  1.00  0.00    -0.744 OA
ENDBRANCH  68  69
ENDBRANCH  47  61
BRANCH  48  73
ATOM     73  C   UNL A   1      44.591  28.977  28.572  1.00  0.00     0.058 A 
ATOM     74  C   UNL A   1      44.045  28.997  27.271  1.00  0.00     0.135 A 
ATOM     75  C   UNL A   1      45.814  28.318  28.751  1.00  0.00     0.135 A 
ATOM     76  F   UNL A   1      42.863  29.596  27.048  1.00  0.00    -0.206 F 
ATOM     77  C   UNL A   1      44.767  28.559  26.169  1.00  0.00     0.059 A 
ATOM     78  C   UNL A   1      46.551  27.857  27.657  1.00  0.00     0.059 A 
ATOM     79  F   UNL A   1      46.377  28.257  29.967  1.00  0.00    -0.206 F 
ATOM     80  C   UNL A   1      46.051  28.058  26.368  1.00  0.00     0.060 A 
BRANCH  80  81
ATOM     81  S   UNL A   1      47.115  27.884  24.916  1.00  0.00     0.124 S 
ATOM     82  O   UNL A   1      48.432  28.182  25.469  1.00  0.00    -0.237 OA
ATOM     83  O   UNL A   1      46.888  26.486  24.547  1.00  0.00    -0.237 OA
ATOM     84  O   UNL A   1      46.580  28.872  23.989  1.00  0.00    -0.744 OA
ENDBRANCH  80  81
ENDBRANCH  48  73
BRANCH  60  85
ATOM     85  C   UNL A   1      42.551  35.956  28.959  1.00  0.00     0.058 A 
ATOM     86  C   UNL A   1      41.878  36.307  27.777  1.00  0.00     0.135 A 
ATOM     87  C   UNL A   1      43.458  36.903  29.473  1.00  0.00     0.135 A 
ATOM     88  F   UNL A   1      41.016  35.453  27.203  1.00  0.00    -0.206 F 
ATOM     89  C   UNL A   1      42.076  37.538  27.153  1.00  0.00     0.059 A 
ATOM     90  C   UNL A   1      43.703  38.120  28.844  1.00  0.00     0.059 A 
ATOM     91  F   UNL A   1      44.111  36.682  30.625  1.00  0.00    -0.206 F 
ATOM     92  C   UNL A   1      42.992  38.438  27.692  1.00  0.00     0.060 A 
BRANCH  92  93
ATOM     93  S   UNL A   1      43.280  40.018  26.872  1.00  0.00     0.124 S 
ATOM     94  O   UNL A   1      43.339  40.958  27.989  1.00  0.00    -0.237 OA
ATOM     95  O   UNL A   1      44.549  39.766  26.195  1.00  0.00    -0.237 OA
ATOM     96  O   UNL A   1      42.117  40.162  26.003  1.00  0.00    -0.744 OA
ENDBRANCH  92  93
ENDBRANCH  60  85
ENDBRANCH  34  35
ENDBRANCH  26  29
ENDBRANCH  24  25
ENDBRANCH  23  24
ENDBRANCH   1  23
TORSDOF 17
ENDMDL
MODEL 3
REMARK VINA RESULT:     -13.3      1.483      2.296
REMARK SMILES Cc1ccccc1CC(=O)Oc1cccc(C(=O)NCCCNC(=O)c2ccc(-c3c4nc(c(-c5c(F)cc(S(=O)(=O)[O-])cc5F)c5ccc([nH]5)c(-c5c(F)cc(S(=O)(=O)[O-])cc5F)c5nc(c(-c6c(F)cc(S(=O)(=O)[O-])cc6F)c6ccc3[nH]6)C=C5)C=C4)cc2)c1
REMARK SMILES IDX 20 1 19 2 17 3 18 4 16 6 12 7 13 8 92 9 14 10 15 11 11 12
REMARK SMILES IDX 9 13 10 14 8 15 7 16 1 17 2 18 3 19 4 20 6 21 5 22 21 23
REMARK SMILES IDX 22 24 23 25 24 26 25 28 26 29 27 30 91 31 28 32 90 33 29 34
REMARK SMILES IDX 30 35 31 36 84 37 32 38 89 39 83 40 85 41 33 42 88 43 82 44
REMARK SMILES IDX 81 45 34 47 68 48 47 49 67 50 48 51 51 52 66 53 86 54 49 55
REMARK SMILES IDX 50 56 65 58 87 59 52 60 35 61 36 62 45 63 37 64 38 65 44 66
REMARK SMILES IDX 46 67 39 68 40 69 41 70 42 71 43 72 69 73 70 74 79 75 71 76
REMARK SMILES IDX 72 77 78 78 80 79 73 80 74 81 75 82 76 83 77 84 53 85 54 86
REMARK SMILES IDX 63 87 55 88 56 89 62 90 64 91 57 92 58 93 59 94 60 95 61 96
REMARK H PARENT 19 5 23 27 85 46 51 57
REMARK Flexibility Score: inf
ROOT
ATOM      1  C   UNL A   1      32.375  29.758  25.825  1.00  0.00     0.118 C 
ENDROOT
BRANCH   1   2
ATOM      2  N   UNL A   1      33.285  29.626  24.693  1.00  0.00    -0.352 N 
ATOM      3  C   UNL A   1      33.350  28.741  23.646  1.00  0.00     0.251 C 
ATOM      4  O   UNL A   1      34.174  28.978  22.759  1.00  0.00    -0.269 OA
ATOM      5  H   UNL A   1      33.995  30.309  24.678  1.00  0.00     0.163 HD
BRANCH   3   6
ATOM      6  C   UNL A   1      32.496  27.521  23.504  1.00  0.00     0.043 A 
ATOM      7  C   UNL A   1      32.383  25.189  22.824  1.00  0.00     0.131 A 
ATOM      8  C   UNL A   1      31.077  25.082  23.296  1.00  0.00     0.047 A 
ATOM      9  C   UNL A   1      33.100  26.382  22.943  1.00  0.00     0.061 A 
ATOM     10  C   UNL A   1      30.471  26.199  23.853  1.00  0.00     0.005 A 
ATOM     11  C   UNL A   1      31.178  27.404  23.957  1.00  0.00     0.014 A 
BRANCH   7  12
ATOM     12  O   UNL A   1      33.046  24.074  22.302  1.00  0.00    -0.426 OA
BRANCH  12  13
ATOM     13  C   UNL A   1      34.081  23.581  23.091  1.00  0.00     0.315 C 
ATOM     14  O   UNL A   1      35.279  23.606  22.831  1.00  0.00    -0.251 OA
BRANCH  13  15
ATOM     15  C   UNL A   1      33.514  22.926  24.328  1.00  0.00     0.158 C 
BRANCH  15  16
ATOM     16  C   UNL A   1      33.559  21.414  24.297  1.00  0.00    -0.034 A 
ATOM     17  C   UNL A   1      35.865  21.214  25.443  1.00  0.00     0.044 C 
ATOM     18  C   UNL A   1      34.621  20.647  24.816  1.00  0.00    -0.047 A 
ATOM     19  C   UNL A   1      34.549  19.242  24.730  1.00  0.00     0.004 A 
ATOM     20  C   UNL A   1      33.452  18.603  24.157  1.00  0.00     0.000 A 
ATOM     21  C   UNL A   1      32.450  20.748  23.733  1.00  0.00     0.004 A 
ATOM     22  C   UNL A   1      32.399  19.358  23.659  1.00  0.00     0.000 A 
ENDBRANCH  15  16
ENDBRANCH  13  15
ENDBRANCH  12  13
ENDBRANCH   7  12
ENDBRANCH   3   6
ENDBRANCH   1   2
BRANCH   1  23
ATOM     23  C   UNL A   1      33.121  29.994  27.140  1.00  0.00     0.042 C 
BRANCH  23  24
ATOM     24  C   UNL A   1      34.628  29.791  27.042  1.00  0.00     0.118 C 
BRANCH  24  25
ATOM     25  N   UNL A   1      35.372  30.965  27.491  1.00  0.00    -0.352 N 
ATOM     26  C   UNL A   1      36.602  30.996  28.130  1.00  0.00     0.251 C 
ATOM     27  H   UNL A   1      34.950  31.838  27.321  1.00  0.00     0.163 HD
ATOM     28  O   UNL A   1      37.090  32.009  28.585  1.00  0.00    -0.269 OA
BRANCH  26  29
ATOM     29  C   UNL A   1      37.344  29.721  28.141  1.00  0.00     0.039 A 
ATOM     30  C   UNL A   1      37.398  29.042  29.362  1.00  0.00     0.014 A 
ATOM     31  C   UNL A   1      38.242  29.457  27.111  1.00  0.00     0.014 A 
ATOM     32  C   UNL A   1      38.491  28.230  29.635  1.00  0.00     0.010 A 
ATOM     33  C   UNL A   1      39.359  28.699  27.409  1.00  0.00     0.010 A 
ATOM     34  C   UNL A   1      39.516  28.149  28.694  1.00  0.00    -0.014 A 
BRANCH  34  35
ATOM     35  C   UNL A   1      40.845  27.631  29.001  1.00  0.00     0.031 A 
ATOM     36  C   UNL A   1      41.180  26.227  28.687  1.00  0.00     0.074 A 
ATOM     37  C   UNL A   1      41.801  28.470  29.462  1.00  0.00     0.049 A 
ATOM     38  N   UNL A   1      42.300  25.665  28.988  1.00  0.00    -0.248 NA
ATOM     39  C   UNL A   1      40.226  25.308  28.066  1.00  0.00     0.031 C 
ATOM     40  C   UNL A   1      43.245  28.258  29.454  1.00  0.00     0.029 A 
ATOM     41  N   UNL A   1      41.621  29.595  30.276  1.00  0.00    -0.354 N 
ATOM     42  C   UNL A   1      42.332  24.442  28.371  1.00  0.00     0.074 A 
ATOM     43  C   UNL A   1      40.982  24.214  27.923  1.00  0.00     0.031 C 
ATOM     44  C   UNL A   1      43.801  29.016  30.410  1.00  0.00     0.029 A 
ATOM     45  C   UNL A   1      42.721  29.618  31.167  1.00  0.00     0.049 A 
ATOM     46  H   UNL A   1      40.878  30.241  30.236  1.00  0.00     0.167 HD
ATOM     47  C   UNL A   1      43.535  23.827  28.207  1.00  0.00     0.037 A 
ATOM     48  C   UNL A   1      42.524  29.448  32.508  1.00  0.00     0.037 A 
ATOM     49  C   UNL A   1      44.516  24.357  29.158  1.00  0.00     0.049 A 
ATOM     50  C   UNL A   1      43.119  28.175  33.080  1.00  0.00     0.074 A 
ATOM     51  C   UNL A   1      45.627  25.179  29.100  1.00  0.00     0.029 A 
ATOM     52  N   UNL A   1      44.225  24.214  30.506  1.00  0.00    -0.354 N 
ATOM     53  N   UNL A   1      43.815  27.308  32.396  1.00  0.00    -0.248 NA
ATOM     54  C   UNL A   1      42.917  27.747  34.467  1.00  0.00     0.031 C 
ATOM     55  C   UNL A   1      45.921  25.614  30.434  1.00  0.00     0.029 A 
ATOM     56  C   UNL A   1      45.014  25.024  31.298  1.00  0.00     0.049 A 
ATOM     57  H   UNL A   1      43.537  23.605  30.859  1.00  0.00     0.167 HD
ATOM     58  C   UNL A   1      44.089  26.220  33.180  1.00  0.00     0.074 A 
ATOM     59  C   UNL A   1      43.530  26.550  34.478  1.00  0.00     0.031 C 
ATOM     60  C   UNL A   1      44.713  25.096  32.720  1.00  0.00     0.037 A 
BRANCH  47  61
ATOM     61  C   UNL A   1      43.845  22.825  27.113  1.00  0.00     0.058 A 
ATOM     62  C   UNL A   1      43.135  21.608  27.033  1.00  0.00     0.135 A 
ATOM     63  C   UNL A   1      44.923  22.930  26.202  1.00  0.00     0.135 A 
ATOM     64  F   UNL A   1      42.109  21.351  27.859  1.00  0.00    -0.206 F 
ATOM     65  C   UNL A   1      43.471  20.584  26.137  1.00  0.00     0.059 A 
ATOM     66  C   UNL A   1      45.244  21.948  25.266  1.00  0.00     0.059 A 
ATOM     67  F   UNL A   1      45.780  23.956  26.214  1.00  0.00    -0.206 F 
ATOM     68  C   UNL A   1      44.532  20.763  25.256  1.00  0.00     0.060 A 
BRANCH  68  69
ATOM     69  S   UNL A   1      45.013  19.434  24.138  1.00  0.00     0.124 S 
ATOM     70  O   UNL A   1      44.337  18.285  24.732  1.00  0.00    -0.237 OA
ATOM     71  O   UNL A   1      44.487  19.893  22.858  1.00  0.00    -0.237 OA
ATOM     72  O   UNL A   1      46.471  19.416  24.238  1.00  0.00    -0.744 OA
ENDBRANCH  68  69
ENDBRANCH  47  61
BRANCH  48  73
ATOM     73  C   UNL A   1      41.308  30.160  32.989  1.00  0.00     0.058 A 
ATOM     74  C   UNL A   1      41.426  31.548  33.208  1.00  0.00     0.135 A 
ATOM     75  C   UNL A   1      40.023  29.643  32.785  1.00  0.00     0.135 A 
ATOM     76  F   UNL A   1      42.634  32.093  33.432  1.00  0.00    -0.206 F 
ATOM     77  C   UNL A   1      40.350  32.409  33.037  1.00  0.00     0.059 A 
ATOM     78  C   UNL A   1      38.923  30.490  32.624  1.00  0.00     0.059 A 
ATOM     79  F   UNL A   1      39.846  28.329  32.582  1.00  0.00    -0.206 F 
ATOM     80  C   UNL A   1      39.118  31.873  32.673  1.00  0.00     0.060 A 
BRANCH  80  81
ATOM     81  S   UNL A   1      37.856  33.015  32.060  1.00  0.00     0.124 S 
ATOM     82  O   UNL A   1      37.699  33.926  33.188  1.00  0.00    -0.237 OA
ATOM     83  O   UNL A   1      38.514  33.579  30.881  1.00  0.00    -0.237 OA
ATOM     84  O   UNL A   1      36.720  32.144  31.788  1.00  0.00    -0.744 OA
ENDBRANCH  80  81
ENDBRANCH  48  73
BRANCH  60  85
ATOM     85  C   UNL A   1      45.047  23.945  33.622  1.00  0.00     0.058 A 
ATOM     86  C   UNL A   1      46.332  23.791  34.169  1.00  0.00     0.135 A 
ATOM     87  C   UNL A   1      44.131  22.903  33.867  1.00  0.00     0.135 A 
ATOM     88  F   UNL A   1      47.277  24.723  33.962  1.00  0.00    -0.206 F 
ATOM     89  C   UNL A   1      46.682  22.680  34.934  1.00  0.00     0.059 A 
ATOM     90  C   UNL A   1      44.471  21.764  34.591  1.00  0.00     0.059 A 
ATOM     91  F   UNL A   1      42.864  22.979  33.430  1.00  0.00    -0.206 F 
ATOM     92  C   UNL A   1      45.745  21.670  35.139  1.00  0.00     0.060 A 
BRANCH  92  93
ATOM     93  S   UNL A   1      46.199  20.212  36.098  1.00  0.00     0.124 S 
ATOM     94  O   UNL A   1      45.391  19.158  35.491  1.00  0.00    -0.237 OA
ATOM     95  O   UNL A   1      47.634  20.132  35.841  1.00  0.00    -0.237 OA
ATOM     96  O   UNL A   1      45.821  20.575  37.459  1.00  0.00    -0.744 OA
ENDBRANCH  92  93
ENDBRANCH  60  85
ENDBRANCH  34  35
ENDBRANCH  26  29
ENDBRANCH  24  25
ENDBRANCH  23  24
ENDBRANCH   1  23
TORSDOF 17
ENDMDL
