MODEL 1
REMARK VINA RESULT:     -11.2      0.000      0.000
REMARK SMILES CCOC[C@@H](O)C[C@]1(C(=O)NCCCNC(=O)c2ccc(-c3c4nc(c(-c5c(F)cc(S(=O)(=O)[O-])cc5F)c5ccc([nH]5)c(-c5c(F)cc(S(=O)(=O)[O-])cc5F)c5nc(c(-c6c(F)cc(S(=O)(=O)[O-])cc6F)c6ccc3[nH]6)C=C5)C=C4)cc2)CCc2ccccc21
REMARK SMILES IDX 12 1 11 2 9 3 10 4 8 6 84 7 91 8 85 9 86 10 90 11 87 12
REMARK SMILES IDX 89 13 88 14 7 15 5 16 4 17 3 18 2 19 1 20 6 21 13 23 14 24
REMARK SMILES IDX 15 25 16 26 17 28 18 29 19 30 83 31 20 32 82 33 21 34 22 35
REMARK SMILES IDX 23 36 76 37 24 38 81 39 75 40 77 41 25 42 80 43 74 44 73 45
REMARK SMILES IDX 26 47 60 48 39 49 59 50 40 51 43 52 58 53 78 54 41 55 42 56
REMARK SMILES IDX 57 58 79 59 44 60 27 61 28 62 37 63 29 64 30 65 36 66 38 67
REMARK SMILES IDX 31 68 32 69 33 70 34 71 35 72 61 73 62 74 71 75 63 76 64 77
REMARK SMILES IDX 70 78 72 79 65 80 66 81 67 82 68 83 69 84 45 85 46 86 55 87
REMARK SMILES IDX 47 88 48 89 54 90 56 91 49 92 50 93 51 94 52 95 53 96
REMARK H PARENT 11 5 6 22 15 27 77 46 43 57
REMARK Flexibility Score: inf
ROOT
ATOM      1  C   UNL A   1      36.505  22.972  25.509  1.00  0.00     0.117 C 
ENDROOT
BRANCH   1   2
ATOM      2  N   UNL A   1      35.703  22.722  26.692  1.00  0.00    -0.355 N 
ATOM      3  C   UNL A   1      34.363  22.696  26.921  1.00  0.00     0.230 C 
ATOM      4  O   UNL A   1      34.049  22.296  28.050  1.00  0.00    -0.274 OA
ATOM      5  H   UNL A   1      36.240  22.530  27.495  1.00  0.00     0.163 HD
BRANCH   3   6
ATOM      6  C   UNL A   1      33.274  23.136  25.887  1.00  0.00     0.077 C 
ATOM      7  C   UNL A   1      31.858  22.662  26.312  1.00  0.00     0.026 C 
ATOM      8  C   UNL A   1      33.131  24.641  25.854  1.00  0.00    -0.029 A 
ATOM      9  C   UNL A   1      30.986  23.892  26.628  1.00  0.00     0.037 C 
ATOM     10  C   UNL A   1      31.859  25.049  26.266  1.00  0.00    -0.044 A 
ATOM     11  C   UNL A   1      34.105  25.581  25.537  1.00  0.00     0.005 A 
ATOM     12  C   UNL A   1      31.540  26.395  26.379  1.00  0.00     0.004 A 
ATOM     13  C   UNL A   1      33.791  26.938  25.645  1.00  0.00     0.000 A 
ATOM     14  C   UNL A   1      32.517  27.342  26.066  1.00  0.00     0.000 A 
BRANCH   6  15
ATOM     15  C   UNL A   1      33.700  22.571  24.491  1.00  0.00     0.056 C 
BRANCH  15  16
ATOM     16  C   UNL A   1      32.814  22.740  23.244  1.00  0.00     0.141 C 
BRANCH  16  17
ATOM     17  C   UNL A   1      33.502  23.333  22.006  1.00  0.00     0.191 C 
BRANCH  17  18
ATOM     18  O   UNL A   1      33.147  24.700  21.752  1.00  0.00    -0.379 OA
BRANCH  18  19
ATOM     19  C   UNL A   1      31.994  25.198  22.421  1.00  0.00     0.157 C 
ATOM     20  C   UNL A   1      31.865  26.710  22.353  1.00  0.00     0.035 C 
ENDBRANCH  18  19
ENDBRANCH  17  18
ENDBRANCH  16  17
BRANCH  16  21
ATOM     21  O   UNL A   1      32.336  21.417  22.925  1.00  0.00    -0.391 OA
ATOM     22  H   UNL A   1      31.743  21.463  22.158  1.00  0.00     0.211 HD
ENDBRANCH  16  21
ENDBRANCH  15  16
ENDBRANCH   6  15
ENDBRANCH   3   6
ENDBRANCH   1   2
BRANCH   1  23
ATOM     23  C   UNL A   1      37.521  24.089  25.709  1.00  0.00     0.042 C 
BRANCH  23  24
ATOM     24  C   UNL A   1      38.540  23.793  26.802  1.00  0.00     0.118 C 
BRANCH  24  25
ATOM     25  N   UNL A   1      39.903  23.810  26.290  1.00  0.00    -0.352 N 
ATOM     26  C   UNL A   1      40.901  24.735  26.474  1.00  0.00     0.251 C 
ATOM     27  H   UNL A   1      40.146  23.041  25.728  1.00  0.00     0.163 HD
ATOM     28  O   UNL A   1      41.889  24.704  25.747  1.00  0.00    -0.269 OA
BRANCH  26  29
ATOM     29  C   UNL A   1      40.788  25.763  27.533  1.00  0.00     0.039 A 
ATOM     30  C   UNL A   1      39.782  25.637  28.495  1.00  0.00     0.014 A 
ATOM     31  C   UNL A   1      41.636  26.874  27.550  1.00  0.00     0.014 A 
ATOM     32  C   UNL A   1      39.661  26.597  29.502  1.00  0.00     0.010 A 
ATOM     33  C   UNL A   1      41.565  27.786  28.598  1.00  0.00     0.010 A 
ATOM     34  C   UNL A   1      40.569  27.666  29.577  1.00  0.00    -0.014 A 
BRANCH  34  35
ATOM     35  C   UNL A   1      40.482  28.681  30.657  1.00  0.00     0.031 A 
ATOM     36  C   UNL A   1      41.350  28.552  31.881  1.00  0.00     0.074 A 
ATOM     37  C   UNL A   1      39.572  29.670  30.571  1.00  0.00     0.049 A 
ATOM     38  N   UNL A   1      41.355  29.276  32.970  1.00  0.00    -0.248 NA
ATOM     39  C   UNL A   1      42.320  27.443  31.894  1.00  0.00     0.031 C 
ATOM     40  C   UNL A   1      38.637  29.866  29.460  1.00  0.00     0.029 A 
ATOM     41  N   UNL A   1      39.269  30.689  31.439  1.00  0.00    -0.354 N 
ATOM     42  C   UNL A   1      42.304  28.697  33.806  1.00  0.00     0.074 A 
ATOM     43  C   UNL A   1      42.823  27.537  33.117  1.00  0.00     0.031 C 
ATOM     44  C   UNL A   1      37.875  30.943  29.709  1.00  0.00     0.029 A 
ATOM     45  C   UNL A   1      38.241  31.494  31.010  1.00  0.00     0.049 A 
ATOM     46  H   UNL A   1      39.744  30.829  32.290  1.00  0.00     0.167 HD
ATOM     47  C   UNL A   1      42.718  29.109  35.028  1.00  0.00     0.037 A 
ATOM     48  C   UNL A   1      37.652  32.551  31.603  1.00  0.00     0.037 A 
ATOM     49  C   UNL A   1      42.226  30.291  35.687  1.00  0.00     0.049 A 
ATOM     50  C   UNL A   1      38.153  33.009  32.945  1.00  0.00     0.074 A 
ATOM     51  C   UNL A   1      42.637  30.839  36.889  1.00  0.00     0.029 A 
ATOM     52  N   UNL A   1      41.218  31.108  35.197  1.00  0.00    -0.354 N 
ATOM     53  N   UNL A   1      39.100  32.490  33.691  1.00  0.00    -0.248 NA
ATOM     54  C   UNL A   1      37.513  34.197  33.525  1.00  0.00     0.031 C 
ATOM     55  C   UNL A   1      41.851  31.967  37.146  1.00  0.00     0.029 A 
ATOM     56  C   UNL A   1      40.980  32.146  36.082  1.00  0.00     0.049 A 
ATOM     57  H   UNL A   1      40.742  30.970  34.347  1.00  0.00     0.167 HD
ATOM     58  C   UNL A   1      39.186  33.303  34.815  1.00  0.00     0.074 A 
ATOM     59  C   UNL A   1      38.204  34.354  34.647  1.00  0.00     0.031 C 
ATOM     60  C   UNL A   1      40.003  33.190  35.891  1.00  0.00     0.037 A 
BRANCH  47  61
ATOM     61  C   UNL A   1      43.761  28.283  35.730  1.00  0.00     0.058 A 
ATOM     62  C   UNL A   1      45.133  28.526  35.560  1.00  0.00     0.135 A 
ATOM     63  C   UNL A   1      43.383  27.265  36.620  1.00  0.00     0.135 A 
ATOM     64  F   UNL A   1      45.550  29.477  34.710  1.00  0.00    -0.206 F 
ATOM     65  C   UNL A   1      46.094  27.773  36.227  1.00  0.00     0.059 A 
ATOM     66  C   UNL A   1      44.326  26.517  37.319  1.00  0.00     0.059 A 
ATOM     67  F   UNL A   1      42.084  26.988  36.819  1.00  0.00    -0.206 F 
ATOM     68  C   UNL A   1      45.681  26.770  37.106  1.00  0.00     0.060 A 
BRANCH  68  69
ATOM     69  S   UNL A   1      46.940  25.812  37.975  1.00  0.00     0.124 S 
ATOM     70  O   UNL A   1      48.156  26.249  37.296  1.00  0.00    -0.237 OA
ATOM     71  O   UNL A   1      46.784  26.268  39.352  1.00  0.00    -0.237 OA
ATOM     72  O   UNL A   1      46.546  24.429  37.728  1.00  0.00    -0.744 OA
ENDBRANCH  68  69
ENDBRANCH  47  61
BRANCH  48  73
ATOM     73  C   UNL A   1      36.535  33.257  30.920  1.00  0.00     0.058 A 
ATOM     74  C   UNL A   1      35.214  33.130  31.377  1.00  0.00     0.135 A 
ATOM     75  C   UNL A   1      36.767  34.083  29.811  1.00  0.00     0.135 A 
ATOM     76  F   UNL A   1      34.943  32.347  32.433  1.00  0.00    -0.206 F 
ATOM     77  C   UNL A   1      34.160  33.781  30.746  1.00  0.00     0.059 A 
ATOM     78  C   UNL A   1      35.732  34.764  29.178  1.00  0.00     0.059 A 
ATOM     79  F   UNL A   1      38.015  34.254  29.347  1.00  0.00    -0.206 F 
ATOM     80  C   UNL A   1      34.429  34.598  29.646  1.00  0.00     0.060 A 
BRANCH  80  81
ATOM     81  S   UNL A   1      33.059  35.477  28.862  1.00  0.00     0.124 S 
ATOM     82  O   UNL A   1      32.310  35.945  30.022  1.00  0.00    -0.237 OA
ATOM     83  O   UNL A   1      33.753  36.504  28.093  1.00  0.00    -0.237 OA
ATOM     84  O   UNL A   1      32.411  34.440  28.065  1.00  0.00    -0.744 OA
ENDBRANCH  80  81
ENDBRANCH  48  73
BRANCH  60  85
ATOM     85  C   UNL A   1      39.895  34.244  36.955  1.00  0.00     0.058 A 
ATOM     86  C   UNL A   1      40.529  35.489  36.825  1.00  0.00     0.135 A 
ATOM     87  C   UNL A   1      39.099  34.026  38.092  1.00  0.00     0.135 A 
ATOM     88  F   UNL A   1      41.306  35.743  35.760  1.00  0.00    -0.206 F 
ATOM     89  C   UNL A   1      40.395  36.475  37.795  1.00  0.00     0.059 A 
ATOM     90  C   UNL A   1      38.930  35.008  39.062  1.00  0.00     0.059 A 
ATOM     91  F   UNL A   1      38.463  32.856  38.257  1.00  0.00    -0.206 F 
ATOM     92  C   UNL A   1      39.591  36.226  38.910  1.00  0.00     0.060 A 
BRANCH  92  93
ATOM     93  S   UNL A   1      39.393  37.529  40.143  1.00  0.00     0.124 S 
ATOM     94  O   UNL A   1      40.744  38.076  40.210  1.00  0.00    -0.237 OA
ATOM     95  O   UNL A   1      38.390  38.393  39.530  1.00  0.00    -0.237 OA
ATOM     96  O   UNL A   1      38.949  36.807  41.332  1.00  0.00    -0.744 OA
ENDBRANCH  92  93
ENDBRANCH  60  85
ENDBRANCH  34  35
ENDBRANCH  26  29
ENDBRANCH  24  25
ENDBRANCH  23  24
ENDBRANCH   1  23
TORSDOF 19
ENDMDL
MODEL 2
REMARK VINA RESULT:     -11.1      6.707     12.117
REMARK SMILES CCOC[C@@H](O)C[C@]1(C(=O)NCCCNC(=O)c2ccc(-c3c4nc(c(-c5c(F)cc(S(=O)(=O)[O-])cc5F)c5ccc([nH]5)c(-c5c(F)cc(S(=O)(=O)[O-])cc5F)c5nc(c(-c6c(F)cc(S(=O)(=O)[O-])cc6F)c6ccc3[nH]6)C=C5)C=C4)cc2)CCc2ccccc21
REMARK SMILES IDX 12 1 11 2 9 3 10 4 8 6 84 7 91 8 85 9 86 10 90 11 87 12
REMARK SMILES IDX 89 13 88 14 7 15 5 16 4 17 3 18 2 19 1 20 6 21 13 23 14 24
REMARK SMILES IDX 15 25 16 26 17 28 18 29 19 30 83 31 20 32 82 33 21 34 22 35
REMARK SMILES IDX 23 36 76 37 24 38 81 39 75 40 77 41 25 42 80 43 74 44 73 45
REMARK SMILES IDX 26 47 60 48 39 49 59 50 40 51 43 52 58 53 78 54 41 55 42 56
REMARK SMILES IDX 57 58 79 59 44 60 27 61 28 62 37 63 29 64 30 65 36 66 38 67
REMARK SMILES IDX 31 68 32 69 33 70 34 71 35 72 61 73 62 74 71 75 63 76 64 77
REMARK SMILES IDX 70 78 72 79 65 80 66 81 67 82 68 83 69 84 45 85 46 86 55 87
REMARK SMILES IDX 47 88 48 89 54 90 56 91 49 92 50 93 51 94 52 95 53 96
REMARK H PARENT 11 5 6 22 15 27 77 46 43 57
REMARK Flexibility Score: inf
ROOT
ATOM      1  C   UNL A   1      33.518  28.713  26.115  1.00  0.00     0.117 C 
ENDROOT
BRANCH   1   2
ATOM      2  N   UNL A   1      33.956  28.825  24.736  1.00  0.00    -0.355 N 
ATOM      3  C   UNL A   1      33.643  28.146  23.601  1.00  0.00     0.230 C 
ATOM      4  O   UNL A   1      34.123  28.635  22.569  1.00  0.00    -0.274 OA
ATOM      5  H   UNL A   1      34.616  29.542  24.593  1.00  0.00     0.163 HD
BRANCH   3   6
ATOM      6  C   UNL A   1      32.768  26.850  23.550  1.00  0.00     0.077 C 
ATOM      7  C   UNL A   1      32.347  26.501  22.097  1.00  0.00     0.026 C 
ATOM      8  C   UNL A   1      33.568  25.637  23.970  1.00  0.00    -0.029 A 
ATOM      9  C   UNL A   1      33.009  25.173  21.683  1.00  0.00     0.037 C 
ATOM     10  C   UNL A   1      33.695  24.714  22.928  1.00  0.00    -0.044 A 
ATOM     11  C   UNL A   1      34.195  25.413  25.191  1.00  0.00     0.005 A 
ATOM     12  C   UNL A   1      34.453  23.562  23.080  1.00  0.00     0.004 A 
ATOM     13  C   UNL A   1      34.958  24.255  25.352  1.00  0.00     0.000 A 
ATOM     14  C   UNL A   1      35.088  23.336  24.303  1.00  0.00     0.000 A 
BRANCH   6  15
ATOM     15  C   UNL A   1      31.539  27.079  24.491  1.00  0.00     0.056 C 
BRANCH  15  16
ATOM     16  C   UNL A   1      30.345  26.108  24.515  1.00  0.00     0.141 C 
BRANCH  16  17
ATOM     17  C   UNL A   1      29.930  25.586  25.898  1.00  0.00     0.191 C 
BRANCH  17  18
ATOM     18  O   UNL A   1      30.962  24.846  26.564  1.00  0.00    -0.379 OA
BRANCH  18  19
ATOM     19  C   UNL A   1      30.833  23.427  26.571  1.00  0.00     0.157 C 
ATOM     20  C   UNL A   1      31.496  22.758  25.380  1.00  0.00     0.035 C 
ENDBRANCH  18  19
ENDBRANCH  17  18
ENDBRANCH  16  17
BRANCH  16  21
ATOM     21  O   UNL A   1      29.240  26.836  23.939  1.00  0.00    -0.391 OA
ATOM     22  H   UNL A   1      29.185  26.644  22.990  1.00  0.00     0.211 HD
ENDBRANCH  16  21
ENDBRANCH  15  16
ENDBRANCH   6  15
ENDBRANCH   3   6
ENDBRANCH   1   2
BRANCH   1  23
ATOM     23  C   UNL A   1      33.997  29.869  26.984  1.00  0.00     0.042 C 
BRANCH  23  24
ATOM     24  C   UNL A   1      35.261  29.552  27.771  1.00  0.00     0.118 C 
BRANCH  24  25
ATOM     25  N   UNL A   1      35.316  30.288  29.026  1.00  0.00    -0.352 N 
ATOM     26  C   UNL A   1      36.331  30.387  29.945  1.00  0.00     0.251 C 
ATOM     27  H   UNL A   1      34.501  30.792  29.249  1.00  0.00     0.163 HD
ATOM     28  O   UNL A   1      36.088  30.838  31.061  1.00  0.00    -0.269 OA
BRANCH  26  29
ATOM     29  C   UNL A   1      37.703  29.952  29.601  1.00  0.00     0.039 A 
ATOM     30  C   UNL A   1      38.107  29.981  28.264  1.00  0.00     0.014 A 
ATOM     31  C   UNL A   1      38.572  29.469  30.584  1.00  0.00     0.014 A 
ATOM     32  C   UNL A   1      39.398  29.575  27.920  1.00  0.00     0.010 A 
ATOM     33  C   UNL A   1      39.883  29.141  30.251  1.00  0.00     0.010 A 
ATOM     34  C   UNL A   1      40.305  29.176  28.915  1.00  0.00    -0.014 A 
BRANCH  34  35
ATOM     35  C   UNL A   1      41.694  28.772  28.580  1.00  0.00     0.031 A 
ATOM     36  C   UNL A   1      42.785  29.809  28.517  1.00  0.00     0.074 A 
ATOM     37  C   UNL A   1      41.956  27.490  28.257  1.00  0.00     0.049 A 
ATOM     38  N   UNL A   1      44.033  29.674  28.151  1.00  0.00    -0.248 NA
ATOM     39  C   UNL A   1      42.414  31.186  28.886  1.00  0.00     0.031 C 
ATOM     40  C   UNL A   1      40.971  26.406  28.227  1.00  0.00     0.029 A 
ATOM     41  N   UNL A   1      43.126  26.882  27.876  1.00  0.00    -0.354 N 
ATOM     42  C   UNL A   1      44.588  30.947  28.219  1.00  0.00     0.074 A 
ATOM     43  C   UNL A   1      43.531  31.849  28.619  1.00  0.00     0.031 C 
ATOM     44  C   UNL A   1      41.578  25.267  27.860  1.00  0.00     0.029 A 
ATOM     45  C   UNL A   1      42.987  25.544  27.594  1.00  0.00     0.049 A 
ATOM     46  H   UNL A   1      43.984  27.361  27.810  1.00  0.00     0.167 HD
ATOM     47  C   UNL A   1      45.868  31.325  27.989  1.00  0.00     0.037 A 
ATOM     48  C   UNL A   1      43.891  24.643  27.161  1.00  0.00     0.037 A 
ATOM     49  C   UNL A   1      46.923  30.413  27.634  1.00  0.00     0.049 A 
ATOM     50  C   UNL A   1      45.313  25.081  26.945  1.00  0.00     0.074 A 
ATOM     51  C   UNL A   1      48.269  30.683  27.457  1.00  0.00     0.029 A 
ATOM     52  N   UNL A   1      46.752  29.056  27.405  1.00  0.00    -0.354 N 
ATOM     53  N   UNL A   1      45.836  26.277  27.082  1.00  0.00    -0.248 NA
ATOM     54  C   UNL A   1      46.270  24.050  26.523  1.00  0.00     0.031 C 
ATOM     55  C   UNL A   1      48.906  29.494  27.084  1.00  0.00     0.029 A 
ATOM     56  C   UNL A   1      47.965  28.476  27.071  1.00  0.00     0.049 A 
ATOM     57  H   UNL A   1      45.896  28.575  27.471  1.00  0.00     0.167 HD
ATOM     58  C   UNL A   1      47.187  26.137  26.788  1.00  0.00     0.074 A 
ATOM     59  C   UNL A   1      47.404  24.738  26.476  1.00  0.00     0.031 C 
ATOM     60  C   UNL A   1      48.161  27.079  26.774  1.00  0.00     0.037 A 
BRANCH  47  61
ATOM     61  C   UNL A   1      46.203  32.785  28.123  1.00  0.00     0.058 A 
ATOM     62  C   UNL A   1      46.686  33.325  29.325  1.00  0.00     0.135 A 
ATOM     63  C   UNL A   1      46.083  33.648  27.021  1.00  0.00     0.135 A 
ATOM     64  F   UNL A   1      46.805  32.550  30.414  1.00  0.00    -0.206 F 
ATOM     65  C   UNL A   1      47.014  34.672  29.438  1.00  0.00     0.059 A 
ATOM     66  C   UNL A   1      46.430  34.993  27.104  1.00  0.00     0.059 A 
ATOM     67  F   UNL A   1      45.624  33.185  25.846  1.00  0.00    -0.206 F 
ATOM     68  C   UNL A   1      46.883  35.500  28.322  1.00  0.00     0.060 A 
BRANCH  68  69
ATOM     69  S   UNL A   1      47.326  37.242  28.481  1.00  0.00     0.124 S 
ATOM     70  O   UNL A   1      47.519  37.361  29.924  1.00  0.00    -0.237 OA
ATOM     71  O   UNL A   1      48.536  37.332  27.671  1.00  0.00    -0.237 OA
ATOM     72  O   UNL A   1      46.163  37.940  27.944  1.00  0.00    -0.744 OA
ENDBRANCH  68  69
ENDBRANCH  47  61
BRANCH  48  73
ATOM     73  C   UNL A   1      43.478  23.235  26.921  1.00  0.00     0.058 A 
ATOM     74  C   UNL A   1      43.195  22.372  27.990  1.00  0.00     0.135 A 
ATOM     75  C   UNL A   1      43.343  22.729  25.619  1.00  0.00     0.135 A 
ATOM     76  F   UNL A   1      43.314  22.811  29.253  1.00  0.00    -0.206 F 
ATOM     77  C   UNL A   1      42.812  21.052  27.780  1.00  0.00     0.059 A 
ATOM     78  C   UNL A   1      42.937  21.419  25.383  1.00  0.00     0.059 A 
ATOM     79  F   UNL A   1      43.582  23.518  24.561  1.00  0.00    -0.206 F 
ATOM     80  C   UNL A   1      42.684  20.584  26.471  1.00  0.00     0.060 A 
BRANCH  80  81
ATOM     81  S   UNL A   1      42.140  18.882  26.207  1.00  0.00     0.124 S 
ATOM     82  O   UNL A   1      42.329  18.306  27.533  1.00  0.00    -0.237 OA
ATOM     83  O   UNL A   1      40.756  19.064  25.781  1.00  0.00    -0.237 OA
ATOM     84  O   UNL A   1      43.047  18.399  25.171  1.00  0.00    -0.744 OA
ENDBRANCH  80  81
ENDBRANCH  48  73
BRANCH  60  85
ATOM     85  C   UNL A   1      49.555  26.628  26.444  1.00  0.00     0.058 A 
ATOM     86  C   UNL A   1      50.388  26.043  27.410  1.00  0.00     0.135 A 
ATOM     87  C   UNL A   1      50.042  26.730  25.130  1.00  0.00     0.135 A 
ATOM     88  F   UNL A   1      49.972  25.929  28.681  1.00  0.00    -0.206 F 
ATOM     89  C   UNL A   1      51.664  25.593  27.090  1.00  0.00     0.059 A 
ATOM     90  C   UNL A   1      51.305  26.262  24.782  1.00  0.00     0.059 A 
ATOM     91  F   UNL A   1      49.280  27.272  24.168  1.00  0.00    -0.206 F 
ATOM     92  C   UNL A   1      52.113  25.705  25.773  1.00  0.00     0.060 A 
BRANCH  92  93
ATOM     93  S   UNL A   1      53.756  25.080  25.362  1.00  0.00     0.124 S 
ATOM     94  O   UNL A   1      54.545  25.569  26.488  1.00  0.00    -0.237 OA
ATOM     95  O   UNL A   1      53.542  23.638  25.316  1.00  0.00    -0.237 OA
ATOM     96  O   UNL A   1      54.044  25.706  24.074  1.00  0.00    -0.744 OA
ENDBRANCH  92  93
ENDBRANCH  60  85
ENDBRANCH  34  35
ENDBRANCH  26  29
ENDBRANCH  24  25
ENDBRANCH  23  24
ENDBRANCH   1  23
TORSDOF 19
ENDMDL
MODEL 3
REMARK VINA RESULT:     -10.8      4.871     10.333
REMARK SMILES CCOC[C@@H](O)C[C@]1(C(=O)NCCCNC(=O)c2ccc(-c3c4nc(c(-c5c(F)cc(S(=O)(=O)[O-])cc5F)c5ccc([nH]5)c(-c5c(F)cc(S(=O)(=O)[O-])cc5F)c5nc(c(-c6c(F)cc(S(=O)(=O)[O-])cc6F)c6ccc3[nH]6)C=C5)C=C4)cc2)CCc2ccccc21
REMARK SMILES IDX 12 1 11 2 9 3 10 4 8 6 84 7 91 8 85 9 86 10 90 11 87 12
REMARK SMILES IDX 89 13 88 14 7 15 5 16 4 17 3 18 2 19 1 20 6 21 13 23 14 24
REMARK SMILES IDX 15 25 16 26 17 28 18 29 19 30 83 31 20 32 82 33 21 34 22 35
REMARK SMILES IDX 23 36 76 37 24 38 81 39 75 40 77 41 25 42 80 43 74 44 73 45
REMARK SMILES IDX 26 47 60 48 39 49 59 50 40 51 43 52 58 53 78 54 41 55 42 56
REMARK SMILES IDX 57 58 79 59 44 60 27 61 28 62 37 63 29 64 30 65 36 66 38 67
REMARK SMILES IDX 31 68 32 69 33 70 34 71 35 72 61 73 62 74 71 75 63 76 64 77
REMARK SMILES IDX 70 78 72 79 65 80 66 81 67 82 68 83 69 84 45 85 46 86 55 87
REMARK SMILES IDX 47 88 48 89 54 90 56 91 49 92 50 93 51 94 52 95 53 96
REMARK H PARENT 11 5 6 22 15 27 77 46 43 57
REMARK Flexibility Score: inf
ROOT
ATOM      1  C   UNL A   1      32.522  27.012  26.048  1.00  0.00     0.117 C 
ENDROOT
BRANCH   1   2
ATOM      2  N   UNL A   1      32.647  27.078  24.604  1.00  0.00    -0.355 N 
ATOM      3  C   UNL A   1      32.671  26.133  23.627  1.00  0.00     0.230 C 
ATOM      4  O   UNL A   1      32.645  26.593  22.477  1.00  0.00    -0.274 OA
ATOM      5  H   UNL A   1      32.730  27.997  24.261  1.00  0.00     0.163 HD
BRANCH   3   6
ATOM      6  C   UNL A   1      32.739  24.591  23.879  1.00  0.00     0.077 C 
ATOM      7  C   UNL A   1      32.386  23.785  22.600  1.00  0.00     0.026 C 
ATOM      8  C   UNL A   1      34.155  24.149  24.177  1.00  0.00    -0.029 A 
ATOM      9  C   UNL A   1      33.630  23.008  22.131  1.00  0.00     0.037 C 
ATOM     10  C   UNL A   1      34.638  23.272  23.202  1.00  0.00    -0.044 A 
ATOM     11  C   UNL A   1      34.973  24.564  25.221  1.00  0.00     0.005 A 
ATOM     12  C   UNL A   1      35.944  22.803  23.244  1.00  0.00     0.004 A 
ATOM     13  C   UNL A   1      36.287  24.094  25.273  1.00  0.00     0.000 A 
ATOM     14  C   UNL A   1      36.770  23.222  24.289  1.00  0.00     0.000 A 
BRANCH   6  15
ATOM     15  C   UNL A   1      31.777  24.271  25.073  1.00  0.00     0.056 C 
BRANCH  15  16
ATOM     16  C   UNL A   1      31.101  22.896  25.222  1.00  0.00     0.141 C 
BRANCH  16  17
ATOM     17  C   UNL A   1      31.988  21.765  25.762  1.00  0.00     0.191 C 
BRANCH  17  18
ATOM     18  O   UNL A   1      31.776  20.507  25.107  1.00  0.00    -0.379 OA
BRANCH  18  19
ATOM     19  C   UNL A   1      32.782  20.081  24.195  1.00  0.00     0.157 C 
ATOM     20  C   UNL A   1      34.163  19.993  24.820  1.00  0.00     0.035 C 
ENDBRANCH  18  19
ENDBRANCH  17  18
ENDBRANCH  16  17
BRANCH  16  21
ATOM     21  O   UNL A   1      30.000  23.102  26.131  1.00  0.00    -0.391 OA
ATOM     22  H   UNL A   1      29.855  22.296  26.652  1.00  0.00     0.211 HD
ENDBRANCH  16  21
ENDBRANCH  15  16
ENDBRANCH   6  15
ENDBRANCH   3   6
ENDBRANCH   1   2
BRANCH   1  23
ATOM     23  C   UNL A   1      33.695  27.659  26.774  1.00  0.00     0.042 C 
BRANCH  23  24
ATOM     24  C   UNL A   1      34.225  28.905  26.078  1.00  0.00     0.118 C 
BRANCH  24  25
ATOM     25  N   UNL A   1      33.942  30.113  26.840  1.00  0.00    -0.352 N 
ATOM     26  C   UNL A   1      34.633  30.677  27.883  1.00  0.00     0.251 C 
ATOM     27  H   UNL A   1      33.131  30.598  26.565  1.00  0.00     0.163 HD
ATOM     28  O   UNL A   1      34.092  31.545  28.562  1.00  0.00    -0.269 OA
BRANCH  26  29
ATOM     29  C   UNL A   1      36.014  30.245  28.193  1.00  0.00     0.039 A 
ATOM     30  C   UNL A   1      36.993  30.341  27.199  1.00  0.00     0.014 A 
ATOM     31  C   UNL A   1      36.336  29.700  29.439  1.00  0.00     0.014 A 
ATOM     32  C   UNL A   1      38.302  29.939  27.473  1.00  0.00     0.010 A 
ATOM     33  C   UNL A   1      37.655  29.374  29.735  1.00  0.00     0.010 A 
ATOM     34  C   UNL A   1      38.649  29.476  28.752  1.00  0.00    -0.014 A 
BRANCH  34  35
ATOM     35  C   UNL A   1      40.041  29.074  29.079  1.00  0.00     0.031 A 
ATOM     36  C   UNL A   1      40.992  30.077  29.676  1.00  0.00     0.074 A 
ATOM     37  C   UNL A   1      40.467  27.834  28.767  1.00  0.00     0.049 A 
ATOM     38  N   UNL A   1      42.267  29.950  29.941  1.00  0.00    -0.248 NA
ATOM     39  C   UNL A   1      40.445  31.409  29.987  1.00  0.00     0.031 C 
ATOM     40  C   UNL A   1      39.653  26.793  28.135  1.00  0.00     0.029 A 
ATOM     41  N   UNL A   1      41.695  27.243  28.924  1.00  0.00    -0.354 N 
ATOM     42  C   UNL A   1      42.679  31.187  30.424  1.00  0.00     0.074 A 
ATOM     43  C   UNL A   1      41.531  32.065  30.374  1.00  0.00     0.031 C 
ATOM     44  C   UNL A   1      40.399  25.690  27.968  1.00  0.00     0.029 A 
ATOM     45  C   UNL A   1      41.753  25.954  28.449  1.00  0.00     0.049 A 
ATOM     46  H   UNL A   1      42.463  27.699  29.337  1.00  0.00     0.167 HD
ATOM     47  C   UNL A   1      43.899  31.552  30.885  1.00  0.00     0.037 A 
ATOM     48  C   UNL A   1      42.782  25.086  28.396  1.00  0.00     0.037 A 
ATOM     49  C   UNL A   1      45.024  30.658  30.972  1.00  0.00     0.049 A 
ATOM     50  C   UNL A   1      44.118  25.504  28.946  1.00  0.00     0.074 A 
ATOM     51  C   UNL A   1      46.280  30.906  31.498  1.00  0.00     0.029 A 
ATOM     52  N   UNL A   1      45.028  29.345  30.524  1.00  0.00    -0.354 N 
ATOM     53  N   UNL A   1      44.472  26.657  29.462  1.00  0.00    -0.248 NA
ATOM     54  C   UNL A   1      45.193  24.504  28.912  1.00  0.00     0.031 C 
ATOM     55  C   UNL A   1      47.057  29.754  31.334  1.00  0.00     0.029 A 
ATOM     56  C   UNL A   1      46.271  28.775  30.746  1.00  0.00     0.049 A 
ATOM     57  H   UNL A   1      44.262  28.887  30.111  1.00  0.00     0.167 HD
ATOM     58  C   UNL A   1      45.801  26.513  29.839  1.00  0.00     0.074 A 
ATOM     59  C   UNL A   1      46.187  25.158  29.501  1.00  0.00     0.031 C 
ATOM     60  C   UNL A   1      46.631  27.419  30.411  1.00  0.00     0.037 A 
BRANCH  47  61
ATOM     61  C   UNL A   1      44.080  32.973  31.341  1.00  0.00     0.058 A 
ATOM     62  C   UNL A   1      43.856  33.356  32.673  1.00  0.00     0.135 A 
ATOM     63  C   UNL A   1      44.529  33.957  30.445  1.00  0.00     0.135 A 
ATOM     64  F   UNL A   1      43.412  32.460  33.568  1.00  0.00    -0.206 F 
ATOM     65  C   UNL A   1      44.045  34.668  33.095  1.00  0.00     0.059 A 
ATOM     66  C   UNL A   1      44.751  35.270  30.852  1.00  0.00     0.059 A 
ATOM     67  F   UNL A   1      44.758  33.647  29.159  1.00  0.00    -0.206 F 
ATOM     68  C   UNL A   1      44.493  35.619  32.177  1.00  0.00     0.060 A 
BRANCH  68  69
ATOM     69  S   UNL A   1      44.747  37.313  32.744  1.00  0.00     0.124 S 
ATOM     70  O   UNL A   1      44.144  37.268  34.073  1.00  0.00    -0.237 OA
ATOM     71  O   UNL A   1      46.200  37.439  32.713  1.00  0.00    -0.237 OA
ATOM     72  O   UNL A   1      44.031  38.114  31.756  1.00  0.00    -0.744 OA
ENDBRANCH  68  69
ENDBRANCH  47  61
BRANCH  48  73
ATOM     73  C   UNL A   1      42.581  23.731  27.816  1.00  0.00     0.058 A 
ATOM     74  C   UNL A   1      42.594  23.532  26.427  1.00  0.00     0.135 A 
ATOM     75  C   UNL A   1      42.388  22.610  28.636  1.00  0.00     0.135 A 
ATOM     76  F   UNL A   1      42.772  24.575  25.602  1.00  0.00    -0.206 F 
ATOM     77  C   UNL A   1      42.404  22.271  25.871  1.00  0.00     0.059 A 
ATOM     78  C   UNL A   1      42.220  21.336  28.104  1.00  0.00     0.059 A 
ATOM     79  F   UNL A   1      42.387  22.745  29.972  1.00  0.00    -0.206 F 
ATOM     80  C   UNL A   1      42.218  21.178  26.718  1.00  0.00     0.060 A 
BRANCH  80  81
ATOM     81  S   UNL A   1      42.019  19.538  25.988  1.00  0.00     0.124 S 
ATOM     82  O   UNL A   1      40.592  19.522  25.690  1.00  0.00    -0.237 OA
ATOM     83  O   UNL A   1      42.912  19.603  24.836  1.00  0.00    -0.237 OA
ATOM     84  O   UNL A   1      42.453  18.643  27.056  1.00  0.00    -0.744 OA
ENDBRANCH  80  81
ENDBRANCH  48  73
BRANCH  60  85
ATOM     85  C   UNL A   1      48.026  26.970  30.739  1.00  0.00     0.058 A 
ATOM     86  C   UNL A   1      49.093  27.175  29.851  1.00  0.00     0.135 A 
ATOM     87  C   UNL A   1      48.308  26.379  31.982  1.00  0.00     0.135 A 
ATOM     88  F   UNL A   1      48.875  27.729  28.648  1.00  0.00    -0.206 F 
ATOM     89  C   UNL A   1      50.390  26.790  30.175  1.00  0.00     0.059 A 
ATOM     90  C   UNL A   1      49.601  26.012  32.338  1.00  0.00     0.059 A 
ATOM     91  F   UNL A   1      47.324  26.172  32.870  1.00  0.00    -0.206 F 
ATOM     92  C   UNL A   1      50.634  26.211  31.422  1.00  0.00     0.060 A 
BRANCH  92  93
ATOM     93  S   UNL A   1      52.328  25.753  31.847  1.00  0.00     0.124 S 
ATOM     94  O   UNL A   1      52.157  24.370  32.280  1.00  0.00    -0.237 OA
ATOM     95  O   UNL A   1      53.031  25.939  30.582  1.00  0.00    -0.237 OA
ATOM     96  O   UNL A   1      52.682  26.701  32.900  1.00  0.00    -0.744 OA
ENDBRANCH  92  93
ENDBRANCH  60  85
ENDBRANCH  34  35
ENDBRANCH  26  29
ENDBRANCH  24  25
ENDBRANCH  23  24
ENDBRANCH   1  23
TORSDOF 19
ENDMDL
