MODEL 1
REMARK VINA RESULT:     -13.2      0.000      0.000
REMARK SMILES NS(=O)(=O)c1ccc(-c2coc(=O)n2-c2ccc(C(=O)NCCCNC(=O)c3ccc(-c4c5nc(c(-c6c(F)cc(S(=O)(=O)[O-])cc6F)c6ccc([nH]6)c(-c6c(F)cc(S(=O)(=O)[O-])cc6F)c6nc(c(-c7c(F)cc(S(=O)(=O)[O-])cc7F)c7ccc4[nH]7)C=C6)C=C5)cc3)cc2)cc1
REMARK SMILES IDX 22 1 21 2 19 3 20 4 18 6 15 7 16 8 95 9 17 10 94 11 14 12
REMARK SMILES IDX 9 13 10 14 11 15 12 16 13 17 8 18 5 19 6 20 97 21 7 22 96 23
REMARK SMILES IDX 2 24 3 25 4 26 1 27 23 30 24 31 25 32 26 33 27 35 28 36
REMARK SMILES IDX 29 37 93 38 30 39 92 40 31 41 32 42 33 43 86 44 34 45 91 46
REMARK SMILES IDX 85 47 87 48 35 49 90 50 84 51 83 52 36 54 70 55 49 56 69 57
REMARK SMILES IDX 50 58 53 59 68 60 88 61 51 62 52 63 67 65 89 66 54 67 37 68
REMARK SMILES IDX 38 69 47 70 39 71 40 72 46 73 48 74 41 75 42 76 43 77 44 78
REMARK SMILES IDX 45 79 71 80 72 81 81 82 73 83 74 84 80 85 82 86 75 87 76 88
REMARK SMILES IDX 77 89 78 90 79 91 55 92 56 93 65 94 57 95 58 96 64 97 66 98
REMARK SMILES IDX 59 99 60 100 61 101 62 102 63 103
REMARK H PARENT 21 5 1 28 1 29 25 34 87 53 53 64
REMARK Flexibility Score: inf
ROOT
ATOM      1  C   UNL A   1      38.998  21.345  25.772  1.00  0.00     0.118 C 
ENDROOT
BRANCH   1   2
ATOM      2  N   UNL A   1      39.059  22.744  26.171  1.00  0.00    -0.352 N 
ATOM      3  C   UNL A   1      38.109  23.736  26.235  1.00  0.00     0.251 C 
ATOM      4  O   UNL A   1      38.434  24.805  26.751  1.00  0.00    -0.269 OA
ATOM      5  H   UNL A   1      39.955  23.037  26.451  1.00  0.00     0.163 HD
BRANCH   3   6
ATOM      6  C   UNL A   1      36.705  23.567  25.761  1.00  0.00     0.039 A 
ATOM      7  C   UNL A   1      34.083  23.427  24.740  1.00  0.00     0.053 A 
ATOM      8  C   UNL A   1      35.166  23.414  23.863  1.00  0.00     0.028 A 
ATOM      9  C   UNL A   1      34.316  23.407  26.115  1.00  0.00     0.028 A 
ATOM     10  C   UNL A   1      36.470  23.513  24.374  1.00  0.00     0.016 A 
ATOM     11  C   UNL A   1      35.613  23.435  26.612  1.00  0.00     0.016 A 
BRANCH   7  12
ATOM     12  N   UNL A   1      32.754  23.505  24.287  1.00  0.00    -0.242 N 
ATOM     13  C   UNL A   1      31.974  22.480  23.825  1.00  0.00     0.095 A 
ATOM     14  C   UNL A   1      30.871  23.045  23.354  1.00  0.00     0.228 A 
ATOM     15  O   UNL A   1      30.840  24.434  23.480  1.00  0.00    -0.415 OA
ATOM     16  C   UNL A   1      32.061  24.697  24.105  1.00  0.00     0.424 A 
ATOM     17  O   UNL A   1      32.425  25.831  24.382  1.00  0.00    -0.223 OA
BRANCH  13  18
ATOM     18  C   UNL A   1      32.267  21.056  23.989  1.00  0.00     0.002 A 
ATOM     19  C   UNL A   1      32.893  18.344  24.347  1.00  0.00     0.082 A 
ATOM     20  C   UNL A   1      32.868  19.200  25.450  1.00  0.00     0.022 A 
ATOM     21  C   UNL A   1      32.617  18.832  23.067  1.00  0.00     0.022 A 
ATOM     22  C   UNL A   1      32.550  20.547  25.269  1.00  0.00     0.012 A 
ATOM     23  C   UNL A   1      32.298  20.185  22.891  1.00  0.00     0.012 A 
BRANCH  19  24
ATOM     24  S   UNL A   1      33.305  16.647  24.626  1.00  0.00     0.238 S 
ATOM     25  O   UNL A   1      33.707  16.071  23.357  1.00  0.00    -0.207 OA
ATOM     26  O   UNL A   1      32.299  16.060  25.467  1.00  0.00    -0.207 OA
BRANCH  24  27
ATOM     27  N   UNL A   1      34.700  16.691  25.563  1.00  0.00    -0.225 NA
ATOM     28  H   UNL A   1      35.245  15.845  25.401  1.00  0.00     0.137 HD
ATOM     29  H   UNL A   1      34.445  16.747  26.550  1.00  0.00     0.137 HD
ENDBRANCH  24  27
ENDBRANCH  19  24
ENDBRANCH  13  18
ENDBRANCH   7  12
ENDBRANCH   3   6
ENDBRANCH   1   2
BRANCH   1  30
ATOM     30  C   UNL A   1      40.289  20.582  26.105  1.00  0.00     0.042 C 
BRANCH  30  31
ATOM     31  C   UNL A   1      41.310  21.438  26.830  1.00  0.00     0.118 C 
BRANCH  31  32
ATOM     32  N   UNL A   1      42.412  21.843  25.958  1.00  0.00    -0.352 N 
ATOM     33  C   UNL A   1      42.769  23.119  25.572  1.00  0.00     0.251 C 
ATOM     34  H   UNL A   1      42.969  21.114  25.602  1.00  0.00     0.163 HD
ATOM     35  O   UNL A   1      43.458  23.288  24.571  1.00  0.00    -0.269 OA
BRANCH  33  36
ATOM     36  C   UNL A   1      42.284  24.265  26.361  1.00  0.00     0.039 A 
ATOM     37  C   UNL A   1      42.576  24.372  27.721  1.00  0.00     0.014 A 
ATOM     38  C   UNL A   1      41.585  25.274  25.707  1.00  0.00     0.014 A 
ATOM     39  C   UNL A   1      42.245  25.550  28.386  1.00  0.00     0.010 A 
ATOM     40  C   UNL A   1      41.419  26.494  26.317  1.00  0.00     0.010 A 
ATOM     41  C   UNL A   1      41.701  26.633  27.670  1.00  0.00    -0.014 A 
BRANCH  41  42
ATOM     42  C   UNL A   1      41.531  27.934  28.321  1.00  0.00     0.031 A 
ATOM     43  C   UNL A   1      42.612  28.920  28.036  1.00  0.00     0.074 A 
ATOM     44  C   UNL A   1      40.429  28.322  29.002  1.00  0.00     0.049 A 
ATOM     45  N   UNL A   1      43.535  29.328  28.843  1.00  0.00    -0.248 NA
ATOM     46  C   UNL A   1      42.779  29.396  26.653  1.00  0.00     0.031 C 
ATOM     47  C   UNL A   1      39.144  27.631  29.155  1.00  0.00     0.029 A 
ATOM     48  N   UNL A   1      40.208  29.499  29.656  1.00  0.00    -0.354 N 
ATOM     49  C   UNL A   1      44.262  30.286  28.144  1.00  0.00     0.074 A 
ATOM     50  C   UNL A   1      43.874  30.152  26.763  1.00  0.00     0.031 C 
ATOM     51  C   UNL A   1      38.220  28.483  29.649  1.00  0.00     0.029 A 
ATOM     52  C   UNL A   1      38.888  29.711  30.033  1.00  0.00     0.049 A 
ATOM     53  H   UNL A   1      40.926  30.145  29.844  1.00  0.00     0.167 HD
ATOM     54  C   UNL A   1      44.953  31.265  28.795  1.00  0.00     0.037 A 
ATOM     55  C   UNL A   1      38.373  30.810  30.637  1.00  0.00     0.037 A 
ATOM     56  C   UNL A   1      45.133  30.939  30.188  1.00  0.00     0.049 A 
ATOM     57  C   UNL A   1      39.504  31.505  31.299  1.00  0.00     0.074 A 
ATOM     58  C   UNL A   1      45.725  29.896  30.875  1.00  0.00     0.029 A 
ATOM     59  N   UNL A   1      44.314  31.560  31.099  1.00  0.00    -0.354 N 
ATOM     60  N   UNL A   1      40.166  31.016  32.312  1.00  0.00    -0.248 NA
ATOM     61  C   UNL A   1      40.181  32.560  30.564  1.00  0.00     0.031 C 
ATOM     62  C   UNL A   1      44.868  29.651  31.989  1.00  0.00     0.029 A 
ATOM     63  C   UNL A   1      43.844  30.597  31.957  1.00  0.00     0.049 A 
ATOM     64  H   UNL A   1      44.102  32.521  31.131  1.00  0.00     0.167 HD
ATOM     65  C   UNL A   1      41.484  31.375  32.079  1.00  0.00     0.074 A 
ATOM     66  C   UNL A   1      41.415  32.413  31.053  1.00  0.00     0.031 C 
ATOM     67  C   UNL A   1      42.518  30.611  32.541  1.00  0.00     0.037 A 
BRANCH  54  68
ATOM     68  C   UNL A   1      45.144  32.667  28.263  1.00  0.00     0.058 A 
ATOM     69  C   UNL A   1      46.448  33.165  28.060  1.00  0.00     0.135 A 
ATOM     70  C   UNL A   1      44.113  33.632  28.208  1.00  0.00     0.135 A 
ATOM     71  F   UNL A   1      47.509  32.341  28.105  1.00  0.00    -0.206 F 
ATOM     72  C   UNL A   1      46.712  34.525  27.883  1.00  0.00     0.059 A 
ATOM     73  C   UNL A   1      44.349  34.983  27.978  1.00  0.00     0.059 A 
ATOM     74  F   UNL A   1      42.837  33.330  28.474  1.00  0.00    -0.206 F 
ATOM     75  C   UNL A   1      45.654  35.427  27.858  1.00  0.00     0.060 A 
BRANCH  75  76
ATOM     76  S   UNL A   1      45.994  37.191  27.729  1.00  0.00     0.124 S 
ATOM     77  O   UNL A   1      47.265  37.190  27.013  1.00  0.00    -0.237 OA
ATOM     78  O   UNL A   1      44.837  37.668  26.981  1.00  0.00    -0.237 OA
ATOM     79  O   UNL A   1      46.053  37.622  29.123  1.00  0.00    -0.744 OA
ENDBRANCH  75  76
ENDBRANCH  54  68
BRANCH  55  80
ATOM     80  C   UNL A   1      37.048  31.448  30.436  1.00  0.00     0.058 A 
ATOM     81  C   UNL A   1      36.375  32.069  31.504  1.00  0.00     0.135 A 
ATOM     82  C   UNL A   1      36.564  31.732  29.144  1.00  0.00     0.135 A 
ATOM     83  F   UNL A   1      36.779  31.863  32.767  1.00  0.00    -0.206 F 
ATOM     84  C   UNL A   1      35.329  32.974  31.300  1.00  0.00     0.059 A 
ATOM     85  C   UNL A   1      35.517  32.626  28.916  1.00  0.00     0.059 A 
ATOM     86  F   UNL A   1      37.162  31.223  28.056  1.00  0.00    -0.206 F 
ATOM     87  C   UNL A   1      34.924  33.267  29.998  1.00  0.00     0.060 A 
BRANCH  87  88
ATOM     88  S   UNL A   1      33.717  34.585  29.724  1.00  0.00     0.124 S 
ATOM     89  O   UNL A   1      32.716  33.912  28.902  1.00  0.00    -0.237 OA
ATOM     90  O   UNL A   1      33.305  34.915  31.085  1.00  0.00    -0.237 OA
ATOM     91  O   UNL A   1      34.492  35.619  29.043  1.00  0.00    -0.744 OA
ENDBRANCH  87  88
ENDBRANCH  55  80
BRANCH  67  92
ATOM     92  C   UNL A   1      42.214  29.561  33.585  1.00  0.00     0.058 A 
ATOM     93  C   UNL A   1      41.702  28.278  33.315  1.00  0.00     0.135 A 
ATOM     94  C   UNL A   1      42.572  29.833  34.915  1.00  0.00     0.135 A 
ATOM     95  F   UNL A   1      41.432  27.891  32.061  1.00  0.00    -0.206 F 
ATOM     96  C   UNL A   1      41.506  27.333  34.326  1.00  0.00     0.059 A 
ATOM     97  C   UNL A   1      42.417  28.895  35.934  1.00  0.00     0.059 A 
ATOM     98  F   UNL A   1      43.123  31.016  35.234  1.00  0.00    -0.206 F 
ATOM     99  C   UNL A   1      41.866  27.652  35.635  1.00  0.00     0.060 A 
BRANCH  99 100
ATOM    100  S   UNL A   1      41.665  26.413  36.934  1.00  0.00     0.124 S 
ATOM    101  O   UNL A   1      40.370  26.771  37.504  1.00  0.00    -0.237 OA
ATOM    102  O   UNL A   1      41.705  25.159  36.188  1.00  0.00    -0.237 OA
ATOM    103  O   UNL A   1      42.814  26.645  37.807  1.00  0.00    -0.744 OA
ENDBRANCH  99 100
ENDBRANCH  67  92
ENDBRANCH  41  42
ENDBRANCH  33  36
ENDBRANCH  31  32
ENDBRANCH  30  31
ENDBRANCH   1  30
TORSDOF 17
ENDMDL
MODEL 2
REMARK VINA RESULT:     -13.0      1.898      2.532
REMARK SMILES NS(=O)(=O)c1ccc(-c2coc(=O)n2-c2ccc(C(=O)NCCCNC(=O)c3ccc(-c4c5nc(c(-c6c(F)cc(S(=O)(=O)[O-])cc6F)c6ccc([nH]6)c(-c6c(F)cc(S(=O)(=O)[O-])cc6F)c6nc(c(-c7c(F)cc(S(=O)(=O)[O-])cc7F)c7ccc4[nH]7)C=C6)C=C5)cc3)cc2)cc1
REMARK SMILES IDX 22 1 21 2 19 3 20 4 18 6 15 7 16 8 95 9 17 10 94 11 14 12
REMARK SMILES IDX 9 13 10 14 11 15 12 16 13 17 8 18 5 19 6 20 97 21 7 22 96 23
REMARK SMILES IDX 2 24 3 25 4 26 1 27 23 30 24 31 25 32 26 33 27 35 28 36
REMARK SMILES IDX 29 37 93 38 30 39 92 40 31 41 32 42 33 43 86 44 34 45 91 46
REMARK SMILES IDX 85 47 87 48 35 49 90 50 84 51 83 52 36 54 70 55 49 56 69 57
REMARK SMILES IDX 50 58 53 59 68 60 88 61 51 62 52 63 67 65 89 66 54 67 37 68
REMARK SMILES IDX 38 69 47 70 39 71 40 72 46 73 48 74 41 75 42 76 43 77 44 78
REMARK SMILES IDX 45 79 71 80 72 81 81 82 73 83 74 84 80 85 82 86 75 87 76 88
REMARK SMILES IDX 77 89 78 90 79 91 55 92 56 93 65 94 57 95 58 96 64 97 66 98
REMARK SMILES IDX 59 99 60 100 61 101 62 102 63 103
REMARK H PARENT 21 5 1 28 1 29 25 34 87 53 53 64
REMARK Flexibility Score: inf
ROOT
ATOM      1  C   UNL A   1      38.492  20.709  25.159  1.00  0.00     0.118 C 
ENDROOT
BRANCH   1   2
ATOM      2  N   UNL A   1      38.867  22.043  25.605  1.00  0.00    -0.352 N 
ATOM      3  C   UNL A   1      38.170  23.226  25.695  1.00  0.00     0.251 C 
ATOM      4  O   UNL A   1      38.725  24.175  26.248  1.00  0.00    -0.269 OA
ATOM      5  H   UNL A   1      39.802  22.112  25.902  1.00  0.00     0.163 HD
BRANCH   3   6
ATOM      6  C   UNL A   1      36.772  23.399  25.203  1.00  0.00     0.039 A 
ATOM      7  C   UNL A   1      34.068  23.591  24.438  1.00  0.00     0.053 A 
ATOM      8  C   UNL A   1      34.446  23.947  25.731  1.00  0.00     0.028 A 
ATOM      9  C   UNL A   1      35.049  23.241  23.511  1.00  0.00     0.028 A 
ATOM     10  C   UNL A   1      35.790  23.823  26.118  1.00  0.00     0.016 A 
ATOM     11  C   UNL A   1      36.387  23.187  23.884  1.00  0.00     0.016 A 
BRANCH   7  12
ATOM     12  N   UNL A   1      32.721  23.528  24.042  1.00  0.00    -0.242 N 
ATOM     13  C   UNL A   1      32.014  22.413  23.682  1.00  0.00     0.095 A 
ATOM     14  C   UNL A   1      30.847  22.852  23.228  1.00  0.00     0.228 A 
ATOM     15  O   UNL A   1      30.702  24.238  23.267  1.00  0.00    -0.415 OA
ATOM     16  C   UNL A   1      31.921  24.643  23.817  1.00  0.00     0.424 A 
ATOM     17  O   UNL A   1      32.197  25.819  24.005  1.00  0.00    -0.223 OA
BRANCH  13  18
ATOM     18  C   UNL A   1      32.434  21.032  23.923  1.00  0.00     0.002 A 
ATOM     19  C   UNL A   1      33.169  18.359  24.354  1.00  0.00     0.082 A 
ATOM     20  C   UNL A   1      32.632  18.738  23.122  1.00  0.00     0.022 A 
ATOM     21  C   UNL A   1      33.335  19.300  25.374  1.00  0.00     0.022 A 
ATOM     22  C   UNL A   1      32.273  20.071  22.909  1.00  0.00     0.012 A 
ATOM     23  C   UNL A   1      32.973  20.636  25.154  1.00  0.00     0.012 A 
BRANCH  19  24
ATOM     24  S   UNL A   1      33.605  16.660  24.578  1.00  0.00     0.238 S 
ATOM     25  O   UNL A   1      33.943  16.111  23.279  1.00  0.00    -0.207 OA
ATOM     26  O   UNL A   1      32.649  16.050  25.461  1.00  0.00    -0.207 OA
BRANCH  24  27
ATOM     27  N   UNL A   1      35.048  16.697  25.441  1.00  0.00    -0.225 NA
ATOM     28  H   UNL A   1      35.520  15.798  25.351  1.00  0.00     0.137 HD
ATOM     29  H   UNL A   1      34.851  16.880  26.425  1.00  0.00     0.137 HD
ENDBRANCH  24  27
ENDBRANCH  19  24
ENDBRANCH  13  18
ENDBRANCH   7  12
ENDBRANCH   3   6
ENDBRANCH   1   2
BRANCH   1  30
ATOM     30  C   UNL A   1      39.368  19.613  25.783  1.00  0.00     0.042 C 
BRANCH  30  31
ATOM     31  C   UNL A   1      40.554  20.169  26.550  1.00  0.00     0.118 C 
BRANCH  31  32
ATOM     32  N   UNL A   1      41.824  19.616  26.081  1.00  0.00    -0.352 N 
ATOM     33  C   UNL A   1      42.950  20.297  25.667  1.00  0.00     0.251 C 
ATOM     34  H   UNL A   1      41.883  18.633  26.059  1.00  0.00     0.163 HD
ATOM     35  O   UNL A   1      43.786  19.736  24.966  1.00  0.00    -0.269 OA
BRANCH  33  36
ATOM     36  C   UNL A   1      43.110  21.710  26.053  1.00  0.00     0.039 A 
ATOM     37  C   UNL A   1      42.675  22.736  25.213  1.00  0.00     0.014 A 
ATOM     38  C   UNL A   1      43.645  22.000  27.305  1.00  0.00     0.014 A 
ATOM     39  C   UNL A   1      42.691  24.044  25.691  1.00  0.00     0.010 A 
ATOM     40  C   UNL A   1      43.497  23.260  27.833  1.00  0.00     0.010 A 
ATOM     41  C   UNL A   1      43.065  24.302  27.024  1.00  0.00    -0.014 A 
BRANCH  41  42
ATOM     42  C   UNL A   1      42.900  25.644  27.587  1.00  0.00     0.031 A 
ATOM     43  C   UNL A   1      43.955  26.620  27.194  1.00  0.00     0.074 A 
ATOM     44  C   UNL A   1      41.818  26.066  28.280  1.00  0.00     0.049 A 
ATOM     45  N   UNL A   1      44.900  27.096  27.935  1.00  0.00    -0.248 NA
ATOM     46  C   UNL A   1      44.065  26.998  25.776  1.00  0.00     0.031 C 
ATOM     47  C   UNL A   1      40.549  25.371  28.529  1.00  0.00     0.029 A 
ATOM     48  N   UNL A   1      41.603  27.283  28.857  1.00  0.00    -0.354 N 
ATOM     49  C   UNL A   1      45.587  28.010  27.143  1.00  0.00     0.074 A 
ATOM     50  C   UNL A   1      45.151  27.774  25.790  1.00  0.00     0.031 C 
ATOM     51  C   UNL A   1      39.631  26.246  28.996  1.00  0.00     0.029 A 
ATOM     52  C   UNL A   1      40.294  27.505  29.268  1.00  0.00     0.049 A 
ATOM     53  H   UNL A   1      42.317  27.950  28.972  1.00  0.00     0.167 HD
ATOM     54  C   UNL A   1      46.287  29.041  27.697  1.00  0.00     0.037 A 
ATOM     55  C   UNL A   1      39.786  28.638  29.811  1.00  0.00     0.037 A 
ATOM     56  C   UNL A   1      46.522  28.817  29.103  1.00  0.00     0.049 A 
ATOM     57  C   UNL A   1      40.929  29.392  30.380  1.00  0.00     0.074 A 
ATOM     58  C   UNL A   1      47.154  27.833  29.838  1.00  0.00     0.029 A 
ATOM     59  N   UNL A   1      45.727  29.492  29.997  1.00  0.00    -0.354 N 
ATOM     60  N   UNL A   1      41.635  28.984  31.399  1.00  0.00    -0.248 NA
ATOM     61  C   UNL A   1      41.563  30.400  29.547  1.00  0.00     0.031 C 
ATOM     62  C   UNL A   1      46.341  27.657  30.999  1.00  0.00     0.029 A 
ATOM     63  C   UNL A   1      45.303  28.587  30.938  1.00  0.00     0.049 A 
ATOM     64  H   UNL A   1      45.503  30.450  29.969  1.00  0.00     0.167 HD
ATOM     65  C   UNL A   1      42.939  29.343  31.093  1.00  0.00     0.074 A 
ATOM     66  C   UNL A   1      42.816  30.303  29.998  1.00  0.00     0.031 C 
ATOM     67  C   UNL A   1      44.000  28.626  31.568  1.00  0.00     0.037 A 
BRANCH  54  68
ATOM     68  C   UNL A   1      46.437  30.404  27.061  1.00  0.00     0.058 A 
ATOM     69  C   UNL A   1      47.705  31.023  27.029  1.00  0.00     0.135 A 
ATOM     70  C   UNL A   1      45.347  31.242  26.733  1.00  0.00     0.135 A 
ATOM     71  F   UNL A   1      48.813  30.328  27.337  1.00  0.00    -0.206 F 
ATOM     72  C   UNL A   1      47.868  32.383  26.757  1.00  0.00     0.059 A 
ATOM     73  C   UNL A   1      45.493  32.585  26.406  1.00  0.00     0.059 A 
ATOM     74  F   UNL A   1      44.078  30.825  26.811  1.00  0.00    -0.206 F 
ATOM     75  C   UNL A   1      46.752  33.158  26.460  1.00  0.00     0.060 A 
BRANCH  75  76
ATOM     76  S   UNL A   1      46.943  34.931  26.206  1.00  0.00     0.124 S 
ATOM     77  O   UNL A   1      47.791  35.296  27.336  1.00  0.00    -0.237 OA
ATOM     78  O   UNL A   1      47.571  34.982  24.891  1.00  0.00    -0.237 OA
ATOM     79  O   UNL A   1      45.571  35.426  26.259  1.00  0.00    -0.744 OA
ENDBRANCH  75  76
ENDBRANCH  54  68
BRANCH  55  80
ATOM     80  C   UNL A   1      38.445  29.244  29.615  1.00  0.00     0.058 A 
ATOM     81  C   UNL A   1      37.596  29.490  30.709  1.00  0.00     0.135 A 
ATOM     82  C   UNL A   1      38.099  29.874  28.403  1.00  0.00     0.135 A 
ATOM     83  F   UNL A   1      37.858  28.939  31.904  1.00  0.00    -0.206 F 
ATOM     84  C   UNL A   1      36.508  30.365  30.626  1.00  0.00     0.059 A 
ATOM     85  C   UNL A   1      37.014  30.745  28.294  1.00  0.00     0.059 A 
ATOM     86  F   UNL A   1      38.867  29.738  27.311  1.00  0.00    -0.206 F 
ATOM     87  C   UNL A   1      36.241  31.009  29.419  1.00  0.00     0.060 A 
BRANCH  87  88
ATOM     88  S   UNL A   1      34.967  32.291  29.365  1.00  0.00     0.124 S 
ATOM     89  O   UNL A   1      34.019  31.735  28.405  1.00  0.00    -0.237 OA
ATOM     90  O   UNL A   1      34.515  32.337  30.752  1.00  0.00    -0.237 OA
ATOM     91  O   UNL A   1      35.694  33.473  28.911  1.00  0.00    -0.744 OA
ENDBRANCH  87  88
ENDBRANCH  55  80
BRANCH  67  92
ATOM     92  C   UNL A   1      43.749  27.649  32.695  1.00  0.00     0.058 A 
ATOM     93  C   UNL A   1      43.669  26.252  32.549  1.00  0.00     0.135 A 
ATOM     94  C   UNL A   1      43.706  28.152  34.004  1.00  0.00     0.135 A 
ATOM     95  F   UNL A   1      43.808  25.673  31.348  1.00  0.00    -0.206 F 
ATOM     96  C   UNL A   1      43.500  25.403  33.646  1.00  0.00     0.059 A 
ATOM     97  C   UNL A   1      43.572  27.323  35.116  1.00  0.00     0.059 A 
ATOM     98  F   UNL A   1      43.838  29.471  34.222  1.00  0.00    -0.206 F 
ATOM     99  C   UNL A   1      43.451  25.949  34.928  1.00  0.00     0.060 A 
BRANCH  99 100
ATOM    100  S   UNL A   1      43.288  24.850  36.352  1.00  0.00     0.124 S 
ATOM    101  O   UNL A   1      44.261  25.409  37.285  1.00  0.00    -0.237 OA
ATOM    102  O   UNL A   1      41.886  25.015  36.724  1.00  0.00    -0.237 OA
ATOM    103  O   UNL A   1      43.629  23.536  35.810  1.00  0.00    -0.744 OA
ENDBRANCH  99 100
ENDBRANCH  67  92
ENDBRANCH  41  42
ENDBRANCH  33  36
ENDBRANCH  31  32
ENDBRANCH  30  31
ENDBRANCH   1  30
TORSDOF 17
ENDMDL
MODEL 3
REMARK VINA RESULT:     -12.9      3.650      9.989
REMARK SMILES NS(=O)(=O)c1ccc(-c2coc(=O)n2-c2ccc(C(=O)NCCCNC(=O)c3ccc(-c4c5nc(c(-c6c(F)cc(S(=O)(=O)[O-])cc6F)c6ccc([nH]6)c(-c6c(F)cc(S(=O)(=O)[O-])cc6F)c6nc(c(-c7c(F)cc(S(=O)(=O)[O-])cc7F)c7ccc4[nH]7)C=C6)C=C5)cc3)cc2)cc1
REMARK SMILES IDX 22 1 21 2 19 3 20 4 18 6 15 7 16 8 95 9 17 10 94 11 14 12
REMARK SMILES IDX 9 13 10 14 11 15 12 16 13 17 8 18 5 19 6 20 97 21 7 22 96 23
REMARK SMILES IDX 2 24 3 25 4 26 1 27 23 30 24 31 25 32 26 33 27 35 28 36
REMARK SMILES IDX 29 37 93 38 30 39 92 40 31 41 32 42 33 43 86 44 34 45 91 46
REMARK SMILES IDX 85 47 87 48 35 49 90 50 84 51 83 52 36 54 70 55 49 56 69 57
REMARK SMILES IDX 50 58 53 59 68 60 88 61 51 62 52 63 67 65 89 66 54 67 37 68
REMARK SMILES IDX 38 69 47 70 39 71 40 72 46 73 48 74 41 75 42 76 43 77 44 78
REMARK SMILES IDX 45 79 71 80 72 81 81 82 73 83 74 84 80 85 82 86 75 87 76 88
REMARK SMILES IDX 77 89 78 90 79 91 55 92 56 93 65 94 57 95 58 96 64 97 66 98
REMARK SMILES IDX 59 99 60 100 61 101 62 102 63 103
REMARK H PARENT 21 5 1 28 1 29 25 34 87 53 53 64
REMARK Flexibility Score: inf
ROOT
ATOM      1  C   UNL A   1      33.126  31.630  27.533  1.00  0.00     0.118 C 
ENDROOT
BRANCH   1   2
ATOM      2  N   UNL A   1      34.322  30.844  27.802  1.00  0.00    -0.352 N 
ATOM      3  C   UNL A   1      34.741  29.608  27.369  1.00  0.00     0.251 C 
ATOM      4  O   UNL A   1      35.883  29.256  27.666  1.00  0.00    -0.269 OA
ATOM      5  H   UNL A   1      34.955  31.284  28.414  1.00  0.00     0.163 HD
BRANCH   3   6
ATOM      6  C   UNL A   1      33.908  28.702  26.526  1.00  0.00     0.039 A 
ATOM      7  C   UNL A   1      32.360  26.838  25.090  1.00  0.00     0.053 A 
ATOM      8  C   UNL A   1      31.988  27.190  26.386  1.00  0.00     0.028 A 
ATOM      9  C   UNL A   1      33.436  27.488  24.486  1.00  0.00     0.028 A 
ATOM     10  C   UNL A   1      32.779  28.098  27.109  1.00  0.00     0.016 A 
ATOM     11  C   UNL A   1      34.171  28.437  25.187  1.00  0.00     0.016 A 
BRANCH   7  12
ATOM     12  N   UNL A   1      31.715  25.811  24.380  1.00  0.00    -0.242 N 
ATOM     13  C   UNL A   1      30.552  25.902  23.664  1.00  0.00     0.095 A 
ATOM     14  C   UNL A   1      30.239  24.661  23.316  1.00  0.00     0.228 A 
ATOM     15  O   UNL A   1      31.149  23.698  23.750  1.00  0.00    -0.415 OA
ATOM     16  C   UNL A   1      32.100  24.475  24.416  1.00  0.00     0.424 A 
ATOM     17  O   UNL A   1      33.078  23.988  24.965  1.00  0.00    -0.223 OA
BRANCH  13  18
ATOM     18  C   UNL A   1      29.909  27.150  23.252  1.00  0.00     0.002 A 
ATOM     19  C   UNL A   1      28.742  29.585  22.489  1.00  0.00     0.082 A 
ATOM     20  C   UNL A   1      30.071  29.321  22.155  1.00  0.00     0.022 A 
ATOM     21  C   UNL A   1      27.993  28.648  23.207  1.00  0.00     0.022 A 
ATOM     22  C   UNL A   1      30.647  28.106  22.530  1.00  0.00     0.012 A 
ATOM     23  C   UNL A   1      28.576  27.430  23.581  1.00  0.00     0.012 A 
BRANCH  19  24
ATOM     24  S   UNL A   1      28.057  31.139  21.995  1.00  0.00     0.238 S 
ATOM     25  O   UNL A   1      27.156  31.583  23.042  1.00  0.00    -0.207 OA
ATOM     26  O   UNL A   1      27.671  31.055  20.614  1.00  0.00    -0.207 OA
BRANCH  24  27
ATOM     27  N   UNL A   1      29.352  32.210  22.032  1.00  0.00    -0.225 NA
ATOM     28  H   UNL A   1      29.042  33.129  21.716  1.00  0.00     0.137 HD
ATOM     29  H   UNL A   1      30.092  31.871  21.416  1.00  0.00     0.137 HD
ENDBRANCH  24  27
ENDBRANCH  19  24
ENDBRANCH  13  18
ENDBRANCH   7  12
ENDBRANCH   3   6
ENDBRANCH   1   2
BRANCH   1  30
ATOM     30  C   UNL A   1      33.296  33.108  27.915  1.00  0.00     0.042 C 
BRANCH  30  31
ATOM     31  C   UNL A   1      34.573  33.375  28.689  1.00  0.00     0.118 C 
BRANCH  31  32
ATOM     32  N   UNL A   1      34.369  33.306  30.136  1.00  0.00    -0.352 N 
ATOM     33  C   UNL A   1      34.938  32.430  31.037  1.00  0.00     0.251 C 
ATOM     34  H   UNL A   1      33.746  33.968  30.514  1.00  0.00     0.163 HD
ATOM     35  O   UNL A   1      34.412  32.242  32.129  1.00  0.00    -0.269 OA
BRANCH  33  36
ATOM     36  C   UNL A   1      36.163  31.707  30.651  1.00  0.00     0.039 A 
ATOM     37  C   UNL A   1      37.284  32.396  30.187  1.00  0.00     0.014 A 
ATOM     38  C   UNL A   1      36.202  30.327  30.822  1.00  0.00     0.014 A 
ATOM     39  C   UNL A   1      38.471  31.691  29.998  1.00  0.00     0.010 A 
ATOM     40  C   UNL A   1      37.410  29.671  30.803  1.00  0.00     0.010 A 
ATOM     41  C   UNL A   1      38.545  30.329  30.347  1.00  0.00    -0.014 A 
BRANCH  41  42
ATOM     42  C   UNL A   1      39.834  29.635  30.333  1.00  0.00     0.031 A 
ATOM     43  C   UNL A   1      40.403  29.346  31.680  1.00  0.00     0.074 A 
ATOM     44  C   UNL A   1      40.431  29.131  29.228  1.00  0.00     0.049 A 
ATOM     45  N   UNL A   1      41.414  29.917  32.244  1.00  0.00    -0.248 NA
ATOM     46  C   UNL A   1      39.674  28.420  32.562  1.00  0.00     0.031 C 
ATOM     47  C   UNL A   1      39.917  29.044  27.857  1.00  0.00     0.029 A 
ATOM     48  N   UNL A   1      41.636  28.501  29.130  1.00  0.00    -0.354 N 
ATOM     49  C   UNL A   1      41.596  29.266  33.460  1.00  0.00     0.074 A 
ATOM     50  C   UNL A   1      40.400  28.492  33.681  1.00  0.00     0.031 C 
ATOM     51  C   UNL A   1      40.690  28.208  27.129  1.00  0.00     0.029 A 
ATOM     52  C   UNL A   1      41.857  27.863  27.915  1.00  0.00     0.049 A 
ATOM     53  H   UNL A   1      42.295  28.497  29.861  1.00  0.00     0.167 HD
ATOM     54  C   UNL A   1      42.812  29.238  34.074  1.00  0.00     0.037 A 
ATOM     55  C   UNL A   1      42.932  27.113  27.565  1.00  0.00     0.037 A 
ATOM     56  C   UNL A   1      43.696  30.239  33.528  1.00  0.00     0.049 A 
ATOM     57  C   UNL A   1      44.045  27.516  28.458  1.00  0.00     0.074 A 
ATOM     58  C   UNL A   1      43.652  31.615  33.410  1.00  0.00     0.029 A 
ATOM     59  N   UNL A   1      44.657  29.824  32.639  1.00  0.00    -0.354 N 
ATOM     60  N   UNL A   1      44.609  28.693  28.433  1.00  0.00    -0.248 NA
ATOM     61  C   UNL A   1      44.252  26.753  29.677  1.00  0.00     0.031 C 
ATOM     62  C   UNL A   1      44.216  31.896  32.129  1.00  0.00     0.029 A 
ATOM     63  C   UNL A   1      44.633  30.687  31.571  1.00  0.00     0.049 A 
ATOM     64  H   UNL A   1      45.254  29.049  32.747  1.00  0.00     0.167 HD
ATOM     65  C   UNL A   1      44.858  28.995  29.763  1.00  0.00     0.074 A 
ATOM     66  C   UNL A   1      44.719  27.722  30.468  1.00  0.00     0.031 C 
ATOM     67  C   UNL A   1      44.885  30.288  30.202  1.00  0.00     0.037 A 
BRANCH  54  68
ATOM     68  C   UNL A   1      43.319  28.080  34.903  1.00  0.00     0.058 A 
ATOM     69  C   UNL A   1      43.788  28.312  36.214  1.00  0.00     0.135 A 
ATOM     70  C   UNL A   1      43.622  26.806  34.369  1.00  0.00     0.135 A 
ATOM     71  F   UNL A   1      43.571  29.493  36.817  1.00  0.00    -0.206 F 
ATOM     72  C   UNL A   1      44.553  27.376  36.913  1.00  0.00     0.059 A 
ATOM     73  C   UNL A   1      44.335  25.840  35.069  1.00  0.00     0.059 A 
ATOM     74  F   UNL A   1      43.328  26.473  33.107  1.00  0.00    -0.206 F 
ATOM     75  C   UNL A   1      44.833  26.147  36.324  1.00  0.00     0.060 A 
BRANCH  75  76
ATOM     76  S   UNL A   1      45.901  24.975  37.178  1.00  0.00     0.124 S 
ATOM     77  O   UNL A   1      44.937  24.244  37.992  1.00  0.00    -0.237 OA
ATOM     78  O   UNL A   1      46.491  24.238  36.066  1.00  0.00    -0.237 OA
ATOM     79  O   UNL A   1      46.824  25.837  37.910  1.00  0.00    -0.744 OA
ENDBRANCH  75  76
ENDBRANCH  54  68
BRANCH  55  80
ATOM     80  C   UNL A   1      42.979  25.889  26.728  1.00  0.00     0.058 A 
ATOM     81  C   UNL A   1      43.789  25.829  25.579  1.00  0.00     0.135 A 
ATOM     82  C   UNL A   1      42.480  24.660  27.203  1.00  0.00     0.135 A 
ATOM     83  F   UNL A   1      44.316  26.952  25.067  1.00  0.00    -0.206 F 
ATOM     84  C   UNL A   1      44.142  24.617  24.979  1.00  0.00     0.059 A 
ATOM     85  C   UNL A   1      42.811  23.439  26.616  1.00  0.00     0.059 A 
ATOM     86  F   UNL A   1      41.732  24.604  28.316  1.00  0.00    -0.206 F 
ATOM     87  C   UNL A   1      43.669  23.423  25.522  1.00  0.00     0.060 A 
BRANCH  87  88
ATOM     88  S   UNL A   1      44.287  21.852  24.874  1.00  0.00     0.124 S 
ATOM     89  O   UNL A   1      45.576  21.733  25.550  1.00  0.00    -0.237 OA
ATOM     90  O   UNL A   1      43.255  20.913  25.303  1.00  0.00    -0.237 OA
ATOM     91  O   UNL A   1      44.357  22.082  23.434  1.00  0.00    -0.744 OA
ENDBRANCH  87  88
ENDBRANCH  55  80
BRANCH  67  92
ATOM     92  C   UNL A   1      44.973  31.387  29.169  1.00  0.00     0.058 A 
ATOM     93  C   UNL A   1      46.163  31.837  28.567  1.00  0.00     0.135 A 
ATOM     94  C   UNL A   1      43.774  31.930  28.682  1.00  0.00     0.135 A 
ATOM     95  F   UNL A   1      47.348  31.300  28.891  1.00  0.00    -0.206 F 
ATOM     96  C   UNL A   1      46.163  32.815  27.569  1.00  0.00     0.059 A 
ATOM     97  C   UNL A   1      43.746  32.881  27.665  1.00  0.00     0.059 A 
ATOM     98  F   UNL A   1      42.596  31.503  29.168  1.00  0.00    -0.206 F 
ATOM     99  C   UNL A   1      44.947  33.334  27.125  1.00  0.00     0.060 A 
BRANCH  99 100
ATOM    100  S   UNL A   1      44.940  34.558  25.797  1.00  0.00     0.124 S 
ATOM    101  O   UNL A   1      44.795  33.723  24.609  1.00  0.00    -0.237 OA
ATOM    102  O   UNL A   1      43.788  35.388  26.133  1.00  0.00    -0.237 OA
ATOM    103  O   UNL A   1      46.235  35.221  25.936  1.00  0.00    -0.744 OA
ENDBRANCH  99 100
ENDBRANCH  67  92
ENDBRANCH  41  42
ENDBRANCH  33  36
ENDBRANCH  31  32
ENDBRANCH  30  31
ENDBRANCH   1  30
TORSDOF 17
ENDMDL
