MODEL 1
REMARK VINA RESULT:     -13.1      0.000      0.000
REMARK SMILES NS(=O)(=O)c1ccc(-n2ccnc2-c2ccc(O)c(C(=O)NCCCNC(=O)c3ccc(-c4c5nc(c(-c6c(F)cc(S(=O)(=O)[O-])cc6F)c6ccc([nH]6)c(-c6c(F)cc(S(=O)(=O)[O-])cc6F)c6nc(c(-c7c(F)cc(S(=O)(=O)[O-])cc7F)c7ccc4[nH]7)C=C6)C=C5)cc3)c2)cc1
REMARK SMILES IDX 23 1 22 2 20 3 21 4 19 6 14 7 15 8 95 9 16 10 17 11 13 12
REMARK SMILES IDX 9 13 10 14 11 15 12 16 8 17 5 18 6 19 97 20 7 21 96 22 2 23
REMARK SMILES IDX 3 24 4 25 1 26 18 29 24 31 25 32 26 33 27 34 28 36 29 37
REMARK SMILES IDX 30 38 94 39 31 40 93 41 32 42 33 43 34 44 87 45 35 46 92 47
REMARK SMILES IDX 86 48 88 49 36 50 91 51 85 52 84 53 37 55 71 56 50 57 70 58
REMARK SMILES IDX 51 59 54 60 69 61 89 62 52 63 53 64 68 66 90 67 55 68 38 69
REMARK SMILES IDX 39 70 48 71 40 72 41 73 47 74 49 75 42 76 43 77 44 78 45 79
REMARK SMILES IDX 46 80 72 81 73 82 82 83 74 84 75 85 81 86 83 87 76 88 77 89
REMARK SMILES IDX 78 90 79 91 80 92 56 93 57 94 66 95 58 96 59 97 65 98 67 99
REMARK SMILES IDX 60 100 61 101 62 102 63 103 64 104
REMARK H PARENT 22 5 1 27 1 28 18 30 26 35 88 54 54 65
REMARK Flexibility Score: inf
ROOT
ATOM      1  C   UNL A   1      37.153  22.871  25.425  1.00  0.00     0.118 C 
ENDROOT
BRANCH   1   2
ATOM      2  N   UNL A   1      36.183  22.977  26.506  1.00  0.00    -0.352 N 
ATOM      3  C   UNL A   1      34.823  22.773  26.571  1.00  0.00     0.255 C 
ATOM      4  O   UNL A   1      34.309  22.750  27.693  1.00  0.00    -0.269 OA
ATOM      5  H   UNL A   1      36.581  23.251  27.364  1.00  0.00     0.163 HD
BRANCH   3   6
ATOM      6  C   UNL A   1      33.930  22.546  25.398  1.00  0.00     0.082 A 
ATOM      7  C   UNL A   1      33.038  23.203  23.207  1.00  0.00     0.019 A 
ATOM      8  C   UNL A   1      32.251  22.057  23.165  1.00  0.00     0.016 A 
ATOM      9  C   UNL A   1      33.805  23.459  24.354  1.00  0.00     0.029 A 
ATOM     10  C   UNL A   1      32.301  21.150  24.227  1.00  0.00     0.048 A 
ATOM     11  C   UNL A   1      33.145  21.384  25.320  1.00  0.00     0.128 A 
BRANCH   7  12
ATOM     12  C   UNL A   1      33.076  24.181  22.114  1.00  0.00     0.144 A 
ATOM     13  N   UNL A   1      32.677  25.520  22.237  1.00  0.00    -0.300 N 
ATOM     14  C   UNL A   1      32.406  25.953  20.958  1.00  0.00     0.113 A 
ATOM     15  C   UNL A   1      32.823  24.944  20.126  1.00  0.00     0.132 A 
ATOM     16  N   UNL A   1      33.267  23.871  20.844  1.00  0.00    -0.236 NA
BRANCH  13  17
ATOM     17  C   UNL A   1      32.517  26.289  23.425  1.00  0.00     0.047 A 
ATOM     18  C   UNL A   1      32.186  27.858  25.714  1.00  0.00     0.082 A 
ATOM     19  C   UNL A   1      31.127  27.068  25.257  1.00  0.00     0.024 A 
ATOM     20  C   UNL A   1      33.417  27.850  25.053  1.00  0.00     0.024 A 
ATOM     21  C   UNL A   1      31.288  26.295  24.102  1.00  0.00     0.028 A 
ATOM     22  C   UNL A   1      33.590  27.049  23.917  1.00  0.00     0.028 A 
BRANCH  18  23
ATOM     23  S   UNL A   1      31.980  28.833  27.180  1.00  0.00     0.238 S 
ATOM     24  O   UNL A   1      31.189  28.105  28.129  1.00  0.00    -0.207 OA
ATOM     25  O   UNL A   1      31.664  30.195  26.783  1.00  0.00    -0.207 OA
BRANCH  23  26
ATOM     26  N   UNL A   1      33.539  28.872  27.797  1.00  0.00    -0.225 NA
ATOM     27  H   UNL A   1      33.680  28.074  28.415  1.00  0.00     0.137 HD
ATOM     28  H   UNL A   1      33.676  29.737  28.320  1.00  0.00     0.137 HD
ENDBRANCH  23  26
ENDBRANCH  18  23
ENDBRANCH  13  17
ENDBRANCH   7  12
BRANCH  11  29
ATOM     29  O   UNL A   1      33.134  20.417  26.290  1.00  0.00    -0.507 OA
ATOM     30  H   UNL A   1      33.770  19.730  26.276  1.00  0.00     0.293 HD
ENDBRANCH  11  29
ENDBRANCH   3   6
ENDBRANCH   1   2
BRANCH   1  31
ATOM     31  C   UNL A   1      38.331  21.937  25.753  1.00  0.00     0.042 C 
BRANCH  31  32
ATOM     32  C   UNL A   1      39.429  22.637  26.531  1.00  0.00     0.118 C 
BRANCH  32  33
ATOM     33  N   UNL A   1      40.772  22.182  26.138  1.00  0.00    -0.352 N 
ATOM     34  C   UNL A   1      41.899  22.940  25.858  1.00  0.00     0.251 C 
ATOM     35  H   UNL A   1      40.886  21.207  26.064  1.00  0.00     0.163 HD
ATOM     36  O   UNL A   1      42.840  22.455  25.241  1.00  0.00    -0.269 OA
BRANCH  34  37
ATOM     37  C   UNL A   1      41.930  24.336  26.317  1.00  0.00     0.039 A 
ATOM     38  C   UNL A   1      41.164  25.348  25.730  1.00  0.00     0.014 A 
ATOM     39  C   UNL A   1      42.689  24.586  27.448  1.00  0.00     0.014 A 
ATOM     40  C   UNL A   1      41.098  26.588  26.366  1.00  0.00     0.010 A 
ATOM     41  C   UNL A   1      42.396  25.681  28.202  1.00  0.00     0.010 A 
ATOM     42  C   UNL A   1      41.703  26.734  27.621  1.00  0.00    -0.014 A 
BRANCH  42  43
ATOM     43  C   UNL A   1      41.646  27.969  28.389  1.00  0.00     0.031 A 
ATOM     44  C   UNL A   1      42.715  28.964  28.118  1.00  0.00     0.074 A 
ATOM     45  C   UNL A   1      40.544  28.285  29.105  1.00  0.00     0.049 A 
ATOM     46  N   UNL A   1      43.656  29.335  28.920  1.00  0.00    -0.248 NA
ATOM     47  C   UNL A   1      42.833  29.532  26.767  1.00  0.00     0.031 C 
ATOM     48  C   UNL A   1      39.274  27.550  29.225  1.00  0.00     0.029 A 
ATOM     49  N   UNL A   1      40.278  29.431  29.777  1.00  0.00    -0.354 N 
ATOM     50  C   UNL A   1      44.366  30.333  28.259  1.00  0.00     0.074 A 
ATOM     51  C   UNL A   1      43.934  30.281  26.884  1.00  0.00     0.031 C 
ATOM     52  C   UNL A   1      38.313  28.378  29.685  1.00  0.00     0.029 A 
ATOM     53  C   UNL A   1      38.935  29.629  30.069  1.00  0.00     0.049 A 
ATOM     54  H   UNL A   1      40.980  30.070  30.038  1.00  0.00     0.167 HD
ATOM     55  C   UNL A   1      45.100  31.259  28.940  1.00  0.00     0.037 A 
ATOM     56  C   UNL A   1      38.379  30.766  30.553  1.00  0.00     0.037 A 
ATOM     57  C   UNL A   1      45.206  30.912  30.336  1.00  0.00     0.049 A 
ATOM     58  C   UNL A   1      39.484  31.520  31.210  1.00  0.00     0.074 A 
ATOM     59  C   UNL A   1      45.728  29.833  31.025  1.00  0.00     0.029 A 
ATOM     60  N   UNL A   1      44.360  31.547  31.216  1.00  0.00    -0.354 N 
ATOM     61  N   UNL A   1      40.122  31.084  32.267  1.00  0.00    -0.248 NA
ATOM     62  C   UNL A   1      40.213  32.499  30.415  1.00  0.00     0.031 C 
ATOM     63  C   UNL A   1      44.800  29.592  32.079  1.00  0.00     0.029 A 
ATOM     64  C   UNL A   1      43.812  30.578  32.022  1.00  0.00     0.049 A 
ATOM     65  H   UNL A   1      44.180  32.513  31.261  1.00  0.00     0.167 HD
ATOM     66  C   UNL A   1      41.458  31.391  32.040  1.00  0.00     0.074 A 
ATOM     67  C   UNL A   1      41.439  32.343  30.928  1.00  0.00     0.031 C 
ATOM     68  C   UNL A   1      42.468  30.630  32.561  1.00  0.00     0.037 A 
BRANCH  55  69
ATOM     69  C   UNL A   1      45.456  32.638  28.448  1.00  0.00     0.058 A 
ATOM     70  C   UNL A   1      46.813  33.021  28.385  1.00  0.00     0.135 A 
ATOM     71  C   UNL A   1      44.519  33.682  28.296  1.00  0.00     0.135 A 
ATOM     72  F   UNL A   1      47.788  32.107  28.517  1.00  0.00    -0.206 F 
ATOM     73  C   UNL A   1      47.209  34.352  28.258  1.00  0.00     0.059 A 
ATOM     74  C   UNL A   1      44.891  35.009  28.111  1.00  0.00     0.059 A 
ATOM     75  F   UNL A   1      43.202  33.475  28.421  1.00  0.00    -0.206 F 
ATOM     76  C   UNL A   1      46.237  35.341  28.140  1.00  0.00     0.060 A 
BRANCH  76  77
ATOM     77  S   UNL A   1      46.742  37.071  28.105  1.00  0.00     0.124 S 
ATOM     78  O   UNL A   1      46.333  37.465  26.762  1.00  0.00    -0.237 OA
ATOM     79  O   UNL A   1      45.964  37.637  29.203  1.00  0.00    -0.237 OA
ATOM     80  O   UNL A   1      48.182  37.003  28.334  1.00  0.00    -0.744 OA
ENDBRANCH  76  77
ENDBRANCH  55  69
BRANCH  56  81
ATOM     81  C   UNL A   1      37.081  31.361  30.131  1.00  0.00     0.058 A 
ATOM     82  C   UNL A   1      36.238  31.993  31.061  1.00  0.00     0.135 A 
ATOM     83  C   UNL A   1      36.754  31.557  28.771  1.00  0.00     0.135 A 
ATOM     84  F   UNL A   1      36.477  31.873  32.376  1.00  0.00    -0.206 F 
ATOM     85  C   UNL A   1      35.177  32.818  30.667  1.00  0.00     0.059 A 
ATOM     86  C   UNL A   1      35.693  32.360  28.355  1.00  0.00     0.059 A 
ATOM     87  F   UNL A   1      37.512  31.049  27.789  1.00  0.00    -0.206 F 
ATOM     88  C   UNL A   1      34.928  33.015  29.309  1.00  0.00     0.060 A 
BRANCH  88  89
ATOM     89  S   UNL A   1      33.702  34.239  28.791  1.00  0.00     0.124 S 
ATOM     90  O   UNL A   1      32.871  33.466  27.874  1.00  0.00    -0.237 OA
ATOM     91  O   UNL A   1      33.082  34.609  30.059  1.00  0.00    -0.237 OA
ATOM     92  O   UNL A   1      34.510  35.286  28.171  1.00  0.00    -0.744 OA
ENDBRANCH  88  89
ENDBRANCH  56  81
BRANCH  68  93
ATOM     93  C   UNL A   1      42.128  29.587  33.600  1.00  0.00     0.058 A 
ATOM     94  C   UNL A   1      41.837  28.242  33.304  1.00  0.00     0.135 A 
ATOM     95  C   UNL A   1      42.293  29.912  34.954  1.00  0.00     0.135 A 
ATOM     96  F   UNL A   1      41.774  27.813  32.039  1.00  0.00    -0.206 F 
ATOM     97  C   UNL A   1      41.677  27.279  34.300  1.00  0.00     0.059 A 
ATOM     98  C   UNL A   1      42.170  28.961  35.967  1.00  0.00     0.059 A 
ATOM     99  F   UNL A   1      42.641  31.160  35.306  1.00  0.00    -0.206 F 
ATOM    100  C   UNL A   1      41.849  27.648  35.633  1.00  0.00     0.060 A 
BRANCH 100 101
ATOM    101  S   UNL A   1      41.725  26.381  36.913  1.00  0.00     0.124 S 
ATOM    102  O   UNL A   1      41.778  25.150  36.132  1.00  0.00    -0.237 OA
ATOM    103  O   UNL A   1      42.894  26.652  37.746  1.00  0.00    -0.237 OA
ATOM    104  O   UNL A   1      40.440  26.663  37.547  1.00  0.00    -0.744 OA
ENDBRANCH 100 101
ENDBRANCH  68  93
ENDBRANCH  42  43
ENDBRANCH  34  37
ENDBRANCH  32  33
ENDBRANCH  31  32
ENDBRANCH   1  31
TORSDOF 18
ENDMDL
MODEL 2
REMARK VINA RESULT:     -12.6      2.026      2.876
REMARK SMILES NS(=O)(=O)c1ccc(-n2ccnc2-c2ccc(O)c(C(=O)NCCCNC(=O)c3ccc(-c4c5nc(c(-c6c(F)cc(S(=O)(=O)[O-])cc6F)c6ccc([nH]6)c(-c6c(F)cc(S(=O)(=O)[O-])cc6F)c6nc(c(-c7c(F)cc(S(=O)(=O)[O-])cc7F)c7ccc4[nH]7)C=C6)C=C5)cc3)c2)cc1
REMARK SMILES IDX 23 1 22 2 20 3 21 4 19 6 14 7 15 8 95 9 16 10 17 11 13 12
REMARK SMILES IDX 9 13 10 14 11 15 12 16 8 17 5 18 6 19 97 20 7 21 96 22 2 23
REMARK SMILES IDX 3 24 4 25 1 26 18 29 24 31 25 32 26 33 27 34 28 36 29 37
REMARK SMILES IDX 30 38 94 39 31 40 93 41 32 42 33 43 34 44 87 45 35 46 92 47
REMARK SMILES IDX 86 48 88 49 36 50 91 51 85 52 84 53 37 55 71 56 50 57 70 58
REMARK SMILES IDX 51 59 54 60 69 61 89 62 52 63 53 64 68 66 90 67 55 68 38 69
REMARK SMILES IDX 39 70 48 71 40 72 41 73 47 74 49 75 42 76 43 77 44 78 45 79
REMARK SMILES IDX 46 80 72 81 73 82 82 83 74 84 75 85 81 86 83 87 76 88 77 89
REMARK SMILES IDX 78 90 79 91 80 92 56 93 57 94 66 95 58 96 59 97 65 98 67 99
REMARK SMILES IDX 60 100 61 101 62 102 63 103 64 104
REMARK H PARENT 22 5 1 27 1 28 18 30 26 35 88 54 54 65
REMARK Flexibility Score: inf
ROOT
ATOM      1  C   UNL A   1      35.213  23.888  25.167  1.00  0.00     0.118 C 
ENDROOT
BRANCH   1   2
ATOM      2  N   UNL A   1      34.430  23.380  24.047  1.00  0.00    -0.352 N 
ATOM      3  C   UNL A   1      33.190  23.702  23.545  1.00  0.00     0.255 C 
ATOM      4  O   UNL A   1      32.882  23.223  22.450  1.00  0.00    -0.269 OA
ATOM      5  H   UNL A   1      34.881  22.660  23.550  1.00  0.00     0.163 HD
BRANCH   3   6
ATOM      6  C   UNL A   1      32.204  24.609  24.204  1.00  0.00     0.082 A 
ATOM      7  C   UNL A   1      30.870  26.668  24.258  1.00  0.00     0.019 A 
ATOM      8  C   UNL A   1      30.297  26.286  25.467  1.00  0.00     0.016 A 
ATOM      9  C   UNL A   1      31.864  25.857  23.690  1.00  0.00     0.029 A 
ATOM     10  C   UNL A   1      30.667  25.069  26.046  1.00  0.00     0.048 A 
ATOM     11  C   UNL A   1      31.595  24.234  25.411  1.00  0.00     0.128 A 
BRANCH   7  12
ATOM     12  C   UNL A   1      30.504  27.908  23.563  1.00  0.00     0.144 A 
ATOM     13  N   UNL A   1      30.774  29.195  24.048  1.00  0.00    -0.300 N 
ATOM     14  C   UNL A   1      29.894  30.035  23.403  1.00  0.00     0.113 A 
ATOM     15  C   UNL A   1      29.277  29.267  22.447  1.00  0.00     0.132 A 
ATOM     16  N   UNL A   1      29.685  27.966  22.528  1.00  0.00    -0.236 NA
BRANCH  13  17
ATOM     17  C   UNL A   1      31.715  29.586  25.043  1.00  0.00     0.047 A 
ATOM     18  C   UNL A   1      33.594  30.398  26.946  1.00  0.00     0.082 A 
ATOM     19  C   UNL A   1      32.339  31.011  26.906  1.00  0.00     0.024 A 
ATOM     20  C   UNL A   1      33.909  29.364  26.060  1.00  0.00     0.024 A 
ATOM     21  C   UNL A   1      31.404  30.616  25.944  1.00  0.00     0.028 A 
ATOM     22  C   UNL A   1      32.961  28.943  25.119  1.00  0.00     0.028 A 
BRANCH  18  23
ATOM     23  S   UNL A   1      34.775  30.898  28.169  1.00  0.00     0.238 S 
ATOM     24  O   UNL A   1      35.550  29.762  28.576  1.00  0.00    -0.207 OA
ATOM     25  O   UNL A   1      34.107  31.768  29.123  1.00  0.00    -0.207 OA
BRANCH  23  26
ATOM     26  N   UNL A   1      35.806  31.878  27.281  1.00  0.00    -0.225 NA
ATOM     27  H   UNL A   1      35.516  32.851  27.376  1.00  0.00     0.137 HD
ATOM     28  H   UNL A   1      35.771  31.607  26.299  1.00  0.00     0.137 HD
ENDBRANCH  23  26
ENDBRANCH  18  23
ENDBRANCH  13  17
ENDBRANCH   7  12
BRANCH  11  29
ATOM     29  O   UNL A   1      31.862  23.054  26.055  1.00  0.00    -0.507 OA
ATOM     30  H   UNL A   1      31.958  22.262  25.564  1.00  0.00     0.293 HD
ENDBRANCH  11  29
ENDBRANCH   3   6
ENDBRANCH   1   2
BRANCH   1  31
ATOM     31  C   UNL A   1      36.129  22.827  25.800  1.00  0.00     0.042 C 
BRANCH  31  32
ATOM     32  C   UNL A   1      37.587  23.025  25.435  1.00  0.00     0.118 C 
BRANCH  32  33
ATOM     33  N   UNL A   1      38.478  22.110  26.166  1.00  0.00    -0.352 N 
ATOM     34  C   UNL A   1      39.659  22.395  26.835  1.00  0.00     0.251 C 
ATOM     35  H   UNL A   1      38.196  21.167  26.184  1.00  0.00     0.163 HD
ATOM     36  O   UNL A   1      40.448  21.502  27.116  1.00  0.00    -0.269 OA
BRANCH  34  37
ATOM     37  C   UNL A   1      39.936  23.795  27.191  1.00  0.00     0.039 A 
ATOM     38  C   UNL A   1      38.970  24.803  27.126  1.00  0.00     0.014 A 
ATOM     39  C   UNL A   1      41.196  24.050  27.705  1.00  0.00     0.014 A 
ATOM     40  C   UNL A   1      39.267  26.047  27.685  1.00  0.00     0.010 A 
ATOM     41  C   UNL A   1      41.371  25.150  28.488  1.00  0.00     0.010 A 
ATOM     42  C   UNL A   1      40.469  26.200  28.388  1.00  0.00    -0.014 A 
BRANCH  42  43
ATOM     43  C   UNL A   1      40.847  27.439  29.050  1.00  0.00     0.031 A 
ATOM     44  C   UNL A   1      41.909  28.242  28.391  1.00  0.00     0.074 A 
ATOM     45  C   UNL A   1      40.093  27.943  30.052  1.00  0.00     0.049 A 
ATOM     46  N   UNL A   1      43.102  28.466  28.831  1.00  0.00    -0.248 NA
ATOM     47  C   UNL A   1      41.672  28.761  27.036  1.00  0.00     0.031 C 
ATOM     48  C   UNL A   1      38.833  27.428  30.614  1.00  0.00     0.029 A 
ATOM     49  N   UNL A   1      40.231  29.127  30.696  1.00  0.00    -0.354 N 
ATOM     50  C   UNL A   1      43.703  29.325  27.915  1.00  0.00     0.074 A 
ATOM     51  C   UNL A   1      42.851  29.323  26.752  1.00  0.00     0.031 C 
ATOM     52  C   UNL A   1      38.206  28.408  31.295  1.00  0.00     0.029 A 
ATOM     53  C   UNL A   1      39.098  29.547  31.380  1.00  0.00     0.049 A 
ATOM     54  H   UNL A   1      41.067  29.647  30.680  1.00  0.00     0.167 HD
ATOM     55  C   UNL A   1      44.747  30.129  28.267  1.00  0.00     0.037 A 
ATOM     56  C   UNL A   1      38.904  30.766  31.936  1.00  0.00     0.037 A 
ATOM     57  C   UNL A   1      45.242  29.791  29.579  1.00  0.00     0.049 A 
ATOM     58  C   UNL A   1      40.261  31.341  32.162  1.00  0.00     0.074 A 
ATOM     59  C   UNL A   1      45.789  28.653  30.141  1.00  0.00     0.029 A 
ATOM     60  N   UNL A   1      44.827  30.570  30.637  1.00  0.00    -0.354 N 
ATOM     61  N   UNL A   1      41.131  30.822  32.992  1.00  0.00    -0.248 NA
ATOM     62  C   UNL A   1      40.835  32.174  31.115  1.00  0.00     0.031 C 
ATOM     63  C   UNL A   1      45.223  28.583  31.446  1.00  0.00     0.029 A 
ATOM     64  C   UNL A   1      44.428  29.716  31.636  1.00  0.00     0.049 A 
ATOM     65  H   UNL A   1      44.818  31.553  30.670  1.00  0.00     0.167 HD
ATOM     66  C   UNL A   1      42.354  30.904  32.337  1.00  0.00     0.074 A 
ATOM     67  C   UNL A   1      42.122  31.828  31.226  1.00  0.00     0.031 C 
ATOM     68  C   UNL A   1      43.351  29.996  32.565  1.00  0.00     0.037 A 
BRANCH  55  69
ATOM     69  C   UNL A   1      45.129  31.424  27.597  1.00  0.00     0.058 A 
ATOM     70  C   UNL A   1      46.367  31.516  26.926  1.00  0.00     0.135 A 
ATOM     71  C   UNL A   1      44.460  32.646  27.816  1.00  0.00     0.135 A 
ATOM     72  F   UNL A   1      47.088  30.413  26.666  1.00  0.00    -0.206 F 
ATOM     73  C   UNL A   1      46.934  32.739  26.568  1.00  0.00     0.059 A 
ATOM     74  C   UNL A   1      44.981  33.873  27.417  1.00  0.00     0.059 A 
ATOM     75  F   UNL A   1      43.321  32.715  28.516  1.00  0.00    -0.206 F 
ATOM     76  C   UNL A   1      46.239  33.914  26.836  1.00  0.00     0.060 A 
BRANCH  76  77
ATOM     77  S   UNL A   1      47.024  35.499  26.493  1.00  0.00     0.124 S 
ATOM     78  O   UNL A   1      45.873  36.323  26.144  1.00  0.00    -0.237 OA
ATOM     79  O   UNL A   1      47.666  35.803  27.767  1.00  0.00    -0.237 OA
ATOM     80  O   UNL A   1      47.936  35.189  25.396  1.00  0.00    -0.744 OA
ENDBRANCH  76  77
ENDBRANCH  55  69
BRANCH  56  81
ATOM     81  C   UNL A   1      37.644  31.559  31.904  1.00  0.00     0.058 A 
ATOM     82  C   UNL A   1      36.893  31.774  33.072  1.00  0.00     0.135 A 
ATOM     83  C   UNL A   1      37.280  32.342  30.786  1.00  0.00     0.135 A 
ATOM     84  F   UNL A   1      37.173  31.084  34.188  1.00  0.00    -0.206 F 
ATOM     85  C   UNL A   1      35.890  32.748  33.147  1.00  0.00     0.059 A 
ATOM     86  C   UNL A   1      36.273  33.305  30.831  1.00  0.00     0.059 A 
ATOM     87  F   UNL A   1      37.954  32.266  29.629  1.00  0.00    -0.206 F 
ATOM     88  C   UNL A   1      35.604  33.527  32.026  1.00  0.00     0.060 A 
BRANCH  88  89
ATOM     89  S   UNL A   1      34.463  34.923  32.171  1.00  0.00     0.124 S 
ATOM     90  O   UNL A   1      35.263  35.890  32.913  1.00  0.00    -0.237 OA
ATOM     91  O   UNL A   1      34.199  35.250  30.773  1.00  0.00    -0.237 OA
ATOM     92  O   UNL A   1      33.329  34.359  32.897  1.00  0.00    -0.744 OA
ENDBRANCH  88  89
ENDBRANCH  56  81
BRANCH  68  93
ATOM     93  C   UNL A   1      43.210  29.039  33.726  1.00  0.00     0.058 A 
ATOM     94  C   UNL A   1      43.483  29.374  35.065  1.00  0.00     0.135 A 
ATOM     95  C   UNL A   1      42.592  27.800  33.500  1.00  0.00     0.135 A 
ATOM     96  F   UNL A   1      43.966  30.578  35.389  1.00  0.00    -0.206 F 
ATOM     97  C   UNL A   1      43.196  28.510  36.121  1.00  0.00     0.059 A 
ATOM     98  C   UNL A   1      42.266  26.932  34.542  1.00  0.00     0.059 A 
ATOM     99  F   UNL A   1      42.238  27.444  32.255  1.00  0.00    -0.206 F 
ATOM    100  C   UNL A   1      42.583  27.289  35.850  1.00  0.00     0.060 A 
BRANCH 100 101
ATOM    101  S   UNL A   1      42.136  26.210  37.227  1.00  0.00     0.124 S 
ATOM    102  O   UNL A   1      40.774  26.640  37.523  1.00  0.00    -0.237 OA
ATOM    103  O   UNL A   1      42.266  24.877  36.645  1.00  0.00    -0.237 OA
ATOM    104  O   UNL A   1      43.129  26.534  38.249  1.00  0.00    -0.744 OA
ENDBRANCH 100 101
ENDBRANCH  68  93
ENDBRANCH  42  43
ENDBRANCH  34  37
ENDBRANCH  32  33
ENDBRANCH  31  32
ENDBRANCH   1  31
TORSDOF 18
ENDMDL
MODEL 3
REMARK VINA RESULT:     -12.6      3.075      9.076
REMARK SMILES NS(=O)(=O)c1ccc(-n2ccnc2-c2ccc(O)c(C(=O)NCCCNC(=O)c3ccc(-c4c5nc(c(-c6c(F)cc(S(=O)(=O)[O-])cc6F)c6ccc([nH]6)c(-c6c(F)cc(S(=O)(=O)[O-])cc6F)c6nc(c(-c7c(F)cc(S(=O)(=O)[O-])cc7F)c7ccc4[nH]7)C=C6)C=C5)cc3)c2)cc1
REMARK SMILES IDX 23 1 22 2 20 3 21 4 19 6 14 7 15 8 95 9 16 10 17 11 13 12
REMARK SMILES IDX 9 13 10 14 11 15 12 16 8 17 5 18 6 19 97 20 7 21 96 22 2 23
REMARK SMILES IDX 3 24 4 25 1 26 18 29 24 31 25 32 26 33 27 34 28 36 29 37
REMARK SMILES IDX 30 38 94 39 31 40 93 41 32 42 33 43 34 44 87 45 35 46 92 47
REMARK SMILES IDX 86 48 88 49 36 50 91 51 85 52 84 53 37 55 71 56 50 57 70 58
REMARK SMILES IDX 51 59 54 60 69 61 89 62 52 63 53 64 68 66 90 67 55 68 38 69
REMARK SMILES IDX 39 70 48 71 40 72 41 73 47 74 49 75 42 76 43 77 44 78 45 79
REMARK SMILES IDX 46 80 72 81 73 82 82 83 74 84 75 85 81 86 83 87 76 88 77 89
REMARK SMILES IDX 78 90 79 91 80 92 56 93 57 94 66 95 58 96 59 97 65 98 67 99
REMARK SMILES IDX 60 100 61 101 62 102 63 103 64 104
REMARK H PARENT 22 5 1 27 1 28 18 30 26 35 88 54 54 65
REMARK Flexibility Score: inf
ROOT
ATOM      1  C   UNL A   1      33.521  29.337  26.961  1.00  0.00     0.118 C 
ENDROOT
BRANCH   1   2
ATOM      2  N   UNL A   1      34.123  29.077  25.659  1.00  0.00    -0.352 N 
ATOM      3  C   UNL A   1      33.649  28.497  24.504  1.00  0.00     0.255 C 
ATOM      4  O   UNL A   1      34.347  28.604  23.492  1.00  0.00    -0.269 OA
ATOM      5  H   UNL A   1      35.058  29.377  25.594  1.00  0.00     0.163 HD
BRANCH   3   6
ATOM      6  C   UNL A   1      32.346  27.781  24.373  1.00  0.00     0.082 A 
ATOM      7  C   UNL A   1      30.765  26.037  25.066  1.00  0.00     0.019 A 
ATOM      8  C   UNL A   1      29.843  26.472  24.121  1.00  0.00     0.016 A 
ATOM      9  C   UNL A   1      32.024  26.654  25.122  1.00  0.00     0.029 A 
ATOM     10  C   UNL A   1      30.160  27.561  23.304  1.00  0.00     0.048 A 
ATOM     11  C   UNL A   1      31.390  28.218  23.443  1.00  0.00     0.128 A 
BRANCH   7  12
ATOM     12  C   UNL A   1      30.492  24.930  25.991  1.00  0.00     0.144 A 
ATOM     13  N   UNL A   1      31.238  23.744  26.047  1.00  0.00    -0.300 N 
ATOM     14  C   UNL A   1      30.423  22.813  26.650  1.00  0.00     0.113 A 
ATOM     15  C   UNL A   1      29.324  23.507  27.090  1.00  0.00     0.132 A 
ATOM     16  N   UNL A   1      29.391  24.818  26.711  1.00  0.00    -0.236 NA
BRANCH  13  17
ATOM     17  C   UNL A   1      32.547  23.499  25.542  1.00  0.00     0.047 A 
ATOM     18  C   UNL A   1      35.115  22.950  24.585  1.00  0.00     0.082 A 
ATOM     19  C   UNL A   1      34.006  22.709  23.770  1.00  0.00     0.024 A 
ATOM     20  C   UNL A   1      34.953  23.487  25.865  1.00  0.00     0.024 A 
ATOM     21  C   UNL A   1      32.720  22.969  24.254  1.00  0.00     0.028 A 
ATOM     22  C   UNL A   1      33.669  23.781  26.338  1.00  0.00     0.028 A 
BRANCH  18  23
ATOM     23  S   UNL A   1      36.744  22.623  23.967  1.00  0.00     0.238 S 
ATOM     24  O   UNL A   1      36.842  23.092  22.615  1.00  0.00    -0.207 OA
ATOM     25  O   UNL A   1      37.118  21.273  24.353  1.00  0.00    -0.207 OA
BRANCH  23  26
ATOM     26  N   UNL A   1      37.685  23.656  24.894  1.00  0.00    -0.225 NA
ATOM     27  H   UNL A   1      37.870  24.510  24.368  1.00  0.00     0.137 HD
ATOM     28  H   UNL A   1      38.567  23.199  25.122  1.00  0.00     0.137 HD
ENDBRANCH  23  26
ENDBRANCH  18  23
ENDBRANCH  13  17
ENDBRANCH   7  12
BRANCH  11  29
ATOM     29  O   UNL A   1      31.583  29.288  22.610  1.00  0.00    -0.507 OA
ATOM     30  H   UNL A   1      32.434  29.668  22.524  1.00  0.00     0.293 HD
ENDBRANCH  11  29
ENDBRANCH   3   6
ENDBRANCH   1   2
BRANCH   1  31
ATOM     31  C   UNL A   1      33.506  30.828  27.338  1.00  0.00     0.042 C 
BRANCH  31  32
ATOM     32  C   UNL A   1      34.768  31.258  28.061  1.00  0.00     0.118 C 
BRANCH  32  33
ATOM     33  N   UNL A   1      34.488  32.154  29.194  1.00  0.00    -0.352 N 
ATOM     34  C   UNL A   1      34.994  32.110  30.484  1.00  0.00     0.251 C 
ATOM     35  H   UNL A   1      33.854  32.885  29.011  1.00  0.00     0.163 HD
ATOM     36  O   UNL A   1      34.438  32.711  31.394  1.00  0.00    -0.269 OA
BRANCH  34  37
ATOM     37  C   UNL A   1      36.211  31.321  30.727  1.00  0.00     0.039 A 
ATOM     38  C   UNL A   1      36.192  29.940  30.945  1.00  0.00     0.014 A 
ATOM     39  C   UNL A   1      37.409  32.006  30.621  1.00  0.00     0.014 A 
ATOM     40  C   UNL A   1      37.404  29.250  30.952  1.00  0.00     0.010 A 
ATOM     41  C   UNL A   1      38.541  31.302  30.346  1.00  0.00     0.010 A 
ATOM     42  C   UNL A   1      38.576  29.944  30.626  1.00  0.00    -0.014 A 
BRANCH  42  43
ATOM     43  C   UNL A   1      39.882  29.305  30.554  1.00  0.00     0.031 A 
ATOM     44  C   UNL A   1      40.585  29.094  31.845  1.00  0.00     0.074 A 
ATOM     45  C   UNL A   1      40.297  28.712  29.412  1.00  0.00     0.049 A 
ATOM     46  N   UNL A   1      41.670  29.669  32.244  1.00  0.00    -0.248 NA
ATOM     47  C   UNL A   1      39.960  28.240  32.865  1.00  0.00     0.031 C 
ATOM     48  C   UNL A   1      39.583  28.560  28.133  1.00  0.00     0.029 A 
ATOM     49  N   UNL A   1      41.418  27.980  29.203  1.00  0.00    -0.354 N 
ATOM     50  C   UNL A   1      41.985  29.101  33.476  1.00  0.00     0.074 A 
ATOM     51  C   UNL A   1      40.811  28.372  33.887  1.00  0.00     0.031 C 
ATOM     52  C   UNL A   1      40.159  27.581  27.406  1.00  0.00     0.029 A 
ATOM     53  C   UNL A   1      41.379  27.175  28.073  1.00  0.00     0.049 A 
ATOM     54  H   UNL A   1      42.197  28.019  29.804  1.00  0.00     0.167 HD
ATOM     55  C   UNL A   1      43.259  29.109  33.961  1.00  0.00     0.037 A 
ATOM     56  C   UNL A   1      42.274  26.213  27.744  1.00  0.00     0.037 A 
ATOM     57  C   UNL A   1      44.115  29.949  33.160  1.00  0.00     0.049 A 
ATOM     58  C   UNL A   1      43.531  26.548  28.472  1.00  0.00     0.074 A 
ATOM     59  C   UNL A   1      44.117  31.292  32.834  1.00  0.00     0.029 A 
ATOM     60  N   UNL A   1      44.918  29.334  32.225  1.00  0.00    -0.354 N 
ATOM     61  N   UNL A   1      44.229  27.631  28.237  1.00  0.00    -0.248 NA
ATOM     62  C   UNL A   1      43.740  25.956  29.786  1.00  0.00     0.031 C 
ATOM     63  C   UNL A   1      44.493  31.332  31.459  1.00  0.00     0.029 A 
ATOM     64  C   UNL A   1      44.773  30.027  31.048  1.00  0.00     0.049 A 
ATOM     65  H   UNL A   1      45.488  28.545  32.373  1.00  0.00     0.167 HD
ATOM     66  C   UNL A   1      44.622  28.090  29.490  1.00  0.00     0.074 A 
ATOM     67  C   UNL A   1      44.369  26.968  30.395  1.00  0.00     0.031 C 
ATOM     68  C   UNL A   1      44.829  29.420  29.733  1.00  0.00     0.037 A 
BRANCH  55  69
ATOM     69  C   UNL A   1      43.833  28.126  34.950  1.00  0.00     0.058 A 
ATOM     70  C   UNL A   1      44.443  28.607  36.128  1.00  0.00     0.135 A 
ATOM     71  C   UNL A   1      44.047  26.762  34.663  1.00  0.00     0.135 A 
ATOM     72  F   UNL A   1      44.303  29.891  36.495  1.00  0.00    -0.206 F 
ATOM     73  C   UNL A   1      45.269  27.810  36.920  1.00  0.00     0.059 A 
ATOM     74  C   UNL A   1      44.821  25.934  35.470  1.00  0.00     0.059 A 
ATOM     75  F   UNL A   1      43.600  26.195  33.535  1.00  0.00    -0.206 F 
ATOM     76  C   UNL A   1      45.466  26.478  36.570  1.00  0.00     0.060 A 
BRANCH  76  77
ATOM     77  S   UNL A   1      46.632  25.483  37.517  1.00  0.00     0.124 S 
ATOM     78  O   UNL A   1      45.739  24.534  38.171  1.00  0.00    -0.237 OA
ATOM     79  O   UNL A   1      47.488  24.937  36.469  1.00  0.00    -0.237 OA
ATOM     80  O   UNL A   1      47.270  26.460  38.395  1.00  0.00    -0.744 OA
ENDBRANCH  76  77
ENDBRANCH  55  69
BRANCH  56  81
ATOM     81  C   UNL A   1      41.959  24.876  27.170  1.00  0.00     0.058 A 
ATOM     82  C   UNL A   1      42.842  24.244  26.277  1.00  0.00     0.135 A 
ATOM     83  C   UNL A   1      40.917  24.069  27.679  1.00  0.00     0.135 A 
ATOM     84  F   UNL A   1      43.869  24.928  25.750  1.00  0.00    -0.206 F 
ATOM     85  C   UNL A   1      42.736  22.885  25.959  1.00  0.00     0.059 A 
ATOM     86  C   UNL A   1      40.782  22.718  27.364  1.00  0.00     0.059 A 
ATOM     87  F   UNL A   1      40.042  24.541  28.579  1.00  0.00    -0.206 F 
ATOM     88  C   UNL A   1      41.716  22.123  26.528  1.00  0.00     0.060 A 
BRANCH  88  89
ATOM     89  S   UNL A   1      41.698  20.330  26.293  1.00  0.00     0.124 S 
ATOM     90  O   UNL A   1      40.327  20.097  25.854  1.00  0.00    -0.237 OA
ATOM     91  O   UNL A   1      42.734  20.142  25.282  1.00  0.00    -0.237 OA
ATOM     92  O   UNL A   1      42.027  19.811  27.618  1.00  0.00    -0.744 OA
ENDBRANCH  88  89
ENDBRANCH  56  81
BRANCH  68  93
ATOM     93  C   UNL A   1      44.871  30.374  28.562  1.00  0.00     0.058 A 
ATOM     94  C   UNL A   1      43.730  30.928  27.953  1.00  0.00     0.135 A 
ATOM     95  C   UNL A   1      46.111  30.898  28.169  1.00  0.00     0.135 A 
ATOM     96  F   UNL A   1      42.500  30.575  28.342  1.00  0.00    -0.206 F 
ATOM     97  C   UNL A   1      43.816  31.919  26.975  1.00  0.00     0.059 A 
ATOM     98  C   UNL A   1      46.222  31.911  27.218  1.00  0.00     0.059 A 
ATOM     99  F   UNL A   1      47.238  30.467  28.760  1.00  0.00    -0.206 F 
ATOM    100  C   UNL A   1      45.070  32.408  26.615  1.00  0.00     0.060 A 
BRANCH 100 101
ATOM    101  S   UNL A   1      45.171  33.750  25.412  1.00  0.00     0.124 S 
ATOM    102  O   UNL A   1      44.385  34.798  26.054  1.00  0.00    -0.237 OA
ATOM    103  O   UNL A   1      46.608  33.999  25.330  1.00  0.00    -0.237 OA
ATOM    104  O   UNL A   1      44.579  33.174  24.208  1.00  0.00    -0.744 OA
ENDBRANCH 100 101
ENDBRANCH  68  93
ENDBRANCH  42  43
ENDBRANCH  34  37
ENDBRANCH  32  33
ENDBRANCH  31  32
ENDBRANCH   1  31
TORSDOF 18
ENDMDL
