MODEL 1
REMARK VINA RESULT:     -10.2      0.000      0.000
REMARK SMILES O=C(NCCCNC(=O)[C@@H]1CCn2c(C(=O)c3ccccc3)ccc21)c1ccc(-c2c3nc(c(-c4c(F)cc(S(=O)(=O)[O-])cc4F)c4ccc([nH]4)c(-c4c(F)cc(S(=O)(=O)[O-])cc4F)c4nc(c(-c5c(F)cc(S(=O)(=O)[O-])cc5F)c5ccc2[nH]5)C=C4)C=C3)cc1
REMARK SMILES IDX 4 1 3 2 1 3 2 4 26 6 27 7 91 8 28 9 90 10 29 11 30 12 31 13
REMARK SMILES IDX 84 14 32 15 89 16 83 17 85 18 33 19 88 20 82 21 81 22 34 24
REMARK SMILES IDX 68 25 47 26 67 27 48 28 51 29 66 30 86 31 49 32 50 33 65 35
REMARK SMILES IDX 87 36 52 37 35 38 36 39 45 40 37 41 38 42 44 43 46 44 39 45
REMARK SMILES IDX 40 46 41 47 42 48 43 49 69 50 70 51 79 52 71 53 72 54 78 55
REMARK SMILES IDX 80 56 73 57 74 58 75 59 76 60 77 61 53 62 54 63 63 64 55 65
REMARK SMILES IDX 56 66 62 67 64 68 57 69 58 70 59 71 60 72 61 73 5 74 6 75
REMARK SMILES IDX 7 76 8 77 9 79 10 80 11 81 25 82 12 83 13 84 24 85 14 86
REMARK SMILES IDX 23 87 15 88 16 89 17 90 18 91 22 92 19 93 21 94 20 95
REMARK H PARENT 3 5 85 23 51 34 7 78
REMARK Flexibility Score: inf
ROOT
ATOM      1  C   UNL A   1      40.296  21.494  26.804  1.00  0.00     0.118 C 
ENDROOT
BRANCH   1   2
ATOM      2  N   UNL A   1      39.276  21.963  25.876  1.00  0.00    -0.352 N 
ATOM      3  O   UNL A   1      37.670  23.308  25.059  1.00  0.00    -0.269 OA
ATOM      4  C   UNL A   1      38.634  23.176  25.809  1.00  0.00     0.251 C 
ATOM      5  H   UNL A   1      39.004  21.310  25.191  1.00  0.00     0.163 HD
BRANCH   4   6
ATOM      6  C   UNL A   1      39.086  24.310  26.646  1.00  0.00     0.039 A 
ATOM      7  C   UNL A   1      38.648  24.442  27.965  1.00  0.00     0.014 A 
ATOM      8  C   UNL A   1      39.984  25.241  26.114  1.00  0.00     0.014 A 
ATOM      9  C   UNL A   1      38.985  25.573  28.696  1.00  0.00     0.010 A 
ATOM     10  C   UNL A   1      40.400  26.330  26.886  1.00  0.00     0.010 A 
ATOM     11  C   UNL A   1      39.884  26.520  28.177  1.00  0.00    -0.014 A 
BRANCH  11  12
ATOM     12  C   UNL A   1      40.323  27.642  29.046  1.00  0.00     0.031 A 
ATOM     13  C   UNL A   1      39.456  28.851  29.268  1.00  0.00     0.074 A 
ATOM     14  C   UNL A   1      41.507  27.528  29.680  1.00  0.00     0.049 A 
ATOM     15  N   UNL A   1      39.675  29.886  30.038  1.00  0.00    -0.248 NA
ATOM     16  C   UNL A   1      38.185  28.915  28.529  1.00  0.00     0.031 C 
ATOM     17  C   UNL A   1      42.442  26.410  29.521  1.00  0.00     0.029 A 
ATOM     18  N   UNL A   1      42.118  28.338  30.602  1.00  0.00    -0.354 N 
ATOM     19  C   UNL A   1      38.581  30.726  29.875  1.00  0.00     0.074 A 
ATOM     20  C   UNL A   1      37.708  30.095  28.908  1.00  0.00     0.031 C 
ATOM     21  C   UNL A   1      43.479  26.577  30.355  1.00  0.00     0.029 A 
ATOM     22  C   UNL A   1      43.315  27.842  31.061  1.00  0.00     0.049 A 
ATOM     23  H   UNL A   1      41.736  29.193  30.906  1.00  0.00     0.167 HD
ATOM     24  C   UNL A   1      38.325  31.909  30.485  1.00  0.00     0.037 A 
ATOM     25  C   UNL A   1      44.195  28.352  31.942  1.00  0.00     0.037 A 
ATOM     26  C   UNL A   1      39.196  32.525  31.455  1.00  0.00     0.049 A 
ATOM     27  C   UNL A   1      43.889  29.669  32.592  1.00  0.00     0.074 A 
ATOM     28  C   UNL A   1      39.014  33.713  32.145  1.00  0.00     0.029 A 
ATOM     29  N   UNL A   1      40.412  32.005  31.875  1.00  0.00    -0.354 N 
ATOM     30  N   UNL A   1      42.834  30.435  32.443  1.00  0.00    -0.248 NA
ATOM     31  C   UNL A   1      44.890  30.194  33.528  1.00  0.00     0.031 C 
ATOM     32  C   UNL A   1      40.136  33.929  32.953  1.00  0.00     0.029 A 
ATOM     33  C   UNL A   1      40.998  32.855  32.801  1.00  0.00     0.049 A 
ATOM     34  H   UNL A   1      40.801  31.157  31.562  1.00  0.00     0.167 HD
ATOM     35  C   UNL A   1      43.043  31.530  33.270  1.00  0.00     0.074 A 
ATOM     36  C   UNL A   1      44.309  31.311  33.941  1.00  0.00     0.031 C 
ATOM     37  C   UNL A   1      42.262  32.623  33.452  1.00  0.00     0.037 A 
BRANCH  24  38
ATOM     38  C   UNL A   1      37.051  32.628  30.129  1.00  0.00     0.058 A 
ATOM     39  C   UNL A   1      35.856  32.394  30.826  1.00  0.00     0.135 A 
ATOM     40  C   UNL A   1      37.044  33.617  29.131  1.00  0.00     0.135 A 
ATOM     41  F   UNL A   1      35.802  31.449  31.778  1.00  0.00    -0.206 F 
ATOM     42  C   UNL A   1      34.696  33.108  30.540  1.00  0.00     0.059 A 
ATOM     43  C   UNL A   1      35.901  34.358  28.843  1.00  0.00     0.059 A 
ATOM     44  F   UNL A   1      38.159  33.880  28.432  1.00  0.00    -0.206 F 
ATOM     45  C   UNL A   1      34.729  34.091  29.550  1.00  0.00     0.060 A 
BRANCH  45  46
ATOM     46  S   UNL A   1      33.221  35.026  29.213  1.00  0.00     0.124 S 
ATOM     47  O   UNL A   1      32.597  34.207  28.177  1.00  0.00    -0.237 OA
ATOM     48  O   UNL A   1      32.554  35.020  30.512  1.00  0.00    -0.237 OA
ATOM     49  O   UNL A   1      33.715  36.325  28.772  1.00  0.00    -0.744 OA
ENDBRANCH  45  46
ENDBRANCH  24  38
BRANCH  25  50
ATOM     50  C   UNL A   1      45.455  27.622  32.239  1.00  0.00     0.058 A 
ATOM     51  C   UNL A   1      46.656  27.951  31.593  1.00  0.00     0.135 A 
ATOM     52  C   UNL A   1      45.482  26.581  33.181  1.00  0.00     0.135 A 
ATOM     53  F   UNL A   1      46.681  28.937  30.685  1.00  0.00    -0.206 F 
ATOM     54  C   UNL A   1      47.834  27.258  31.852  1.00  0.00     0.059 A 
ATOM     55  C   UNL A   1      46.652  25.894  33.479  1.00  0.00     0.059 A 
ATOM     56  F   UNL A   1      44.363  26.243  33.841  1.00  0.00    -0.206 F 
ATOM     57  C   UNL A   1      47.820  26.228  32.797  1.00  0.00     0.060 A 
BRANCH  57  58
ATOM     58  S   UNL A   1      49.356  25.349  33.149  1.00  0.00     0.124 S 
ATOM     59  O   UNL A   1      48.863  24.177  33.864  1.00  0.00    -0.237 OA
ATOM     60  O   UNL A   1      49.888  25.105  31.813  1.00  0.00    -0.237 OA
ATOM     61  O   UNL A   1      50.112  26.307  33.950  1.00  0.00    -0.744 OA
ENDBRANCH  57  58
ENDBRANCH  25  50
BRANCH  37  62
ATOM     62  C   UNL A   1      42.757  33.654  34.427  1.00  0.00     0.058 A 
ATOM     63  C   UNL A   1      42.426  33.593  35.790  1.00  0.00     0.135 A 
ATOM     64  C   UNL A   1      43.576  34.710  33.995  1.00  0.00     0.135 A 
ATOM     65  F   UNL A   1      41.639  32.608  36.250  1.00  0.00    -0.206 F 
ATOM     66  C   UNL A   1      42.861  34.563  36.686  1.00  0.00     0.059 A 
ATOM     67  C   UNL A   1      44.045  35.675  34.879  1.00  0.00     0.059 A 
ATOM     68  F   UNL A   1      43.929  34.808  32.704  1.00  0.00    -0.206 F 
ATOM     69  C   UNL A   1      43.667  35.603  36.220  1.00  0.00     0.060 A 
BRANCH  69  70
ATOM     70  S   UNL A   1      44.232  36.854  37.392  1.00  0.00     0.124 S 
ATOM     71  O   UNL A   1      43.428  36.537  38.568  1.00  0.00    -0.237 OA
ATOM     72  O   UNL A   1      45.658  36.561  37.502  1.00  0.00    -0.237 OA
ATOM     73  O   UNL A   1      43.907  38.112  36.728  1.00  0.00    -0.744 OA
ENDBRANCH  69  70
ENDBRANCH  37  62
ENDBRANCH  11  12
ENDBRANCH   4   6
ENDBRANCH   1   2
BRANCH   1  74
ATOM     74  C   UNL A   1      41.115  20.337  26.244  1.00  0.00     0.042 C 
BRANCH  74  75
ATOM     75  C   UNL A   1      42.335  19.983  27.083  1.00  0.00     0.117 C 
BRANCH  75  76
ATOM     76  N   UNL A   1      43.542  19.905  26.282  1.00  0.00    -0.355 N 
ATOM     77  C   UNL A   1      44.201  20.893  25.599  1.00  0.00     0.229 C 
ATOM     78  H   UNL A   1      43.948  19.011  26.219  1.00  0.00     0.163 HD
ATOM     79  O   UNL A   1      45.192  20.567  24.948  1.00  0.00    -0.274 OA
BRANCH  77  80
ATOM     80  C   UNL A   1      43.657  22.314  25.681  1.00  0.00     0.127 C 
ATOM     81  C   UNL A   1      43.874  23.082  24.356  1.00  0.00     0.042 C 
ATOM     82  C   UNL A   1      44.380  23.176  26.654  1.00  0.00     0.031 A 
ATOM     83  C   UNL A   1      44.193  24.531  24.756  1.00  0.00     0.124 C 
ATOM     84  N   UNL A   1      44.648  24.410  26.130  1.00  0.00    -0.341 N 
ATOM     85  C   UNL A   1      44.868  23.129  27.929  1.00  0.00     0.025 A 
ATOM     86  C   UNL A   1      45.280  25.212  27.032  1.00  0.00     0.090 A 
ATOM     87  C   UNL A   1      45.440  24.408  28.165  1.00  0.00     0.032 A 
BRANCH  86  88
ATOM     88  C   UNL A   1      45.755  26.580  26.899  1.00  0.00     0.209 C 
ATOM     89  O   UNL A   1      46.926  26.863  26.649  1.00  0.00    -0.287 OA
BRANCH  88  90
ATOM     90  C   UNL A   1      44.828  27.719  27.042  1.00  0.00     0.024 A 
ATOM     91  C   UNL A   1      45.163  28.744  27.934  1.00  0.00     0.012 A 
ATOM     92  C   UNL A   1      43.619  27.758  26.340  1.00  0.00     0.012 A 
ATOM     93  C   UNL A   1      44.310  29.836  28.084  1.00  0.00     0.001 A 
ATOM     94  C   UNL A   1      42.773  28.859  26.487  1.00  0.00     0.001 A 
ATOM     95  C   UNL A   1      43.123  29.897  27.352  1.00  0.00     0.000 A 
ENDBRANCH  88  90
ENDBRANCH  86  88
ENDBRANCH  77  80
ENDBRANCH  75  76
ENDBRANCH  74  75
ENDBRANCH   1  74
TORSDOF 15
ENDMDL
MODEL 2
REMARK VINA RESULT:     -10.2      5.079     11.199
REMARK SMILES O=C(NCCCNC(=O)[C@@H]1CCn2c(C(=O)c3ccccc3)ccc21)c1ccc(-c2c3nc(c(-c4c(F)cc(S(=O)(=O)[O-])cc4F)c4ccc([nH]4)c(-c4c(F)cc(S(=O)(=O)[O-])cc4F)c4nc(c(-c5c(F)cc(S(=O)(=O)[O-])cc5F)c5ccc2[nH]5)C=C4)C=C3)cc1
REMARK SMILES IDX 4 1 3 2 1 3 2 4 26 6 27 7 91 8 28 9 90 10 29 11 30 12 31 13
REMARK SMILES IDX 84 14 32 15 89 16 83 17 85 18 33 19 88 20 82 21 81 22 34 24
REMARK SMILES IDX 68 25 47 26 67 27 48 28 51 29 66 30 86 31 49 32 50 33 65 35
REMARK SMILES IDX 87 36 52 37 35 38 36 39 45 40 37 41 38 42 44 43 46 44 39 45
REMARK SMILES IDX 40 46 41 47 42 48 43 49 69 50 70 51 79 52 71 53 72 54 78 55
REMARK SMILES IDX 80 56 73 57 74 58 75 59 76 60 77 61 53 62 54 63 63 64 55 65
REMARK SMILES IDX 56 66 62 67 64 68 57 69 58 70 59 71 60 72 61 73 5 74 6 75
REMARK SMILES IDX 7 76 8 77 9 79 10 80 11 81 25 82 12 83 13 84 24 85 14 86
REMARK SMILES IDX 23 87 15 88 16 89 17 90 18 91 22 92 19 93 21 94 20 95
REMARK H PARENT 3 5 85 23 51 34 7 78
REMARK Flexibility Score: inf
ROOT
ATOM      1  C   UNL A   1      35.674  31.623  28.515  1.00  0.00     0.118 C 
ENDROOT
BRANCH   1   2
ATOM      2  N   UNL A   1      35.561  31.175  29.897  1.00  0.00    -0.352 N 
ATOM      3  O   UNL A   1      36.046  29.984  31.742  1.00  0.00    -0.269 OA
ATOM      4  C   UNL A   1      36.414  30.402  30.646  1.00  0.00     0.251 C 
ATOM      5  H   UNL A   1      34.748  31.471  30.366  1.00  0.00     0.163 HD
BRANCH   4   6
ATOM      6  C   UNL A   1      37.760  30.058  30.133  1.00  0.00     0.039 A 
ATOM      7  C   UNL A   1      38.803  29.762  31.012  1.00  0.00     0.014 A 
ATOM      8  C   UNL A   1      37.975  30.002  28.753  1.00  0.00     0.014 A 
ATOM      9  C   UNL A   1      40.086  29.560  30.520  1.00  0.00     0.010 A 
ATOM     10  C   UNL A   1      39.248  29.701  28.256  1.00  0.00     0.010 A 
ATOM     11  C   UNL A   1      40.322  29.503  29.137  1.00  0.00    -0.014 A 
BRANCH  11  12
ATOM     12  C   UNL A   1      41.682  29.148  28.656  1.00  0.00     0.031 A 
ATOM     13  C   UNL A   1      42.799  30.154  28.643  1.00  0.00     0.074 A 
ATOM     14  C   UNL A   1      41.908  27.874  28.276  1.00  0.00     0.049 A 
ATOM     15  N   UNL A   1      44.052  29.984  28.304  1.00  0.00    -0.248 NA
ATOM     16  C   UNL A   1      42.474  31.529  29.054  1.00  0.00     0.031 C 
ATOM     17  C   UNL A   1      40.892  26.819  28.225  1.00  0.00     0.029 A 
ATOM     18  N   UNL A   1      43.060  27.240  27.888  1.00  0.00    -0.354 N 
ATOM     19  C   UNL A   1      44.663  31.222  28.453  1.00  0.00     0.074 A 
ATOM     20  C   UNL A   1      43.637  32.147  28.885  1.00  0.00     0.031 C 
ATOM     21  C   UNL A   1      41.473  25.660  27.882  1.00  0.00     0.029 A 
ATOM     22  C   UNL A   1      42.889  25.901  27.627  1.00  0.00     0.049 A 
ATOM     23  H   UNL A   1      43.926  27.700  27.803  1.00  0.00     0.167 HD
ATOM     24  C   UNL A   1      45.963  31.552  28.256  1.00  0.00     0.037 A 
ATOM     25  C   UNL A   1      43.767  24.969  27.215  1.00  0.00     0.037 A 
ATOM     26  C   UNL A   1      46.980  30.621  27.834  1.00  0.00     0.049 A 
ATOM     27  C   UNL A   1      45.197  25.368  26.995  1.00  0.00     0.074 A 
ATOM     28  C   UNL A   1      48.330  30.854  27.627  1.00  0.00     0.029 A 
ATOM     29  N   UNL A   1      46.763  29.279  27.555  1.00  0.00    -0.354 N 
ATOM     30  N   UNL A   1      45.760  26.541  27.167  1.00  0.00    -0.248 NA
ATOM     31  C   UNL A   1      46.111  24.322  26.523  1.00  0.00     0.031 C 
ATOM     32  C   UNL A   1      48.920  29.665  27.188  1.00  0.00     0.029 A 
ATOM     33  C   UNL A   1      47.949  28.677  27.162  1.00  0.00     0.049 A 
ATOM     34  H   UNL A   1      45.894  28.821  27.626  1.00  0.00     0.167 HD
ATOM     35  C   UNL A   1      47.095  26.371  26.830  1.00  0.00     0.074 A 
ATOM     36  C   UNL A   1      47.263  24.976  26.475  1.00  0.00     0.031 C 
ATOM     37  C   UNL A   1      48.093  27.289  26.806  1.00  0.00     0.037 A 
BRANCH  24  38
ATOM     38  C   UNL A   1      46.373  32.981  28.491  1.00  0.00     0.058 A 
ATOM     39  C   UNL A   1      46.853  33.412  29.738  1.00  0.00     0.135 A 
ATOM     40  C   UNL A   1      46.360  33.911  27.438  1.00  0.00     0.135 A 
ATOM     41  F   UNL A   1      46.872  32.569  30.783  1.00  0.00    -0.206 F 
ATOM     42  C   UNL A   1      47.296  34.716  29.935  1.00  0.00     0.059 A 
ATOM     43  C   UNL A   1      46.819  35.215  27.607  1.00  0.00     0.059 A 
ATOM     44  F   UNL A   1      45.910  33.553  26.225  1.00  0.00    -0.206 F 
ATOM     45  C   UNL A   1      47.279  35.610  28.863  1.00  0.00     0.060 A 
BRANCH  45  46
ATOM     46  S   UNL A   1      47.883  37.290  29.133  1.00  0.00     0.124 S 
ATOM     47  O   UNL A   1      46.663  37.975  29.550  1.00  0.00    -0.237 OA
ATOM     48  O   UNL A   1      48.888  37.097  30.174  1.00  0.00    -0.237 OA
ATOM     49  O   UNL A   1      48.405  37.679  27.827  1.00  0.00    -0.744 OA
ENDBRANCH  45  46
ENDBRANCH  24  38
BRANCH  25  50
ATOM     50  C   UNL A   1      43.310  23.578  26.964  1.00  0.00     0.058 A 
ATOM     51  C   UNL A   1      43.064  22.691  28.022  1.00  0.00     0.135 A 
ATOM     52  C   UNL A   1      43.107  23.110  25.655  1.00  0.00     0.135 A 
ATOM     53  F   UNL A   1      43.244  23.091  29.289  1.00  0.00    -0.206 F 
ATOM     54  C   UNL A   1      42.656  21.381  27.792  1.00  0.00     0.059 A 
ATOM     55  C   UNL A   1      42.672  21.814  25.401  1.00  0.00     0.059 A 
ATOM     56  F   UNL A   1      43.309  23.926  24.610  1.00  0.00    -0.206 F 
ATOM     57  C   UNL A   1      42.465  20.952  26.476  1.00  0.00     0.060 A 
BRANCH  57  58
ATOM     58  S   UNL A   1      41.910  19.260  26.183  1.00  0.00     0.124 S 
ATOM     59  O   UNL A   1      42.279  18.611  27.436  1.00  0.00    -0.237 OA
ATOM     60  O   UNL A   1      40.480  19.437  25.953  1.00  0.00    -0.237 OA
ATOM     61  O   UNL A   1      42.680  18.855  25.010  1.00  0.00    -0.744 OA
ENDBRANCH  57  58
ENDBRANCH  25  50
BRANCH  37  62
ATOM     62  C   UNL A   1      49.453  26.800  26.395  1.00  0.00     0.058 A 
ATOM     63  C   UNL A   1      49.929  26.973  25.085  1.00  0.00     0.135 A 
ATOM     64  C   UNL A   1      50.293  26.160  27.320  1.00  0.00     0.135 A 
ATOM     65  F   UNL A   1      49.161  27.571  24.161  1.00  0.00    -0.206 F 
ATOM     66  C   UNL A   1      51.176  26.496  24.698  1.00  0.00     0.059 A 
ATOM     67  C   UNL A   1      51.554  25.699  26.961  1.00  0.00     0.059 A 
ATOM     68  F   UNL A   1      49.888  25.979  28.587  1.00  0.00    -0.206 F 
ATOM     69  C   UNL A   1      51.981  25.856  25.642  1.00  0.00     0.060 A 
BRANCH  69  70
ATOM     70  S   UNL A   1      53.601  25.246  25.132  1.00  0.00     0.124 S 
ATOM     71  O   UNL A   1      53.470  23.816  25.393  1.00  0.00    -0.237 OA
ATOM     72  O   UNL A   1      53.652  25.631  23.725  1.00  0.00    -0.237 OA
ATOM     73  O   UNL A   1      54.523  25.964  26.006  1.00  0.00    -0.744 OA
ENDBRANCH  69  70
ENDBRANCH  37  62
ENDBRANCH  11  12
ENDBRANCH   4   6
ENDBRANCH   1   2
BRANCH   1  74
ATOM     74  C   UNL A   1      34.346  31.576  27.770  1.00  0.00     0.042 C 
BRANCH  74  75
ATOM     75  C   UNL A   1      33.987  30.197  27.235  1.00  0.00     0.117 C 
BRANCH  75  76
ATOM     76  N   UNL A   1      32.700  30.192  26.562  1.00  0.00    -0.355 N 
ATOM     77  C   UNL A   1      32.360  29.693  25.334  1.00  0.00     0.229 C 
ATOM     78  H   UNL A   1      31.964  30.610  27.063  1.00  0.00     0.163 HD
ATOM     79  O   UNL A   1      31.199  29.851  24.960  1.00  0.00    -0.274 OA
BRANCH  77  80
ATOM     80  C   UNL A   1      33.438  28.994  24.514  1.00  0.00     0.127 C 
ATOM     81  C   UNL A   1      33.022  28.854  23.031  1.00  0.00     0.042 C 
ATOM     82  C   UNL A   1      33.660  27.576  24.903  1.00  0.00     0.031 A 
ATOM     83  C   UNL A   1      33.567  27.495  22.566  1.00  0.00     0.124 C 
ATOM     84  N   UNL A   1      33.752  26.763  23.807  1.00  0.00    -0.341 N 
ATOM     85  C   UNL A   1      33.807  26.811  26.025  1.00  0.00     0.025 A 
ATOM     86  C   UNL A   1      33.989  25.469  24.161  1.00  0.00     0.090 A 
ATOM     87  C   UNL A   1      34.008  25.485  25.559  1.00  0.00     0.032 A 
BRANCH  86  88
ATOM     88  C   UNL A   1      34.145  24.284  23.332  1.00  0.00     0.209 C 
ATOM     89  O   UNL A   1      33.686  24.195  22.194  1.00  0.00    -0.287 OA
BRANCH  88  90
ATOM     90  C   UNL A   1      34.895  23.112  23.823  1.00  0.00     0.024 A 
ATOM     91  C   UNL A   1      36.289  23.114  23.702  1.00  0.00     0.012 A 
ATOM     92  C   UNL A   1      34.232  22.001  24.355  1.00  0.00     0.012 A 
ATOM     93  C   UNL A   1      37.025  22.024  24.163  1.00  0.00     0.001 A 
ATOM     94  C   UNL A   1      34.974  20.916  24.824  1.00  0.00     0.001 A 
ATOM     95  C   UNL A   1      36.367  20.932  24.733  1.00  0.00     0.000 A 
ENDBRANCH  88  90
ENDBRANCH  86  88
ENDBRANCH  77  80
ENDBRANCH  75  76
ENDBRANCH  74  75
ENDBRANCH   1  74
TORSDOF 15
ENDMDL
MODEL 3
REMARK VINA RESULT:     -10.1      3.279     10.910
REMARK SMILES O=C(NCCCNC(=O)[C@@H]1CCn2c(C(=O)c3ccccc3)ccc21)c1ccc(-c2c3nc(c(-c4c(F)cc(S(=O)(=O)[O-])cc4F)c4ccc([nH]4)c(-c4c(F)cc(S(=O)(=O)[O-])cc4F)c4nc(c(-c5c(F)cc(S(=O)(=O)[O-])cc5F)c5ccc2[nH]5)C=C4)C=C3)cc1
REMARK SMILES IDX 4 1 3 2 1 3 2 4 26 6 27 7 91 8 28 9 90 10 29 11 30 12 31 13
REMARK SMILES IDX 84 14 32 15 89 16 83 17 85 18 33 19 88 20 82 21 81 22 34 24
REMARK SMILES IDX 68 25 47 26 67 27 48 28 51 29 66 30 86 31 49 32 50 33 65 35
REMARK SMILES IDX 87 36 52 37 35 38 36 39 45 40 37 41 38 42 44 43 46 44 39 45
REMARK SMILES IDX 40 46 41 47 42 48 43 49 69 50 70 51 79 52 71 53 72 54 78 55
REMARK SMILES IDX 80 56 73 57 74 58 75 59 76 60 77 61 53 62 54 63 63 64 55 65
REMARK SMILES IDX 56 66 62 67 64 68 57 69 58 70 59 71 60 72 61 73 5 74 6 75
REMARK SMILES IDX 7 76 8 77 9 79 10 80 11 81 25 82 12 83 13 84 24 85 14 86
REMARK SMILES IDX 23 87 15 88 16 89 17 90 18 91 22 92 19 93 21 94 20 95
REMARK H PARENT 3 5 85 23 51 34 7 78
REMARK Flexibility Score: inf
ROOT
ATOM      1  C   UNL A   1      34.543  32.554  27.996  1.00  0.00     0.118 C 
ENDROOT
BRANCH   1   2
ATOM      2  N   UNL A   1      33.811  31.295  27.947  1.00  0.00    -0.352 N 
ATOM      3  O   UNL A   1      33.498  29.081  27.707  1.00  0.00    -0.269 OA
ATOM      4  C   UNL A   1      34.278  30.003  27.936  1.00  0.00     0.251 C 
ATOM      5  H   UNL A   1      32.831  31.384  27.917  1.00  0.00     0.163 HD
BRANCH   4   6
ATOM      6  C   UNL A   1      35.711  29.721  28.178  1.00  0.00     0.039 A 
ATOM      7  C   UNL A   1      36.155  29.320  29.439  1.00  0.00     0.014 A 
ATOM      8  C   UNL A   1      36.621  29.831  27.122  1.00  0.00     0.014 A 
ATOM      9  C   UNL A   1      37.515  29.176  29.680  1.00  0.00     0.010 A 
ATOM     10  C   UNL A   1      37.981  29.590  27.343  1.00  0.00     0.010 A 
ATOM     11  C   UNL A   1      38.443  29.285  28.632  1.00  0.00    -0.014 A 
BRANCH  11  12
ATOM     12  C   UNL A   1      39.873  28.988  28.907  1.00  0.00     0.031 A 
ATOM     13  C   UNL A   1      40.482  27.660  28.553  1.00  0.00     0.074 A 
ATOM     14  C   UNL A   1      40.633  29.966  29.440  1.00  0.00     0.049 A 
ATOM     15  N   UNL A   1      41.725  27.269  28.682  1.00  0.00    -0.248 NA
ATOM     16  C   UNL A   1      39.589  26.635  27.992  1.00  0.00     0.031 C 
ATOM     17  C   UNL A   1      40.142  31.287  29.845  1.00  0.00     0.029 A 
ATOM     18  N   UNL A   1      41.977  30.019  29.709  1.00  0.00    -0.354 N 
ATOM     19  C   UNL A   1      41.764  25.957  28.226  1.00  0.00     0.074 A 
ATOM     20  C   UNL A   1      40.413  25.605  27.844  1.00  0.00     0.031 C 
ATOM     21  C   UNL A   1      41.174  32.036  30.259  1.00  0.00     0.029 A 
ATOM     22  C   UNL A   1      42.389  31.232  30.208  1.00  0.00     0.049 A 
ATOM     23  H   UNL A   1      42.587  29.261  29.558  1.00  0.00     0.167 HD
ATOM     24  C   UNL A   1      42.832  25.129  28.126  1.00  0.00     0.037 A 
ATOM     25  C   UNL A   1      43.607  31.650  30.599  1.00  0.00     0.037 A 
ATOM     26  C   UNL A   1      44.177  25.492  28.500  1.00  0.00     0.049 A 
ATOM     27  C   UNL A   1      44.768  30.705  30.486  1.00  0.00     0.074 A 
ATOM     28  C   UNL A   1      45.331  24.729  28.416  1.00  0.00     0.029 A 
ATOM     29  N   UNL A   1      44.551  26.720  29.026  1.00  0.00    -0.354 N 
ATOM     30  N   UNL A   1      44.787  29.476  30.028  1.00  0.00    -0.248 NA
ATOM     31  C   UNL A   1      46.071  31.200  30.947  1.00  0.00     0.031 C 
ATOM     32  C   UNL A   1      46.393  25.482  28.927  1.00  0.00     0.029 A 
ATOM     33  C   UNL A   1      45.913  26.730  29.288  1.00  0.00     0.049 A 
ATOM     34  H   UNL A   1      43.939  27.474  29.190  1.00  0.00     0.167 HD
ATOM     35  C   UNL A   1      46.105  29.053  30.139  1.00  0.00     0.074 A 
ATOM     36  C   UNL A   1      46.857  30.168  30.677  1.00  0.00     0.031 C 
ATOM     37  C   UNL A   1      46.643  27.847  29.831  1.00  0.00     0.037 A 
BRANCH  24  38
ATOM     38  C   UNL A   1      42.603  23.740  27.593  1.00  0.00     0.058 A 
ATOM     39  C   UNL A   1      42.689  23.456  26.221  1.00  0.00     0.135 A 
ATOM     40  C   UNL A   1      42.372  22.666  28.469  1.00  0.00     0.135 A 
ATOM     41  F   UNL A   1      42.892  24.447  25.337  1.00  0.00    -0.206 F 
ATOM     42  C   UNL A   1      42.544  22.160  25.735  1.00  0.00     0.059 A 
ATOM     43  C   UNL A   1      42.245  21.358  28.007  1.00  0.00     0.059 A 
ATOM     44  F   UNL A   1      42.279  22.881  29.791  1.00  0.00    -0.206 F 
ATOM     45  C   UNL A   1      42.326  21.117  26.637  1.00  0.00     0.060 A 
BRANCH  45  46
ATOM     46  S   UNL A   1      42.167  19.439  25.989  1.00  0.00     0.124 S 
ATOM     47  O   UNL A   1      40.733  19.361  25.730  1.00  0.00    -0.237 OA
ATOM     48  O   UNL A   1      43.023  19.478  24.807  1.00  0.00    -0.237 OA
ATOM     49  O   UNL A   1      42.653  18.604  27.083  1.00  0.00    -0.744 OA
ENDBRANCH  45  46
ENDBRANCH  24  38
BRANCH  25  50
ATOM     50  C   UNL A   1      43.780  33.019  31.150  1.00  0.00     0.058 A 
ATOM     51  C   UNL A   1      43.702  33.264  32.528  1.00  0.00     0.135 A 
ATOM     52  C   UNL A   1      44.033  34.111  30.303  1.00  0.00     0.135 A 
ATOM     53  F   UNL A   1      43.462  32.253  33.376  1.00  0.00    -0.206 F 
ATOM     54  C   UNL A   1      43.842  34.546  33.048  1.00  0.00     0.059 A 
ATOM     55  C   UNL A   1      44.206  35.397  30.801  1.00  0.00     0.059 A 
ATOM     56  F   UNL A   1      44.138  33.925  28.979  1.00  0.00    -0.206 F 
ATOM     57  C   UNL A   1      44.093  35.607  32.174  1.00  0.00     0.060 A 
BRANCH  57  58
ATOM     58  S   UNL A   1      44.301  37.266  32.854  1.00  0.00     0.124 S 
ATOM     59  O   UNL A   1      43.493  37.187  34.067  1.00  0.00    -0.237 OA
ATOM     60  O   UNL A   1      45.745  37.341  33.053  1.00  0.00    -0.237 OA
ATOM     61  O   UNL A   1      43.776  38.127  31.799  1.00  0.00    -0.744 OA
ENDBRANCH  57  58
ENDBRANCH  25  50
BRANCH  37  62
ATOM     62  C   UNL A   1      48.118  27.685  30.061  1.00  0.00     0.058 A 
ATOM     63  C   UNL A   1      48.624  27.227  31.288  1.00  0.00     0.135 A 
ATOM     64  C   UNL A   1      49.037  27.984  29.042  1.00  0.00     0.135 A 
ATOM     65  F   UNL A   1      47.787  26.936  32.296  1.00  0.00    -0.206 F 
ATOM     66  C   UNL A   1      49.991  27.104  31.509  1.00  0.00     0.059 A 
ATOM     67  C   UNL A   1      50.407  27.843  29.233  1.00  0.00     0.059 A 
ATOM     68  F   UNL A   1      48.604  28.417  27.848  1.00  0.00    -0.206 F 
ATOM     69  C   UNL A   1      50.876  27.419  30.477  1.00  0.00     0.060 A 
BRANCH  69  70
ATOM     70  S   UNL A   1      52.648  27.250  30.771  1.00  0.00     0.124 S 
ATOM     71  O   UNL A   1      52.773  25.811  30.980  1.00  0.00    -0.237 OA
ATOM     72  O   UNL A   1      53.223  27.763  29.531  1.00  0.00    -0.237 OA
ATOM     73  O   UNL A   1      52.876  28.079  31.950  1.00  0.00    -0.744 OA
ENDBRANCH  69  70
ENDBRANCH  37  62
ENDBRANCH  11  12
ENDBRANCH   4   6
ENDBRANCH   1   2
BRANCH   1  74
ATOM     74  C   UNL A   1      33.662  33.733  28.388  1.00  0.00     0.042 C 
BRANCH  74  75
ATOM     75  C   UNL A   1      34.438  35.000  28.720  1.00  0.00     0.117 C 
BRANCH  75  76
ATOM     76  N   UNL A   1      34.238  35.415  30.097  1.00  0.00    -0.355 N 
ATOM     77  C   UNL A   1      34.687  34.841  31.256  1.00  0.00     0.229 C 
ATOM     78  H   UNL A   1      33.699  36.230  30.215  1.00  0.00     0.163 HD
ATOM     79  O   UNL A   1      34.344  35.361  32.316  1.00  0.00    -0.274 OA
BRANCH  77  80
ATOM     80  C   UNL A   1      35.563  33.597  31.153  1.00  0.00     0.127 C 
ATOM     81  C   UNL A   1      34.867  32.361  31.769  1.00  0.00     0.042 C 
ATOM     82  C   UNL A   1      36.811  33.676  31.957  1.00  0.00     0.031 A 
ATOM     83  C   UNL A   1      35.979  31.545  32.446  1.00  0.00     0.124 C 
ATOM     84  N   UNL A   1      37.036  32.520  32.650  1.00  0.00    -0.341 N 
ATOM     85  C   UNL A   1      37.825  34.551  32.229  1.00  0.00     0.025 A 
ATOM     86  C   UNL A   1      38.197  32.578  33.361  1.00  0.00     0.090 A 
ATOM     87  C   UNL A   1      38.694  33.863  33.117  1.00  0.00     0.032 A 
BRANCH  86  88
ATOM     88  C   UNL A   1      38.813  31.592  34.235  1.00  0.00     0.209 C 
ATOM     89  O   UNL A   1      38.753  31.652  35.463  1.00  0.00    -0.287 OA
BRANCH  88  90
ATOM     90  C   UNL A   1      39.538  30.435  33.676  1.00  0.00     0.024 A 
ATOM     91  C   UNL A   1      40.937  30.443  33.716  1.00  0.00     0.012 A 
ATOM     92  C   UNL A   1      38.852  29.373  33.078  1.00  0.00     0.012 A 
ATOM     93  C   UNL A   1      41.649  29.360  33.203  1.00  0.00     0.001 A 
ATOM     94  C   UNL A   1      39.570  28.287  32.574  1.00  0.00     0.001 A 
ATOM     95  C   UNL A   1      40.964  28.280  32.643  1.00  0.00     0.000 A 
ENDBRANCH  88  90
ENDBRANCH  86  88
ENDBRANCH  77  80
ENDBRANCH  75  76
ENDBRANCH  74  75
ENDBRANCH   1  74
TORSDOF 15
ENDMDL
