MODEL 1
REMARK VINA RESULT:     -11.6      0.000      0.000
REMARK SMILES CN(C)S(=O)(=O)c1c[nH]c(C(=O)NCCCNC(=O)c2ccc(-c3c4nc(c(-c5c(F)cc(S(=O)(=O)[O-])cc5F)c5ccc([nH]5)c(-c5c(F)cc(S(=O)(=O)[O-])cc5F)c5nc(c(-c6c(F)cc(S(=O)(=O)[O-])cc6F)c6ccc3[nH]6)C=C5)C=C4)cc2)c1
REMARK SMILES IDX 15 1 14 2 13 3 11 4 12 5 10 7 7 8 8 9 86 10 9 11 4 13 5 14
REMARK SMILES IDX 6 15 2 16 1 17 3 18 16 19 17 20 18 21 19 23 20 24 21 25
REMARK SMILES IDX 85 26 22 27 84 28 23 29 24 30 25 31 78 32 26 33 83 34 77 35
REMARK SMILES IDX 79 36 27 37 82 38 76 39 75 40 28 42 62 43 41 44 61 45 42 46
REMARK SMILES IDX 45 47 60 48 80 49 43 50 44 51 59 53 81 54 46 55 29 56 30 57
REMARK SMILES IDX 39 58 31 59 32 60 38 61 40 62 33 63 34 64 35 65 36 66 37 67
REMARK SMILES IDX 63 68 64 69 73 70 65 71 66 72 72 73 74 74 67 75 68 76 69 77
REMARK SMILES IDX 70 78 71 79 47 80 48 81 57 82 49 83 50 84 56 85 58 86 51 87
REMARK SMILES IDX 52 88 53 89 54 90 55 91
REMARK H PARENT 13 6 9 12 17 22 79 41 45 52
REMARK Flexibility Score: inf
ROOT
ATOM      1  C   UNL A   1      33.181  28.960  27.230  1.00  0.00     0.042 C 
ENDROOT
BRANCH   1   2
ATOM      2  C   UNL A   1      32.149  28.625  26.150  1.00  0.00     0.118 C 
BRANCH   2   3
ATOM      3  N   UNL A   1      32.536  29.142  24.852  1.00  0.00    -0.351 N 
ATOM      4  C   UNL A   1      32.737  28.517  23.651  1.00  0.00     0.267 C 
ATOM      5  O   UNL A   1      32.922  29.232  22.667  1.00  0.00    -0.268 OA
ATOM      6  H   UNL A   1      32.680  30.116  24.830  1.00  0.00     0.163 HD
BRANCH   4   7
ATOM      7  C   UNL A   1      32.672  27.076  23.513  1.00  0.00     0.105 A 
ATOM      8  C   UNL A   1      32.926  24.819  23.418  1.00  0.00     0.100 A 
ATOM      9  C   UNL A   1      31.577  25.093  23.424  1.00  0.00     0.104 A 
ATOM     10  C   UNL A   1      33.610  26.065  23.402  1.00  0.00     0.055 A 
ATOM     11  N   UNL A   1      31.436  26.454  23.425  1.00  0.00    -0.356 N 
ATOM     12  H   UNL A   1      30.574  26.928  23.372  1.00  0.00     0.166 HD
BRANCH   8  13
ATOM     13  S   UNL A   1      33.686  23.268  23.488  1.00  0.00     0.244 S 
ATOM     14  O   UNL A   1      34.966  23.452  22.834  1.00  0.00    -0.207 OA
ATOM     15  O   UNL A   1      32.700  22.337  22.988  1.00  0.00    -0.207 OA
BRANCH  13  16
ATOM     16  N   UNL A   1      33.993  22.896  25.132  1.00  0.00    -0.204 NA
ATOM     17  C   UNL A   1      34.093  21.440  25.370  1.00  0.00     0.124 C 
ATOM     18  C   UNL A   1      35.131  23.625  25.732  1.00  0.00     0.124 C 
ENDBRANCH  13  16
ENDBRANCH   8  13
ENDBRANCH   4   7
ENDBRANCH   2   3
ENDBRANCH   1   2
BRANCH   1  19
ATOM     19  C   UNL A   1      34.584  29.154  26.641  1.00  0.00     0.118 C 
BRANCH  19  20
ATOM     20  N   UNL A   1      35.124  30.449  27.037  1.00  0.00    -0.352 N 
ATOM     21  C   UNL A   1      36.194  30.797  27.819  1.00  0.00     0.251 C 
ATOM     22  H   UNL A   1      34.627  31.218  26.675  1.00  0.00     0.163 HD
ATOM     23  O   UNL A   1      36.257  31.963  28.212  1.00  0.00    -0.269 OA
BRANCH  21  24
ATOM     24  C   UNL A   1      37.237  29.835  28.240  1.00  0.00     0.039 A 
ATOM     25  C   UNL A   1      38.386  29.747  27.435  1.00  0.00     0.014 A 
ATOM     26  C   UNL A   1      37.094  28.979  29.335  1.00  0.00     0.014 A 
ATOM     27  C   UNL A   1      39.419  28.876  27.772  1.00  0.00     0.010 A 
ATOM     28  C   UNL A   1      38.134  28.113  29.685  1.00  0.00     0.010 A 
ATOM     29  C   UNL A   1      39.313  28.091  28.925  1.00  0.00    -0.014 A 
BRANCH  29  30
ATOM     30  C   UNL A   1      40.535  27.444  29.468  1.00  0.00     0.031 A 
ATOM     31  C   UNL A   1      40.878  26.138  28.704  1.00  0.00     0.074 A 
ATOM     32  C   UNL A   1      41.172  28.069  30.506  1.00  0.00     0.049 A 
ATOM     33  N   UNL A   1      41.632  25.133  29.039  1.00  0.00    -0.248 NA
ATOM     34  C   UNL A   1      40.229  25.884  27.384  1.00  0.00     0.031 C 
ATOM     35  C   UNL A   1      40.710  29.324  31.137  1.00  0.00     0.029 A 
ATOM     36  N   UNL A   1      42.319  27.807  31.234  1.00  0.00    -0.354 N 
ATOM     37  C   UNL A   1      41.735  24.282  27.911  1.00  0.00     0.074 A 
ATOM     38  C   UNL A   1      40.753  24.728  26.976  1.00  0.00     0.031 C 
ATOM     39  C   UNL A   1      41.510  29.669  32.171  1.00  0.00     0.029 A 
ATOM     40  C   UNL A   1      42.588  28.707  32.303  1.00  0.00     0.049 A 
ATOM     41  H   UNL A   1      42.910  27.047  31.027  1.00  0.00     0.167 HD
ATOM     42  C   UNL A   1      42.718  23.346  27.750  1.00  0.00     0.037 A 
ATOM     43  C   UNL A   1      43.590  28.671  33.241  1.00  0.00     0.037 A 
ATOM     44  C   UNL A   1      43.562  23.327  28.894  1.00  0.00     0.049 A 
ATOM     45  C   UNL A   1      44.503  27.610  32.788  1.00  0.00     0.074 A 
ATOM     46  C   UNL A   1      43.384  22.869  30.171  1.00  0.00     0.029 A 
ATOM     47  N   UNL A   1      44.675  24.133  28.853  1.00  0.00    -0.354 N 
ATOM     48  N   UNL A   1      45.302  27.705  31.768  1.00  0.00    -0.248 NA
ATOM     49  C   UNL A   1      44.490  26.321  33.492  1.00  0.00     0.031 C 
ATOM     50  C   UNL A   1      44.127  23.773  30.954  1.00  0.00     0.029 A 
ATOM     51  C   UNL A   1      44.856  24.629  30.119  1.00  0.00     0.049 A 
ATOM     52  H   UNL A   1      45.234  24.318  28.065  1.00  0.00     0.167 HD
ATOM     53  C   UNL A   1      45.621  26.394  31.520  1.00  0.00     0.074 A 
ATOM     54  C   UNL A   1      45.377  25.668  32.747  1.00  0.00     0.031 C 
ATOM     55  C   UNL A   1      45.513  25.910  30.258  1.00  0.00     0.037 A 
BRANCH  42  56
ATOM     56  C   UNL A   1      43.197  22.561  26.554  1.00  0.00     0.058 A 
ATOM     57  C   UNL A   1      42.652  21.267  26.351  1.00  0.00     0.135 A 
ATOM     58  C   UNL A   1      44.378  22.846  25.855  1.00  0.00     0.135 A 
ATOM     59  F   UNL A   1      41.483  20.917  26.916  1.00  0.00    -0.206 F 
ATOM     60  C   UNL A   1      43.319  20.273  25.644  1.00  0.00     0.059 A 
ATOM     61  C   UNL A   1      45.043  21.873  25.099  1.00  0.00     0.059 A 
ATOM     62  F   UNL A   1      44.967  24.046  25.955  1.00  0.00    -0.206 F 
ATOM     63  C   UNL A   1      44.539  20.574  25.056  1.00  0.00     0.060 A 
BRANCH  63  64
ATOM     64  S   UNL A   1      45.473  19.233  24.288  1.00  0.00     0.124 S 
ATOM     65  O   UNL A   1      46.824  19.786  24.272  1.00  0.00    -0.237 OA
ATOM     66  O   UNL A   1      45.255  18.129  25.218  1.00  0.00    -0.237 OA
ATOM     67  O   UNL A   1      44.832  19.080  22.987  1.00  0.00    -0.744 OA
ENDBRANCH  63  64
ENDBRANCH  42  56
BRANCH  43  68
ATOM     68  C   UNL A   1      43.948  29.320  34.571  1.00  0.00     0.058 A 
ATOM     69  C   UNL A   1      44.871  30.354  34.772  1.00  0.00     0.135 A 
ATOM     70  C   UNL A   1      43.187  28.999  35.737  1.00  0.00     0.135 A 
ATOM     71  F   UNL A   1      45.762  30.681  33.829  1.00  0.00    -0.206 F 
ATOM     72  C   UNL A   1      44.910  31.117  35.957  1.00  0.00     0.059 A 
ATOM     73  C   UNL A   1      43.165  29.771  36.897  1.00  0.00     0.059 A 
ATOM     74  F   UNL A   1      42.385  27.927  35.787  1.00  0.00    -0.206 F 
ATOM     75  C   UNL A   1      44.007  30.859  36.986  1.00  0.00     0.060 A 
BRANCH  75  76
ATOM     76  S   UNL A   1      43.815  32.007  38.369  1.00  0.00     0.124 S 
ATOM     77  O   UNL A   1      43.701  33.291  37.688  1.00  0.00    -0.237 OA
ATOM     78  O   UNL A   1      42.603  31.519  39.020  1.00  0.00    -0.237 OA
ATOM     79  O   UNL A   1      45.043  31.807  39.136  1.00  0.00    -0.744 OA
ENDBRANCH  75  76
ENDBRANCH  43  68
BRANCH  55  80
ATOM     80  C   UNL A   1      45.702  26.945  29.163  1.00  0.00     0.058 A 
ATOM     81  C   UNL A   1      46.971  27.496  28.926  1.00  0.00     0.135 A 
ATOM     82  C   UNL A   1      44.653  27.473  28.391  1.00  0.00     0.135 A 
ATOM     83  F   UNL A   1      48.032  27.054  29.620  1.00  0.00    -0.206 F 
ATOM     84  C   UNL A   1      47.184  28.500  27.975  1.00  0.00     0.059 A 
ATOM     85  C   UNL A   1      44.836  28.467  27.427  1.00  0.00     0.059 A 
ATOM     86  F   UNL A   1      43.405  27.039  28.562  1.00  0.00    -0.206 F 
ATOM     87  C   UNL A   1      46.111  28.979  27.225  1.00  0.00     0.060 A 
BRANCH  87  88
ATOM     88  S   UNL A   1      46.402  30.260  25.983  1.00  0.00     0.124 S 
ATOM     89  O   UNL A   1      46.523  29.482  24.754  1.00  0.00    -0.237 OA
ATOM     90  O   UNL A   1      45.197  31.076  26.098  1.00  0.00    -0.237 OA
ATOM     91  O   UNL A   1      47.635  30.903  26.431  1.00  0.00    -0.744 OA
ENDBRANCH  87  88
ENDBRANCH  55  80
ENDBRANCH  29  30
ENDBRANCH  21  24
ENDBRANCH  19  20
ENDBRANCH   1  19
TORSDOF 15
ENDMDL
MODEL 2
REMARK VINA RESULT:     -11.5      4.596     11.202
REMARK SMILES CN(C)S(=O)(=O)c1c[nH]c(C(=O)NCCCNC(=O)c2ccc(-c3c4nc(c(-c5c(F)cc(S(=O)(=O)[O-])cc5F)c5ccc([nH]5)c(-c5c(F)cc(S(=O)(=O)[O-])cc5F)c5nc(c(-c6c(F)cc(S(=O)(=O)[O-])cc6F)c6ccc3[nH]6)C=C5)C=C4)cc2)c1
REMARK SMILES IDX 15 1 14 2 13 3 11 4 12 5 10 7 7 8 8 9 86 10 9 11 4 13 5 14
REMARK SMILES IDX 6 15 2 16 1 17 3 18 16 19 17 20 18 21 19 23 20 24 21 25
REMARK SMILES IDX 85 26 22 27 84 28 23 29 24 30 25 31 78 32 26 33 83 34 77 35
REMARK SMILES IDX 79 36 27 37 82 38 76 39 75 40 28 42 62 43 41 44 61 45 42 46
REMARK SMILES IDX 45 47 60 48 80 49 43 50 44 51 59 53 81 54 46 55 29 56 30 57
REMARK SMILES IDX 39 58 31 59 32 60 38 61 40 62 33 63 34 64 35 65 36 66 37 67
REMARK SMILES IDX 63 68 64 69 73 70 65 71 66 72 72 73 74 74 67 75 68 76 69 77
REMARK SMILES IDX 70 78 71 79 47 80 48 81 57 82 49 83 50 84 56 85 58 86 51 87
REMARK SMILES IDX 52 88 53 89 54 90 55 91
REMARK H PARENT 13 6 9 12 17 22 79 41 45 52
REMARK Flexibility Score: inf
ROOT
ATOM      1  C   UNL A   1      40.771  21.052  27.725  1.00  0.00     0.042 C 
ENDROOT
BRANCH   1   2
ATOM      2  C   UNL A   1      40.475  20.383  26.380  1.00  0.00     0.118 C 
BRANCH   2   3
ATOM      3  N   UNL A   1      41.135  19.098  26.258  1.00  0.00    -0.351 N 
ATOM      4  C   UNL A   1      42.407  18.765  25.880  1.00  0.00     0.267 C 
ATOM      5  O   UNL A   1      42.743  17.588  26.009  1.00  0.00    -0.268 OA
ATOM      6  H   UNL A   1      40.566  18.328  26.488  1.00  0.00     0.163 HD
BRANCH   4   7
ATOM      7  C   UNL A   1      43.354  19.754  25.408  1.00  0.00     0.105 A 
ATOM      8  C   UNL A   1      44.751  21.496  24.981  1.00  0.00     0.100 A 
ATOM      9  C   UNL A   1      45.158  20.429  24.212  1.00  0.00     0.104 A 
ATOM     10  C   UNL A   1      43.579  21.093  25.676  1.00  0.00     0.055 A 
ATOM     11  N   UNL A   1      44.278  19.405  24.436  1.00  0.00    -0.356 N 
ATOM     12  H   UNL A   1      44.299  18.538  23.970  1.00  0.00     0.166 HD
BRANCH   8  13
ATOM     13  S   UNL A   1      45.530  23.030  25.151  1.00  0.00     0.244 S 
ATOM     14  O   UNL A   1      45.776  23.473  23.793  1.00  0.00    -0.207 OA
ATOM     15  O   UNL A   1      46.607  22.809  26.089  1.00  0.00    -0.207 OA
BRANCH  13  16
ATOM     16  N   UNL A   1      44.415  24.121  25.858  1.00  0.00    -0.204 NA
ATOM     17  C   UNL A   1      44.733  24.411  27.274  1.00  0.00     0.124 C 
ATOM     18  C   UNL A   1      44.185  25.362  25.087  1.00  0.00     0.124 C 
ENDBRANCH  13  16
ENDBRANCH   8  13
ENDBRANCH   4   7
ENDBRANCH   2   3
ENDBRANCH   1   2
BRANCH   1  19
ATOM     19  C   UNL A   1      40.696  22.581  27.634  1.00  0.00     0.118 C 
BRANCH  19  20
ATOM     20  N   UNL A   1      39.476  22.988  26.947  1.00  0.00    -0.352 N 
ATOM     21  C   UNL A   1      38.777  24.166  26.939  1.00  0.00     0.251 C 
ATOM     22  H   UNL A   1      39.079  22.284  26.384  1.00  0.00     0.163 HD
ATOM     23  O   UNL A   1      37.630  24.145  26.489  1.00  0.00    -0.269 OA
BRANCH  21  24
ATOM     24  C   UNL A   1      39.318  25.434  27.479  1.00  0.00     0.039 A 
ATOM     25  C   UNL A   1      40.005  26.268  26.581  1.00  0.00     0.014 A 
ATOM     26  C   UNL A   1      39.241  25.787  28.829  1.00  0.00     0.014 A 
ATOM     27  C   UNL A   1      40.531  27.484  27.008  1.00  0.00     0.010 A 
ATOM     28  C   UNL A   1      39.756  27.013  29.260  1.00  0.00     0.010 A 
ATOM     29  C   UNL A   1      40.366  27.879  28.341  1.00  0.00    -0.014 A 
BRANCH  29  30
ATOM     30  C   UNL A   1      40.605  29.300  28.704  1.00  0.00     0.031 A 
ATOM     31  C   UNL A   1      39.276  30.095  28.800  1.00  0.00     0.074 A 
ATOM     32  C   UNL A   1      41.900  29.690  28.912  1.00  0.00     0.049 A 
ATOM     33  N   UNL A   1      39.050  31.375  28.768  1.00  0.00    -0.248 NA
ATOM     34  C   UNL A   1      37.990  29.341  28.885  1.00  0.00     0.031 C 
ATOM     35  C   UNL A   1      43.074  28.801  28.772  1.00  0.00     0.029 A 
ATOM     36  N   UNL A   1      42.503  30.877  29.285  1.00  0.00    -0.354 N 
ATOM     37  C   UNL A   1      37.679  31.574  29.065  1.00  0.00     0.074 A 
ATOM     38  C   UNL A   1      37.059  30.289  28.998  1.00  0.00     0.031 C 
ATOM     39  C   UNL A   1      44.223  29.480  28.985  1.00  0.00     0.029 A 
ATOM     40  C   UNL A   1      43.926  30.861  29.318  1.00  0.00     0.049 A 
ATOM     41  H   UNL A   1      41.982  31.681  29.513  1.00  0.00     0.167 HD
ATOM     42  C   UNL A   1      37.155  32.764  29.488  1.00  0.00     0.037 A 
ATOM     43  C   UNL A   1      44.803  31.886  29.572  1.00  0.00     0.037 A 
ATOM     44  C   UNL A   1      38.173  33.756  29.525  1.00  0.00     0.049 A 
ATOM     45  C   UNL A   1      43.966  33.003  30.039  1.00  0.00     0.074 A 
ATOM     46  C   UNL A   1      38.839  34.438  28.543  1.00  0.00     0.029 A 
ATOM     47  N   UNL A   1      38.837  33.914  30.717  1.00  0.00    -0.354 N 
ATOM     48  N   UNL A   1      43.385  33.057  31.199  1.00  0.00    -0.248 NA
ATOM     49  C   UNL A   1      43.711  34.123  29.125  1.00  0.00     0.031 C 
ATOM     50  C   UNL A   1      40.130  34.612  29.079  1.00  0.00     0.029 A 
ATOM     51  C   UNL A   1      40.146  34.187  30.413  1.00  0.00     0.049 A 
ATOM     52  H   UNL A   1      38.446  33.846  31.618  1.00  0.00     0.167 HD
ATOM     53  C   UNL A   1      42.445  34.039  31.011  1.00  0.00     0.074 A 
ATOM     54  C   UNL A   1      42.896  34.839  29.894  1.00  0.00     0.031 C 
ATOM     55  C   UNL A   1      41.159  33.807  31.374  1.00  0.00     0.037 A 
BRANCH  42  56
ATOM     56  C   UNL A   1      35.840  33.132  30.128  1.00  0.00     0.058 A 
ATOM     57  C   UNL A   1      34.931  33.914  29.369  1.00  0.00     0.135 A 
ATOM     58  C   UNL A   1      35.603  33.084  31.509  1.00  0.00     0.135 A 
ATOM     59  F   UNL A   1      35.025  33.969  28.028  1.00  0.00    -0.206 F 
ATOM     60  C   UNL A   1      33.964  34.724  29.955  1.00  0.00     0.059 A 
ATOM     61  C   UNL A   1      34.604  33.856  32.115  1.00  0.00     0.059 A 
ATOM     62  F   UNL A   1      36.385  32.357  32.318  1.00  0.00    -0.206 F 
ATOM     63  C   UNL A   1      33.837  34.720  31.336  1.00  0.00     0.060 A 
BRANCH  63  64
ATOM     64  S   UNL A   1      32.697  35.899  32.094  1.00  0.00     0.124 S 
ATOM     65  O   UNL A   1      31.670  35.012  32.631  1.00  0.00    -0.237 OA
ATOM     66  O   UNL A   1      33.543  36.557  33.086  1.00  0.00    -0.237 OA
ATOM     67  O   UNL A   1      32.291  36.740  30.974  1.00  0.00    -0.744 OA
ENDBRANCH  63  64
ENDBRANCH  42  56
BRANCH  43  68
ATOM     68  C   UNL A   1      46.288  32.194  29.431  1.00  0.00     0.058 A 
ATOM     69  C   UNL A   1      47.244  32.168  30.454  1.00  0.00     0.135 A 
ATOM     70  C   UNL A   1      46.848  32.375  28.129  1.00  0.00     0.135 A 
ATOM     71  F   UNL A   1      46.882  32.151  31.742  1.00  0.00    -0.206 F 
ATOM     72  C   UNL A   1      48.630  32.141  30.196  1.00  0.00     0.059 A 
ATOM     73  C   UNL A   1      48.209  32.294  27.842  1.00  0.00     0.059 A 
ATOM     74  F   UNL A   1      46.082  32.601  27.053  1.00  0.00    -0.206 F 
ATOM     75  C   UNL A   1      49.099  32.137  28.884  1.00  0.00     0.060 A 
BRANCH  75  76
ATOM     76  S   UNL A   1      50.832  31.782  28.512  1.00  0.00     0.124 S 
ATOM     77  O   UNL A   1      50.751  31.249  27.157  1.00  0.00    -0.237 OA
ATOM     78  O   UNL A   1      51.459  33.092  28.647  1.00  0.00    -0.237 OA
ATOM     79  O   UNL A   1      51.200  30.818  29.548  1.00  0.00    -0.744 OA
ENDBRANCH  75  76
ENDBRANCH  43  68
BRANCH  55  80
ATOM     80  C   UNL A   1      40.989  32.818  32.513  1.00  0.00     0.058 A 
ATOM     81  C   UNL A   1      41.396  33.162  33.812  1.00  0.00     0.135 A 
ATOM     82  C   UNL A   1      40.511  31.506  32.350  1.00  0.00     0.135 A 
ATOM     83  F   UNL A   1      41.870  34.393  34.059  1.00  0.00    -0.206 F 
ATOM     84  C   UNL A   1      41.323  32.262  34.881  1.00  0.00     0.059 A 
ATOM     85  C   UNL A   1      40.415  30.590  33.400  1.00  0.00     0.059 A 
ATOM     86  F   UNL A   1      40.127  31.072  31.151  1.00  0.00    -0.206 F 
ATOM     87  C   UNL A   1      40.826  30.977  34.668  1.00  0.00     0.060 A 
BRANCH  87  88
ATOM     88  S   UNL A   1      40.714  29.831  36.062  1.00  0.00     0.124 S 
ATOM     89  O   UNL A   1      41.637  30.421  37.027  1.00  0.00    -0.237 OA
ATOM     90  O   UNL A   1      39.299  29.911  36.411  1.00  0.00    -0.237 OA
ATOM     91  O   UNL A   1      41.145  28.555  35.496  1.00  0.00    -0.744 OA
ENDBRANCH  87  88
ENDBRANCH  55  80
ENDBRANCH  29  30
ENDBRANCH  21  24
ENDBRANCH  19  20
ENDBRANCH   1  19
TORSDOF 15
ENDMDL
MODEL 3
REMARK VINA RESULT:     -11.1      3.815      9.266
REMARK SMILES CN(C)S(=O)(=O)c1c[nH]c(C(=O)NCCCNC(=O)c2ccc(-c3c4nc(c(-c5c(F)cc(S(=O)(=O)[O-])cc5F)c5ccc([nH]5)c(-c5c(F)cc(S(=O)(=O)[O-])cc5F)c5nc(c(-c6c(F)cc(S(=O)(=O)[O-])cc6F)c6ccc3[nH]6)C=C5)C=C4)cc2)c1
REMARK SMILES IDX 15 1 14 2 13 3 11 4 12 5 10 7 7 8 8 9 86 10 9 11 4 13 5 14
REMARK SMILES IDX 6 15 2 16 1 17 3 18 16 19 17 20 18 21 19 23 20 24 21 25
REMARK SMILES IDX 85 26 22 27 84 28 23 29 24 30 25 31 78 32 26 33 83 34 77 35
REMARK SMILES IDX 79 36 27 37 82 38 76 39 75 40 28 42 62 43 41 44 61 45 42 46
REMARK SMILES IDX 45 47 60 48 80 49 43 50 44 51 59 53 81 54 46 55 29 56 30 57
REMARK SMILES IDX 39 58 31 59 32 60 38 61 40 62 33 63 34 64 35 65 36 66 37 67
REMARK SMILES IDX 63 68 64 69 73 70 65 71 66 72 72 73 74 74 67 75 68 76 69 77
REMARK SMILES IDX 70 78 71 79 47 80 48 81 57 82 49 83 50 84 56 85 58 86 51 87
REMARK SMILES IDX 52 88 53 89 54 90 55 91
REMARK H PARENT 13 6 9 12 17 22 79 41 45 52
REMARK Flexibility Score: inf
ROOT
ATOM      1  C   UNL A   1      38.003  19.726  24.988  1.00  0.00     0.042 C 
ENDROOT
BRANCH   1   2
ATOM      2  C   UNL A   1      37.040  20.859  24.625  1.00  0.00     0.118 C 
BRANCH   2   3
ATOM      3  N   UNL A   1      37.533  22.149  25.064  1.00  0.00    -0.351 N 
ATOM      4  C   UNL A   1      36.934  23.153  25.776  1.00  0.00     0.267 C 
ATOM      5  O   UNL A   1      37.645  24.090  26.136  1.00  0.00    -0.268 OA
ATOM      6  H   UNL A   1      38.464  22.336  24.805  1.00  0.00     0.163 HD
BRANCH   4   7
ATOM      7  C   UNL A   1      35.537  23.101  26.155  1.00  0.00     0.105 A 
ATOM      8  C   UNL A   1      33.277  23.148  26.403  1.00  0.00     0.100 A 
ATOM      9  C   UNL A   1      33.792  22.315  27.371  1.00  0.00     0.104 A 
ATOM     10  C   UNL A   1      34.377  23.694  25.688  1.00  0.00     0.055 A 
ATOM     11  N   UNL A   1      35.155  22.337  27.248  1.00  0.00    -0.356 N 
ATOM     12  H   UNL A   1      35.779  21.874  27.852  1.00  0.00     0.166 HD
BRANCH   8  13
ATOM     13  S   UNL A   1      31.613  23.446  26.047  1.00  0.00     0.244 S 
ATOM     14  O   UNL A   1      31.060  23.981  27.275  1.00  0.00    -0.207 OA
ATOM     15  O   UNL A   1      31.122  22.221  25.459  1.00  0.00    -0.207 OA
BRANCH  13  16
ATOM     16  N   UNL A   1      31.532  24.681  24.862  1.00  0.00    -0.204 NA
ATOM     17  C   UNL A   1      30.621  24.335  23.749  1.00  0.00     0.124 C 
ATOM     18  C   UNL A   1      31.253  26.034  25.391  1.00  0.00     0.124 C 
ENDBRANCH  13  16
ENDBRANCH   8  13
ENDBRANCH   4   7
ENDBRANCH   2   3
ENDBRANCH   1   2
BRANCH   1  19
ATOM     19  C   UNL A   1      39.107  20.195  25.944  1.00  0.00     0.118 C 
BRANCH  19  20
ATOM     20  N   UNL A   1      40.184  19.214  25.995  1.00  0.00    -0.352 N 
ATOM     21  C   UNL A   1      41.543  19.348  26.108  1.00  0.00     0.251 C 
ATOM     22  H   UNL A   1      39.878  18.280  25.936  1.00  0.00     0.163 HD
ATOM     23  O   UNL A   1      42.236  18.363  25.849  1.00  0.00    -0.269 OA
BRANCH  21  24
ATOM     24  C   UNL A   1      42.203  20.618  26.484  1.00  0.00     0.039 A 
ATOM     25  C   UNL A   1      42.853  21.327  25.459  1.00  0.00     0.014 A 
ATOM     26  C   UNL A   1      42.269  21.088  27.798  1.00  0.00     0.014 A 
ATOM     27  C   UNL A   1      43.486  22.537  25.729  1.00  0.00     0.010 A 
ATOM     28  C   UNL A   1      42.891  22.310  28.072  1.00  0.00     0.010 A 
ATOM     29  C   UNL A   1      43.465  23.053  27.030  1.00  0.00    -0.014 A 
BRANCH  29  30
ATOM     30  C   UNL A   1      43.818  24.481  27.242  1.00  0.00     0.031 A 
ATOM     31  C   UNL A   1      42.551  25.369  27.365  1.00  0.00     0.074 A 
ATOM     32  C   UNL A   1      45.147  24.799  27.316  1.00  0.00     0.049 A 
ATOM     33  N   UNL A   1      42.401  26.653  27.233  1.00  0.00    -0.248 NA
ATOM     34  C   UNL A   1      41.233  24.714  27.615  1.00  0.00     0.031 C 
ATOM     35  C   UNL A   1      46.249  23.825  27.170  1.00  0.00     0.029 A 
ATOM     36  N   UNL A   1      45.848  25.972  27.532  1.00  0.00    -0.354 N 
ATOM     37  C   UNL A   1      41.073  26.970  27.613  1.00  0.00     0.074 A 
ATOM     38  C   UNL A   1      40.373  25.729  27.711  1.00  0.00     0.031 C 
ATOM     39  C   UNL A   1      47.451  24.441  27.233  1.00  0.00     0.029 A 
ATOM     40  C   UNL A   1      47.266  25.862  27.459  1.00  0.00     0.049 A 
ATOM     41  H   UNL A   1      45.398  26.825  27.724  1.00  0.00     0.167 HD
ATOM     42  C   UNL A   1      40.659  28.225  27.963  1.00  0.00     0.037 A 
ATOM     43  C   UNL A   1      48.221  26.844  27.551  1.00  0.00     0.037 A 
ATOM     44  C   UNL A   1      41.734  29.145  27.832  1.00  0.00     0.049 A 
ATOM     45  C   UNL A   1      47.493  28.051  27.975  1.00  0.00     0.074 A 
ATOM     46  C   UNL A   1      42.358  29.693  26.745  1.00  0.00     0.029 A 
ATOM     47  N   UNL A   1      42.501  29.361  28.952  1.00  0.00    -0.354 N 
ATOM     48  N   UNL A   1      47.012  28.244  29.166  1.00  0.00    -0.248 NA
ATOM     49  C   UNL A   1      47.233  29.102  26.984  1.00  0.00     0.031 C 
ATOM     50  C   UNL A   1      43.697  29.826  27.164  1.00  0.00     0.029 A 
ATOM     51  C   UNL A   1      43.795  29.518  28.526  1.00  0.00     0.049 A 
ATOM     52  H   UNL A   1      42.180  29.397  29.882  1.00  0.00     0.167 HD
ATOM     53  C   UNL A   1      46.122  29.268  28.961  1.00  0.00     0.074 A 
ATOM     54  C   UNL A   1      46.528  29.935  27.743  1.00  0.00     0.031 C 
ATOM     55  C   UNL A   1      44.857  29.155  29.439  1.00  0.00     0.037 A 
BRANCH  42  56
ATOM     56  C   UNL A   1      39.424  28.735  28.664  1.00  0.00     0.058 A 
ATOM     57  C   UNL A   1      38.600  29.655  27.966  1.00  0.00     0.135 A 
ATOM     58  C   UNL A   1      39.228  28.666  30.050  1.00  0.00     0.135 A 
ATOM     59  F   UNL A   1      38.656  29.748  26.625  1.00  0.00    -0.206 F 
ATOM     60  C   UNL A   1      37.766  30.560  28.614  1.00  0.00     0.059 A 
ATOM     61  C   UNL A   1      38.359  29.536  30.719  1.00  0.00     0.059 A 
ATOM     62  F   UNL A   1      39.936  27.814  30.805  1.00  0.00    -0.206 F 
ATOM     63  C   UNL A   1      37.685  30.520  29.999  1.00  0.00     0.060 A 
BRANCH  63  64
ATOM     64  S   UNL A   1      36.734  31.806  30.837  1.00  0.00     0.124 S 
ATOM     65  O   UNL A   1      35.892  31.016  31.730  1.00  0.00    -0.237 OA
ATOM     66  O   UNL A   1      37.778  32.593  31.488  1.00  0.00    -0.237 OA
ATOM     67  O   UNL A   1      36.045  32.481  29.743  1.00  0.00    -0.744 OA
ENDBRANCH  63  64
ENDBRANCH  42  56
BRANCH  43  68
ATOM     68  C   UNL A   1      49.705  27.038  27.271  1.00  0.00     0.058 A 
ATOM     69  C   UNL A   1      50.680  27.444  28.191  1.00  0.00     0.135 A 
ATOM     70  C   UNL A   1      50.243  26.628  26.013  1.00  0.00     0.135 A 
ATOM     71  F   UNL A   1      50.342  27.993  29.363  1.00  0.00    -0.206 F 
ATOM     72  C   UNL A   1      52.060  27.286  27.952  1.00  0.00     0.059 A 
ATOM     73  C   UNL A   1      51.598  26.409  25.771  1.00  0.00     0.059 A 
ATOM     74  F   UNL A   1      49.459  26.375  24.956  1.00  0.00    -0.206 F 
ATOM     75  C   UNL A   1      52.505  26.706  26.766  1.00  0.00     0.060 A 
BRANCH  75  76
ATOM     76  S   UNL A   1      54.228  26.199  26.563  1.00  0.00     0.124 S 
ATOM     77  O   UNL A   1      54.107  24.753  26.421  1.00  0.00    -0.237 OA
ATOM     78  O   UNL A   1      54.633  26.926  25.364  1.00  0.00    -0.237 OA
ATOM     79  O   UNL A   1      54.855  26.661  27.800  1.00  0.00    -0.744 OA
ENDBRANCH  75  76
ENDBRANCH  43  68
BRANCH  55  80
ATOM     80  C   UNL A   1      44.721  28.282  30.673  1.00  0.00     0.058 A 
ATOM     81  C   UNL A   1      45.214  28.727  31.909  1.00  0.00     0.135 A 
ATOM     82  C   UNL A   1      44.190  26.980  30.661  1.00  0.00     0.135 A 
ATOM     83  F   UNL A   1      45.742  29.957  32.014  1.00  0.00    -0.206 F 
ATOM     84  C   UNL A   1      45.173  27.934  33.061  1.00  0.00     0.059 A 
ATOM     85  C   UNL A   1      44.125  26.169  31.796  1.00  0.00     0.059 A 
ATOM     86  F   UNL A   1      43.724  26.453  29.530  1.00  0.00    -0.206 F 
ATOM     87  C   UNL A   1      44.622  26.655  32.998  1.00  0.00     0.060 A 
BRANCH  87  88
ATOM     88  S   UNL A   1      44.553  25.646  34.497  1.00  0.00     0.124 S 
ATOM     89  O   UNL A   1      43.611  24.596  34.123  1.00  0.00    -0.237 OA
ATOM     90  O   UNL A   1      45.943  25.224  34.645  1.00  0.00    -0.237 OA
ATOM     91  O   UNL A   1      44.072  26.575  35.516  1.00  0.00    -0.744 OA
ENDBRANCH  87  88
ENDBRANCH  55  80
ENDBRANCH  29  30
ENDBRANCH  21  24
ENDBRANCH  19  20
ENDBRANCH   1  19
TORSDOF 15
ENDMDL
