MODEL 1
REMARK VINA RESULT:     -11.4      0.000      0.000
REMARK SMILES O=C(NCCCNC(=O)[C@H]1CC1(c1ccccc1)c1ccccc1)c1ccc(-c2c3nc(c(-c4c(F)cc(S(=O)(=O)[O-])cc4F)c4ccc([nH]4)c(-c4c(F)cc(S(=O)(=O)[O-])cc4F)c4nc(c(-c5c(F)cc(S(=O)(=O)[O-])cc5F)c5ccc2[nH]5)C=C4)C=C3)cc1
REMARK SMILES IDX 4 1 3 2 1 3 2 4 25 6 26 7 90 8 27 9 89 10 28 11 29 12 30 13
REMARK SMILES IDX 83 14 31 15 88 16 82 17 84 18 32 19 87 20 81 21 80 22 33 24
REMARK SMILES IDX 67 25 46 26 66 27 47 28 50 29 65 30 85 31 48 32 49 33 64 35
REMARK SMILES IDX 86 36 51 37 34 38 35 39 44 40 36 41 37 42 43 43 45 44 38 45
REMARK SMILES IDX 39 46 40 47 41 48 42 49 68 50 69 51 78 52 70 53 71 54 77 55
REMARK SMILES IDX 79 56 72 57 73 58 74 59 75 60 76 61 52 62 53 63 62 64 54 65
REMARK SMILES IDX 55 66 61 67 63 68 56 69 57 70 58 71 59 72 60 73 5 74 6 75
REMARK SMILES IDX 7 76 8 77 9 79 10 80 11 81 12 82 13 83 14 84 18 85 15 86
REMARK SMILES IDX 17 87 16 88 19 89 20 90 24 91 21 92 23 93 22 94
REMARK H PARENT 3 5 84 23 50 34 7 78
REMARK Flexibility Score: inf
ROOT
ATOM      1  C   UNL A   1      33.559  28.078  27.154  1.00  0.00     0.118 C 
ENDROOT
BRANCH   1   2
ATOM      2  N   UNL A   1      33.483  29.500  27.464  1.00  0.00    -0.352 N 
ATOM      3  O   UNL A   1      34.055  31.504  28.296  1.00  0.00    -0.269 OA
ATOM      4  C   UNL A   1      34.410  30.368  27.993  1.00  0.00     0.251 C 
ATOM      5  H   UNL A   1      32.613  29.913  27.258  1.00  0.00     0.163 HD
BRANCH   4   6
ATOM      6  C   UNL A   1      35.811  29.948  28.234  1.00  0.00     0.039 A 
ATOM      7  C   UNL A   1      36.220  29.437  29.464  1.00  0.00     0.014 A 
ATOM      8  C   UNL A   1      36.736  30.038  27.186  1.00  0.00     0.014 A 
ATOM      9  C   UNL A   1      37.570  29.201  29.706  1.00  0.00     0.010 A 
ATOM     10  C   UNL A   1      38.078  29.700  27.401  1.00  0.00     0.010 A 
ATOM     11  C   UNL A   1      38.519  29.328  28.678  1.00  0.00    -0.014 A 
BRANCH  11  12
ATOM     12  C   UNL A   1      39.951  29.045  28.972  1.00  0.00     0.031 A 
ATOM     13  C   UNL A   1      40.579  27.729  28.595  1.00  0.00     0.074 A 
ATOM     14  C   UNL A   1      40.706  30.012  29.533  1.00  0.00     0.049 A 
ATOM     15  N   UNL A   1      41.828  27.350  28.709  1.00  0.00    -0.248 NA
ATOM     16  C   UNL A   1      39.695  26.698  28.029  1.00  0.00     0.031 C 
ATOM     17  C   UNL A   1      40.211  31.323  29.965  1.00  0.00     0.029 A 
ATOM     18  N   UNL A   1      42.049  30.061  29.806  1.00  0.00    -0.354 N 
ATOM     19  C   UNL A   1      41.875  26.036  28.256  1.00  0.00     0.074 A 
ATOM     20  C   UNL A   1      40.525  25.673  27.886  1.00  0.00     0.031 C 
ATOM     21  C   UNL A   1      41.244  32.068  30.385  1.00  0.00     0.029 A 
ATOM     22  C   UNL A   1      42.465  31.273  30.305  1.00  0.00     0.049 A 
ATOM     23  H   UNL A   1      42.658  29.300  29.660  1.00  0.00     0.167 HD
ATOM     24  C   UNL A   1      42.946  25.212  28.149  1.00  0.00     0.037 A 
ATOM     25  C   UNL A   1      43.692  31.703  30.657  1.00  0.00     0.037 A 
ATOM     26  C   UNL A   1      44.296  25.586  28.486  1.00  0.00     0.049 A 
ATOM     27  C   UNL A   1      44.864  30.777  30.507  1.00  0.00     0.074 A 
ATOM     28  C   UNL A   1      45.454  24.836  28.366  1.00  0.00     0.029 A 
ATOM     29  N   UNL A   1      44.672  26.816  29.006  1.00  0.00    -0.354 N 
ATOM     30  N   UNL A   1      44.890  29.551  30.044  1.00  0.00    -0.248 NA
ATOM     31  C   UNL A   1      46.173  31.292  30.933  1.00  0.00     0.031 C 
ATOM     32  C   UNL A   1      46.524  25.599  28.846  1.00  0.00     0.029 A 
ATOM     33  C   UNL A   1      46.040  26.840  29.228  1.00  0.00     0.049 A 
ATOM     34  H   UNL A   1      44.057  27.562  29.191  1.00  0.00     0.167 HD
ATOM     35  C   UNL A   1      46.220  29.152  30.105  1.00  0.00     0.074 A 
ATOM     36  C   UNL A   1      46.969  30.274  30.636  1.00  0.00     0.031 C 
ATOM     37  C   UNL A   1      46.771  27.964  29.755  1.00  0.00     0.037 A 
BRANCH  24  38
ATOM     38  C   UNL A   1      42.701  23.810  27.661  1.00  0.00     0.058 A 
ATOM     39  C   UNL A   1      42.513  22.738  28.547  1.00  0.00     0.135 A 
ATOM     40  C   UNL A   1      42.616  23.543  26.284  1.00  0.00     0.135 A 
ATOM     41  F   UNL A   1      42.597  22.934  29.872  1.00  0.00    -0.206 F 
ATOM     42  C   UNL A   1      42.280  21.445  28.087  1.00  0.00     0.059 A 
ATOM     43  C   UNL A   1      42.361  22.261  25.802  1.00  0.00     0.059 A 
ATOM     44  F   UNL A   1      42.784  24.531  25.392  1.00  0.00    -0.206 F 
ATOM     45  C   UNL A   1      42.211  21.217  26.711  1.00  0.00     0.060 A 
BRANCH  45  46
ATOM     46  S   UNL A   1      41.916  19.533  26.127  1.00  0.00     0.124 S 
ATOM     47  O   UNL A   1      42.372  18.746  27.269  1.00  0.00    -0.237 OA
ATOM     48  O   UNL A   1      40.474  19.529  25.893  1.00  0.00    -0.237 OA
ATOM     49  O   UNL A   1      42.742  19.439  24.928  1.00  0.00    -0.744 OA
ENDBRANCH  45  46
ENDBRANCH  24  38
BRANCH  25  50
ATOM     50  C   UNL A   1      43.870  33.089  31.165  1.00  0.00     0.058 A 
ATOM     51  C   UNL A   1      44.177  34.142  30.292  1.00  0.00     0.135 A 
ATOM     52  C   UNL A   1      43.704  33.390  32.525  1.00  0.00     0.135 A 
ATOM     53  F   UNL A   1      44.349  33.902  28.984  1.00  0.00    -0.206 F 
ATOM     54  C   UNL A   1      44.325  35.447  30.752  1.00  0.00     0.059 A 
ATOM     55  C   UNL A   1      43.822  34.689  33.004  1.00  0.00     0.059 A 
ATOM     56  F   UNL A   1      43.392  32.417  33.396  1.00  0.00    -0.206 F 
ATOM     57  C   UNL A   1      44.142  35.710  32.111  1.00  0.00     0.060 A 
BRANCH  57  58
ATOM     58  S   UNL A   1      44.273  37.415  32.692  1.00  0.00     0.124 S 
ATOM     59  O   UNL A   1      43.300  37.429  33.779  1.00  0.00    -0.237 OA
ATOM     60  O   UNL A   1      45.675  37.501  33.089  1.00  0.00    -0.237 OA
ATOM     61  O   UNL A   1      43.916  38.197  31.512  1.00  0.00    -0.744 OA
ENDBRANCH  57  58
ENDBRANCH  25  50
BRANCH  37  62
ATOM     62  C   UNL A   1      48.259  27.829  29.909  1.00  0.00     0.058 A 
ATOM     63  C   UNL A   1      48.834  27.334  31.090  1.00  0.00     0.135 A 
ATOM     64  C   UNL A   1      49.117  28.180  28.856  1.00  0.00     0.135 A 
ATOM     65  F   UNL A   1      48.055  26.990  32.129  1.00  0.00    -0.206 F 
ATOM     66  C   UNL A   1      50.213  27.219  31.233  1.00  0.00     0.059 A 
ATOM     67  C   UNL A   1      50.498  28.053  28.969  1.00  0.00     0.059 A 
ATOM     68  F   UNL A   1      48.617  28.651  27.704  1.00  0.00    -0.206 F 
ATOM     69  C   UNL A   1      51.037  27.586  30.167  1.00  0.00     0.060 A 
BRANCH  69  70
ATOM     70  S   UNL A   1      52.826  27.423  30.355  1.00  0.00     0.124 S 
ATOM     71  O   UNL A   1      52.942  27.082  31.768  1.00  0.00    -0.237 OA
ATOM     72  O   UNL A   1      53.145  26.352  29.415  1.00  0.00    -0.237 OA
ATOM     73  O   UNL A   1      53.326  28.743  29.983  1.00  0.00    -0.744 OA
ENDBRANCH  69  70
ENDBRANCH  37  62
ENDBRANCH  11  12
ENDBRANCH   4   6
ENDBRANCH   1   2
BRANCH   1  74
ATOM     74  C   UNL A   1      33.690  27.787  25.663  1.00  0.00     0.042 C 
BRANCH  74  75
ATOM     75  C   UNL A   1      33.695  26.307  25.298  1.00  0.00     0.117 C 
BRANCH  75  76
ATOM     76  N   UNL A   1      32.523  25.601  25.784  1.00  0.00    -0.356 N 
ATOM     77  C   UNL A   1      32.395  24.410  26.444  1.00  0.00     0.224 C 
ATOM     78  H   UNL A   1      31.670  26.059  25.607  1.00  0.00     0.163 HD
ATOM     79  O   UNL A   1      31.267  23.957  26.628  1.00  0.00    -0.275 OA
BRANCH  77  80
ATOM     80  C   UNL A   1      33.577  23.615  26.845  1.00  0.00     0.095 C 
ATOM     81  C   UNL A   1      33.573  22.140  27.097  1.00  0.00     0.032 C 
ATOM     82  C   UNL A   1      34.279  22.664  25.848  1.00  0.00     0.033 C 
BRANCH  82  83
ATOM     83  C   UNL A   1      33.611  22.176  24.542  1.00  0.00    -0.037 A 
ATOM     84  C   UNL A   1      33.581  23.012  23.407  1.00  0.00     0.004 A 
ATOM     85  C   UNL A   1      32.907  20.962  24.456  1.00  0.00     0.004 A 
ATOM     86  C   UNL A   1      32.875  22.663  22.255  1.00  0.00     0.000 A 
ATOM     87  C   UNL A   1      32.196  20.608  23.306  1.00  0.00     0.000 A 
ATOM     88  C   UNL A   1      32.176  21.463  22.207  1.00  0.00     0.000 A 
ENDBRANCH  82  83
BRANCH  82  89
ATOM     89  C   UNL A   1      35.838  22.699  25.797  1.00  0.00    -0.037 A 
ATOM     90  C   UNL A   1      36.576  21.540  25.468  1.00  0.00     0.004 A 
ATOM     91  C   UNL A   1      36.603  23.841  26.107  1.00  0.00     0.004 A 
ATOM     92  C   UNL A   1      37.973  21.501  25.496  1.00  0.00     0.000 A 
ATOM     93  C   UNL A   1      38.005  23.813  26.128  1.00  0.00     0.000 A 
ATOM     94  C   UNL A   1      38.689  22.640  25.835  1.00  0.00     0.000 A 
ENDBRANCH  82  89
ENDBRANCH  77  80
ENDBRANCH  75  76
ENDBRANCH  74  75
ENDBRANCH   1  74
TORSDOF 15
ENDMDL
MODEL 2
REMARK VINA RESULT:     -11.2      0.870      8.380
REMARK SMILES O=C(NCCCNC(=O)[C@H]1CC1(c1ccccc1)c1ccccc1)c1ccc(-c2c3nc(c(-c4c(F)cc(S(=O)(=O)[O-])cc4F)c4ccc([nH]4)c(-c4c(F)cc(S(=O)(=O)[O-])cc4F)c4nc(c(-c5c(F)cc(S(=O)(=O)[O-])cc5F)c5ccc2[nH]5)C=C4)C=C3)cc1
REMARK SMILES IDX 4 1 3 2 1 3 2 4 25 6 26 7 90 8 27 9 89 10 28 11 29 12 30 13
REMARK SMILES IDX 83 14 31 15 88 16 82 17 84 18 32 19 87 20 81 21 80 22 33 24
REMARK SMILES IDX 67 25 46 26 66 27 47 28 50 29 65 30 85 31 48 32 49 33 64 35
REMARK SMILES IDX 86 36 51 37 34 38 35 39 44 40 36 41 37 42 43 43 45 44 38 45
REMARK SMILES IDX 39 46 40 47 41 48 42 49 68 50 69 51 78 52 70 53 71 54 77 55
REMARK SMILES IDX 79 56 72 57 73 58 74 59 75 60 76 61 52 62 53 63 62 64 54 65
REMARK SMILES IDX 55 66 61 67 63 68 56 69 57 70 58 71 59 72 60 73 5 74 6 75
REMARK SMILES IDX 7 76 8 77 9 79 10 80 11 81 12 82 13 83 14 84 18 85 15 86
REMARK SMILES IDX 17 87 16 88 19 89 20 90 24 91 21 92 23 93 22 94
REMARK H PARENT 3 5 84 23 50 34 7 78
REMARK Flexibility Score: inf
ROOT
ATOM      1  C   UNL A   1      34.085  27.730  26.509  1.00  0.00     0.118 C 
ENDROOT
BRANCH   1   2
ATOM      2  N   UNL A   1      33.708  29.052  26.993  1.00  0.00    -0.352 N 
ATOM      3  O   UNL A   1      33.817  30.988  28.123  1.00  0.00    -0.269 OA
ATOM      4  C   UNL A   1      34.410  29.995  27.707  1.00  0.00     0.251 C 
ATOM      5  H   UNL A   1      32.786  29.317  26.769  1.00  0.00     0.163 HD
BRANCH   4   6
ATOM      6  C   UNL A   1      35.850  29.820  28.010  1.00  0.00     0.039 A 
ATOM      7  C   UNL A   1      36.835  30.104  27.067  1.00  0.00     0.014 A 
ATOM      8  C   UNL A   1      36.227  29.392  29.290  1.00  0.00     0.014 A 
ATOM      9  C   UNL A   1      38.163  29.781  27.329  1.00  0.00     0.010 A 
ATOM     10  C   UNL A   1      37.577  29.166  29.587  1.00  0.00     0.010 A 
ATOM     11  C   UNL A   1      38.554  29.308  28.592  1.00  0.00    -0.014 A 
BRANCH  11  12
ATOM     12  C   UNL A   1      39.989  28.994  28.839  1.00  0.00     0.031 A 
ATOM     13  C   UNL A   1      40.890  29.972  29.547  1.00  0.00     0.074 A 
ATOM     14  C   UNL A   1      40.466  27.788  28.472  1.00  0.00     0.049 A 
ATOM     15  N   UNL A   1      42.140  29.826  29.911  1.00  0.00    -0.248 NA
ATOM     16  C   UNL A   1      40.324  31.288  29.883  1.00  0.00     0.031 C 
ATOM     17  C   UNL A   1      39.702  26.761  27.758  1.00  0.00     0.029 A 
ATOM     18  N   UNL A   1      41.693  27.206  28.672  1.00  0.00    -0.354 N 
ATOM     19  C   UNL A   1      42.517  31.033  30.490  1.00  0.00     0.074 A 
ATOM     20  C   UNL A   1      41.370  31.911  30.411  1.00  0.00     0.031 C 
ATOM     21  C   UNL A   1      40.451  25.655  27.641  1.00  0.00     0.029 A 
ATOM     22  C   UNL A   1      41.766  25.909  28.220  1.00  0.00     0.049 A 
ATOM     23  H   UNL A   1      42.448  27.671  29.098  1.00  0.00     0.167 HD
ATOM     24  C   UNL A   1      43.706  31.374  31.045  1.00  0.00     0.037 A 
ATOM     25  C   UNL A   1      42.775  25.019  28.265  1.00  0.00     0.037 A 
ATOM     26  C   UNL A   1      44.837  30.488  31.154  1.00  0.00     0.049 A 
ATOM     27  C   UNL A   1      44.073  25.416  28.906  1.00  0.00     0.074 A 
ATOM     28  C   UNL A   1      46.066  30.728  31.743  1.00  0.00     0.029 A 
ATOM     29  N   UNL A   1      44.876  29.189  30.666  1.00  0.00    -0.354 N 
ATOM     30  N   UNL A   1      44.395  26.550  29.479  1.00  0.00    -0.248 NA
ATOM     31  C   UNL A   1      45.147  24.413  28.903  1.00  0.00     0.031 C 
ATOM     32  C   UNL A   1      46.861  29.587  31.580  1.00  0.00     0.029 A 
ATOM     33  C   UNL A   1      46.114  28.623  30.925  1.00  0.00     0.049 A 
ATOM     34  H   UNL A   1      44.134  28.738  30.202  1.00  0.00     0.167 HD
ATOM     35  C   UNL A   1      45.704  26.392  29.921  1.00  0.00     0.074 A 
ATOM     36  C   UNL A   1      46.107  25.047  29.562  1.00  0.00     0.031 C 
ATOM     37  C   UNL A   1      46.500  27.282  30.563  1.00  0.00     0.037 A 
BRANCH  24  38
ATOM     38  C   UNL A   1      43.854  32.778  31.567  1.00  0.00     0.058 A 
ATOM     39  C   UNL A   1      43.554  33.110  32.896  1.00  0.00     0.135 A 
ATOM     40  C   UNL A   1      44.339  33.798  30.731  1.00  0.00     0.135 A 
ATOM     41  F   UNL A   1      43.074  32.177  33.735  1.00  0.00    -0.206 F 
ATOM     42  C   UNL A   1      43.700  34.409  33.374  1.00  0.00     0.059 A 
ATOM     43  C   UNL A   1      44.514  35.100  31.193  1.00  0.00     0.059 A 
ATOM     44  F   UNL A   1      44.645  33.536  29.451  1.00  0.00    -0.206 F 
ATOM     45  C   UNL A   1      44.177  35.399  32.511  1.00  0.00     0.060 A 
BRANCH  45  46
ATOM     46  S   UNL A   1      44.355  37.083  33.140  1.00  0.00     0.124 S 
ATOM     47  O   UNL A   1      43.092  37.262  33.850  1.00  0.00    -0.237 OA
ATOM     48  O   UNL A   1      45.544  36.981  33.982  1.00  0.00    -0.237 OA
ATOM     49  O   UNL A   1      44.514  37.883  31.930  1.00  0.00    -0.744 OA
ENDBRANCH  45  46
ENDBRANCH  24  38
BRANCH  25  50
ATOM     50  C   UNL A   1      42.582  23.656  27.704  1.00  0.00     0.058 A 
ATOM     51  C   UNL A   1      42.709  23.420  26.327  1.00  0.00     0.135 A 
ATOM     52  C   UNL A   1      42.302  22.561  28.534  1.00  0.00     0.135 A 
ATOM     53  F   UNL A   1      42.972  24.437  25.493  1.00  0.00    -0.206 F 
ATOM     54  C   UNL A   1      42.553  22.146  25.791  1.00  0.00     0.059 A 
ATOM     55  C   UNL A   1      42.166  21.275  28.025  1.00  0.00     0.059 A 
ATOM     56  F   UNL A   1      42.190  22.736  29.861  1.00  0.00    -0.206 F 
ATOM     57  C   UNL A   1      42.284  21.079  26.651  1.00  0.00     0.060 A 
BRANCH  57  58
ATOM     58  S   UNL A   1      42.145  19.417  25.957  1.00  0.00     0.124 S 
ATOM     59  O   UNL A   1      40.708  19.319  25.721  1.00  0.00    -0.237 OA
ATOM     60  O   UNL A   1      42.984  19.507  24.766  1.00  0.00    -0.237 OA
ATOM     61  O   UNL A   1      42.671  18.567  27.021  1.00  0.00    -0.744 OA
ENDBRANCH  57  58
ENDBRANCH  25  50
BRANCH  37  62
ATOM     62  C   UNL A   1      47.876  26.816  30.944  1.00  0.00     0.058 A 
ATOM     63  C   UNL A   1      48.987  27.052  30.119  1.00  0.00     0.135 A 
ATOM     64  C   UNL A   1      48.088  26.144  32.158  1.00  0.00     0.135 A 
ATOM     65  F   UNL A   1      48.834  27.685  28.945  1.00  0.00    -0.206 F 
ATOM     66  C   UNL A   1      50.258  26.611  30.471  1.00  0.00     0.059 A 
ATOM     67  C   UNL A   1      49.355  25.714  32.540  1.00  0.00     0.059 A 
ATOM     68  F   UNL A   1      47.060  25.901  32.986  1.00  0.00    -0.206 F 
ATOM     69  C   UNL A   1      50.431  25.938  31.682  1.00  0.00     0.060 A 
BRANCH  69  70
ATOM     70  S   UNL A   1      52.086  25.379  32.138  1.00  0.00     0.124 S 
ATOM     71  O   UNL A   1      52.858  25.759  30.960  1.00  0.00    -0.237 OA
ATOM     72  O   UNL A   1      52.357  26.148  33.349  1.00  0.00    -0.237 OA
ATOM     73  O   UNL A   1      51.914  23.943  32.341  1.00  0.00    -0.744 OA
ENDBRANCH  69  70
ENDBRANCH  37  62
ENDBRANCH  11  12
ENDBRANCH   4   6
ENDBRANCH   1   2
BRANCH   1  74
ATOM     74  C   UNL A   1      33.003  27.058  25.672  1.00  0.00     0.042 C 
BRANCH  74  75
ATOM     75  C   UNL A   1      33.180  25.555  25.484  1.00  0.00     0.117 C 
BRANCH  75  76
ATOM     76  N   UNL A   1      32.165  24.776  26.171  1.00  0.00    -0.356 N 
ATOM     77  C   UNL A   1      32.250  23.618  26.893  1.00  0.00     0.224 C 
ATOM     78  H   UNL A   1      31.255  25.146  26.105  1.00  0.00     0.163 HD
ATOM     79  O   UNL A   1      31.209  23.078  27.264  1.00  0.00    -0.275 OA
BRANCH  77  80
ATOM     80  C   UNL A   1      33.549  22.955  27.145  1.00  0.00     0.095 C 
ATOM     81  C   UNL A   1      33.749  21.476  27.252  1.00  0.00     0.032 C 
ATOM     82  C   UNL A   1      34.293  22.200  26.021  1.00  0.00     0.033 C 
BRANCH  82  83
ATOM     83  C   UNL A   1      33.603  21.745  24.715  1.00  0.00    -0.037 A 
ATOM     84  C   UNL A   1      33.488  22.637  23.628  1.00  0.00     0.004 A 
ATOM     85  C   UNL A   1      32.959  20.502  24.587  1.00  0.00     0.004 A 
ATOM     86  C   UNL A   1      32.758  22.312  22.484  1.00  0.00     0.000 A 
ATOM     87  C   UNL A   1      32.224  20.172  23.445  1.00  0.00     0.000 A 
ATOM     88  C   UNL A   1      32.119  21.080  22.396  1.00  0.00     0.000 A 
ENDBRANCH  82  83
BRANCH  82  89
ATOM     89  C   UNL A   1      35.828  22.446  25.883  1.00  0.00    -0.037 A 
ATOM     90  C   UNL A   1      36.698  21.394  25.520  1.00  0.00     0.004 A 
ATOM     91  C   UNL A   1      36.445  23.685  26.143  1.00  0.00     0.004 A 
ATOM     92  C   UNL A   1      38.087  21.546  25.471  1.00  0.00     0.000 A 
ATOM     93  C   UNL A   1      37.836  23.849  26.086  1.00  0.00     0.000 A 
ATOM     94  C   UNL A   1      38.658  22.776  25.763  1.00  0.00     0.000 A 
ENDBRANCH  82  89
ENDBRANCH  77  80
ENDBRANCH  75  76
ENDBRANCH  74  75
ENDBRANCH   1  74
TORSDOF 15
ENDMDL
MODEL 3
REMARK VINA RESULT:     -11.2      5.106      9.761
REMARK SMILES O=C(NCCCNC(=O)[C@H]1CC1(c1ccccc1)c1ccccc1)c1ccc(-c2c3nc(c(-c4c(F)cc(S(=O)(=O)[O-])cc4F)c4ccc([nH]4)c(-c4c(F)cc(S(=O)(=O)[O-])cc4F)c4nc(c(-c5c(F)cc(S(=O)(=O)[O-])cc5F)c5ccc2[nH]5)C=C4)C=C3)cc1
REMARK SMILES IDX 4 1 3 2 1 3 2 4 25 6 26 7 90 8 27 9 89 10 28 11 29 12 30 13
REMARK SMILES IDX 83 14 31 15 88 16 82 17 84 18 32 19 87 20 81 21 80 22 33 24
REMARK SMILES IDX 67 25 46 26 66 27 47 28 50 29 65 30 85 31 48 32 49 33 64 35
REMARK SMILES IDX 86 36 51 37 34 38 35 39 44 40 36 41 37 42 43 43 45 44 38 45
REMARK SMILES IDX 39 46 40 47 41 48 42 49 68 50 69 51 78 52 70 53 71 54 77 55
REMARK SMILES IDX 79 56 72 57 73 58 74 59 75 60 76 61 52 62 53 63 62 64 54 65
REMARK SMILES IDX 55 66 61 67 63 68 56 69 57 70 58 71 59 72 60 73 5 74 6 75
REMARK SMILES IDX 7 76 8 77 9 79 10 80 11 81 12 82 13 83 14 84 18 85 15 86
REMARK SMILES IDX 17 87 16 88 19 89 20 90 24 91 21 92 23 93 22 94
REMARK H PARENT 3 5 84 23 50 34 7 78
REMARK Flexibility Score: inf
ROOT
ATOM      1  C   UNL A   1      40.298  23.170  27.044  1.00  0.00     0.118 C 
ENDROOT
BRANCH   1   2
ATOM      2  N   UNL A   1      41.158  23.896  26.117  1.00  0.00    -0.352 N 
ATOM      3  O   UNL A   1      42.184  25.620  25.112  1.00  0.00    -0.269 OA
ATOM      4  C   UNL A   1      41.564  25.209  26.090  1.00  0.00     0.251 C 
ATOM      5  H   UNL A   1      41.511  23.348  25.379  1.00  0.00     0.163 HD
BRANCH   4   6
ATOM      6  C   UNL A   1      41.239  26.141  27.197  1.00  0.00     0.039 A 
ATOM      7  C   UNL A   1      41.859  27.384  27.311  1.00  0.00     0.014 A 
ATOM      8  C   UNL A   1      40.259  25.774  28.127  1.00  0.00     0.014 A 
ATOM      9  C   UNL A   1      41.648  28.165  28.443  1.00  0.00     0.010 A 
ATOM     10  C   UNL A   1      39.971  26.611  29.213  1.00  0.00     0.010 A 
ATOM     11  C   UNL A   1      40.701  27.791  29.410  1.00  0.00    -0.014 A 
BRANCH  11  12
ATOM     12  C   UNL A   1      40.489  28.665  30.597  1.00  0.00     0.031 A 
ATOM     13  C   UNL A   1      41.388  28.575  31.803  1.00  0.00     0.074 A 
ATOM     14  C   UNL A   1      39.510  29.591  30.560  1.00  0.00     0.049 A 
ATOM     15  N   UNL A   1      41.391  29.312  32.886  1.00  0.00    -0.248 NA
ATOM     16  C   UNL A   1      42.410  27.515  31.803  1.00  0.00     0.031 C 
ATOM     17  C   UNL A   1      38.556  29.764  29.460  1.00  0.00     0.029 A 
ATOM     18  N   UNL A   1      39.170  30.579  31.449  1.00  0.00    -0.354 N 
ATOM     19  C   UNL A   1      42.389  28.793  33.703  1.00  0.00     0.074 A 
ATOM     20  C   UNL A   1      42.957  27.662  33.003  1.00  0.00     0.031 C 
ATOM     21  C   UNL A   1      37.787  30.835  29.708  1.00  0.00     0.029 A 
ATOM     22  C   UNL A   1      38.152  31.391  31.007  1.00  0.00     0.049 A 
ATOM     23  H   UNL A   1      39.612  30.695  32.321  1.00  0.00     0.167 HD
ATOM     24  C   UNL A   1      42.799  29.224  34.921  1.00  0.00     0.037 A 
ATOM     25  C   UNL A   1      37.576  32.466  31.576  1.00  0.00     0.037 A 
ATOM     26  C   UNL A   1      42.255  30.371  35.603  1.00  0.00     0.049 A 
ATOM     27  C   UNL A   1      38.065  32.936  32.916  1.00  0.00     0.074 A 
ATOM     28  C   UNL A   1      42.639  30.914  36.818  1.00  0.00     0.029 A 
ATOM     29  N   UNL A   1      41.213  31.154  35.130  1.00  0.00    -0.354 N 
ATOM     30  N   UNL A   1      39.034  32.451  33.655  1.00  0.00    -0.248 NA
ATOM     31  C   UNL A   1      37.380  34.097  33.501  1.00  0.00     0.031 C 
ATOM     32  C   UNL A   1      41.806  32.003  37.095  1.00  0.00     0.029 A 
ATOM     33  C   UNL A   1      40.929  32.165  36.035  1.00  0.00     0.049 A 
ATOM     34  H   UNL A   1      40.742  31.012  34.276  1.00  0.00     0.167 HD
ATOM     35  C   UNL A   1      39.087  33.258  34.785  1.00  0.00     0.074 A 
ATOM     36  C   UNL A   1      38.063  34.272  34.624  1.00  0.00     0.031 C 
ATOM     37  C   UNL A   1      39.908  33.167  35.860  1.00  0.00     0.037 A 
BRANCH  24  38
ATOM     38  C   UNL A   1      43.885  28.441  35.608  1.00  0.00     0.058 A 
ATOM     39  C   UNL A   1      45.244  28.715  35.397  1.00  0.00     0.135 A 
ATOM     40  C   UNL A   1      43.557  27.424  36.521  1.00  0.00     0.135 A 
ATOM     41  F   UNL A   1      45.614  29.668  34.526  1.00  0.00    -0.206 F 
ATOM     42  C   UNL A   1      46.243  27.991  36.042  1.00  0.00     0.059 A 
ATOM     43  C   UNL A   1      44.539  26.701  37.194  1.00  0.00     0.059 A 
ATOM     44  F   UNL A   1      42.273  27.121  36.763  1.00  0.00    -0.206 F 
ATOM     45  C   UNL A   1      45.879  26.982  36.936  1.00  0.00     0.060 A 
BRANCH  45  46
ATOM     46  S   UNL A   1      47.184  26.043  37.761  1.00  0.00     0.124 S 
ATOM     47  O   UNL A   1      48.346  26.386  36.946  1.00  0.00    -0.237 OA
ATOM     48  O   UNL A   1      47.170  26.603  39.109  1.00  0.00    -0.237 OA
ATOM     49  O   UNL A   1      46.728  24.661  37.654  1.00  0.00    -0.744 OA
ENDBRANCH  45  46
ENDBRANCH  24  38
BRANCH  25  50
ATOM     50  C   UNL A   1      36.484  33.181  30.866  1.00  0.00     0.058 A 
ATOM     51  C   UNL A   1      35.153  33.074  31.296  1.00  0.00     0.135 A 
ATOM     52  C   UNL A   1      36.754  34.009  29.766  1.00  0.00     0.135 A 
ATOM     53  F   UNL A   1      34.846  32.291  32.340  1.00  0.00    -0.206 F 
ATOM     54  C   UNL A   1      34.125  33.755  30.653  1.00  0.00     0.059 A 
ATOM     55  C   UNL A   1      35.747  34.719  29.122  1.00  0.00     0.059 A 
ATOM     56  F   UNL A   1      38.015  34.156  29.329  1.00  0.00    -0.206 F 
ATOM     57  C   UNL A   1      34.433  34.579  29.568  1.00  0.00     0.060 A 
BRANCH  57  58
ATOM     58  S   UNL A   1      33.104  35.509  28.776  1.00  0.00     0.124 S 
ATOM     59  O   UNL A   1      33.855  36.505  28.019  1.00  0.00    -0.237 OA
ATOM     60  O   UNL A   1      32.431  34.481  27.988  1.00  0.00    -0.237 OA
ATOM     61  O   UNL A   1      32.336  36.021  29.907  1.00  0.00    -0.744 OA
ENDBRANCH  57  58
ENDBRANCH  25  50
BRANCH  37  62
ATOM     62  C   UNL A   1      39.750  34.209  36.930  1.00  0.00     0.058 A 
ATOM     63  C   UNL A   1      38.938  33.990  38.055  1.00  0.00     0.135 A 
ATOM     64  C   UNL A   1      40.435  35.430  36.840  1.00  0.00     0.135 A 
ATOM     65  F   UNL A   1      38.258  32.840  38.183  1.00  0.00    -0.206 F 
ATOM     66  C   UNL A   1      38.787  34.961  39.040  1.00  0.00     0.059 A 
ATOM     67  C   UNL A   1      40.316  36.406  37.824  1.00  0.00     0.059 A 
ATOM     68  F   UNL A   1      41.230  35.684  35.789  1.00  0.00    -0.206 F 
ATOM     69  C   UNL A   1      39.477  36.168  38.913  1.00  0.00     0.060 A 
BRANCH  69  70
ATOM     70  S   UNL A   1      39.286  37.419  40.201  1.00  0.00     0.124 S 
ATOM     71  O   UNL A   1      38.814  36.614  41.322  1.00  0.00    -0.237 OA
ATOM     72  O   UNL A   1      40.639  37.951  40.327  1.00  0.00    -0.237 OA
ATOM     73  O   UNL A   1      38.307  38.342  39.633  1.00  0.00    -0.744 OA
ENDBRANCH  69  70
ENDBRANCH  37  62
ENDBRANCH  11  12
ENDBRANCH   4   6
ENDBRANCH   1   2
BRANCH   1  74
ATOM     74  C   UNL A   1      39.044  22.601  26.390  1.00  0.00     0.042 C 
BRANCH  74  75
ATOM     75  C   UNL A   1      37.934  23.616  26.144  1.00  0.00     0.117 C 
BRANCH  75  76
ATOM     76  N   UNL A   1      37.362  23.518  24.813  1.00  0.00    -0.356 N 
ATOM     77  C   UNL A   1      36.525  22.591  24.255  1.00  0.00     0.224 C 
ATOM     78  H   UNL A   1      37.621  24.247  24.204  1.00  0.00     0.163 HD
ATOM     79  O   UNL A   1      36.290  22.659  23.050  1.00  0.00    -0.275 OA
BRANCH  77  80
ATOM     80  C   UNL A   1      35.987  21.459  25.042  1.00  0.00     0.095 C 
ATOM     81  C   UNL A   1      35.183  21.593  26.297  1.00  0.00     0.032 C 
ATOM     82  C   UNL A   1      34.479  21.119  25.027  1.00  0.00     0.033 C 
BRANCH  82  83
ATOM     83  C   UNL A   1      33.399  22.113  24.543  1.00  0.00    -0.037 A 
ATOM     84  C   UNL A   1      32.764  22.971  25.465  1.00  0.00     0.004 A 
ATOM     85  C   UNL A   1      32.913  22.127  23.224  1.00  0.00     0.004 A 
ATOM     86  C   UNL A   1      31.694  23.787  25.095  1.00  0.00     0.000 A 
ATOM     87  C   UNL A   1      31.840  22.941  22.848  1.00  0.00     0.000 A 
ATOM     88  C   UNL A   1      31.227  23.766  23.785  1.00  0.00     0.000 A 
ENDBRANCH  82  83
BRANCH  82  89
ATOM     89  C   UNL A   1      34.082  19.618  24.877  1.00  0.00    -0.037 A 
ATOM     90  C   UNL A   1      35.012  18.669  24.395  1.00  0.00     0.004 A 
ATOM     91  C   UNL A   1      32.796  19.118  25.163  1.00  0.00     0.004 A 
ATOM     92  C   UNL A   1      34.676  17.333  24.161  1.00  0.00     0.000 A 
ATOM     93  C   UNL A   1      32.453  17.777  24.941  1.00  0.00     0.000 A 
ATOM     94  C   UNL A   1      33.389  16.887  24.428  1.00  0.00     0.000 A 
ENDBRANCH  82  89
ENDBRANCH  77  80
ENDBRANCH  75  76
ENDBRANCH  74  75
ENDBRANCH   1  74
TORSDOF 15
ENDMDL
