MODEL 1
REMARK VINA RESULT:     -11.0      0.000      0.000
REMARK SMILES C[C@H](COc1ccccc1C(=O)NCCCNC(=O)c1ccc(-c2c3nc(c(-c4c(F)cc(S(=O)(=O)[O-])cc4F)c4ccc([nH]4)c(-c4c(F)cc(S(=O)(=O)[O-])cc4F)c4nc(c(-c5c(F)cc(S(=O)(=O)[O-])cc5F)c5ccc2[nH]5)C=C4)C=C3)cc1)C(N)=O
REMARK SMILES IDX 14 1 13 2 11 3 12 4 10 6 5 7 6 8 7 9 9 10 8 11 4 12 3 13
REMARK SMILES IDX 2 14 1 15 86 16 87 17 88 18 15 21 16 22 17 23 18 24 19 26
REMARK SMILES IDX 20 27 21 28 85 29 22 30 84 31 23 32 24 33 25 34 78 35 26 36
REMARK SMILES IDX 83 37 77 38 79 39 27 40 82 41 76 42 75 43 28 45 62 46 41 47
REMARK SMILES IDX 61 48 42 49 45 50 60 51 80 52 43 53 44 54 59 56 81 57 46 58
REMARK SMILES IDX 29 59 30 60 39 61 31 62 32 63 38 64 40 65 33 66 34 67 35 68
REMARK SMILES IDX 36 69 37 70 63 71 64 72 73 73 65 74 66 75 72 76 74 77 67 78
REMARK SMILES IDX 68 79 69 80 70 81 71 82 47 83 48 84 57 85 49 86 50 87 56 88
REMARK SMILES IDX 58 89 51 90 52 91 53 92 54 93 55 94
REMARK H PARENT 13 5 87 19 87 20 17 25 79 44 45 55
REMARK Flexibility Score: inf
ROOT
ATOM      1  C   UNL A   1      40.301  21.460  26.829  1.00  0.00     0.118 C 
ENDROOT
BRANCH   1   2
ATOM      2  N   UNL A   1      41.092  20.624  25.874  1.00  0.00    -0.352 N 
ATOM      3  C   UNL A   1      42.286  19.901  25.870  1.00  0.00     0.255 C 
ATOM      4  O   UNL A   1      42.017  18.681  25.845  1.00  0.00    -0.269 OA
ATOM      5  H   UNL A   1      40.643  20.568  25.000  1.00  0.00     0.163 HD
BRANCH   3   6
ATOM      6  C   UNL A   1      43.756  20.268  25.437  1.00  0.00     0.081 A 
ATOM      7  C   UNL A   1      44.636  21.399  25.404  1.00  0.00     0.132 A 
ATOM      8  C   UNL A   1      46.001  21.250  25.011  1.00  0.00     0.047 A 
ATOM      9  C   UNL A   1      46.566  20.030  24.678  1.00  0.00     0.004 A 
ATOM     10  C   UNL A   1      44.415  19.043  25.094  1.00  0.00     0.018 A 
ATOM     11  C   UNL A   1      45.766  18.915  24.730  1.00  0.00     0.001 A 
BRANCH   7  12
ATOM     12  O   UNL A   1      44.429  22.749  25.476  1.00  0.00    -0.492 OA
BRANCH  12  13
ATOM     13  C   UNL A   1      45.423  23.715  25.099  1.00  0.00     0.242 C 
BRANCH  13  14
ATOM     14  C   UNL A   1      45.418  24.796  26.161  1.00  0.00     0.113 C 
ATOM     15  C   UNL A   1      46.328  24.172  27.256  1.00  0.00     0.022 C 
BRANCH  14  16
ATOM     16  C   UNL A   1      45.673  26.094  25.341  1.00  0.00     0.223 C 
ATOM     17  N   UNL A   1      44.663  26.828  24.821  1.00  0.00    -0.369 N 
ATOM     18  O   UNL A   1      46.800  26.476  25.013  1.00  0.00    -0.275 OA
ATOM     19  H   UNL A   1      43.730  26.598  25.028  1.00  0.00     0.159 HD
ATOM     20  H   UNL A   1      44.864  27.594  24.235  1.00  0.00     0.159 HD
ENDBRANCH  14  16
ENDBRANCH  13  14
ENDBRANCH  12  13
ENDBRANCH   7  12
ENDBRANCH   3   6
ENDBRANCH   1   2
BRANCH   1  21
ATOM     21  C   UNL A   1      41.116  21.882  28.046  1.00  0.00     0.042 C 
BRANCH  21  22
ATOM     22  C   UNL A   1      41.838  23.219  27.891  1.00  0.00     0.118 C 
BRANCH  22  23
ATOM     23  N   UNL A   1      41.967  23.775  26.543  1.00  0.00    -0.352 N 
ATOM     24  C   UNL A   1      41.799  25.084  26.126  1.00  0.00     0.251 C 
ATOM     25  H   UNL A   1      42.204  23.130  25.839  1.00  0.00     0.163 HD
ATOM     26  O   UNL A   1      41.980  25.372  24.938  1.00  0.00    -0.269 OA
BRANCH  24  27
ATOM     27  C   UNL A   1      41.354  26.123  27.084  1.00  0.00     0.039 A 
ATOM     28  C   UNL A   1      40.371  25.826  28.035  1.00  0.00     0.014 A 
ATOM     29  C   UNL A   1      41.974  27.369  27.101  1.00  0.00     0.014 A 
ATOM     30  C   UNL A   1      40.109  26.736  29.067  1.00  0.00     0.010 A 
ATOM     31  C   UNL A   1      41.832  28.190  28.206  1.00  0.00     0.010 A 
ATOM     32  C   UNL A   1      40.883  27.899  29.196  1.00  0.00    -0.014 A 
BRANCH  32  33
ATOM     33  C   UNL A   1      40.719  28.860  30.320  1.00  0.00     0.031 A 
ATOM     34  C   UNL A   1      41.577  28.708  31.552  1.00  0.00     0.074 A 
ATOM     35  C   UNL A   1      39.729  29.776  30.292  1.00  0.00     0.049 A 
ATOM     36  N   UNL A   1      41.488  29.314  32.707  1.00  0.00    -0.248 NA
ATOM     37  C   UNL A   1      42.631  27.680  31.501  1.00  0.00     0.031 C 
ATOM     38  C   UNL A   1      38.770  29.959  29.199  1.00  0.00     0.029 A 
ATOM     39  N   UNL A   1      39.354  30.715  31.218  1.00  0.00    -0.354 N 
ATOM     40  C   UNL A   1      42.436  28.707  33.523  1.00  0.00     0.074 A 
ATOM     41  C   UNL A   1      43.017  27.625  32.765  1.00  0.00     0.031 C 
ATOM     42  C   UNL A   1      37.941  30.970  29.503  1.00  0.00     0.029 A 
ATOM     43  C   UNL A   1      38.280  31.481  30.827  1.00  0.00     0.049 A 
ATOM     44  H   UNL A   1      39.809  30.830  32.084  1.00  0.00     0.167 HD
ATOM     45  C   UNL A   1      42.824  29.046  34.776  1.00  0.00     0.037 A 
ATOM     46  C   UNL A   1      37.644  32.484  31.463  1.00  0.00     0.037 A 
ATOM     47  C   UNL A   1      42.285  30.171  35.490  1.00  0.00     0.049 A 
ATOM     48  C   UNL A   1      38.137  32.904  32.821  1.00  0.00     0.074 A 
ATOM     49  C   UNL A   1      42.660  30.674  36.722  1.00  0.00     0.029 A 
ATOM     50  N   UNL A   1      41.257  30.978  35.022  1.00  0.00    -0.354 N 
ATOM     51  N   UNL A   1      39.089  32.372  33.550  1.00  0.00    -0.248 NA
ATOM     52  C   UNL A   1      37.484  34.067  33.436  1.00  0.00     0.031 C 
ATOM     53  C   UNL A   1      41.835  31.765  37.014  1.00  0.00     0.029 A 
ATOM     54  C   UNL A   1      40.975  31.971  35.944  1.00  0.00     0.049 A 
ATOM     55  H   UNL A   1      40.795  30.862  34.160  1.00  0.00     0.167 HD
ATOM     56  C   UNL A   1      39.164  33.144  34.704  1.00  0.00     0.074 A 
ATOM     57  C   UNL A   1      38.169  34.189  34.566  1.00  0.00     0.031 C 
ATOM     58  C   UNL A   1      39.979  33.000  35.779  1.00  0.00     0.037 A 
BRANCH  45  59
ATOM     59  C   UNL A   1      43.890  28.198  35.423  1.00  0.00     0.058 A 
ATOM     60  C   UNL A   1      45.255  28.521  35.324  1.00  0.00     0.135 A 
ATOM     61  C   UNL A   1      43.549  27.025  36.116  1.00  0.00     0.135 A 
ATOM     62  F   UNL A   1      45.643  29.623  34.662  1.00  0.00    -0.206 F 
ATOM     63  C   UNL A   1      46.243  27.679  35.824  1.00  0.00     0.059 A 
ATOM     64  C   UNL A   1      44.521  26.188  36.659  1.00  0.00     0.059 A 
ATOM     65  F   UNL A   1      42.263  26.667  36.251  1.00  0.00    -0.206 F 
ATOM     66  C   UNL A   1      45.866  26.509  36.481  1.00  0.00     0.060 A 
BRANCH  66  67
ATOM     67  S   UNL A   1      47.160  25.402  37.080  1.00  0.00     0.124 S 
ATOM     68  O   UNL A   1      47.474  24.644  35.872  1.00  0.00    -0.237 OA
ATOM     69  O   UNL A   1      48.190  26.335  37.526  1.00  0.00    -0.237 OA
ATOM     70  O   UNL A   1      46.498  24.648  38.140  1.00  0.00    -0.744 OA
ENDBRANCH  66  67
ENDBRANCH  45  59
BRANCH  46  71
ATOM     71  C   UNL A   1      36.516  33.182  30.789  1.00  0.00     0.058 A 
ATOM     72  C   UNL A   1      35.197  33.025  31.243  1.00  0.00     0.135 A 
ATOM     73  C   UNL A   1      36.738  34.077  29.730  1.00  0.00     0.135 A 
ATOM     74  F   UNL A   1      34.932  32.178  32.249  1.00  0.00    -0.206 F 
ATOM     75  C   UNL A   1      34.140  33.733  30.677  1.00  0.00     0.059 A 
ATOM     76  C   UNL A   1      35.700  34.813  29.162  1.00  0.00     0.059 A 
ATOM     77  F   UNL A   1      37.982  34.278  29.271  1.00  0.00    -0.206 F 
ATOM     78  C   UNL A   1      34.403  34.634  29.644  1.00  0.00     0.060 A 
BRANCH  78  79
ATOM     79  S   UNL A   1      33.039  35.620  28.988  1.00  0.00     0.124 S 
ATOM     80  O   UNL A   1      32.423  34.686  28.052  1.00  0.00    -0.237 OA
ATOM     81  O   UNL A   1      32.270  35.917  30.193  1.00  0.00    -0.237 OA
ATOM     82  O   UNL A   1      33.713  36.767  28.385  1.00  0.00    -0.744 OA
ENDBRANCH  78  79
ENDBRANCH  46  71
BRANCH  58  83
ATOM     83  C   UNL A   1      39.846  34.011  36.883  1.00  0.00     0.058 A 
ATOM     84  C   UNL A   1      40.537  35.231  36.850  1.00  0.00     0.135 A 
ATOM     85  C   UNL A   1      38.963  33.782  37.950  1.00  0.00     0.135 A 
ATOM     86  F   UNL A   1      41.396  35.495  35.852  1.00  0.00    -0.206 F 
ATOM     87  C   UNL A   1      40.372  36.184  37.848  1.00  0.00     0.059 A 
ATOM     88  C   UNL A   1      38.761  34.733  38.945  1.00  0.00     0.059 A 
ATOM     89  F   UNL A   1      38.268  32.635  38.020  1.00  0.00    -0.206 F 
ATOM     90  C   UNL A   1      39.478  35.926  38.889  1.00  0.00     0.060 A 
BRANCH  90  91
ATOM     91  S   UNL A   1      39.243  37.189  40.158  1.00  0.00     0.124 S 
ATOM     92  O   UNL A   1      38.489  36.453  41.167  1.00  0.00    -0.237 OA
ATOM     93  O   UNL A   1      40.615  37.533  40.515  1.00  0.00    -0.237 OA
ATOM     94  O   UNL A   1      38.502  38.236  39.460  1.00  0.00    -0.744 OA
ENDBRANCH  90  91
ENDBRANCH  58  83
ENDBRANCH  32  33
ENDBRANCH  24  27
ENDBRANCH  22  23
ENDBRANCH  21  22
ENDBRANCH   1  21
TORSDOF 17
ENDMDL
MODEL 2
REMARK VINA RESULT:     -10.8      3.158      5.326
REMARK SMILES C[C@H](COc1ccccc1C(=O)NCCCNC(=O)c1ccc(-c2c3nc(c(-c4c(F)cc(S(=O)(=O)[O-])cc4F)c4ccc([nH]4)c(-c4c(F)cc(S(=O)(=O)[O-])cc4F)c4nc(c(-c5c(F)cc(S(=O)(=O)[O-])cc5F)c5ccc2[nH]5)C=C4)C=C3)cc1)C(N)=O
REMARK SMILES IDX 14 1 13 2 11 3 12 4 10 6 5 7 6 8 7 9 9 10 8 11 4 12 3 13
REMARK SMILES IDX 2 14 1 15 86 16 87 17 88 18 15 21 16 22 17 23 18 24 19 26
REMARK SMILES IDX 20 27 21 28 85 29 22 30 84 31 23 32 24 33 25 34 78 35 26 36
REMARK SMILES IDX 83 37 77 38 79 39 27 40 82 41 76 42 75 43 28 45 62 46 41 47
REMARK SMILES IDX 61 48 42 49 45 50 60 51 80 52 43 53 44 54 59 56 81 57 46 58
REMARK SMILES IDX 29 59 30 60 39 61 31 62 32 63 38 64 40 65 33 66 34 67 35 68
REMARK SMILES IDX 36 69 37 70 63 71 64 72 73 73 65 74 66 75 72 76 74 77 67 78
REMARK SMILES IDX 68 79 69 80 70 81 71 82 47 83 48 84 57 85 49 86 50 87 56 88
REMARK SMILES IDX 58 89 51 90 52 91 53 92 54 93 55 94
REMARK H PARENT 13 5 87 19 87 20 17 25 79 44 45 55
REMARK Flexibility Score: inf
ROOT
ATOM      1  C   UNL A   1      38.896  22.702  26.086  1.00  0.00     0.118 C 
ENDROOT
BRANCH   1   2
ATOM      2  N   UNL A   1      37.671  21.846  26.055  1.00  0.00    -0.352 N 
ATOM      3  C   UNL A   1      36.772  21.352  25.108  1.00  0.00     0.255 C 
ATOM      4  O   UNL A   1      36.956  20.123  24.982  1.00  0.00    -0.269 OA
ATOM      5  H   UNL A   1      37.428  21.546  26.961  1.00  0.00     0.163 HD
BRANCH   3   6
ATOM      6  C   UNL A   1      35.384  21.876  24.576  1.00  0.00     0.081 A 
ATOM      7  C   UNL A   1      34.050  21.402  24.352  1.00  0.00     0.132 A 
ATOM      8  C   UNL A   1      33.017  22.298  23.937  1.00  0.00     0.047 A 
ATOM      9  C   UNL A   1      33.218  23.657  23.760  1.00  0.00     0.004 A 
ATOM     10  C   UNL A   1      35.509  23.290  24.386  1.00  0.00     0.018 A 
ATOM     11  C   UNL A   1      34.475  24.158  23.997  1.00  0.00     0.001 A 
BRANCH   7  12
ATOM     12  O   UNL A   1      33.506  20.152  24.240  1.00  0.00    -0.492 OA
BRANCH  12  13
ATOM     13  C   UNL A   1      34.263  18.948  24.440  1.00  0.00     0.242 C 
BRANCH  13  14
ATOM     14  C   UNL A   1      33.326  17.784  24.182  1.00  0.00     0.113 C 
ATOM     15  C   UNL A   1      34.151  16.925  23.183  1.00  0.00     0.022 C 
BRANCH  14  16
ATOM     16  C   UNL A   1      32.855  17.389  25.611  1.00  0.00     0.223 C 
ATOM     17  N   UNL A   1      32.668  18.305  26.588  1.00  0.00    -0.369 N 
ATOM     18  O   UNL A   1      32.732  16.218  25.982  1.00  0.00    -0.275 OA
ATOM     19  H   UNL A   1      32.746  19.264  26.385  1.00  0.00     0.159 HD
ATOM     20  H   UNL A   1      32.454  18.011  27.504  1.00  0.00     0.159 HD
ENDBRANCH  14  16
ENDBRANCH  13  14
ENDBRANCH  12  13
ENDBRANCH   7  12
ENDBRANCH   3   6
ENDBRANCH   1   2
BRANCH   1  21
ATOM     21  C   UNL A   1      39.963  22.157  27.027  1.00  0.00     0.042 C 
BRANCH  21  22
ATOM     22  C   UNL A   1      41.265  22.956  27.039  1.00  0.00     0.118 C 
BRANCH  22  23
ATOM     23  N   UNL A   1      41.518  23.868  25.922  1.00  0.00    -0.352 N 
ATOM     24  C   UNL A   1      41.769  25.229  25.954  1.00  0.00     0.251 C 
ATOM     25  H   UNL A   1      41.507  23.458  25.028  1.00  0.00     0.163 HD
ATOM     26  O   UNL A   1      41.991  25.832  24.899  1.00  0.00    -0.269 OA
BRANCH  24  27
ATOM     27  C   UNL A   1      41.720  25.968  27.237  1.00  0.00     0.039 A 
ATOM     28  C   UNL A   1      42.822  26.723  27.656  1.00  0.00     0.014 A 
ATOM     29  C   UNL A   1      40.548  25.989  27.987  1.00  0.00     0.014 A 
ATOM     30  C   UNL A   1      42.695  27.584  28.753  1.00  0.00     0.010 A 
ATOM     31  C   UNL A   1      40.375  26.955  28.963  1.00  0.00     0.010 A 
ATOM     32  C   UNL A   1      41.449  27.754  29.377  1.00  0.00    -0.014 A 
BRANCH  32  33
ATOM     33  C   UNL A   1      41.225  28.720  30.485  1.00  0.00     0.031 A 
ATOM     34  C   UNL A   1      42.068  28.621  31.733  1.00  0.00     0.074 A 
ATOM     35  C   UNL A   1      40.196  29.591  30.430  1.00  0.00     0.049 A 
ATOM     36  N   UNL A   1      41.934  29.236  32.879  1.00  0.00    -0.248 NA
ATOM     37  C   UNL A   1      43.167  27.639  31.711  1.00  0.00     0.031 C 
ATOM     38  C   UNL A   1      39.248  29.718  29.320  1.00  0.00     0.029 A 
ATOM     39  N   UNL A   1      39.765  30.523  31.339  1.00  0.00    -0.354 N 
ATOM     40  C   UNL A   1      42.895  28.681  33.717  1.00  0.00     0.074 A 
ATOM     41  C   UNL A   1      43.535  27.617  32.981  1.00  0.00     0.031 C 
ATOM     42  C   UNL A   1      38.370  30.694  29.598  1.00  0.00     0.029 A 
ATOM     43  C   UNL A   1      38.665  31.237  30.921  1.00  0.00     0.049 A 
ATOM     44  H   UNL A   1      40.200  30.669  32.210  1.00  0.00     0.167 HD
ATOM     45  C   UNL A   1      43.247  29.052  34.971  1.00  0.00     0.037 A 
ATOM     46  C   UNL A   1      37.975  32.218  31.535  1.00  0.00     0.037 A 
ATOM     47  C   UNL A   1      42.647  30.161  35.662  1.00  0.00     0.049 A 
ATOM     48  C   UNL A   1      38.427  32.675  32.894  1.00  0.00     0.074 A 
ATOM     49  C   UNL A   1      42.980  30.694  36.893  1.00  0.00     0.029 A 
ATOM     50  N   UNL A   1      41.593  30.916  35.168  1.00  0.00    -0.354 N 
ATOM     51  N   UNL A   1      39.390  32.195  33.645  1.00  0.00    -0.248 NA
ATOM     52  C   UNL A   1      37.714  33.815  33.484  1.00  0.00     0.031 C 
ATOM     53  C   UNL A   1      42.103  31.751  37.159  1.00  0.00     0.029 A 
ATOM     54  C   UNL A   1      41.253  31.906  36.073  1.00  0.00     0.049 A 
ATOM     55  H   UNL A   1      41.150  30.769  34.301  1.00  0.00     0.167 HD
ATOM     56  C   UNL A   1      39.412  32.982  34.790  1.00  0.00     0.074 A 
ATOM     57  C   UNL A   1      38.374  33.981  34.623  1.00  0.00     0.031 C 
ATOM     58  C   UNL A   1      40.215  32.888  35.880  1.00  0.00     0.037 A 
BRANCH  45  59
ATOM     59  C   UNL A   1      44.338  28.260  35.645  1.00  0.00     0.058 A 
ATOM     60  C   UNL A   1      44.050  27.204  36.528  1.00  0.00     0.135 A 
ATOM     61  C   UNL A   1      45.689  28.583  35.440  1.00  0.00     0.135 A 
ATOM     62  F   UNL A   1      42.776  26.857  36.775  1.00  0.00    -0.206 F 
ATOM     63  C   UNL A   1      45.052  26.548  37.236  1.00  0.00     0.059 A 
ATOM     64  C   UNL A   1      46.711  27.913  36.109  1.00  0.00     0.059 A 
ATOM     65  F   UNL A   1      46.030  29.575  34.603  1.00  0.00    -0.206 F 
ATOM     66  C   UNL A   1      46.380  26.917  37.027  1.00  0.00     0.060 A 
BRANCH  66  67
ATOM     67  S   UNL A   1      47.665  26.092  37.989  1.00  0.00     0.124 S 
ATOM     68  O   UNL A   1      48.869  26.495  37.269  1.00  0.00    -0.237 OA
ATOM     69  O   UNL A   1      47.494  26.681  39.313  1.00  0.00    -0.237 OA
ATOM     70  O   UNL A   1      47.313  24.679  37.883  1.00  0.00    -0.744 OA
ENDBRANCH  66  67
ENDBRANCH  45  59
BRANCH  46  71
ATOM     71  C   UNL A   1      36.828  32.857  30.834  1.00  0.00     0.058 A 
ATOM     72  C   UNL A   1      35.506  32.558  31.195  1.00  0.00     0.135 A 
ATOM     73  C   UNL A   1      37.028  33.833  29.845  1.00  0.00     0.135 A 
ATOM     74  F   UNL A   1      35.261  31.628  32.131  1.00  0.00    -0.206 F 
ATOM     75  C   UNL A   1      34.423  33.206  30.608  1.00  0.00     0.059 A 
ATOM     76  C   UNL A   1      35.961  34.511  29.258  1.00  0.00     0.059 A 
ATOM     77  F   UNL A   1      38.273  34.170  29.476  1.00  0.00    -0.206 F 
ATOM     78  C   UNL A   1      34.661  34.190  29.648  1.00  0.00     0.060 A 
BRANCH  78  79
ATOM     79  S   UNL A   1      33.252  35.095  28.967  1.00  0.00     0.124 S 
ATOM     80  O   UNL A   1      32.470  35.369  30.167  1.00  0.00    -0.237 OA
ATOM     81  O   UNL A   1      33.900  36.248  28.350  1.00  0.00    -0.237 OA
ATOM     82  O   UNL A   1      32.662  34.142  28.031  1.00  0.00    -0.744 OA
ENDBRANCH  78  79
ENDBRANCH  46  71
BRANCH  58  83
ATOM     83  C   UNL A   1      40.019  33.905  36.969  1.00  0.00     0.058 A 
ATOM     84  C   UNL A   1      40.743  35.106  36.990  1.00  0.00     0.135 A 
ATOM     85  C   UNL A   1      39.047  33.703  37.961  1.00  0.00     0.135 A 
ATOM     86  F   UNL A   1      41.687  35.345  36.065  1.00  0.00    -0.206 F 
ATOM     87  C   UNL A   1      40.523  36.066  37.971  1.00  0.00     0.059 A 
ATOM     88  C   UNL A   1      38.791  34.661  38.935  1.00  0.00     0.059 A 
ATOM     89  F   UNL A   1      38.319  32.575  37.975  1.00  0.00    -0.206 F 
ATOM     90  C   UNL A   1      39.542  35.835  38.937  1.00  0.00     0.060 A 
BRANCH  90  91
ATOM     91  S   UNL A   1      39.237  37.108  40.181  1.00  0.00     0.124 S 
ATOM     92  O   UNL A   1      40.595  37.539  40.496  1.00  0.00    -0.237 OA
ATOM     93  O   UNL A   1      38.419  38.070  39.450  1.00  0.00    -0.237 OA
ATOM     94  O   UNL A   1      38.544  36.385  41.243  1.00  0.00    -0.744 OA
ENDBRANCH  90  91
ENDBRANCH  58  83
ENDBRANCH  32  33
ENDBRANCH  24  27
ENDBRANCH  22  23
ENDBRANCH  21  22
ENDBRANCH   1  21
TORSDOF 17
ENDMDL
MODEL 3
REMARK VINA RESULT:     -10.6      6.693     13.610
REMARK SMILES C[C@H](COc1ccccc1C(=O)NCCCNC(=O)c1ccc(-c2c3nc(c(-c4c(F)cc(S(=O)(=O)[O-])cc4F)c4ccc([nH]4)c(-c4c(F)cc(S(=O)(=O)[O-])cc4F)c4nc(c(-c5c(F)cc(S(=O)(=O)[O-])cc5F)c5ccc2[nH]5)C=C4)C=C3)cc1)C(N)=O
REMARK SMILES IDX 14 1 13 2 11 3 12 4 10 6 5 7 6 8 7 9 9 10 8 11 4 12 3 13
REMARK SMILES IDX 2 14 1 15 86 16 87 17 88 18 15 21 16 22 17 23 18 24 19 26
REMARK SMILES IDX 20 27 21 28 85 29 22 30 84 31 23 32 24 33 25 34 78 35 26 36
REMARK SMILES IDX 83 37 77 38 79 39 27 40 82 41 76 42 75 43 28 45 62 46 41 47
REMARK SMILES IDX 61 48 42 49 45 50 60 51 80 52 43 53 44 54 59 56 81 57 46 58
REMARK SMILES IDX 29 59 30 60 39 61 31 62 32 63 38 64 40 65 33 66 34 67 35 68
REMARK SMILES IDX 36 69 37 70 63 71 64 72 73 73 65 74 66 75 72 76 74 77 67 78
REMARK SMILES IDX 68 79 69 80 70 81 71 82 47 83 48 84 57 85 49 86 50 87 56 88
REMARK SMILES IDX 58 89 51 90 52 91 53 92 54 93 55 94
REMARK H PARENT 13 5 87 19 87 20 17 25 79 44 45 55
REMARK Flexibility Score: inf
ROOT
ATOM      1  C   UNL A   1      33.378  30.580  27.445  1.00  0.00     0.118 C 
ENDROOT
BRANCH   1   2
ATOM      2  N   UNL A   1      32.144  29.787  27.154  1.00  0.00    -0.352 N 
ATOM      3  C   UNL A   1      31.814  28.501  26.723  1.00  0.00     0.255 C 
ATOM      4  O   UNL A   1      31.320  27.870  27.682  1.00  0.00    -0.269 OA
ATOM      5  H   UNL A   1      31.335  30.325  27.310  1.00  0.00     0.163 HD
BRANCH   3   6
ATOM      6  C   UNL A   1      31.510  27.895  25.300  1.00  0.00     0.081 A 
ATOM      7  C   UNL A   1      31.456  26.622  24.643  1.00  0.00     0.132 A 
ATOM      8  C   UNL A   1      31.003  26.518  23.292  1.00  0.00     0.047 A 
ATOM      9  C   UNL A   1      30.564  27.603  22.553  1.00  0.00     0.004 A 
ATOM     10  C   UNL A   1      31.028  28.965  24.478  1.00  0.00     0.018 A 
ATOM     11  C   UNL A   1      30.567  28.837  23.157  1.00  0.00     0.001 A 
BRANCH   7  12
ATOM     12  O   UNL A   1      31.958  25.387  24.949  1.00  0.00    -0.492 OA
BRANCH  12  13
ATOM     13  C   UNL A   1      31.404  24.167  24.432  1.00  0.00     0.242 C 
BRANCH  13  14
ATOM     14  C   UNL A   1      31.804  23.058  25.385  1.00  0.00     0.113 C 
ATOM     15  C   UNL A   1      33.336  23.283  25.514  1.00  0.00     0.022 C 
BRANCH  14  16
ATOM     16  C   UNL A   1      30.732  23.157  26.508  1.00  0.00     0.223 C 
ATOM     17  N   UNL A   1      29.691  22.297  26.590  1.00  0.00    -0.369 N 
ATOM     18  O   UNL A   1      30.691  24.084  27.322  1.00  0.00    -0.275 OA
ATOM     19  H   UNL A   1      29.639  21.528  25.980  1.00  0.00     0.159 HD
ATOM     20  H   UNL A   1      28.985  22.443  27.261  1.00  0.00     0.159 HD
ENDBRANCH  14  16
ENDBRANCH  13  14
ENDBRANCH  12  13
ENDBRANCH   7  12
ENDBRANCH   3   6
ENDBRANCH   1   2
BRANCH   1  21
ATOM     21  C   UNL A   1      34.646  29.875  26.980  1.00  0.00     0.042 C 
BRANCH  21  22
ATOM     22  C   UNL A   1      35.597  29.475  28.107  1.00  0.00     0.118 C 
BRANCH  22  23
ATOM     23  N   UNL A   1      35.376  30.063  29.429  1.00  0.00    -0.352 N 
ATOM     24  C   UNL A   1      36.312  30.499  30.351  1.00  0.00     0.251 C 
ATOM     25  H   UNL A   1      34.434  30.159  29.699  1.00  0.00     0.163 HD
ATOM     26  O   UNL A   1      35.930  31.000  31.415  1.00  0.00    -0.269 OA
BRANCH  24  27
ATOM     27  C   UNL A   1      37.758  30.320  30.090  1.00  0.00     0.039 A 
ATOM     28  C   UNL A   1      38.584  29.753  31.067  1.00  0.00     0.014 A 
ATOM     29  C   UNL A   1      38.286  30.632  28.840  1.00  0.00     0.014 A 
ATOM     30  C   UNL A   1      39.897  29.391  30.739  1.00  0.00     0.010 A 
ATOM     31  C   UNL A   1      39.522  30.128  28.472  1.00  0.00     0.010 A 
ATOM     32  C   UNL A   1      40.356  29.519  29.419  1.00  0.00    -0.014 A 
BRANCH  32  33
ATOM     33  C   UNL A   1      41.706  29.069  28.985  1.00  0.00     0.031 A 
ATOM     34  C   UNL A   1      42.826  30.076  28.896  1.00  0.00     0.074 A 
ATOM     35  C   UNL A   1      41.895  27.805  28.554  1.00  0.00     0.049 A 
ATOM     36  N   UNL A   1      44.022  29.947  28.383  1.00  0.00    -0.248 NA
ATOM     37  C   UNL A   1      42.533  31.436  29.382  1.00  0.00     0.031 C 
ATOM     38  C   UNL A   1      40.866  26.762  28.499  1.00  0.00     0.029 A 
ATOM     39  N   UNL A   1      43.016  27.186  28.063  1.00  0.00    -0.354 N 
ATOM     40  C   UNL A   1      44.595  31.212  28.444  1.00  0.00     0.074 A 
ATOM     41  C   UNL A   1      43.585  32.111  28.950  1.00  0.00     0.031 C 
ATOM     42  C   UNL A   1      41.412  25.627  28.035  1.00  0.00     0.029 A 
ATOM     43  C   UNL A   1      42.817  25.868  27.722  1.00  0.00     0.049 A 
ATOM     44  H   UNL A   1      43.883  27.642  27.961  1.00  0.00     0.167 HD
ATOM     45  C   UNL A   1      45.863  31.588  28.150  1.00  0.00     0.037 A 
ATOM     46  C   UNL A   1      43.672  24.957  27.216  1.00  0.00     0.037 A 
ATOM     47  C   UNL A   1      46.876  30.666  27.715  1.00  0.00     0.049 A 
ATOM     48  C   UNL A   1      45.098  25.367  26.970  1.00  0.00     0.074 A 
ATOM     49  C   UNL A   1      48.217  30.905  27.478  1.00  0.00     0.029 A 
ATOM     50  N   UNL A   1      46.657  29.318  27.465  1.00  0.00    -0.354 N 
ATOM     51  N   UNL A   1      45.649  26.549  27.107  1.00  0.00    -0.248 NA
ATOM     52  C   UNL A   1      46.023  24.319  26.517  1.00  0.00     0.031 C 
ATOM     53  C   UNL A   1      48.801  29.707  27.050  1.00  0.00     0.029 A 
ATOM     54  C   UNL A   1      47.835  28.712  27.065  1.00  0.00     0.049 A 
ATOM     55  H   UNL A   1      45.790  28.860  27.558  1.00  0.00     0.167 HD
ATOM     56  C   UNL A   1      46.989  26.389  26.774  1.00  0.00     0.074 A 
ATOM     57  C   UNL A   1      47.167  24.988  26.444  1.00  0.00     0.031 C 
ATOM     58  C   UNL A   1      47.982  27.313  26.743  1.00  0.00     0.037 A 
BRANCH  45  59
ATOM     59  C   UNL A   1      46.207  33.046  28.314  1.00  0.00     0.058 A 
ATOM     60  C   UNL A   1      46.076  33.963  27.255  1.00  0.00     0.135 A 
ATOM     61  C   UNL A   1      46.713  33.530  29.532  1.00  0.00     0.135 A 
ATOM     62  F   UNL A   1      45.610  33.556  26.063  1.00  0.00    -0.206 F 
ATOM     63  C   UNL A   1      46.499  35.282  27.374  1.00  0.00     0.059 A 
ATOM     64  C   UNL A   1      47.106  34.858  29.684  1.00  0.00     0.059 A 
ATOM     65  F   UNL A   1      46.854  32.707  30.582  1.00  0.00    -0.206 F 
ATOM     66  C   UNL A   1      47.024  35.718  28.590  1.00  0.00     0.060 A 
BRANCH  66  67
ATOM     67  S   UNL A   1      47.615  37.419  28.714  1.00  0.00     0.124 S 
ATOM     68  O   UNL A   1      47.666  37.603  30.161  1.00  0.00    -0.237 OA
ATOM     69  O   UNL A   1      48.907  37.352  28.040  1.00  0.00    -0.237 OA
ATOM     70  O   UNL A   1      46.587  38.187  28.018  1.00  0.00    -0.744 OA
ENDBRANCH  66  67
ENDBRANCH  45  59
BRANCH  46  71
ATOM     71  C   UNL A   1      43.202  23.567  26.969  1.00  0.00     0.058 A 
ATOM     72  C   UNL A   1      42.966  23.108  25.665  1.00  0.00     0.135 A 
ATOM     73  C   UNL A   1      43.053  22.649  28.020  1.00  0.00     0.135 A 
ATOM     74  F   UNL A   1      43.090  23.948  24.626  1.00  0.00    -0.206 F 
ATOM     75  C   UNL A   1      42.606  21.788  25.409  1.00  0.00     0.059 A 
ATOM     76  C   UNL A   1      42.714  21.318  27.788  1.00  0.00     0.059 A 
ATOM     77  F   UNL A   1      43.285  23.032  29.285  1.00  0.00    -0.206 F 
ATOM     78  C   UNL A   1      42.493  20.896  26.477  1.00  0.00     0.060 A 
BRANCH  78  79
ATOM     79  S   UNL A   1      42.124  19.163  26.122  1.00  0.00     0.124 S 
ATOM     80  O   UNL A   1      42.452  18.526  27.393  1.00  0.00    -0.237 OA
ATOM     81  O   UNL A   1      40.706  19.217  25.782  1.00  0.00    -0.237 OA
ATOM     82  O   UNL A   1      43.016  18.850  25.009  1.00  0.00    -0.744 OA
ENDBRANCH  78  79
ENDBRANCH  46  71
BRANCH  58  83
ATOM     83  C   UNL A   1      49.355  26.838  26.360  1.00  0.00     0.058 A 
ATOM     84  C   UNL A   1      50.217  26.252  27.299  1.00  0.00     0.135 A 
ATOM     85  C   UNL A   1      49.781  26.907  25.025  1.00  0.00     0.135 A 
ATOM     86  F   UNL A   1      49.857  26.166  28.589  1.00  0.00    -0.206 F 
ATOM     87  C   UNL A   1      51.466  25.767  26.929  1.00  0.00     0.059 A 
ATOM     88  C   UNL A   1      51.015  26.403  24.628  1.00  0.00     0.059 A 
ATOM     89  F   UNL A   1      48.986  27.447  24.087  1.00  0.00    -0.206 F 
ATOM     90  C   UNL A   1      51.854  25.844  25.590  1.00  0.00     0.060 A 
BRANCH  90  91
ATOM     91  S   UNL A   1      53.462  25.174  25.116  1.00  0.00     0.124 S 
ATOM     92  O   UNL A   1      53.564  25.612  23.728  1.00  0.00    -0.237 OA
ATOM     93  O   UNL A   1      54.364  25.831  26.056  1.00  0.00    -0.237 OA
ATOM     94  O   UNL A   1      53.301  23.736  25.312  1.00  0.00    -0.744 OA
ENDBRANCH  90  91
ENDBRANCH  58  83
ENDBRANCH  32  33
ENDBRANCH  24  27
ENDBRANCH  22  23
ENDBRANCH  21  22
ENDBRANCH   1  21
TORSDOF 17
ENDMDL
