MODEL 1
REMARK VINA RESULT:     -10.8      0.000      0.000
REMARK SMILES O=C(NCCCNC(=O)c1ccc2nc(C3CCCCC3)[nH]c2c1)c1ccc(-c2c3nc(c(-c4c(F)cc(S(=O)(=O)[O-])cc4F)c4ccc([nH]4)c(-c4c(F)cc(S(=O)(=O)[O-])cc4F)c4nc(c(-c5c(F)cc(S(=O)(=O)[O-])cc5F)c5ccc2[nH]5)C=C4)C=C3)cc1
REMARK SMILES IDX 4 1 3 2 1 3 2 4 25 6 26 7 90 8 27 9 89 10 28 11 29 12 30 13
REMARK SMILES IDX 83 14 31 15 88 16 82 17 84 18 32 19 87 20 81 21 80 22 33 24
REMARK SMILES IDX 67 25 46 26 66 27 47 28 50 29 65 30 85 31 48 32 49 33 64 35
REMARK SMILES IDX 86 36 51 37 34 38 35 39 44 40 36 41 37 42 43 43 45 44 38 45
REMARK SMILES IDX 39 46 40 47 41 48 42 49 68 50 69 51 78 52 70 53 71 54 77 55
REMARK SMILES IDX 79 56 72 57 73 58 74 59 75 60 76 61 52 62 53 63 62 64 54 65
REMARK SMILES IDX 55 66 61 67 63 68 56 69 57 70 58 71 59 72 60 73 5 74 6 75
REMARK SMILES IDX 7 76 8 77 9 79 10 80 11 81 24 82 12 83 23 84 13 85 22 86
REMARK SMILES IDX 14 87 15 88 16 90 17 91 21 92 18 93 20 94 19 95
REMARK H PARENT 3 5 84 23 50 34 7 78 22 89
REMARK Flexibility Score: inf
ROOT
ATOM      1  C   UNL A   1      34.246  32.739  28.261  1.00  0.00     0.118 C 
ENDROOT
BRANCH   1   2
ATOM      2  N   UNL A   1      33.608  31.486  27.878  1.00  0.00    -0.352 N 
ATOM      3  O   UNL A   1      33.454  29.364  27.152  1.00  0.00    -0.269 OA
ATOM      4  C   UNL A   1      34.150  30.244  27.654  1.00  0.00     0.251 C 
ATOM      5  H   UNL A   1      32.632  31.538  27.762  1.00  0.00     0.163 HD
BRANCH   4   6
ATOM      6  C   UNL A   1      35.563  29.968  27.996  1.00  0.00     0.039 A 
ATOM      7  C   UNL A   1      36.565  30.090  27.034  1.00  0.00     0.014 A 
ATOM      8  C   UNL A   1      35.898  29.613  29.307  1.00  0.00     0.014 A 
ATOM      9  C   UNL A   1      37.862  29.693  27.329  1.00  0.00     0.010 A 
ATOM     10  C   UNL A   1      37.227  29.322  29.633  1.00  0.00     0.010 A 
ATOM     11  C   UNL A   1      38.217  29.331  28.639  1.00  0.00    -0.014 A 
BRANCH  11  12
ATOM     12  C   UNL A   1      39.645  29.056  28.943  1.00  0.00     0.031 A 
ATOM     13  C   UNL A   1      40.281  27.739  28.598  1.00  0.00     0.074 A 
ATOM     14  C   UNL A   1      40.377  30.042  29.500  1.00  0.00     0.049 A 
ATOM     15  N   UNL A   1      41.524  27.361  28.764  1.00  0.00    -0.248 NA
ATOM     16  C   UNL A   1      39.419  26.709  27.998  1.00  0.00     0.031 C 
ATOM     17  C   UNL A   1      39.858  31.355  29.896  1.00  0.00     0.029 A 
ATOM     18  N   UNL A   1      41.711  30.110  29.807  1.00  0.00    -0.354 N 
ATOM     19  C   UNL A   1      41.591  26.050  28.306  1.00  0.00     0.074 A 
ATOM     20  C   UNL A   1      40.257  25.687  27.877  1.00  0.00     0.031 C 
ATOM     21  C   UNL A   1      40.868  32.116  30.337  1.00  0.00     0.029 A 
ATOM     22  C   UNL A   1      42.093  31.326  30.323  1.00  0.00     0.049 A 
ATOM     23  H   UNL A   1      42.335  29.361  29.671  1.00  0.00     0.167 HD
ATOM     24  C   UNL A   1      42.670  25.232  28.243  1.00  0.00     0.037 A 
ATOM     25  C   UNL A   1      43.291  31.756  30.757  1.00  0.00     0.037 A 
ATOM     26  C   UNL A   1      43.998  25.611  28.659  1.00  0.00     0.049 A 
ATOM     27  C   UNL A   1      44.465  30.823  30.687  1.00  0.00     0.074 A 
ATOM     28  C   UNL A   1      45.162  24.864  28.608  1.00  0.00     0.029 A 
ATOM     29  N   UNL A   1      44.339  26.841  29.205  1.00  0.00    -0.354 N 
ATOM     30  N   UNL A   1      44.512  29.596  30.226  1.00  0.00    -0.248 NA
ATOM     31  C   UNL A   1      45.744  31.328  31.201  1.00  0.00     0.031 C 
ATOM     32  C   UNL A   1      46.198  25.626  29.159  1.00  0.00     0.029 A 
ATOM     33  C   UNL A   1      45.691  26.865  29.513  1.00  0.00     0.049 A 
ATOM     34  H   UNL A   1      43.713  27.586  29.352  1.00  0.00     0.167 HD
ATOM     35  C   UNL A   1      45.829  29.184  30.385  1.00  0.00     0.074 A 
ATOM     36  C   UNL A   1      46.549  30.303  30.961  1.00  0.00     0.031 C 
ATOM     37  C   UNL A   1      46.389  27.986  30.089  1.00  0.00     0.037 A 
BRANCH  24  38
ATOM     38  C   UNL A   1      42.468  23.837  27.714  1.00  0.00     0.058 A 
ATOM     39  C   UNL A   1      42.459  23.565  26.337  1.00  0.00     0.135 A 
ATOM     40  C   UNL A   1      42.351  22.751  28.596  1.00  0.00     0.135 A 
ATOM     41  F   UNL A   1      42.553  24.567  25.449  1.00  0.00    -0.206 F 
ATOM     42  C   UNL A   1      42.324  22.267  25.853  1.00  0.00     0.059 A 
ATOM     43  C   UNL A   1      42.239  21.442  28.135  1.00  0.00     0.059 A 
ATOM     44  F   UNL A   1      42.354  22.954  29.923  1.00  0.00    -0.206 F 
ATOM     45  C   UNL A   1      42.217  21.211  26.760  1.00  0.00     0.060 A 
BRANCH  45  46
ATOM     46  S   UNL A   1      42.065  19.531  26.115  1.00  0.00     0.124 S 
ATOM     47  O   UNL A   1      40.652  19.487  25.750  1.00  0.00    -0.237 OA
ATOM     48  O   UNL A   1      43.006  19.538  25.000  1.00  0.00    -0.237 OA
ATOM     49  O   UNL A   1      42.446  18.695  27.249  1.00  0.00    -0.744 OA
ENDBRANCH  45  46
ENDBRANCH  24  38
BRANCH  25  50
ATOM     50  C   UNL A   1      43.429  33.128  31.312  1.00  0.00     0.058 A 
ATOM     51  C   UNL A   1      43.234  33.382  32.678  1.00  0.00     0.135 A 
ATOM     52  C   UNL A   1      43.778  34.209  30.488  1.00  0.00     0.135 A 
ATOM     53  F   UNL A   1      42.897  32.381  33.505  1.00  0.00    -0.206 F 
ATOM     54  C   UNL A   1      43.361  34.663  33.204  1.00  0.00     0.059 A 
ATOM     55  C   UNL A   1      43.941  35.493  30.995  1.00  0.00     0.059 A 
ATOM     56  F   UNL A   1      43.996  34.014  29.178  1.00  0.00    -0.206 F 
ATOM     57  C   UNL A   1      43.716  35.713  32.354  1.00  0.00     0.060 A 
BRANCH  57  58
ATOM     58  S   UNL A   1      43.918  37.367  33.049  1.00  0.00     0.124 S 
ATOM     59  O   UNL A   1      45.245  37.271  33.645  1.00  0.00    -0.237 OA
ATOM     60  O   UNL A   1      43.808  38.215  31.866  1.00  0.00    -0.237 OA
ATOM     61  O   UNL A   1      42.807  37.471  33.990  1.00  0.00    -0.744 OA
ENDBRANCH  57  58
ENDBRANCH  25  50
BRANCH  37  62
ATOM     62  C   UNL A   1      47.858  27.836  30.370  1.00  0.00     0.058 A 
ATOM     63  C   UNL A   1      48.324  27.349  31.601  1.00  0.00     0.135 A 
ATOM     64  C   UNL A   1      48.807  28.164  29.389  1.00  0.00     0.135 A 
ATOM     65  F   UNL A   1      47.456  27.031  32.575  1.00  0.00    -0.206 F 
ATOM     66  C   UNL A   1      49.683  27.221  31.862  1.00  0.00     0.059 A 
ATOM     67  C   UNL A   1      50.171  28.019  29.619  1.00  0.00     0.059 A 
ATOM     68  F   UNL A   1      48.412  28.626  28.193  1.00  0.00    -0.206 F 
ATOM     69  C   UNL A   1      50.600  27.561  30.864  1.00  0.00     0.060 A 
BRANCH  69  70
ATOM     70  S   UNL A   1      52.363  27.377  31.208  1.00  0.00     0.124 S 
ATOM     71  O   UNL A   1      52.958  28.030  30.047  1.00  0.00    -0.237 OA
ATOM     72  O   UNL A   1      52.510  28.083  32.478  1.00  0.00    -0.237 OA
ATOM     73  O   UNL A   1      52.544  25.931  31.279  1.00  0.00    -0.744 OA
ENDBRANCH  69  70
ENDBRANCH  37  62
ENDBRANCH  11  12
ENDBRANCH   4   6
ENDBRANCH   1   2
BRANCH   1  74
ATOM     74  C   UNL A   1      33.257  33.887  28.396  1.00  0.00     0.042 C 
BRANCH  74  75
ATOM     75  C   UNL A   1      33.780  35.054  29.219  1.00  0.00     0.118 C 
BRANCH  75  76
ATOM     76  N   UNL A   1      32.895  35.389  30.327  1.00  0.00    -0.352 N 
ATOM     77  C   UNL A   1      33.005  35.080  31.658  1.00  0.00     0.251 C 
ATOM     78  H   UNL A   1      32.100  35.916  30.084  1.00  0.00     0.163 HD
ATOM     79  O   UNL A   1      32.060  35.268  32.417  1.00  0.00    -0.269 OA
BRANCH  77  80
ATOM     80  C   UNL A   1      34.261  34.506  32.184  1.00  0.00     0.042 A 
ATOM     81  C   UNL A   1      35.186  35.320  32.854  1.00  0.00     0.016 A 
ATOM     82  C   UNL A   1      34.469  33.128  32.032  1.00  0.00     0.042 A 
ATOM     83  C   UNL A   1      36.394  34.791  33.319  1.00  0.00     0.031 A 
ATOM     84  C   UNL A   1      35.676  32.630  32.526  1.00  0.00     0.066 A 
ATOM     85  C   UNL A   1      36.635  33.421  33.148  1.00  0.00     0.089 A 
ATOM     86  N   UNL A   1      36.211  31.369  32.555  1.00  0.00    -0.342 N 
ATOM     87  N   UNL A   1      37.718  32.673  33.526  1.00  0.00    -0.233 NA
ATOM     88  C   UNL A   1      37.441  31.436  33.167  1.00  0.00     0.110 A 
ATOM     89  H   UNL A   1      35.790  30.554  32.196  1.00  0.00     0.168 HD
BRANCH  88  90
ATOM     90  C   UNL A   1      38.300  30.238  33.427  1.00  0.00     0.055 C 
ATOM     91  C   UNL A   1      37.940  29.097  32.465  1.00  0.00     0.011 C 
ATOM     92  C   UNL A   1      39.796  30.571  33.367  1.00  0.00     0.011 C 
ATOM     93  C   UNL A   1      38.802  27.864  32.711  1.00  0.00     0.001 C 
ATOM     94  C   UNL A   1      40.652  29.329  33.610  1.00  0.00     0.001 C 
ATOM     95  C   UNL A   1      40.289  28.200  32.648  1.00  0.00     0.000 C 
ENDBRANCH  88  90
ENDBRANCH  77  80
ENDBRANCH  75  76
ENDBRANCH  74  75
ENDBRANCH   1  74
TORSDOF 14
ENDMDL
MODEL 2
REMARK VINA RESULT:     -10.7      4.775     11.516
REMARK SMILES O=C(NCCCNC(=O)c1ccc2nc(C3CCCCC3)[nH]c2c1)c1ccc(-c2c3nc(c(-c4c(F)cc(S(=O)(=O)[O-])cc4F)c4ccc([nH]4)c(-c4c(F)cc(S(=O)(=O)[O-])cc4F)c4nc(c(-c5c(F)cc(S(=O)(=O)[O-])cc5F)c5ccc2[nH]5)C=C4)C=C3)cc1
REMARK SMILES IDX 4 1 3 2 1 3 2 4 25 6 26 7 90 8 27 9 89 10 28 11 29 12 30 13
REMARK SMILES IDX 83 14 31 15 88 16 82 17 84 18 32 19 87 20 81 21 80 22 33 24
REMARK SMILES IDX 67 25 46 26 66 27 47 28 50 29 65 30 85 31 48 32 49 33 64 35
REMARK SMILES IDX 86 36 51 37 34 38 35 39 44 40 36 41 37 42 43 43 45 44 38 45
REMARK SMILES IDX 39 46 40 47 41 48 42 49 68 50 69 51 78 52 70 53 71 54 77 55
REMARK SMILES IDX 79 56 72 57 73 58 74 59 75 60 76 61 52 62 53 63 62 64 54 65
REMARK SMILES IDX 55 66 61 67 63 68 56 69 57 70 58 71 59 72 60 73 5 74 6 75
REMARK SMILES IDX 7 76 8 77 9 79 10 80 11 81 24 82 12 83 23 84 13 85 22 86
REMARK SMILES IDX 14 87 15 88 16 90 17 91 21 92 18 93 20 94 19 95
REMARK H PARENT 3 5 84 23 50 34 7 78 22 89
REMARK Flexibility Score: inf
ROOT
ATOM      1  C   UNL A   1      44.544  25.317  26.401  1.00  0.00     0.118 C 
ENDROOT
BRANCH   1   2
ATOM      2  N   UNL A   1      43.378  25.391  25.529  1.00  0.00    -0.352 N 
ATOM      3  O   UNL A   1      41.226  25.687  24.951  1.00  0.00    -0.269 OA
ATOM      4  C   UNL A   1      42.123  25.898  25.764  1.00  0.00     0.251 C 
ATOM      5  H   UNL A   1      43.512  25.018  24.629  1.00  0.00     0.163 HD
BRANCH   4   6
ATOM      6  C   UNL A   1      41.845  26.676  26.991  1.00  0.00     0.039 A 
ATOM      7  C   UNL A   1      42.369  27.958  27.155  1.00  0.00     0.014 A 
ATOM      8  C   UNL A   1      41.022  26.130  27.981  1.00  0.00     0.014 A 
ATOM      9  C   UNL A   1      42.218  28.620  28.367  1.00  0.00     0.010 A 
ATOM     10  C   UNL A   1      40.777  26.846  29.158  1.00  0.00     0.010 A 
ATOM     11  C   UNL A   1      41.398  28.086  29.373  1.00  0.00    -0.014 A 
BRANCH  11  12
ATOM     12  C   UNL A   1      41.147  28.894  30.595  1.00  0.00     0.031 A 
ATOM     13  C   UNL A   1      42.032  28.785  31.804  1.00  0.00     0.074 A 
ATOM     14  C   UNL A   1      40.122  29.770  30.577  1.00  0.00     0.049 A 
ATOM     15  N   UNL A   1      41.967  29.451  32.930  1.00  0.00    -0.248 NA
ATOM     16  C   UNL A   1      43.127  27.804  31.754  1.00  0.00     0.031 C 
ATOM     17  C   UNL A   1      39.184  29.946  29.463  1.00  0.00     0.029 A 
ATOM     18  N   UNL A   1      39.710  30.694  31.501  1.00  0.00    -0.354 N 
ATOM     19  C   UNL A   1      42.996  28.961  33.726  1.00  0.00     0.074 A 
ATOM     20  C   UNL A   1      43.657  27.923  32.964  1.00  0.00     0.031 C 
ATOM     21  C   UNL A   1      38.346  30.953  29.744  1.00  0.00     0.029 A 
ATOM     22  C   UNL A   1      38.638  31.448  31.083  1.00  0.00     0.049 A 
ATOM     23  H   UNL A   1      40.139  30.807  32.379  1.00  0.00     0.167 HD
ATOM     24  C   UNL A   1      43.356  29.350  34.973  1.00  0.00     0.037 A 
ATOM     25  C   UNL A   1      37.951  32.418  31.712  1.00  0.00     0.037 A 
ATOM     26  C   UNL A   1      42.699  30.397  35.716  1.00  0.00     0.049 A 
ATOM     27  C   UNL A   1      38.366  32.819  33.097  1.00  0.00     0.074 A 
ATOM     28  C   UNL A   1      43.008  30.884  36.974  1.00  0.00     0.029 A 
ATOM     29  N   UNL A   1      41.599  31.116  35.271  1.00  0.00    -0.354 N 
ATOM     30  N   UNL A   1      39.359  32.361  33.822  1.00  0.00    -0.248 NA
ATOM     31  C   UNL A   1      37.566  33.861  33.753  1.00  0.00     0.031 C 
ATOM     32  C   UNL A   1      42.072  31.869  37.307  1.00  0.00     0.029 A 
ATOM     33  C   UNL A   1      41.205  32.029  36.238  1.00  0.00     0.049 A 
ATOM     34  H   UNL A   1      41.161  30.996  34.397  1.00  0.00     0.167 HD
ATOM     35  C   UNL A   1      39.309  33.065  35.017  1.00  0.00     0.074 A 
ATOM     36  C   UNL A   1      38.205  33.998  34.906  1.00  0.00     0.031 C 
ATOM     37  C   UNL A   1      40.101  32.946  36.111  1.00  0.00     0.037 A 
BRANCH  24  38
ATOM     38  C   UNL A   1      44.510  28.639  35.628  1.00  0.00     0.058 A 
ATOM     39  C   UNL A   1      45.832  29.088  35.481  1.00  0.00     0.135 A 
ATOM     40  C   UNL A   1      44.285  27.536  36.467  1.00  0.00     0.135 A 
ATOM     41  F   UNL A   1      46.108  30.129  34.680  1.00  0.00    -0.206 F 
ATOM     42  C   UNL A   1      46.891  28.459  36.131  1.00  0.00     0.059 A 
ATOM     43  C   UNL A   1      45.325  26.905  37.145  1.00  0.00     0.059 A 
ATOM     44  F   UNL A   1      43.040  27.065  36.643  1.00  0.00    -0.206 F 
ATOM     45  C   UNL A   1      46.627  27.370  36.962  1.00  0.00     0.060 A 
BRANCH  45  46
ATOM     46  S   UNL A   1      48.009  26.579  37.814  1.00  0.00     0.124 S 
ATOM     47  O   UNL A   1      48.853  26.181  36.691  1.00  0.00    -0.237 OA
ATOM     48  O   UNL A   1      48.527  27.662  38.642  1.00  0.00    -0.237 OA
ATOM     49  O   UNL A   1      47.378  25.483  38.543  1.00  0.00    -0.744 OA
ENDBRANCH  45  46
ENDBRANCH  24  38
BRANCH  25  50
ATOM     50  C   UNL A   1      36.791  33.059  31.038  1.00  0.00     0.058 A 
ATOM     51  C   UNL A   1      35.476  32.782  31.438  1.00  0.00     0.135 A 
ATOM     52  C   UNL A   1      36.978  33.978  29.994  1.00  0.00     0.135 A 
ATOM     53  F   UNL A   1      35.246  31.909  32.431  1.00  0.00    -0.206 F 
ATOM     54  C   UNL A   1      34.385  33.378  30.813  1.00  0.00     0.059 A 
ATOM     55  C   UNL A   1      35.907  34.609  29.373  1.00  0.00     0.059 A 
ATOM     56  F   UNL A   1      38.219  34.292  29.589  1.00  0.00    -0.206 F 
ATOM     57  C   UNL A   1      34.612  34.291  29.781  1.00  0.00     0.060 A 
BRANCH  57  58
ATOM     58  S   UNL A   1      33.195  35.092  29.000  1.00  0.00     0.124 S 
ATOM     59  O   UNL A   1      32.306  35.286  30.139  1.00  0.00    -0.237 OA
ATOM     60  O   UNL A   1      33.792  36.300  28.441  1.00  0.00    -0.237 OA
ATOM     61  O   UNL A   1      32.756  34.107  28.015  1.00  0.00    -0.744 OA
ENDBRANCH  57  58
ENDBRANCH  25  50
BRANCH  37  62
ATOM     62  C   UNL A   1      39.806  33.861  37.266  1.00  0.00     0.058 A 
ATOM     63  C   UNL A   1      38.942  33.480  38.304  1.00  0.00     0.135 A 
ATOM     64  C   UNL A   1      40.410  35.126  37.343  1.00  0.00     0.135 A 
ATOM     65  F   UNL A   1      38.332  32.284  38.270  1.00  0.00    -0.206 F 
ATOM     66  C   UNL A   1      38.663  34.333  39.365  1.00  0.00     0.059 A 
ATOM     67  C   UNL A   1      40.166  35.986  38.409  1.00  0.00     0.059 A 
ATOM     68  F   UNL A   1      41.251  35.535  36.380  1.00  0.00    -0.206 F 
ATOM     69  C   UNL A   1      39.278  35.586  39.408  1.00  0.00     0.060 A 
BRANCH  69  70
ATOM     70  S   UNL A   1      38.920  36.680  40.798  1.00  0.00     0.124 S 
ATOM     71  O   UNL A   1      40.247  36.863  41.376  1.00  0.00    -0.237 OA
ATOM     72  O   UNL A   1      38.348  37.850  40.138  1.00  0.00    -0.237 OA
ATOM     73  O   UNL A   1      37.984  35.905  41.606  1.00  0.00    -0.744 OA
ENDBRANCH  69  70
ENDBRANCH  37  62
ENDBRANCH  11  12
ENDBRANCH   4   6
ENDBRANCH   1   2
BRANCH   1  74
ATOM     74  C   UNL A   1      45.369  24.059  26.177  1.00  0.00     0.042 C 
BRANCH  74  75
ATOM     75  C   UNL A   1      44.680  22.783  26.635  1.00  0.00     0.118 C 
BRANCH  75  76
ATOM     76  N   UNL A   1      44.256  22.853  28.026  1.00  0.00    -0.352 N 
ATOM     77  C   UNL A   1      43.028  22.600  28.580  1.00  0.00     0.251 C 
ATOM     78  H   UNL A   1      44.956  23.120  28.665  1.00  0.00     0.163 HD
ATOM     79  O   UNL A   1      42.799  22.909  29.745  1.00  0.00    -0.269 OA
BRANCH  77  80
ATOM     80  C   UNL A   1      41.968  21.964  27.771  1.00  0.00     0.042 A 
ATOM     81  C   UNL A   1      41.994  20.584  27.526  1.00  0.00     0.016 A 
ATOM     82  C   UNL A   1      40.922  22.773  27.303  1.00  0.00     0.042 A 
ATOM     83  C   UNL A   1      41.015  19.982  26.729  1.00  0.00     0.031 A 
ATOM     84  C   UNL A   1      39.951  22.137  26.528  1.00  0.00     0.066 A 
ATOM     85  C   UNL A   1      39.980  20.781  26.226  1.00  0.00     0.089 A 
ATOM     86  N   UNL A   1      38.815  22.594  25.915  1.00  0.00    -0.342 N 
ATOM     87  N   UNL A   1      38.910  20.430  25.447  1.00  0.00    -0.233 NA
ATOM     88  C   UNL A   1      38.214  21.535  25.276  1.00  0.00     0.110 A 
ATOM     89  H   UNL A   1      38.485  23.522  25.928  1.00  0.00     0.168 HD
BRANCH  88  90
ATOM     90  C   UNL A   1      36.914  21.644  24.541  1.00  0.00     0.055 C 
ATOM     91  C   UNL A   1      35.755  21.154  25.420  1.00  0.00     0.011 C 
ATOM     92  C   UNL A   1      36.659  23.063  24.017  1.00  0.00     0.011 C 
ATOM     93  C   UNL A   1      34.418  21.254  24.692  1.00  0.00     0.001 C 
ATOM     94  C   UNL A   1      35.316  23.155  23.293  1.00  0.00     0.001 C 
ATOM     95  C   UNL A   1      34.169  22.667  24.174  1.00  0.00     0.000 C 
ENDBRANCH  88  90
ENDBRANCH  77  80
ENDBRANCH  75  76
ENDBRANCH  74  75
ENDBRANCH   1  74
TORSDOF 14
ENDMDL
MODEL 3
REMARK VINA RESULT:     -10.6      1.314      1.962
REMARK SMILES O=C(NCCCNC(=O)c1ccc2nc(C3CCCCC3)[nH]c2c1)c1ccc(-c2c3nc(c(-c4c(F)cc(S(=O)(=O)[O-])cc4F)c4ccc([nH]4)c(-c4c(F)cc(S(=O)(=O)[O-])cc4F)c4nc(c(-c5c(F)cc(S(=O)(=O)[O-])cc5F)c5ccc2[nH]5)C=C4)C=C3)cc1
REMARK SMILES IDX 4 1 3 2 1 3 2 4 25 6 26 7 90 8 27 9 89 10 28 11 29 12 30 13
REMARK SMILES IDX 83 14 31 15 88 16 82 17 84 18 32 19 87 20 81 21 80 22 33 24
REMARK SMILES IDX 67 25 46 26 66 27 47 28 50 29 65 30 85 31 48 32 49 33 64 35
REMARK SMILES IDX 86 36 51 37 34 38 35 39 44 40 36 41 37 42 43 43 45 44 38 45
REMARK SMILES IDX 39 46 40 47 41 48 42 49 68 50 69 51 78 52 70 53 71 54 77 55
REMARK SMILES IDX 79 56 72 57 73 58 74 59 75 60 76 61 52 62 53 63 62 64 54 65
REMARK SMILES IDX 55 66 61 67 63 68 56 69 57 70 58 71 59 72 60 73 5 74 6 75
REMARK SMILES IDX 7 76 8 77 9 79 10 80 11 81 24 82 12 83 23 84 13 85 22 86
REMARK SMILES IDX 14 87 15 88 16 90 17 91 21 92 18 93 20 94 19 95
REMARK H PARENT 3 5 84 23 50 34 7 78 22 89
REMARK Flexibility Score: inf
ROOT
ATOM      1  C   UNL A   1      34.768  32.563  28.327  1.00  0.00     0.118 C 
ENDROOT
BRANCH   1   2
ATOM      2  N   UNL A   1      34.062  31.304  28.125  1.00  0.00    -0.352 N 
ATOM      3  O   UNL A   1      33.784  29.128  27.632  1.00  0.00    -0.269 OA
ATOM      4  C   UNL A   1      34.546  30.026  27.985  1.00  0.00     0.251 C 
ATOM      5  H   UNL A   1      33.082  31.382  28.083  1.00  0.00     0.163 HD
BRANCH   4   6
ATOM      6  C   UNL A   1      35.973  29.731  28.237  1.00  0.00     0.039 A 
ATOM      7  C   UNL A   1      36.919  29.873  27.222  1.00  0.00     0.014 A 
ATOM      8  C   UNL A   1      36.379  29.337  29.516  1.00  0.00     0.014 A 
ATOM      9  C   UNL A   1      38.228  29.460  27.432  1.00  0.00     0.010 A 
ATOM     10  C   UNL A   1      37.722  29.027  29.757  1.00  0.00     0.010 A 
ATOM     11  C   UNL A   1      38.654  29.058  28.708  1.00  0.00    -0.014 A 
BRANCH  11  12
ATOM     12  C   UNL A   1      40.095  28.764  28.922  1.00  0.00     0.031 A 
ATOM     13  C   UNL A   1      40.693  27.442  28.534  1.00  0.00     0.074 A 
ATOM     14  C   UNL A   1      40.872  29.739  29.437  1.00  0.00     0.049 A 
ATOM     15  N   UNL A   1      41.939  27.048  28.620  1.00  0.00    -0.248 NA
ATOM     16  C   UNL A   1      39.783  26.424  27.985  1.00  0.00     0.031 C 
ATOM     17  C   UNL A   1      40.394  31.057  29.868  1.00  0.00     0.029 A 
ATOM     18  N   UNL A   1      42.223  29.791  29.660  1.00  0.00    -0.354 N 
ATOM     19  C   UNL A   1      41.961  25.739  28.155  1.00  0.00     0.074 A 
ATOM     20  C   UNL A   1      40.599  25.393  27.808  1.00  0.00     0.031 C 
ATOM     21  C   UNL A   1      41.439  31.804  30.249  1.00  0.00     0.029 A 
ATOM     22  C   UNL A   1      42.651  31.000  30.156  1.00  0.00     0.049 A 
ATOM     23  H   UNL A   1      42.828  29.035  29.483  1.00  0.00     0.167 HD
ATOM     24  C   UNL A   1      43.024  24.909  28.022  1.00  0.00     0.037 A 
ATOM     25  C   UNL A   1      43.879  31.414  30.517  1.00  0.00     0.037 A 
ATOM     26  C   UNL A   1      44.380  25.270  28.356  1.00  0.00     0.049 A 
ATOM     27  C   UNL A   1      45.035  30.468  30.370  1.00  0.00     0.074 A 
ATOM     28  C   UNL A   1      45.530  24.510  28.230  1.00  0.00     0.029 A 
ATOM     29  N   UNL A   1      44.769  26.493  28.884  1.00  0.00    -0.354 N 
ATOM     30  N   UNL A   1      45.039  29.242  29.902  1.00  0.00    -0.248 NA
ATOM     31  C   UNL A   1      46.349  30.955  30.805  1.00  0.00     0.031 C 
ATOM     32  C   UNL A   1      46.607  25.256  28.719  1.00  0.00     0.029 A 
ATOM     33  C   UNL A   1      46.138  26.500  29.107  1.00  0.00     0.049 A 
ATOM     34  H   UNL A   1      44.162  27.245  29.073  1.00  0.00     0.167 HD
ATOM     35  C   UNL A   1      46.357  28.814  29.978  1.00  0.00     0.074 A 
ATOM     36  C   UNL A   1      47.125  29.921  30.512  1.00  0.00     0.031 C 
ATOM     37  C   UNL A   1      46.884  27.610  29.644  1.00  0.00     0.037 A 
BRANCH  24  38
ATOM     38  C   UNL A   1      42.774  23.519  27.502  1.00  0.00     0.058 A 
ATOM     39  C   UNL A   1      42.923  23.202  26.142  1.00  0.00     0.135 A 
ATOM     40  C   UNL A   1      42.445  22.476  28.383  1.00  0.00     0.135 A 
ATOM     41  F   UNL A   1      43.222  24.162  25.253  1.00  0.00    -0.206 F 
ATOM     42  C   UNL A   1      42.741  21.904  25.673  1.00  0.00     0.059 A 
ATOM     43  C   UNL A   1      42.281  21.166  27.939  1.00  0.00     0.059 A 
ATOM     44  F   UNL A   1      42.291  22.722  29.693  1.00  0.00    -0.206 F 
ATOM     45  C   UNL A   1      42.423  20.892  26.580  1.00  0.00     0.060 A 
BRANCH  45  46
ATOM     46  S   UNL A   1      42.211  19.210  25.957  1.00  0.00     0.124 S 
ATOM     47  O   UNL A   1      40.767  19.156  25.751  1.00  0.00    -0.237 OA
ATOM     48  O   UNL A   1      43.023  19.221  24.745  1.00  0.00    -0.237 OA
ATOM     49  O   UNL A   1      42.722  18.378  27.042  1.00  0.00    -0.744 OA
ENDBRANCH  45  46
ENDBRANCH  24  38
BRANCH  25  50
ATOM     50  C   UNL A   1      44.067  32.782  31.067  1.00  0.00     0.058 A 
ATOM     51  C   UNL A   1      44.006  33.024  32.447  1.00  0.00     0.135 A 
ATOM     52  C   UNL A   1      44.332  33.871  30.222  1.00  0.00     0.135 A 
ATOM     53  F   UNL A   1      43.753  32.015  33.294  1.00  0.00    -0.206 F 
ATOM     54  C   UNL A   1      44.181  34.301  32.969  1.00  0.00     0.059 A 
ATOM     55  C   UNL A   1      44.541  35.151  30.721  1.00  0.00     0.059 A 
ATOM     56  F   UNL A   1      44.422  33.687  28.895  1.00  0.00    -0.206 F 
ATOM     57  C   UNL A   1      44.449  35.359  32.097  1.00  0.00     0.060 A 
BRANCH  57  58
ATOM     58  S   UNL A   1      44.715  37.007  32.783  1.00  0.00     0.124 S 
ATOM     59  O   UNL A   1      45.202  37.733  31.618  1.00  0.00    -0.237 OA
ATOM     60  O   UNL A   1      43.379  37.367  33.249  1.00  0.00    -0.237 OA
ATOM     61  O   UNL A   1      45.695  36.774  33.840  1.00  0.00    -0.744 OA
ENDBRANCH  57  58
ENDBRANCH  25  50
BRANCH  37  62
ATOM     62  C   UNL A   1      48.365  27.441  29.832  1.00  0.00     0.058 A 
ATOM     63  C   UNL A   1      48.897  26.878  31.002  1.00  0.00     0.135 A 
ATOM     64  C   UNL A   1      49.260  27.830  28.823  1.00  0.00     0.135 A 
ATOM     65  F   UNL A   1      48.083  26.499  32.001  1.00  0.00    -0.206 F 
ATOM     66  C   UNL A   1      50.268  26.733  31.178  1.00  0.00     0.059 A 
ATOM     67  C   UNL A   1      50.634  27.670  28.966  1.00  0.00     0.059 A 
ATOM     68  F   UNL A   1      48.801  28.367  27.682  1.00  0.00    -0.206 F 
ATOM     69  C   UNL A   1      51.129  27.134  30.155  1.00  0.00     0.060 A 
BRANCH  69  70
ATOM     70  S   UNL A   1      52.907  26.927  30.388  1.00  0.00     0.124 S 
ATOM     71  O   UNL A   1      53.299  26.312  29.124  1.00  0.00    -0.237 OA
ATOM     72  O   UNL A   1      53.359  28.300  30.592  1.00  0.00    -0.237 OA
ATOM     73  O   UNL A   1      52.997  26.065  31.562  1.00  0.00    -0.744 OA
ENDBRANCH  69  70
ENDBRANCH  37  62
ENDBRANCH  11  12
ENDBRANCH   4   6
ENDBRANCH   1   2
BRANCH   1  74
ATOM     74  C   UNL A   1      34.532  33.156  29.708  1.00  0.00     0.042 C 
BRANCH  74  75
ATOM     75  C   UNL A   1      35.439  32.581  30.785  1.00  0.00     0.118 C 
BRANCH  75  76
ATOM     76  N   UNL A   1      35.071  33.039  32.118  1.00  0.00    -0.352 N 
ATOM     77  C   UNL A   1      35.709  32.847  33.316  1.00  0.00     0.251 C 
ATOM     78  H   UNL A   1      34.241  33.566  32.166  1.00  0.00     0.163 HD
ATOM     79  O   UNL A   1      35.147  33.130  34.369  1.00  0.00    -0.269 OA
BRANCH  77  80
ATOM     80  C   UNL A   1      37.076  32.286  33.345  1.00  0.00     0.042 A 
ATOM     81  C   UNL A   1      38.187  33.130  33.481  1.00  0.00     0.016 A 
ATOM     82  C   UNL A   1      37.215  30.892  33.282  1.00  0.00     0.042 A 
ATOM     83  C   UNL A   1      39.484  32.608  33.470  1.00  0.00     0.031 A 
ATOM     84  C   UNL A   1      38.523  30.403  33.294  1.00  0.00     0.066 A 
ATOM     85  C   UNL A   1      39.645  31.219  33.374  1.00  0.00     0.089 A 
ATOM     86  N   UNL A   1      39.034  29.133  33.246  1.00  0.00    -0.342 N 
ATOM     87  N   UNL A   1      40.795  30.475  33.361  1.00  0.00    -0.233 NA
ATOM     88  C   UNL A   1      40.406  29.218  33.291  1.00  0.00     0.110 A 
ATOM     89  H   UNL A   1      38.510  28.301  33.188  1.00  0.00     0.168 HD
BRANCH  88  90
ATOM     90  C   UNL A   1      41.306  28.023  33.314  1.00  0.00     0.055 C 
ATOM     91  C   UNL A   1      42.637  28.337  32.614  1.00  0.00     0.011 C 
ATOM     92  C   UNL A   1      41.532  27.490  34.734  1.00  0.00     0.011 C 
ATOM     93  C   UNL A   1      43.572  27.132  32.623  1.00  0.00     0.001 C 
ATOM     94  C   UNL A   1      42.474  26.287  34.734  1.00  0.00     0.001 C 
ATOM     95  C   UNL A   1      43.794  26.608  34.039  1.00  0.00     0.000 C 
ENDBRANCH  88  90
ENDBRANCH  77  80
ENDBRANCH  75  76
ENDBRANCH  74  75
ENDBRANCH   1  74
TORSDOF 14
ENDMDL
