MODEL 1
REMARK VINA RESULT:     -13.1      0.000      0.000
REMARK SMILES O=C(NCCCNC(=O)c1cccn2c(=O)c3ccc(Cl)cc3nc12)c1ccc(-c2c3nc(c(-c4c(F)cc(S(=O)(=O)[O-])cc4F)c4ccc([nH]4)c(-c4c(F)cc(S(=O)(=O)[O-])cc4F)c4nc(c(-c5c(F)cc(S(=O)(=O)[O-])cc5F)c5ccc2[nH]5)C=C4)C=C3)cc1
REMARK SMILES IDX 1 1 2 2 3 3 26 5 27 6 91 7 28 8 90 9 29 10 30 11 31 12 84 13
REMARK SMILES IDX 32 14 89 15 83 16 85 17 33 18 88 19 82 20 81 21 34 23 68 24
REMARK SMILES IDX 47 25 67 26 48 27 51 28 66 29 86 30 49 31 50 32 65 34 87 35
REMARK SMILES IDX 52 36 35 37 36 38 45 39 37 40 38 41 44 42 46 43 39 44 40 45
REMARK SMILES IDX 41 46 42 47 43 48 69 49 70 50 79 51 71 52 72 53 78 54 80 55
REMARK SMILES IDX 73 56 74 57 75 58 76 59 77 60 53 61 54 62 63 63 55 64 56 65
REMARK SMILES IDX 62 66 64 67 57 68 58 69 59 70 60 71 61 72 4 73 5 74 6 75
REMARK SMILES IDX 7 76 8 77 9 79 10 80 11 81 25 82 12 83 14 84 24 85 13 86
REMARK SMILES IDX 15 87 23 88 16 89 17 90 22 91 18 92 20 93 19 94 21 95
REMARK H PARENT 3 4 85 22 51 33 7 78
REMARK Flexibility Score: inf
ROOT
ATOM      1  O   UNL A   1      35.893  30.293  31.465  1.00  0.00    -0.269 OA
ATOM      2  C   UNL A   1      36.278  30.504  30.317  1.00  0.00     0.251 C 
ATOM      3  N   UNL A   1      35.453  31.197  29.468  1.00  0.00    -0.352 N 
ATOM      4  H   UNL A   1      34.681  31.620  29.910  1.00  0.00     0.163 HD
ENDROOT
BRANCH   2   5
ATOM      5  C   UNL A   1      37.607  30.007  29.885  1.00  0.00     0.039 A 
ATOM      6  C   UNL A   1      38.502  29.557  30.863  1.00  0.00     0.014 A 
ATOM      7  C   UNL A   1      38.019  30.060  28.552  1.00  0.00     0.014 A 
ATOM      8  C   UNL A   1      39.786  29.136  30.502  1.00  0.00     0.010 A 
ATOM      9  C   UNL A   1      39.268  29.563  28.181  1.00  0.00     0.010 A 
ATOM     10  C   UNL A   1      40.175  29.122  29.154  1.00  0.00    -0.014 A 
BRANCH  10  11
ATOM     11  C   UNL A   1      41.551  28.730  28.750  1.00  0.00     0.031 A 
ATOM     12  C   UNL A   1      42.651  29.760  28.759  1.00  0.00     0.074 A 
ATOM     13  C   UNL A   1      41.809  27.472  28.344  1.00  0.00     0.049 A 
ATOM     14  N   UNL A   1      43.891  29.650  28.355  1.00  0.00    -0.248 NA
ATOM     15  C   UNL A   1      42.304  31.098  29.267  1.00  0.00     0.031 C 
ATOM     16  C   UNL A   1      40.829  26.386  28.273  1.00  0.00     0.029 A 
ATOM     17  N   UNL A   1      42.977  26.893  27.915  1.00  0.00    -0.354 N 
ATOM     18  C   UNL A   1      44.462  30.904  28.539  1.00  0.00     0.074 A 
ATOM     19  C   UNL A   1      43.421  31.773  29.045  1.00  0.00     0.031 C 
ATOM     20  C   UNL A   1      41.443  25.267  27.856  1.00  0.00     0.029 A 
ATOM     21  C   UNL A   1      42.850  25.563  27.596  1.00  0.00     0.049 A 
ATOM     22  H   UNL A   1      43.827  27.385  27.844  1.00  0.00     0.167 HD
ATOM     23  C   UNL A   1      45.742  31.293  28.333  1.00  0.00     0.037 A 
ATOM     24  C   UNL A   1      43.763  24.680  27.142  1.00  0.00     0.037 A 
ATOM     25  C   UNL A   1      46.786  30.417  27.875  1.00  0.00     0.049 A 
ATOM     26  C   UNL A   1      45.179  25.133  26.919  1.00  0.00     0.074 A 
ATOM     27  C   UNL A   1      48.125  30.707  27.673  1.00  0.00     0.029 A 
ATOM     28  N   UNL A   1      46.615  29.077  27.566  1.00  0.00    -0.354 N 
ATOM     29  N   UNL A   1      45.702  26.321  27.108  1.00  0.00    -0.248 NA
ATOM     30  C   UNL A   1      46.130  24.130  26.421  1.00  0.00     0.031 C 
ATOM     31  C   UNL A   1      48.758  29.546  27.218  1.00  0.00     0.029 A 
ATOM     32  C   UNL A   1      47.822  28.526  27.168  1.00  0.00     0.049 A 
ATOM     33  H   UNL A   1      45.762  28.589  27.621  1.00  0.00     0.167 HD
ATOM     34  C   UNL A   1      47.045  26.204  26.769  1.00  0.00     0.074 A 
ATOM     35  C   UNL A   1      47.257  24.826  26.373  1.00  0.00     0.031 C 
ATOM     36  C   UNL A   1      48.014  27.151  26.782  1.00  0.00     0.037 A 
BRANCH  23  37
ATOM     37  C   UNL A   1      46.087  32.728  28.618  1.00  0.00     0.058 A 
ATOM     38  C   UNL A   1      45.996  33.714  27.621  1.00  0.00     0.135 A 
ATOM     39  C   UNL A   1      46.483  33.130  29.903  1.00  0.00     0.135 A 
ATOM     40  F   UNL A   1      45.641  33.379  26.370  1.00  0.00    -0.206 F 
ATOM     41  C   UNL A   1      46.311  35.042  27.883  1.00  0.00     0.059 A 
ATOM     42  C   UNL A   1      46.779  34.458  30.194  1.00  0.00     0.059 A 
ATOM     43  F   UNL A   1      46.586  32.226  30.891  1.00  0.00    -0.206 F 
ATOM     44  C   UNL A   1      46.703  35.405  29.172  1.00  0.00     0.060 A 
BRANCH  44  45
ATOM     45  S   UNL A   1      47.104  37.135  29.497  1.00  0.00     0.124 S 
ATOM     46  O   UNL A   1      46.009  37.819  28.813  1.00  0.00    -0.237 OA
ATOM     47  O   UNL A   1      47.072  37.195  30.956  1.00  0.00    -0.237 OA
ATOM     48  O   UNL A   1      48.421  37.299  28.894  1.00  0.00    -0.744 OA
ENDBRANCH  44  45
ENDBRANCH  23  37
BRANCH  24  49
ATOM     49  C   UNL A   1      43.368  23.268  26.901  1.00  0.00     0.058 A 
ATOM     50  C   UNL A   1      43.243  22.774  25.596  1.00  0.00     0.135 A 
ATOM     51  C   UNL A   1      43.140  22.380  27.964  1.00  0.00     0.135 A 
ATOM     52  F   UNL A   1      43.443  23.589  24.548  1.00  0.00    -0.206 F 
ATOM     53  C   UNL A   1      42.903  21.448  25.348  1.00  0.00     0.059 A 
ATOM     54  C   UNL A   1      42.817  21.045  27.742  1.00  0.00     0.059 A 
ATOM     55  F   UNL A   1      43.261  22.803  29.231  1.00  0.00    -0.206 F 
ATOM     56  C   UNL A   1      42.696  20.589  26.428  1.00  0.00     0.060 A 
BRANCH  56  57
ATOM     57  S   UNL A   1      42.324  18.854  26.095  1.00  0.00     0.124 S 
ATOM     58  O   UNL A   1      43.245  18.561  25.003  1.00  0.00    -0.237 OA
ATOM     59  O   UNL A   1      42.632  18.224  27.376  1.00  0.00    -0.237 OA
ATOM     60  O   UNL A   1      40.908  18.876  25.741  1.00  0.00    -0.744 OA
ENDBRANCH  56  57
ENDBRANCH  24  49
BRANCH  36  61
ATOM     61  C   UNL A   1      49.398  26.736  26.374  1.00  0.00     0.058 A 
ATOM     62  C   UNL A   1      50.263  26.094  27.273  1.00  0.00     0.135 A 
ATOM     63  C   UNL A   1      49.832  26.908  25.050  1.00  0.00     0.135 A 
ATOM     64  F   UNL A   1      49.895  25.913  28.551  1.00  0.00    -0.206 F 
ATOM     65  C   UNL A   1      51.516  25.642  26.876  1.00  0.00     0.059 A 
ATOM     66  C   UNL A   1      51.074  26.446  24.626  1.00  0.00     0.059 A 
ATOM     67  F   UNL A   1      49.037  27.508  24.150  1.00  0.00    -0.206 F 
ATOM     68  C   UNL A   1      51.911  25.819  25.548  1.00  0.00     0.060 A 
BRANCH  68  69
ATOM     69  S   UNL A   1      53.518  25.179  25.032  1.00  0.00     0.124 S 
ATOM     70  O   UNL A   1      53.378  23.757  25.331  1.00  0.00    -0.237 OA
ATOM     71  O   UNL A   1      53.554  25.527  23.614  1.00  0.00    -0.237 OA
ATOM     72  O   UNL A   1      54.462  25.908  25.874  1.00  0.00    -0.744 OA
ENDBRANCH  68  69
ENDBRANCH  36  61
ENDBRANCH  10  11
ENDBRANCH   2   5
BRANCH   3  73
ATOM     73  C   UNL A   1      35.516  31.415  28.031  1.00  0.00     0.118 C 
BRANCH  73  74
ATOM     74  C   UNL A   1      34.342  30.786  27.288  1.00  0.00     0.042 C 
BRANCH  74  75
ATOM     75  C   UNL A   1      34.333  29.263  27.291  1.00  0.00     0.118 C 
BRANCH  75  76
ATOM     76  N   UNL A   1      33.127  28.698  27.881  1.00  0.00    -0.352 N 
ATOM     77  C   UNL A   1      32.022  28.154  27.284  1.00  0.00     0.255 C 
ATOM     78  H   UNL A   1      33.103  28.710  28.866  1.00  0.00     0.163 HD
ATOM     79  O   UNL A   1      31.105  27.730  27.982  1.00  0.00    -0.269 OA
BRANCH  77  80
ATOM     80  C   UNL A   1      31.985  28.043  25.807  1.00  0.00     0.083 A 
ATOM     81  C   UNL A   1      31.423  29.048  25.114  1.00  0.00     0.019 A 
ATOM     82  C   UNL A   1      32.649  26.919  25.070  1.00  0.00     0.153 A 
ATOM     83  C   UNL A   1      31.308  28.983  23.684  1.00  0.00     0.019 A 
ATOM     84  N   UNL A   1      32.509  26.920  23.674  1.00  0.00    -0.267 N 
ATOM     85  N   UNL A   1      33.306  26.004  25.712  1.00  0.00    -0.229 NA
ATOM     86  C   UNL A   1      31.826  27.943  23.024  1.00  0.00     0.096 A 
ATOM     87  C   UNL A   1      33.055  25.897  22.896  1.00  0.00     0.265 A 
ATOM     88  C   UNL A   1      33.956  24.997  24.993  1.00  0.00     0.080 A 
ATOM     89  O   UNL A   1      32.933  25.802  21.674  1.00  0.00    -0.268 OA
ATOM     90  C   UNL A   1      33.852  24.886  23.609  1.00  0.00     0.066 A 
ATOM     91  C   UNL A   1      34.757  24.083  25.685  1.00  0.00     0.049 A 
ATOM     92  C   UNL A   1      34.518  23.870  22.911  1.00  0.00     0.017 A 
ATOM     93  C   UNL A   1      35.436  23.078  24.995  1.00  0.00     0.043 A 
ATOM     94  C   UNL A   1      35.316  22.963  23.610  1.00  0.00     0.021 A 
ATOM     95  Cl  UNL A   1      36.444  21.979  25.852  1.00  0.00    -0.084 Cl
ENDBRANCH  77  80
ENDBRANCH  75  76
ENDBRANCH  74  75
ENDBRANCH  73  74
ENDBRANCH   3  73
TORSDOF 13
ENDMDL
MODEL 2
REMARK VINA RESULT:     -13.0      6.629     12.094
REMARK SMILES O=C(NCCCNC(=O)c1cccn2c(=O)c3ccc(Cl)cc3nc12)c1ccc(-c2c3nc(c(-c4c(F)cc(S(=O)(=O)[O-])cc4F)c4ccc([nH]4)c(-c4c(F)cc(S(=O)(=O)[O-])cc4F)c4nc(c(-c5c(F)cc(S(=O)(=O)[O-])cc5F)c5ccc2[nH]5)C=C4)C=C3)cc1
REMARK SMILES IDX 1 1 2 2 3 3 26 5 27 6 91 7 28 8 90 9 29 10 30 11 31 12 84 13
REMARK SMILES IDX 32 14 89 15 83 16 85 17 33 18 88 19 82 20 81 21 34 23 68 24
REMARK SMILES IDX 47 25 67 26 48 27 51 28 66 29 86 30 49 31 50 32 65 34 87 35
REMARK SMILES IDX 52 36 35 37 36 38 45 39 37 40 38 41 44 42 46 43 39 44 40 45
REMARK SMILES IDX 41 46 42 47 43 48 69 49 70 50 79 51 71 52 72 53 78 54 80 55
REMARK SMILES IDX 73 56 74 57 75 58 76 59 77 60 53 61 54 62 63 63 55 64 56 65
REMARK SMILES IDX 62 66 64 67 57 68 58 69 59 70 60 71 61 72 4 73 5 74 6 75
REMARK SMILES IDX 7 76 8 77 9 79 10 80 11 81 25 82 12 83 14 84 24 85 13 86
REMARK SMILES IDX 15 87 23 88 16 89 17 90 22 91 18 92 20 93 19 94 21 95
REMARK H PARENT 3 4 85 22 51 33 7 78
REMARK Flexibility Score: inf
ROOT
ATOM      1  O   UNL A   1      41.703  24.546  25.954  1.00  0.00    -0.269 OA
ATOM      2  C   UNL A   1      40.614  24.686  26.509  1.00  0.00     0.251 C 
ATOM      3  N   UNL A   1      39.584  23.857  26.144  1.00  0.00    -0.352 N 
ATOM      4  H   UNL A   1      39.856  23.097  25.580  1.00  0.00     0.163 HD
ENDROOT
BRANCH   2   5
ATOM      5  C   UNL A   1      40.447  25.736  27.543  1.00  0.00     0.039 A 
ATOM      6  C   UNL A   1      41.280  26.861  27.494  1.00  0.00     0.014 A 
ATOM      7  C   UNL A   1      39.553  25.591  28.606  1.00  0.00     0.014 A 
ATOM      8  C   UNL A   1      41.192  27.844  28.484  1.00  0.00     0.010 A 
ATOM      9  C   UNL A   1      39.408  26.610  29.547  1.00  0.00     0.010 A 
ATOM     10  C   UNL A   1      40.245  27.733  29.513  1.00  0.00    -0.014 A 
BRANCH  10  11
ATOM     11  C   UNL A   1      40.169  28.737  30.607  1.00  0.00     0.031 A 
ATOM     12  C   UNL A   1      41.105  28.629  31.783  1.00  0.00     0.074 A 
ATOM     13  C   UNL A   1      39.249  29.720  30.567  1.00  0.00     0.049 A 
ATOM     14  N   UNL A   1      41.140  29.340  32.881  1.00  0.00    -0.248 NA
ATOM     15  C   UNL A   1      42.119  27.562  31.728  1.00  0.00     0.031 C 
ATOM     16  C   UNL A   1      38.274  29.925  29.494  1.00  0.00     0.029 A 
ATOM     17  N   UNL A   1      38.983  30.732  31.454  1.00  0.00    -0.354 N 
ATOM     18  C   UNL A   1      42.160  28.795  33.652  1.00  0.00     0.074 A 
ATOM     19  C   UNL A   1      42.687  27.664  32.920  1.00  0.00     0.031 C 
ATOM     20  C   UNL A   1      37.538  31.014  29.771  1.00  0.00     0.029 A 
ATOM     21  C   UNL A   1      37.961  31.562  31.057  1.00  0.00     0.049 A 
ATOM     22  H   UNL A   1      39.478  30.853  32.297  1.00  0.00     0.167 HD
ATOM     23  C   UNL A   1      42.636  29.213  34.849  1.00  0.00     0.037 A 
ATOM     24  C   UNL A   1      37.426  32.641  31.661  1.00  0.00     0.037 A 
ATOM     25  C   UNL A   1      42.144  30.366  35.553  1.00  0.00     0.049 A 
ATOM     26  C   UNL A   1      37.969  33.089  32.990  1.00  0.00     0.074 A 
ATOM     27  C   UNL A   1      42.587  30.895  36.754  1.00  0.00     0.029 A 
ATOM     28  N   UNL A   1      41.111  31.179  35.114  1.00  0.00    -0.354 N 
ATOM     29  N   UNL A   1      38.941  32.566  33.699  1.00  0.00    -0.248 NA
ATOM     30  C   UNL A   1      37.344  34.269  33.602  1.00  0.00     0.031 C 
ATOM     31  C   UNL A   1      41.805  32.015  37.052  1.00  0.00     0.029 A 
ATOM     32  C   UNL A   1      40.897  32.202  36.023  1.00  0.00     0.049 A 
ATOM     33  H   UNL A   1      40.605  31.049  34.281  1.00  0.00     0.167 HD
ATOM     34  C   UNL A   1      39.055  33.363  34.832  1.00  0.00     0.074 A 
ATOM     35  C   UNL A   1      38.061  34.410  34.710  1.00  0.00     0.031 C 
ATOM     36  C   UNL A   1      39.906  33.238  35.880  1.00  0.00     0.037 A 
BRANCH  23  37
ATOM     37  C   UNL A   1      43.760  28.426  35.463  1.00  0.00     0.058 A 
ATOM     38  C   UNL A   1      43.511  27.379  36.366  1.00  0.00     0.135 A 
ATOM     39  C   UNL A   1      45.095  28.698  35.127  1.00  0.00     0.135 A 
ATOM     40  F   UNL A   1      42.252  27.091  36.736  1.00  0.00    -0.206 F 
ATOM     41  C   UNL A   1      44.548  26.647  36.933  1.00  0.00     0.059 A 
ATOM     42  C   UNL A   1      46.148  27.962  35.664  1.00  0.00     0.059 A 
ATOM     43  F   UNL A   1      45.387  29.690  34.270  1.00  0.00    -0.206 F 
ATOM     44  C   UNL A   1      45.863  26.947  36.577  1.00  0.00     0.060 A 
BRANCH  44  45
ATOM     45  S   UNL A   1      47.198  25.984  37.319  1.00  0.00     0.124 S 
ATOM     46  O   UNL A   1      48.087  25.794  36.175  1.00  0.00    -0.237 OA
ATOM     47  O   UNL A   1      47.691  26.883  38.358  1.00  0.00    -0.237 OA
ATOM     48  O   UNL A   1      46.526  24.783  37.798  1.00  0.00    -0.744 OA
ENDBRANCH  44  45
ENDBRANCH  23  37
BRANCH  24  49
ATOM     49  C   UNL A   1      36.333  33.394  30.993  1.00  0.00     0.058 A 
ATOM     50  C   UNL A   1      35.022  33.340  31.487  1.00  0.00     0.135 A 
ATOM     51  C   UNL A   1      36.579  34.204  29.873  1.00  0.00     0.135 A 
ATOM     52  F   UNL A   1      34.738  32.573  32.551  1.00  0.00    -0.206 F 
ATOM     53  C   UNL A   1      33.990  34.059  30.894  1.00  0.00     0.059 A 
ATOM     54  C   UNL A   1      35.567  34.947  29.274  1.00  0.00     0.059 A 
ATOM     55  F   UNL A   1      37.819  34.298  29.371  1.00  0.00    -0.206 F 
ATOM     56  C   UNL A   1      34.273  34.864  29.790  1.00  0.00     0.060 A 
BRANCH  56  57
ATOM     57  S   UNL A   1      32.939  35.848  29.072  1.00  0.00     0.124 S 
ATOM     58  O   UNL A   1      32.311  34.882  28.177  1.00  0.00    -0.237 OA
ATOM     59  O   UNL A   1      32.165  36.222  30.252  1.00  0.00    -0.237 OA
ATOM     60  O   UNL A   1      33.645  36.947  28.422  1.00  0.00    -0.744 OA
ENDBRANCH  56  57
ENDBRANCH  24  49
BRANCH  36  61
ATOM     61  C   UNL A   1      39.817  34.264  36.973  1.00  0.00     0.058 A 
ATOM     62  C   UNL A   1      40.400  35.532  36.835  1.00  0.00     0.135 A 
ATOM     63  C   UNL A   1      39.072  34.004  38.135  1.00  0.00     0.135 A 
ATOM     64  F   UNL A   1      41.127  35.825  35.744  1.00  0.00    -0.206 F 
ATOM     65  C   UNL A   1      40.255  36.507  37.814  1.00  0.00     0.059 A 
ATOM     66  C   UNL A   1      38.897  34.972  39.119  1.00  0.00     0.059 A 
ATOM     67  F   UNL A   1      38.487  32.809  38.310  1.00  0.00    -0.206 F 
ATOM     68  C   UNL A   1      39.498  36.219  38.952  1.00  0.00     0.060 A 
BRANCH  68  69
ATOM     69  S   UNL A   1      39.271  37.513  40.190  1.00  0.00     0.124 S 
ATOM     70  O   UNL A   1      40.593  38.132  40.214  1.00  0.00    -0.237 OA
ATOM     71  O   UNL A   1      38.204  38.321  39.607  1.00  0.00    -0.237 OA
ATOM     72  O   UNL A   1      38.903  36.773  41.393  1.00  0.00    -0.744 OA
ENDBRANCH  68  69
ENDBRANCH  36  61
ENDBRANCH  10  11
ENDBRANCH   2   5
BRANCH   3  73
ATOM     73  C   UNL A   1      38.160  23.905  26.442  1.00  0.00     0.118 C 
BRANCH  73  74
ATOM     74  C   UNL A   1      37.300  23.417  25.282  1.00  0.00     0.042 C 
BRANCH  74  75
ATOM     75  C   UNL A   1      36.757  22.003  25.446  1.00  0.00     0.118 C 
BRANCH  75  76
ATOM     76  N   UNL A   1      35.760  21.891  26.500  1.00  0.00    -0.352 N 
ATOM     77  C   UNL A   1      34.412  22.126  26.471  1.00  0.00     0.255 C 
ATOM     78  H   UNL A   1      36.111  21.599  27.373  1.00  0.00     0.163 HD
ATOM     79  O   UNL A   1      33.747  21.967  27.492  1.00  0.00    -0.269 OA
BRANCH  77  80
ATOM     80  C   UNL A   1      33.778  22.520  25.191  1.00  0.00     0.083 A 
ATOM     81  C   UNL A   1      33.266  21.549  24.416  1.00  0.00     0.019 A 
ATOM     82  C   UNL A   1      33.589  23.954  24.797  1.00  0.00     0.153 A 
ATOM     83  C   UNL A   1      32.684  21.854  23.140  1.00  0.00     0.019 A 
ATOM     84  N   UNL A   1      33.003  24.185  23.544  1.00  0.00    -0.267 N 
ATOM     85  N   UNL A   1      33.962  24.912  25.588  1.00  0.00    -0.229 NA
ATOM     86  C   UNL A   1      32.585  23.126  22.744  1.00  0.00     0.096 A 
ATOM     87  C   UNL A   1      32.819  25.484  23.063  1.00  0.00     0.265 A 
ATOM     88  C   UNL A   1      33.728  26.238  25.214  1.00  0.00     0.080 A 
ATOM     89  O   UNL A   1      32.359  25.764  21.956  1.00  0.00    -0.268 OA
ATOM     90  C   UNL A   1      33.185  26.577  23.978  1.00  0.00     0.066 A 
ATOM     91  C   UNL A   1      34.027  27.258  26.123  1.00  0.00     0.049 A 
ATOM     92  C   UNL A   1      32.955  27.915  23.629  1.00  0.00     0.017 A 
ATOM     93  C   UNL A   1      33.785  28.592  25.788  1.00  0.00     0.043 A 
ATOM     94  C   UNL A   1      33.255  28.926  24.542  1.00  0.00     0.021 A 
ATOM     95  Cl  UNL A   1      34.127  29.837  26.925  1.00  0.00    -0.084 Cl
ENDBRANCH  77  80
ENDBRANCH  75  76
ENDBRANCH  74  75
ENDBRANCH  73  74
ENDBRANCH   3  73
TORSDOF 13
ENDMDL
MODEL 3
REMARK VINA RESULT:     -13.0      6.409     11.960
REMARK SMILES O=C(NCCCNC(=O)c1cccn2c(=O)c3ccc(Cl)cc3nc12)c1ccc(-c2c3nc(c(-c4c(F)cc(S(=O)(=O)[O-])cc4F)c4ccc([nH]4)c(-c4c(F)cc(S(=O)(=O)[O-])cc4F)c4nc(c(-c5c(F)cc(S(=O)(=O)[O-])cc5F)c5ccc2[nH]5)C=C4)C=C3)cc1
REMARK SMILES IDX 1 1 2 2 3 3 26 5 27 6 91 7 28 8 90 9 29 10 30 11 31 12 84 13
REMARK SMILES IDX 32 14 89 15 83 16 85 17 33 18 88 19 82 20 81 21 34 23 68 24
REMARK SMILES IDX 47 25 67 26 48 27 51 28 66 29 86 30 49 31 50 32 65 34 87 35
REMARK SMILES IDX 52 36 35 37 36 38 45 39 37 40 38 41 44 42 46 43 39 44 40 45
REMARK SMILES IDX 41 46 42 47 43 48 69 49 70 50 79 51 71 52 72 53 78 54 80 55
REMARK SMILES IDX 73 56 74 57 75 58 76 59 77 60 53 61 54 62 63 63 55 64 56 65
REMARK SMILES IDX 62 66 64 67 57 68 58 69 59 70 60 71 61 72 4 73 5 74 6 75
REMARK SMILES IDX 7 76 8 77 9 79 10 80 11 81 25 82 12 83 14 84 24 85 13 86
REMARK SMILES IDX 15 87 23 88 16 89 17 90 22 91 18 92 20 93 19 94 21 95
REMARK H PARENT 3 4 85 22 51 33 7 78
REMARK Flexibility Score: inf
ROOT
ATOM      1  O   UNL A   1      42.341  24.942  25.222  1.00  0.00    -0.269 OA
ATOM      2  C   UNL A   1      41.587  24.675  26.157  1.00  0.00     0.251 C 
ATOM      3  N   UNL A   1      40.994  23.438  26.184  1.00  0.00    -0.352 N 
ATOM      4  H   UNL A   1      41.361  22.798  25.531  1.00  0.00     0.163 HD
ENDROOT
BRANCH   2   5
ATOM      5  C   UNL A   1      41.342  25.685  27.214  1.00  0.00     0.039 A 
ATOM      6  C   UNL A   1      42.174  26.810  27.268  1.00  0.00     0.014 A 
ATOM      7  C   UNL A   1      40.373  25.501  28.202  1.00  0.00     0.014 A 
ATOM      8  C   UNL A   1      42.012  27.756  28.286  1.00  0.00     0.010 A 
ATOM      9  C   UNL A   1      40.157  26.484  29.167  1.00  0.00     0.010 A 
ATOM     10  C   UNL A   1      40.991  27.608  29.237  1.00  0.00    -0.014 A 
BRANCH  10  11
ATOM     11  C   UNL A   1      40.833  28.570  30.359  1.00  0.00     0.031 A 
ATOM     12  C   UNL A   1      41.750  28.480  31.551  1.00  0.00     0.074 A 
ATOM     13  C   UNL A   1      39.857  29.497  30.328  1.00  0.00     0.049 A 
ATOM     14  N   UNL A   1      41.720  29.157  32.671  1.00  0.00    -0.248 NA
ATOM     15  C   UNL A   1      42.827  27.478  31.487  1.00  0.00     0.031 C 
ATOM     16  C   UNL A   1      38.893  29.677  29.241  1.00  0.00     0.029 A 
ATOM     17  N   UNL A   1      39.512  30.463  31.240  1.00  0.00    -0.354 N 
ATOM     18  C   UNL A   1      42.755  28.649  33.448  1.00  0.00     0.074 A 
ATOM     19  C   UNL A   1      43.364  27.576  32.693  1.00  0.00     0.031 C 
ATOM     20  C   UNL A   1      38.087  30.711  29.535  1.00  0.00     0.029 A 
ATOM     21  C   UNL A   1      38.451  31.242  30.846  1.00  0.00     0.049 A 
ATOM     22  H   UNL A   1      39.982  30.586  32.097  1.00  0.00     0.167 HD
ATOM     23  C   UNL A   1      43.181  29.057  34.667  1.00  0.00     0.037 A 
ATOM     24  C   UNL A   1      37.839  32.268  31.471  1.00  0.00     0.037 A 
ATOM     25  C   UNL A   1      42.606  30.155  35.395  1.00  0.00     0.049 A 
ATOM     26  C   UNL A   1      38.328  32.705  32.824  1.00  0.00     0.074 A 
ATOM     27  C   UNL A   1      42.992  30.671  36.621  1.00  0.00     0.029 A 
ATOM     28  N   UNL A   1      41.535  30.919  34.958  1.00  0.00    -0.354 N 
ATOM     29  N   UNL A   1      39.314  32.219  33.539  1.00  0.00    -0.248 NA
ATOM     30  C   UNL A   1      37.621  33.826  33.459  1.00  0.00     0.031 C 
ATOM     31  C   UNL A   1      42.138  31.733  36.936  1.00  0.00     0.029 A 
ATOM     32  C   UNL A   1      41.241  31.898  35.893  1.00  0.00     0.049 A 
ATOM     33  H   UNL A   1      41.055  30.785  34.110  1.00  0.00     0.167 HD
ATOM     34  C   UNL A   1      39.357  32.985  34.698  1.00  0.00     0.074 A 
ATOM     35  C   UNL A   1      38.305  33.974  34.585  1.00  0.00     0.031 C 
ATOM     36  C   UNL A   1      40.193  32.877  35.760  1.00  0.00     0.037 A 
BRANCH  23  37
ATOM     37  C   UNL A   1      44.337  28.319  35.282  1.00  0.00     0.058 A 
ATOM     38  C   UNL A   1      44.134  27.206  36.114  1.00  0.00     0.135 A 
ATOM     39  C   UNL A   1      45.660  28.707  35.016  1.00  0.00     0.135 A 
ATOM     40  F   UNL A   1      42.889  26.805  36.415  1.00  0.00    -0.206 F 
ATOM     41  C   UNL A   1      45.202  26.519  36.681  1.00  0.00     0.059 A 
ATOM     42  C   UNL A   1      46.744  28.019  35.553  1.00  0.00     0.059 A 
ATOM     43  F   UNL A   1      45.908  29.766  34.228  1.00  0.00    -0.206 F 
ATOM     44  C   UNL A   1      46.503  26.934  36.396  1.00  0.00     0.060 A 
BRANCH  44  45
ATOM     45  S   UNL A   1      47.879  26.029  37.137  1.00  0.00     0.124 S 
ATOM     46  O   UNL A   1      47.519  26.064  38.552  1.00  0.00    -0.237 OA
ATOM     47  O   UNL A   1      47.777  24.723  36.492  1.00  0.00    -0.237 OA
ATOM     48  O   UNL A   1      49.046  26.819  36.765  1.00  0.00    -0.744 OA
ENDBRANCH  44  45
ENDBRANCH  23  37
BRANCH  24  49
ATOM     49  C   UNL A   1      36.716  32.976  30.802  1.00  0.00     0.058 A 
ATOM     50  C   UNL A   1      35.394  32.771  31.218  1.00  0.00     0.135 A 
ATOM     51  C   UNL A   1      36.943  33.889  29.760  1.00  0.00     0.135 A 
ATOM     52  F   UNL A   1      35.128  31.901  32.206  1.00  0.00    -0.206 F 
ATOM     53  C   UNL A   1      34.331  33.444  30.625  1.00  0.00     0.059 A 
ATOM     54  C   UNL A   1      35.898  34.588  29.164  1.00  0.00     0.059 A 
ATOM     55  F   UNL A   1      38.192  34.128  29.335  1.00  0.00    -0.206 F 
ATOM     56  C   UNL A   1      34.594  34.355  29.601  1.00  0.00     0.060 A 
BRANCH  56  57
ATOM     57  S   UNL A   1      33.214  35.275  28.886  1.00  0.00     0.124 S 
ATOM     58  O   UNL A   1      32.492  35.697  30.082  1.00  0.00    -0.237 OA
ATOM     59  O   UNL A   1      33.900  36.332  28.148  1.00  0.00    -0.237 OA
ATOM     60  O   UNL A   1      32.540  34.280  28.058  1.00  0.00    -0.744 OA
ENDBRANCH  56  57
ENDBRANCH  24  49
BRANCH  36  61
ATOM     61  C   UNL A   1      40.020  33.861  36.882  1.00  0.00     0.058 A 
ATOM     62  C   UNL A   1      40.621  35.127  36.842  1.00  0.00     0.135 A 
ATOM     63  C   UNL A   1      39.180  33.563  37.967  1.00  0.00     0.135 A 
ATOM     64  F   UNL A   1      41.437  35.456  35.827  1.00  0.00    -0.206 F 
ATOM     65  C   UNL A   1      40.401  36.066  37.843  1.00  0.00     0.059 A 
ATOM     66  C   UNL A   1      38.930  34.494  38.970  1.00  0.00     0.059 A 
ATOM     67  F   UNL A   1      38.575  32.367  38.046  1.00  0.00    -0.206 F 
ATOM     68  C   UNL A   1      39.550  35.741  38.902  1.00  0.00     0.060 A 
BRANCH  68  69
ATOM     69  S   UNL A   1      39.231  36.988  40.168  1.00  0.00     0.124 S 
ATOM     70  O   UNL A   1      40.577  37.253  40.666  1.00  0.00    -0.237 OA
ATOM     71  O   UNL A   1      38.616  38.065  39.398  1.00  0.00    -0.237 OA
ATOM     72  O   UNL A   1      38.339  36.305  41.101  1.00  0.00    -0.744 OA
ENDBRANCH  68  69
ENDBRANCH  36  61
ENDBRANCH  10  11
ENDBRANCH   2   5
BRANCH   3  73
ATOM     73  C   UNL A   1      39.917  22.906  27.006  1.00  0.00     0.118 C 
BRANCH  73  74
ATOM     74  C   UNL A   1      38.725  22.436  26.181  1.00  0.00     0.042 C 
BRANCH  74  75
ATOM     75  C   UNL A   1      37.772  23.545  25.754  1.00  0.00     0.118 C 
BRANCH  75  76
ATOM     76  N   UNL A   1      37.392  23.466  24.351  1.00  0.00    -0.352 N 
ATOM     77  C   UNL A   1      36.212  23.083  23.774  1.00  0.00     0.255 C 
ATOM     78  H   UNL A   1      38.098  23.731  23.716  1.00  0.00     0.163 HD
ATOM     79  O   UNL A   1      36.106  23.091  22.550  1.00  0.00    -0.269 OA
BRANCH  77  80
ATOM     80  C   UNL A   1      35.072  22.715  24.646  1.00  0.00     0.083 A 
ATOM     81  C   UNL A   1      34.965  21.434  25.038  1.00  0.00     0.019 A 
ATOM     82  C   UNL A   1      34.118  23.735  25.192  1.00  0.00     0.153 A 
ATOM     83  C   UNL A   1      33.858  20.999  25.842  1.00  0.00     0.019 A 
ATOM     84  N   UNL A   1      33.065  23.247  25.979  1.00  0.00    -0.267 N 
ATOM     85  N   UNL A   1      34.275  24.996  24.929  1.00  0.00    -0.229 NA
ATOM     86  C   UNL A   1      32.956  21.890  26.266  1.00  0.00     0.096 A 
ATOM     87  C   UNL A   1      32.098  24.108  26.503  1.00  0.00     0.265 A 
ATOM     88  C   UNL A   1      33.398  25.927  25.492  1.00  0.00     0.080 A 
ATOM     89  O   UNL A   1      31.120  23.750  27.159  1.00  0.00    -0.268 OA
ATOM     90  C   UNL A   1      32.301  25.545  26.259  1.00  0.00     0.066 A 
ATOM     91  C   UNL A   1      33.646  27.290  25.298  1.00  0.00     0.049 A 
ATOM     92  C   UNL A   1      31.440  26.499  26.817  1.00  0.00     0.017 A 
ATOM     93  C   UNL A   1      32.801  28.246  25.865  1.00  0.00     0.043 A 
ATOM     94  C   UNL A   1      31.695  27.856  26.619  1.00  0.00     0.021 A 
ATOM     95  Cl  UNL A   1      33.132  29.920  25.646  1.00  0.00    -0.084 Cl
ENDBRANCH  77  80
ENDBRANCH  75  76
ENDBRANCH  74  75
ENDBRANCH  73  74
ENDBRANCH   3  73
TORSDOF 13
ENDMDL
