MODEL 1
REMARK VINA RESULT:     -11.8      0.000      0.000
REMARK SMILES C[C@@H](C(=O)NCCCNC(=O)c1ccc(-c2c3nc(c(-c4c(F)cc(S(=O)(=O)[O-])cc4F)c4ccc([nH]4)c(-c4c(F)cc(S(=O)(=O)[O-])cc4F)c4nc(c(-c5c(F)cc(S(=O)(=O)[O-])cc5F)c5ccc2[nH]5)C=C4)C=C3)cc1)c1ccc(-c2ccn(C(F)F)c(=O)c2)cc1
REMARK SMILES IDX 7 1 6 2 5 3 3 4 4 5 2 7 1 8 78 9 79 10 93 11 80 12 92 13
REMARK SMILES IDX 81 14 82 15 83 16 91 17 84 18 89 19 85 20 90 21 86 22 87 23
REMARK SMILES IDX 88 24 8 25 9 26 10 27 11 29 12 30 13 31 77 32 14 33 76 34
REMARK SMILES IDX 15 35 16 36 17 37 70 38 18 39 75 40 69 41 71 42 19 43 74 44
REMARK SMILES IDX 68 45 67 46 20 48 54 49 33 50 53 51 34 52 37 53 52 54 72 55
REMARK SMILES IDX 35 56 36 57 51 59 73 60 38 61 21 62 22 63 31 64 23 65 24 66
REMARK SMILES IDX 30 67 32 68 25 69 26 70 27 71 28 72 29 73 55 74 56 75 65 76
REMARK SMILES IDX 57 77 58 78 64 79 66 80 59 81 60 82 61 83 62 84 63 85 39 86
REMARK SMILES IDX 40 87 49 88 41 89 42 90 48 91 50 92 43 93 44 94 45 95 46 96
REMARK SMILES IDX 47 97
REMARK H PARENT 5 6 9 28 71 47 37 58
REMARK Flexibility Score: inf
ROOT
ATOM      1  C   UNL A   1      33.076  27.966  26.894  1.00  0.00     0.042 C 
ENDROOT
BRANCH   1   2
ATOM      2  C   UNL A   1      31.585  28.000  26.549  1.00  0.00     0.117 C 
BRANCH   2   3
ATOM      3  N   UNL A   1      30.942  26.727  26.822  1.00  0.00    -0.356 N 
ATOM      4  C   UNL A   1      30.817  25.605  26.051  1.00  0.00     0.227 C 
ATOM      5  O   UNL A   1      30.099  24.710  26.501  1.00  0.00    -0.274 OA
ATOM      6  H   UNL A   1      30.526  26.660  27.712  1.00  0.00     0.163 HD
BRANCH   4   7
ATOM      7  C   UNL A   1      31.584  25.488  24.717  1.00  0.00     0.105 C 
ATOM      8  C   UNL A   1      30.662  24.877  23.654  1.00  0.00     0.023 C 
BRANCH   7   9
ATOM      9  C   UNL A   1      32.921  24.739  24.849  1.00  0.00    -0.036 A 
ATOM     10  C   UNL A   1      33.654  24.375  23.705  1.00  0.00     0.005 A 
ATOM     11  C   UNL A   1      33.447  24.370  26.098  1.00  0.00     0.005 A 
ATOM     12  C   UNL A   1      34.896  23.732  23.807  1.00  0.00     0.009 A 
ATOM     13  C   UNL A   1      34.676  23.719  26.203  1.00  0.00     0.009 A 
ATOM     14  C   UNL A   1      35.421  23.411  25.063  1.00  0.00    -0.018 A 
BRANCH  14  15
ATOM     15  C   UNL A   1      36.745  22.794  25.239  1.00  0.00    -0.011 A 
ATOM     16  C   UNL A   1      37.030  21.433  24.830  1.00  0.00     0.027 A 
ATOM     17  C   UNL A   1      37.678  23.482  25.923  1.00  0.00     0.080 A 
ATOM     18  C   UNL A   1      38.179  20.844  25.180  1.00  0.00     0.095 A 
ATOM     19  C   UNL A   1      38.976  22.852  26.288  1.00  0.00     0.255 A 
ATOM     20  N   UNL A   1      39.135  21.527  25.908  1.00  0.00    -0.258 N 
ATOM     21  O   UNL A   1      39.801  23.517  26.907  1.00  0.00    -0.269 OA
BRANCH  20  22
ATOM     22  C   UNL A   1      40.339  20.865  26.333  1.00  0.00     0.451 C 
ATOM     23  F   UNL A   1      40.471  20.892  27.682  1.00  0.00    -0.185 F 
ATOM     24  F   UNL A   1      40.349  19.568  25.936  1.00  0.00    -0.185 F 
ENDBRANCH  20  22
ENDBRANCH  14  15
ENDBRANCH   7   9
ENDBRANCH   4   7
ENDBRANCH   2   3
ENDBRANCH   1   2
BRANCH   1  25
ATOM     25  C   UNL A   1      33.941  28.896  26.048  1.00  0.00     0.118 C 
BRANCH  25  26
ATOM     26  N   UNL A   1      33.861  30.283  26.482  1.00  0.00    -0.352 N 
ATOM     27  C   UNL A   1      34.604  30.959  27.418  1.00  0.00     0.251 C 
ATOM     28  H   UNL A   1      33.168  30.819  26.034  1.00  0.00     0.163 HD
ATOM     29  O   UNL A   1      34.244  32.079  27.777  1.00  0.00    -0.269 OA
BRANCH  27  30
ATOM     30  C   UNL A   1      35.810  30.343  28.015  1.00  0.00     0.039 A 
ATOM     31  C   UNL A   1      37.003  30.358  27.285  1.00  0.00     0.014 A 
ATOM     32  C   UNL A   1      35.774  29.749  29.279  1.00  0.00     0.014 A 
ATOM     33  C   UNL A   1      38.177  29.864  27.861  1.00  0.00     0.010 A 
ATOM     34  C   UNL A   1      36.958  29.318  29.879  1.00  0.00     0.010 A 
ATOM     35  C   UNL A   1      38.175  29.391  29.184  1.00  0.00    -0.014 A 
BRANCH  35  36
ATOM     36  C   UNL A   1      39.445  29.050  29.881  1.00  0.00     0.031 A 
ATOM     37  C   UNL A   1      39.935  29.880  31.037  1.00  0.00     0.074 A 
ATOM     38  C   UNL A   1      40.201  28.039  29.403  1.00  0.00     0.049 A 
ATOM     39  N   UNL A   1      41.064  29.788  31.693  1.00  0.00    -0.248 NA
ATOM     40  C   UNL A   1      39.056  30.962  31.507  1.00  0.00     0.031 C 
ATOM     41  C   UNL A   1      39.853  27.193  28.259  1.00  0.00     0.029 A 
ATOM     42  N   UNL A   1      41.426  27.564  29.800  1.00  0.00    -0.354 N 
ATOM     43  C   UNL A   1      41.040  30.806  32.638  1.00  0.00     0.074 A 
ATOM     44  C   UNL A   1      39.796  31.522  32.455  1.00  0.00     0.031 C 
ATOM     45  C   UNL A   1      40.836  26.303  28.049  1.00  0.00     0.029 A 
ATOM     46  C   UNL A   1      41.908  26.546  29.008  1.00  0.00     0.049 A 
ATOM     47  H   UNL A   1      41.915  27.918  30.578  1.00  0.00     0.167 HD
ATOM     48  C   UNL A   1      41.969  31.106  33.576  1.00  0.00     0.037 A 
ATOM     49  C   UNL A   1      43.091  25.901  29.028  1.00  0.00     0.037 A 
ATOM     50  C   UNL A   1      43.192  30.368  33.769  1.00  0.00     0.049 A 
ATOM     51  C   UNL A   1      44.113  26.277  30.068  1.00  0.00     0.074 A 
ATOM     52  C   UNL A   1      44.146  30.537  34.758  1.00  0.00     0.029 A 
ATOM     53  N   UNL A   1      43.638  29.338  32.957  1.00  0.00    -0.354 N 
ATOM     54  N   UNL A   1      44.025  27.172  31.022  1.00  0.00    -0.248 NA
ATOM     55  C   UNL A   1      45.396  25.560  30.034  1.00  0.00     0.031 C 
ATOM     56  C   UNL A   1      45.201  29.657  34.504  1.00  0.00     0.029 A 
ATOM     57  C   UNL A   1      44.877  28.897  33.391  1.00  0.00     0.049 A 
ATOM     58  H   UNL A   1      43.147  28.974  32.185  1.00  0.00     0.167 HD
ATOM     59  C   UNL A   1      45.232  27.114  31.710  1.00  0.00     0.074 A 
ATOM     60  C   UNL A   1      46.023  26.077  31.081  1.00  0.00     0.031 C 
ATOM     61  C   UNL A   1      45.652  27.859  32.761  1.00  0.00     0.037 A 
BRANCH  48  62
ATOM     62  C   UNL A   1      41.724  32.283  34.481  1.00  0.00     0.058 A 
ATOM     63  C   UNL A   1      42.066  33.589  34.102  1.00  0.00     0.135 A 
ATOM     64  C   UNL A   1      41.022  32.112  35.686  1.00  0.00     0.135 A 
ATOM     65  F   UNL A   1      42.749  33.807  32.966  1.00  0.00    -0.206 F 
ATOM     66  C   UNL A   1      41.719  34.686  34.884  1.00  0.00     0.059 A 
ATOM     67  C   UNL A   1      40.643  33.197  36.472  1.00  0.00     0.059 A 
ATOM     68  F   UNL A   1      40.673  30.883  36.096  1.00  0.00    -0.206 F 
ATOM     69  C   UNL A   1      40.996  34.481  36.061  1.00  0.00     0.060 A 
BRANCH  69  70
ATOM     70  S   UNL A   1      40.495  35.923  37.025  1.00  0.00     0.124 S 
ATOM     71  O   UNL A   1      39.721  36.675  36.042  1.00  0.00    -0.237 OA
ATOM     72  O   UNL A   1      39.727  35.319  38.109  1.00  0.00    -0.237 OA
ATOM     73  O   UNL A   1      41.763  36.528  37.420  1.00  0.00    -0.744 OA
ENDBRANCH  69  70
ENDBRANCH  48  62
BRANCH  49  74
ATOM     74  C   UNL A   1      43.401  24.858  28.009  1.00  0.00     0.058 A 
ATOM     75  C   UNL A   1      43.077  23.510  28.227  1.00  0.00     0.135 A 
ATOM     76  C   UNL A   1      44.064  25.183  26.815  1.00  0.00     0.135 A 
ATOM     77  F   UNL A   1      42.448  23.147  29.356  1.00  0.00    -0.206 F 
ATOM     78  C   UNL A   1      43.435  22.518  27.321  1.00  0.00     0.059 A 
ATOM     79  C   UNL A   1      44.402  24.213  25.877  1.00  0.00     0.059 A 
ATOM     80  F   UNL A   1      44.381  26.458  26.545  1.00  0.00    -0.206 F 
ATOM     81  C   UNL A   1      44.102  22.879  26.150  1.00  0.00     0.060 A 
BRANCH  81  82
ATOM     82  S   UNL A   1      44.564  21.585  24.978  1.00  0.00     0.124 S 
ATOM     83  O   UNL A   1      44.411  22.277  23.704  1.00  0.00    -0.237 OA
ATOM     84  O   UNL A   1      45.934  21.282  25.381  1.00  0.00    -0.237 OA
ATOM     85  O   UNL A   1      43.593  20.529  25.245  1.00  0.00    -0.744 OA
ENDBRANCH  81  82
ENDBRANCH  49  74
BRANCH  61  86
ATOM     86  C   UNL A   1      47.023  27.577  33.311  1.00  0.00     0.058 A 
ATOM     87  C   UNL A   1      47.230  26.600  34.297  1.00  0.00     0.135 A 
ATOM     88  C   UNL A   1      48.151  28.239  32.798  1.00  0.00     0.135 A 
ATOM     89  F   UNL A   1      46.187  25.946  34.830  1.00  0.00    -0.206 F 
ATOM     90  C   UNL A   1      48.505  26.298  34.765  1.00  0.00     0.059 A 
ATOM     91  C   UNL A   1      49.437  27.932  33.227  1.00  0.00     0.059 A 
ATOM     92  F   UNL A   1      48.009  29.177  31.847  1.00  0.00    -0.206 F 
ATOM     93  C   UNL A   1      49.604  26.963  34.217  1.00  0.00     0.060 A 
BRANCH  93  94
ATOM     94  S   UNL A   1      51.256  26.518  34.792  1.00  0.00     0.124 S 
ATOM     95  O   UNL A   1      51.944  26.252  33.533  1.00  0.00    -0.237 OA
ATOM     96  O   UNL A   1      51.674  27.724  35.500  1.00  0.00    -0.237 OA
ATOM     97  O   UNL A   1      51.021  25.350  35.635  1.00  0.00    -0.744 OA
ENDBRANCH  93  94
ENDBRANCH  61  86
ENDBRANCH  35  36
ENDBRANCH  27  30
ENDBRANCH  25  26
ENDBRANCH   1  25
TORSDOF 16
ENDMDL
MODEL 2
REMARK VINA RESULT:     -11.8      4.801      5.961
REMARK SMILES C[C@@H](C(=O)NCCCNC(=O)c1ccc(-c2c3nc(c(-c4c(F)cc(S(=O)(=O)[O-])cc4F)c4ccc([nH]4)c(-c4c(F)cc(S(=O)(=O)[O-])cc4F)c4nc(c(-c5c(F)cc(S(=O)(=O)[O-])cc5F)c5ccc2[nH]5)C=C4)C=C3)cc1)c1ccc(-c2ccn(C(F)F)c(=O)c2)cc1
REMARK SMILES IDX 7 1 6 2 5 3 3 4 4 5 2 7 1 8 78 9 79 10 93 11 80 12 92 13
REMARK SMILES IDX 81 14 82 15 83 16 91 17 84 18 89 19 85 20 90 21 86 22 87 23
REMARK SMILES IDX 88 24 8 25 9 26 10 27 11 29 12 30 13 31 77 32 14 33 76 34
REMARK SMILES IDX 15 35 16 36 17 37 70 38 18 39 75 40 69 41 71 42 19 43 74 44
REMARK SMILES IDX 68 45 67 46 20 48 54 49 33 50 53 51 34 52 37 53 52 54 72 55
REMARK SMILES IDX 35 56 36 57 51 59 73 60 38 61 21 62 22 63 31 64 23 65 24 66
REMARK SMILES IDX 30 67 32 68 25 69 26 70 27 71 28 72 29 73 55 74 56 75 65 76
REMARK SMILES IDX 57 77 58 78 64 79 66 80 59 81 60 82 61 83 62 84 63 85 39 86
REMARK SMILES IDX 40 87 49 88 41 89 42 90 48 91 50 92 43 93 44 94 45 95 46 96
REMARK SMILES IDX 47 97
REMARK H PARENT 5 6 9 28 71 47 37 58
REMARK Flexibility Score: inf
ROOT
ATOM      1  C   UNL A   1      33.607  29.571  27.086  1.00  0.00     0.042 C 
ENDROOT
BRANCH   1   2
ATOM      2  C   UNL A   1      32.766  28.306  27.277  1.00  0.00     0.117 C 
BRANCH   2   3
ATOM      3  N   UNL A   1      31.825  28.118  26.187  1.00  0.00    -0.356 N 
ATOM      4  C   UNL A   1      32.015  27.675  24.908  1.00  0.00     0.227 C 
ATOM      5  O   UNL A   1      31.040  27.741  24.156  1.00  0.00    -0.274 OA
ATOM      6  H   UNL A   1      30.893  28.348  26.407  1.00  0.00     0.163 HD
BRANCH   4   7
ATOM      7  C   UNL A   1      33.378  27.091  24.481  1.00  0.00     0.105 C 
ATOM      8  C   UNL A   1      33.796  27.710  23.140  1.00  0.00     0.023 C 
BRANCH   7   9
ATOM      9  C   UNL A   1      33.400  25.554  24.462  1.00  0.00    -0.036 A 
ATOM     10  C   UNL A   1      33.585  24.855  23.255  1.00  0.00     0.005 A 
ATOM     11  C   UNL A   1      33.217  24.792  25.628  1.00  0.00     0.005 A 
ATOM     12  C   UNL A   1      33.654  23.455  23.225  1.00  0.00     0.009 A 
ATOM     13  C   UNL A   1      33.272  23.398  25.599  1.00  0.00     0.009 A 
ATOM     14  C   UNL A   1      33.510  22.718  24.404  1.00  0.00    -0.018 A 
BRANCH  14  15
ATOM     15  C   UNL A   1      33.636  21.252  24.448  1.00  0.00    -0.011 A 
ATOM     16  C   UNL A   1      34.816  20.588  24.966  1.00  0.00     0.027 A 
ATOM     17  C   UNL A   1      32.672  20.516  23.866  1.00  0.00     0.080 A 
ATOM     18  C   UNL A   1      34.975  19.269  24.813  1.00  0.00     0.095 A 
ATOM     19  C   UNL A   1      32.819  19.042  23.722  1.00  0.00     0.255 A 
ATOM     20  N   UNL A   1      34.008  18.503  24.190  1.00  0.00    -0.258 N 
ATOM     21  O   UNL A   1      31.913  18.408  23.190  1.00  0.00    -0.269 OA
BRANCH  20  22
ATOM     22  C   UNL A   1      34.217  17.096  23.975  1.00  0.00     0.451 C 
ATOM     23  F   UNL A   1      34.475  16.826  22.671  1.00  0.00    -0.185 F 
ATOM     24  F   UNL A   1      35.260  16.640  24.712  1.00  0.00    -0.185 F 
ENDBRANCH  20  22
ENDBRANCH  14  15
ENDBRANCH   7   9
ENDBRANCH   4   7
ENDBRANCH   2   3
ENDBRANCH   1   2
BRANCH   1  25
ATOM     25  C   UNL A   1      34.985  29.517  27.738  1.00  0.00     0.118 C 
BRANCH  25  26
ATOM     26  N   UNL A   1      35.140  30.499  28.800  1.00  0.00    -0.352 N 
ATOM     27  C   UNL A   1      36.204  30.737  29.635  1.00  0.00     0.251 C 
ATOM     28  H   UNL A   1      34.361  31.084  28.942  1.00  0.00     0.163 HD
ATOM     29  O   UNL A   1      36.056  31.486  30.600  1.00  0.00    -0.269 OA
BRANCH  27  30
ATOM     30  C   UNL A   1      37.510  30.082  29.400  1.00  0.00     0.039 A 
ATOM     31  C   UNL A   1      37.957  29.929  28.084  1.00  0.00     0.014 A 
ATOM     32  C   UNL A   1      38.291  29.615  30.461  1.00  0.00     0.014 A 
ATOM     33  C   UNL A   1      39.226  29.395  27.839  1.00  0.00     0.010 A 
ATOM     34  C   UNL A   1      39.582  29.145  30.219  1.00  0.00     0.010 A 
ATOM     35  C   UNL A   1      40.071  29.051  28.908  1.00  0.00    -0.014 A 
BRANCH  35  36
ATOM     36  C   UNL A   1      41.491  28.673  28.674  1.00  0.00     0.031 A 
ATOM     37  C   UNL A   1      42.574  29.718  28.658  1.00  0.00     0.074 A 
ATOM     38  C   UNL A   1      41.785  27.388  28.384  1.00  0.00     0.049 A 
ATOM     39  N   UNL A   1      43.843  29.581  28.371  1.00  0.00    -0.248 NA
ATOM     40  C   UNL A   1      42.179  31.097  28.988  1.00  0.00     0.031 C 
ATOM     41  C   UNL A   1      40.814  26.292  28.324  1.00  0.00     0.029 A 
ATOM     42  N   UNL A   1      42.977  26.785  28.063  1.00  0.00    -0.354 N 
ATOM     43  C   UNL A   1      44.396  30.852  28.468  1.00  0.00     0.074 A 
ATOM     44  C   UNL A   1      43.319  31.754  28.815  1.00  0.00     0.031 C 
ATOM     45  C   UNL A   1      41.447  25.156  27.991  1.00  0.00     0.029 A 
ATOM     46  C   UNL A   1      42.858  25.447  27.764  1.00  0.00     0.049 A 
ATOM     47  H   UNL A   1      43.836  27.266  28.047  1.00  0.00     0.167 HD
ATOM     48  C   UNL A   1      45.685  31.225  28.292  1.00  0.00     0.037 A 
ATOM     49  C   UNL A   1      43.772  24.559  27.324  1.00  0.00     0.037 A 
ATOM     50  C   UNL A   1      46.755  30.314  27.976  1.00  0.00     0.049 A 
ATOM     51  C   UNL A   1      45.191  25.013  27.114  1.00  0.00     0.074 A 
ATOM     52  C   UNL A   1      48.110  30.585  27.877  1.00  0.00     0.029 A 
ATOM     53  N   UNL A   1      46.597  28.967  27.693  1.00  0.00    -0.354 N 
ATOM     54  N   UNL A   1      45.715  26.198  27.316  1.00  0.00    -0.248 NA
ATOM     55  C   UNL A   1      46.146  24.014  26.612  1.00  0.00     0.031 C 
ATOM     56  C   UNL A   1      48.761  29.419  27.467  1.00  0.00     0.029 A 
ATOM     57  C   UNL A   1      47.822  28.406  27.369  1.00  0.00     0.049 A 
ATOM     58  H   UNL A   1      45.742  28.480  27.718  1.00  0.00     0.167 HD
ATOM     59  C   UNL A   1      47.060  26.081  26.982  1.00  0.00     0.074 A 
ATOM     60  C   UNL A   1      47.277  24.704  26.592  1.00  0.00     0.031 C 
ATOM     61  C   UNL A   1      48.027  27.031  26.989  1.00  0.00     0.037 A 
BRANCH  48  62
ATOM     62  C   UNL A   1      46.038  32.681  28.431  1.00  0.00     0.058 A 
ATOM     63  C   UNL A   1      46.475  33.221  29.650  1.00  0.00     0.135 A 
ATOM     64  C   UNL A   1      46.062  33.513  27.299  1.00  0.00     0.135 A 
ATOM     65  F   UNL A   1      46.460  32.474  30.765  1.00  0.00    -0.206 F 
ATOM     66  C   UNL A   1      46.925  34.535  29.742  1.00  0.00     0.059 A 
ATOM     67  C   UNL A   1      46.532  34.822  27.362  1.00  0.00     0.059 A 
ATOM     68  F   UNL A   1      45.653  33.046  26.109  1.00  0.00    -0.206 F 
ATOM     69  C   UNL A   1      46.961  35.323  28.589  1.00  0.00     0.060 A 
BRANCH  69  70
ATOM     70  S   UNL A   1      47.615  37.002  28.716  1.00  0.00     0.124 S 
ATOM     71  O   UNL A   1      46.564  37.667  29.480  1.00  0.00    -0.237 OA
ATOM     72  O   UNL A   1      48.875  36.791  29.422  1.00  0.00    -0.237 OA
ATOM     73  O   UNL A   1      47.742  37.425  27.325  1.00  0.00    -0.744 OA
ENDBRANCH  69  70
ENDBRANCH  48  62
BRANCH  49  74
ATOM     74  C   UNL A   1      43.374  23.157  27.011  1.00  0.00     0.058 A 
ATOM     75  C   UNL A   1      43.093  22.237  28.032  1.00  0.00     0.135 A 
ATOM     76  C   UNL A   1      43.308  22.699  25.686  1.00  0.00     0.135 A 
ATOM     77  F   UNL A   1      43.148  22.623  29.316  1.00  0.00    -0.206 F 
ATOM     78  C   UNL A   1      42.802  20.905  27.754  1.00  0.00     0.059 A 
ATOM     79  C   UNL A   1      42.985  21.381  25.381  1.00  0.00     0.059 A 
ATOM     80  F   UNL A   1      43.548  23.541  24.669  1.00  0.00    -0.206 F 
ATOM     81  C   UNL A   1      42.755  20.486  26.424  1.00  0.00     0.060 A 
BRANCH  81  82
ATOM     82  S   UNL A   1      42.376  18.756  26.070  1.00  0.00     0.124 S 
ATOM     83  O   UNL A   1      42.619  18.133  27.366  1.00  0.00    -0.237 OA
ATOM     84  O   UNL A   1      40.982  18.828  25.646  1.00  0.00    -0.237 OA
ATOM     85  O   UNL A   1      43.326  18.414  25.016  1.00  0.00    -0.744 OA
ENDBRANCH  81  82
ENDBRANCH  49  74
BRANCH  61  86
ATOM     86  C   UNL A   1      49.412  26.618  26.574  1.00  0.00     0.058 A 
ATOM     87  C   UNL A   1      50.269  25.939  27.455  1.00  0.00     0.135 A 
ATOM     88  C   UNL A   1      49.862  26.839  25.262  1.00  0.00     0.135 A 
ATOM     89  F   UNL A   1      49.893  25.713  28.723  1.00  0.00    -0.206 F 
ATOM     90  C   UNL A   1      51.528  25.505  27.053  1.00  0.00     0.059 A 
ATOM     91  C   UNL A   1      51.104  26.387  24.829  1.00  0.00     0.059 A 
ATOM     92  F   UNL A   1      49.079  27.477  24.377  1.00  0.00    -0.206 F 
ATOM     93  C   UNL A   1      51.934  25.726  25.735  1.00  0.00     0.060 A 
BRANCH  93  94
ATOM     94  S   UNL A   1      53.546  25.105  25.214  1.00  0.00     0.124 S 
ATOM     95  O   UNL A   1      54.433  25.733  26.189  1.00  0.00    -0.237 OA
ATOM     96  O   UNL A   1      53.381  23.661  25.347  1.00  0.00    -0.237 OA
ATOM     97  O   UNL A   1      53.674  25.594  23.845  1.00  0.00    -0.744 OA
ENDBRANCH  93  94
ENDBRANCH  61  86
ENDBRANCH  35  36
ENDBRANCH  27  30
ENDBRANCH  25  26
ENDBRANCH   1  25
TORSDOF 16
ENDMDL
MODEL 3
REMARK VINA RESULT:     -11.7      3.031      8.585
REMARK SMILES C[C@@H](C(=O)NCCCNC(=O)c1ccc(-c2c3nc(c(-c4c(F)cc(S(=O)(=O)[O-])cc4F)c4ccc([nH]4)c(-c4c(F)cc(S(=O)(=O)[O-])cc4F)c4nc(c(-c5c(F)cc(S(=O)(=O)[O-])cc5F)c5ccc2[nH]5)C=C4)C=C3)cc1)c1ccc(-c2ccn(C(F)F)c(=O)c2)cc1
REMARK SMILES IDX 7 1 6 2 5 3 3 4 4 5 2 7 1 8 78 9 79 10 93 11 80 12 92 13
REMARK SMILES IDX 81 14 82 15 83 16 91 17 84 18 89 19 85 20 90 21 86 22 87 23
REMARK SMILES IDX 88 24 8 25 9 26 10 27 11 29 12 30 13 31 77 32 14 33 76 34
REMARK SMILES IDX 15 35 16 36 17 37 70 38 18 39 75 40 69 41 71 42 19 43 74 44
REMARK SMILES IDX 68 45 67 46 20 48 54 49 33 50 53 51 34 52 37 53 52 54 72 55
REMARK SMILES IDX 35 56 36 57 51 59 73 60 38 61 21 62 22 63 31 64 23 65 24 66
REMARK SMILES IDX 30 67 32 68 25 69 26 70 27 71 28 72 29 73 55 74 56 75 65 76
REMARK SMILES IDX 57 77 58 78 64 79 66 80 59 81 60 82 61 83 62 84 63 85 39 86
REMARK SMILES IDX 40 87 49 88 41 89 42 90 48 91 50 92 43 93 44 94 45 95 46 96
REMARK SMILES IDX 47 97
REMARK H PARENT 5 6 9 28 71 47 37 58
REMARK Flexibility Score: inf
ROOT
ATOM      1  C   UNL A   1      32.797  28.586  25.887  1.00  0.00     0.042 C 
ENDROOT
BRANCH   1   2
ATOM      2  C   UNL A   1      31.564  27.678  25.905  1.00  0.00     0.117 C 
BRANCH   2   3
ATOM      3  N   UNL A   1      30.943  27.590  24.595  1.00  0.00    -0.356 N 
ATOM      4  C   UNL A   1      31.439  27.158  23.398  1.00  0.00     0.227 C 
ATOM      5  O   UNL A   1      30.713  27.320  22.415  1.00  0.00    -0.274 OA
ATOM      6  H   UNL A   1      30.006  27.894  24.565  1.00  0.00     0.163 HD
BRANCH   4   7
ATOM      7  C   UNL A   1      32.818  26.470  23.330  1.00  0.00     0.105 C 
ATOM      8  C   UNL A   1      33.559  26.943  22.072  1.00  0.00     0.023 C 
BRANCH   7   9
ATOM      9  C   UNL A   1      32.739  24.938  23.435  1.00  0.00    -0.036 A 
ATOM     10  C   UNL A   1      32.899  24.133  22.292  1.00  0.00     0.005 A 
ATOM     11  C   UNL A   1      32.483  24.287  24.653  1.00  0.00     0.005 A 
ATOM     12  C   UNL A   1      32.875  22.733  22.375  1.00  0.00     0.009 A 
ATOM     13  C   UNL A   1      32.446  22.895  24.737  1.00  0.00     0.009 A 
ATOM     14  C   UNL A   1      32.660  22.106  23.606  1.00  0.00    -0.018 A 
BRANCH  14  15
ATOM     15  C   UNL A   1      32.687  20.643  23.770  1.00  0.00    -0.011 A 
ATOM     16  C   UNL A   1      33.245  20.003  24.945  1.00  0.00     0.027 A 
ATOM     17  C   UNL A   1      32.296  19.882  22.732  1.00  0.00     0.080 A 
ATOM     18  C   UNL A   1      33.428  18.678  24.975  1.00  0.00     0.095 A 
ATOM     19  C   UNL A   1      32.459  18.403  22.766  1.00  0.00     0.255 A 
ATOM     20  N   UNL A   1      33.059  17.885  23.905  1.00  0.00    -0.258 N 
ATOM     21  O   UNL A   1      32.084  17.746  21.800  1.00  0.00    -0.269 OA
BRANCH  20  22
ATOM     22  C   UNL A   1      33.318  16.470  23.921  1.00  0.00     0.451 C 
ATOM     23  F   UNL A   1      34.361  16.147  23.118  1.00  0.00    -0.185 F 
ATOM     24  F   UNL A   1      33.605  16.042  25.176  1.00  0.00    -0.185 F 
ENDBRANCH  20  22
ENDBRANCH  14  15
ENDBRANCH   7   9
ENDBRANCH   4   7
ENDBRANCH   2   3
ENDBRANCH   1   2
BRANCH   1  25
ATOM     25  C   UNL A   1      33.516  28.700  27.227  1.00  0.00     0.118 C 
BRANCH  25  26
ATOM     26  N   UNL A   1      33.543  30.064  27.733  1.00  0.00    -0.352 N 
ATOM     27  C   UNL A   1      34.541  30.743  28.388  1.00  0.00     0.251 C 
ATOM     28  H   UNL A   1      32.719  30.580  27.581  1.00  0.00     0.163 HD
ATOM     29  O   UNL A   1      34.288  31.830  28.907  1.00  0.00    -0.269 OA
BRANCH  27  30
ATOM     30  C   UNL A   1      35.900  30.169  28.500  1.00  0.00     0.039 A 
ATOM     31  C   UNL A   1      36.736  30.201  27.379  1.00  0.00     0.014 A 
ATOM     32  C   UNL A   1      36.353  29.596  29.692  1.00  0.00     0.014 A 
ATOM     33  C   UNL A   1      38.054  29.748  27.482  1.00  0.00     0.010 A 
ATOM     34  C   UNL A   1      37.687  29.206  29.812  1.00  0.00     0.010 A 
ATOM     35  C   UNL A   1      38.557  29.298  28.715  1.00  0.00    -0.014 A 
BRANCH  35  36
ATOM     36  C   UNL A   1      40.004  29.002  28.894  1.00  0.00     0.031 A 
ATOM     37  C   UNL A   1      40.567  27.658  28.517  1.00  0.00     0.074 A 
ATOM     38  C   UNL A   1      40.792  29.926  29.484  1.00  0.00     0.049 A 
ATOM     39  N   UNL A   1      41.778  27.196  28.697  1.00  0.00    -0.248 NA
ATOM     40  C   UNL A   1      39.651  26.704  27.873  1.00  0.00     0.031 C 
ATOM     41  C   UNL A   1      40.350  31.248  29.936  1.00  0.00     0.029 A 
ATOM     42  N   UNL A   1      42.120  29.891  29.831  1.00  0.00    -0.354 N 
ATOM     43  C   UNL A   1      41.767  25.896  28.207  1.00  0.00     0.074 A 
ATOM     44  C   UNL A   1      40.422  25.631  27.745  1.00  0.00     0.031 C 
ATOM     45  C   UNL A   1      41.385  31.896  30.493  1.00  0.00     0.029 A 
ATOM     46  C   UNL A   1      42.552  31.020  30.487  1.00  0.00     0.049 A 
ATOM     47  H   UNL A   1      42.709  29.127  29.627  1.00  0.00     0.167 HD
ATOM     48  C   UNL A   1      42.790  25.012  28.142  1.00  0.00     0.037 A 
ATOM     49  C   UNL A   1      43.741  31.310  31.052  1.00  0.00     0.037 A 
ATOM     50  C   UNL A   1      44.134  25.296  28.578  1.00  0.00     0.049 A 
ATOM     51  C   UNL A   1      44.850  30.294  30.984  1.00  0.00     0.074 A 
ATOM     52  C   UNL A   1      45.259  24.497  28.460  1.00  0.00     0.029 A 
ATOM     53  N   UNL A   1      44.534  26.454  29.226  1.00  0.00    -0.354 N 
ATOM     54  N   UNL A   1      44.848  29.111  30.419  1.00  0.00    -0.248 NA
ATOM     55  C   UNL A   1      46.121  30.647  31.634  1.00  0.00     0.031 C 
ATOM     56  C   UNL A   1      46.322  25.141  29.097  1.00  0.00     0.029 A 
ATOM     57  C   UNL A   1      45.876  26.368  29.560  1.00  0.00     0.049 A 
ATOM     58  H   UNL A   1      43.951  27.222  29.421  1.00  0.00     0.167 HD
ATOM     59  C   UNL A   1      46.120  28.588  30.631  1.00  0.00     0.074 A 
ATOM     60  C   UNL A   1      46.872  29.593  31.352  1.00  0.00     0.031 C 
ATOM     61  C   UNL A   1      46.616  27.379  30.271  1.00  0.00     0.037 A 
BRANCH  48  62
ATOM     62  C   UNL A   1      42.523  23.641  27.583  1.00  0.00     0.058 A 
ATOM     63  C   UNL A   1      42.574  23.383  26.205  1.00  0.00     0.135 A 
ATOM     64  C   UNL A   1      42.340  22.549  28.448  1.00  0.00     0.135 A 
ATOM     65  F   UNL A   1      42.733  24.392  25.333  1.00  0.00    -0.206 F 
ATOM     66  C   UNL A   1      42.456  22.091  25.703  1.00  0.00     0.059 A 
ATOM     67  C   UNL A   1      42.245  21.245  27.970  1.00  0.00     0.059 A 
ATOM     68  F   UNL A   1      42.282  22.741  29.775  1.00  0.00    -0.206 F 
ATOM     69  C   UNL A   1      42.304  21.027  26.595  1.00  0.00     0.060 A 
BRANCH  69  70
ATOM     70  S   UNL A   1      42.224  19.350  25.928  1.00  0.00     0.124 S 
ATOM     71  O   UNL A   1      43.098  19.458  24.763  1.00  0.00    -0.237 OA
ATOM     72  O   UNL A   1      42.740  18.551  27.035  1.00  0.00    -0.237 OA
ATOM     73  O   UNL A   1      40.806  19.167  25.633  1.00  0.00    -0.744 OA
ENDBRANCH  69  70
ENDBRANCH  48  62
BRANCH  49  74
ATOM     74  C   UNL A   1      43.944  32.602  31.768  1.00  0.00     0.058 A 
ATOM     75  C   UNL A   1      43.634  32.734  33.130  1.00  0.00     0.135 A 
ATOM     76  C   UNL A   1      44.412  33.740  31.093  1.00  0.00     0.135 A 
ATOM     77  F   UNL A   1      43.177  31.677  33.818  1.00  0.00    -0.206 F 
ATOM     78  C   UNL A   1      43.741  33.955  33.787  1.00  0.00     0.059 A 
ATOM     79  C   UNL A   1      44.561  34.964  31.737  1.00  0.00     0.059 A 
ATOM     80  F   UNL A   1      44.742  33.667  29.794  1.00  0.00    -0.206 F 
ATOM     81  C   UNL A   1      44.201  35.066  33.080  1.00  0.00     0.060 A 
BRANCH  81  82
ATOM     82  S   UNL A   1      44.338  36.649  33.940  1.00  0.00     0.124 S 
ATOM     83  O   UNL A   1      45.768  36.910  33.844  1.00  0.00    -0.237 OA
ATOM     84  O   UNL A   1      43.475  37.509  33.136  1.00  0.00    -0.237 OA
ATOM     85  O   UNL A   1      43.837  36.347  35.277  1.00  0.00    -0.744 OA
ENDBRANCH  81  82
ENDBRANCH  49  74
BRANCH  61  86
ATOM     86  C   UNL A   1      48.043  27.075  30.636  1.00  0.00     0.058 A 
ATOM     87  C   UNL A   1      48.360  26.229  31.711  1.00  0.00     0.135 A 
ATOM     88  C   UNL A   1      49.102  27.576  29.863  1.00  0.00     0.135 A 
ATOM     89  F   UNL A   1      47.386  25.732  32.489  1.00  0.00    -0.206 F 
ATOM     90  C   UNL A   1      49.677  25.900  32.013  1.00  0.00     0.059 A 
ATOM     91  C   UNL A   1      50.425  27.237  30.127  1.00  0.00     0.059 A 
ATOM     92  F   UNL A   1      48.854  28.384  28.819  1.00  0.00    -0.206 F 
ATOM     93  C   UNL A   1      50.703  26.403  31.209  1.00  0.00     0.060 A 
BRANCH  93  94
ATOM     94  S   UNL A   1      52.402  25.920  31.579  1.00  0.00     0.124 S 
ATOM     95  O   UNL A   1      52.830  27.001  32.462  1.00  0.00    -0.237 OA
ATOM     96  O   UNL A   1      52.224  24.617  32.213  1.00  0.00    -0.237 OA
ATOM     97  O   UNL A   1      53.043  25.892  30.268  1.00  0.00    -0.744 OA
ENDBRANCH  93  94
ENDBRANCH  61  86
ENDBRANCH  35  36
ENDBRANCH  27  30
ENDBRANCH  25  26
ENDBRANCH   1  25
TORSDOF 16
ENDMDL
