MODEL 1
REMARK VINA RESULT:     -13.1      0.000      0.000
REMARK SMILES O=C(NCCCNC(=O)c1ccc(-c2c3nc(c(-c4c(F)cc(S(=O)(=O)[O-])cc4F)c4ccc([nH]4)c(-c4c(F)cc(S(=O)(=O)[O-])cc4F)c4nc(c(-c5c(F)cc(S(=O)(=O)[O-])cc5F)c5ccc2[nH]5)C=C4)C=C3)cc1)C1=Cc2cc(Cl)cc(-c3ccc(CO)cc3)c2O[C@@H]1C(F)(F)F
REMARK SMILES IDX 5 1 4 2 3 3 1 4 2 5 76 7 77 8 94 9 78 10 93 11 79 12 92 13
REMARK SMILES IDX 80 14 83 15 81 16 82 17 95 18 96 19 97 20 98 21 84 22 85 23
REMARK SMILES IDX 91 24 86 25 90 26 87 27 88 28 89 29 6 31 7 32 8 33 9 35
REMARK SMILES IDX 10 36 11 37 75 38 12 39 74 40 13 41 14 42 15 43 68 44 16 45
REMARK SMILES IDX 73 46 67 47 69 48 17 49 72 50 66 51 65 52 18 54 52 55 31 56
REMARK SMILES IDX 51 57 32 58 35 59 50 60 70 61 33 62 34 63 49 65 71 66 36 67
REMARK SMILES IDX 19 68 20 69 29 70 21 71 22 72 28 73 30 74 23 75 24 76 25 77
REMARK SMILES IDX 26 78 27 79 53 80 54 81 63 82 55 83 56 84 62 85 64 86 57 87
REMARK SMILES IDX 58 88 59 89 60 90 61 91 37 92 38 93 47 94 39 95 40 96 46 97
REMARK SMILES IDX 48 98 41 99 42 100 43 101 44 102 45 103
REMARK H PARENT 3 6 89 30 7 34 69 53 35 64
REMARK Flexibility Score: inf
ROOT
ATOM      1  C   UNL A   1      37.038  23.457  24.971  1.00  0.00     0.042 C 
ENDROOT
BRANCH   1   2
ATOM      2  C   UNL A   1      35.512  23.463  24.905  1.00  0.00     0.118 C 
BRANCH   2   3
ATOM      3  N   UNL A   1      34.994  23.932  23.613  1.00  0.00    -0.352 N 
ATOM      4  O   UNL A   1      33.960  25.379  22.199  1.00  0.00    -0.270 OA
ATOM      5  C   UNL A   1      34.095  24.929  23.329  1.00  0.00     0.251 C 
ATOM      6  H   UNL A   1      35.349  23.456  22.827  1.00  0.00     0.163 HD
BRANCH   5   7
ATOM      7  C   UNL A   1      33.348  25.491  24.463  1.00  0.00     0.067 C 
ATOM      8  C   UNL A   1      34.034  26.222  25.349  1.00  0.00     0.025 C 
ATOM      9  C   UNL A   1      31.858  25.531  24.359  1.00  0.00     0.314 C 
ATOM     10  C   UNL A   1      33.325  27.415  25.820  1.00  0.00     0.019 A 
ATOM     11  O   UNL A   1      31.374  26.893  24.433  1.00  0.00    -0.475 OA
ATOM     12  C   UNL A   1      34.051  28.359  26.551  1.00  0.00     0.032 A 
ATOM     13  C   UNL A   1      32.119  27.780  25.180  1.00  0.00     0.135 A 
ATOM     14  C   UNL A   1      33.633  29.684  26.553  1.00  0.00     0.042 A 
ATOM     15  C   UNL A   1      31.732  29.128  25.130  1.00  0.00     0.026 A 
ATOM     16  Cl  UNL A   1      34.612  30.877  27.314  1.00  0.00    -0.084 Cl
ATOM     17  C   UNL A   1      32.505  30.072  25.831  1.00  0.00     0.033 A 
BRANCH   9  18
ATOM     18  C   UNL A   1      31.170  24.615  25.386  1.00  0.00     0.429 C 
ATOM     19  F   UNL A   1      32.035  24.240  26.362  1.00  0.00    -0.167 F 
ATOM     20  F   UNL A   1      30.139  25.238  26.005  1.00  0.00    -0.167 F 
ATOM     21  F   UNL A   1      30.680  23.481  24.834  1.00  0.00    -0.167 F 
ENDBRANCH   9  18
BRANCH  15  22
ATOM     22  C   UNL A   1      30.703  29.613  24.196  1.00  0.00    -0.015 A 
ATOM     23  C   UNL A   1      30.618  29.060  22.907  1.00  0.00     0.009 A 
ATOM     24  C   UNL A   1      29.865  30.685  24.513  1.00  0.00     0.009 A 
ATOM     25  C   UNL A   1      29.794  29.615  21.931  1.00  0.00     0.007 A 
ATOM     26  C   UNL A   1      29.020  31.232  23.541  1.00  0.00     0.007 A 
ATOM     27  C   UNL A   1      28.997  30.718  22.237  1.00  0.00    -0.023 A 
BRANCH  27  28
ATOM     28  C   UNL A   1      28.216  31.399  21.148  1.00  0.00     0.191 C 
BRANCH  28  29
ATOM     29  O   UNL A   1      27.580  30.433  20.321  1.00  0.00    -0.392 OA
ATOM     30  H   UNL A   1      28.174  30.189  19.594  1.00  0.00     0.211 HD
ENDBRANCH  28  29
ENDBRANCH  27  28
ENDBRANCH  15  22
ENDBRANCH   5   7
ENDBRANCH   2   3
ENDBRANCH   1   2
BRANCH   1  31
ATOM     31  C   UNL A   1      37.604  22.347  25.860  1.00  0.00     0.118 C 
BRANCH  31  32
ATOM     32  N   UNL A   1      39.036  22.111  25.744  1.00  0.00    -0.352 N 
ATOM     33  C   UNL A   1      40.087  22.887  26.200  1.00  0.00     0.251 C 
ATOM     34  H   UNL A   1      39.292  21.284  25.276  1.00  0.00     0.163 HD
ATOM     35  O   UNL A   1      41.241  22.483  26.080  1.00  0.00    -0.269 OA
BRANCH  33  36
ATOM     36  C   UNL A   1      39.829  24.261  26.695  1.00  0.00     0.039 A 
ATOM     37  C   UNL A   1      39.147  24.393  27.910  1.00  0.00     0.014 A 
ATOM     38  C   UNL A   1      40.394  25.382  26.089  1.00  0.00     0.014 A 
ATOM     39  C   UNL A   1      39.205  25.601  28.607  1.00  0.00     0.010 A 
ATOM     40  C   UNL A   1      40.531  26.554  26.825  1.00  0.00     0.010 A 
ATOM     41  C   UNL A   1      39.998  26.649  28.120  1.00  0.00    -0.014 A 
BRANCH  41  42
ATOM     42  C   UNL A   1      40.397  27.791  28.982  1.00  0.00     0.031 A 
ATOM     43  C   UNL A   1      41.653  27.719  29.802  1.00  0.00     0.074 A 
ATOM     44  C   UNL A   1      39.548  28.832  29.128  1.00  0.00     0.049 A 
ATOM     45  N   UNL A   1      42.058  28.508  30.762  1.00  0.00    -0.248 NA
ATOM     46  C   UNL A   1      42.552  26.586  29.533  1.00  0.00     0.031 C 
ATOM     47  C   UNL A   1      38.264  28.988  28.434  1.00  0.00     0.029 A 
ATOM     48  N   UNL A   1      39.620  29.949  29.924  1.00  0.00    -0.354 N 
ATOM     49  C   UNL A   1      43.243  27.955  31.230  1.00  0.00     0.074 A 
ATOM     50  C   UNL A   1      43.469  26.739  30.477  1.00  0.00     0.031 C 
ATOM     51  C   UNL A   1      37.689  30.140  28.811  1.00  0.00     0.029 A 
ATOM     52  C   UNL A   1      38.529  30.782  29.813  1.00  0.00     0.049 A 
ATOM     53  H   UNL A   1      40.382  30.137  30.518  1.00  0.00     0.167 HD
ATOM     54  C   UNL A   1      44.075  28.431  32.186  1.00  0.00     0.037 A 
ATOM     55  C   UNL A   1      38.228  31.923  30.462  1.00  0.00     0.037 A 
ATOM     56  C   UNL A   1      43.864  29.663  32.898  1.00  0.00     0.049 A 
ATOM     57  C   UNL A   1      39.177  32.435  31.509  1.00  0.00     0.074 A 
ATOM     58  C   UNL A   1      44.675  30.260  33.846  1.00  0.00     0.029 A 
ATOM     59  N   UNL A   1      42.768  30.495  32.726  1.00  0.00    -0.354 N 
ATOM     60  N   UNL A   1      40.309  31.912  31.917  1.00  0.00    -0.248 NA
ATOM     61  C   UNL A   1      38.806  33.681  32.194  1.00  0.00     0.031 C 
ATOM     62  C   UNL A   1      44.060  31.445  34.263  1.00  0.00     0.029 A 
ATOM     63  C   UNL A   1      42.878  31.597  33.556  1.00  0.00     0.049 A 
ATOM     64  H   UNL A   1      42.021  30.326  32.107  1.00  0.00     0.167 HD
ATOM     65  C   UNL A   1      40.792  32.772  32.896  1.00  0.00     0.074 A 
ATOM     66  C   UNL A   1      39.838  33.856  33.009  1.00  0.00     0.031 C 
ATOM     67  C   UNL A   1      41.919  32.669  33.640  1.00  0.00     0.037 A 
BRANCH  54  68
ATOM     68  C   UNL A   1      45.303  27.623  32.497  1.00  0.00     0.058 A 
ATOM     69  C   UNL A   1      46.522  27.872  31.847  1.00  0.00     0.135 A 
ATOM     70  C   UNL A   1      45.272  26.609  33.468  1.00  0.00     0.135 A 
ATOM     71  F   UNL A   1      46.600  28.818  30.898  1.00  0.00    -0.206 F 
ATOM     72  C   UNL A   1      47.659  27.124  32.126  1.00  0.00     0.059 A 
ATOM     73  C   UNL A   1      46.404  25.863  33.780  1.00  0.00     0.059 A 
ATOM     74  F   UNL A   1      44.130  26.331  34.118  1.00  0.00    -0.206 F 
ATOM     75  C   UNL A   1      47.590  26.118  33.092  1.00  0.00     0.060 A 
BRANCH  75  76
ATOM     76  S   UNL A   1      49.075  25.152  33.439  1.00  0.00     0.124 S 
ATOM     77  O   UNL A   1      48.508  23.977  34.094  1.00  0.00    -0.237 OA
ATOM     78  O   UNL A   1      49.624  24.930  32.105  1.00  0.00    -0.237 OA
ATOM     79  O   UNL A   1      49.859  26.033  34.297  1.00  0.00    -0.744 OA
ENDBRANCH  75  76
ENDBRANCH  54  68
BRANCH  55  80
ATOM     80  C   UNL A   1      36.979  32.666  30.146  1.00  0.00     0.058 A 
ATOM     81  C   UNL A   1      36.951  33.614  29.113  1.00  0.00     0.135 A 
ATOM     82  C   UNL A   1      35.797  32.459  30.875  1.00  0.00     0.135 A 
ATOM     83  F   UNL A   1      38.058  33.849  28.391  1.00  0.00    -0.206 F 
ATOM     84  C   UNL A   1      35.806  34.350  28.828  1.00  0.00     0.059 A 
ATOM     85  C   UNL A   1      34.633  33.169  30.595  1.00  0.00     0.059 A 
ATOM     86  F   UNL A   1      35.765  31.550  31.862  1.00  0.00    -0.206 F 
ATOM     87  C   UNL A   1      34.652  34.125  29.579  1.00  0.00     0.060 A 
BRANCH  87  88
ATOM     88  S   UNL A   1      33.162  35.070  29.193  1.00  0.00     0.124 S 
ATOM     89  O   UNL A   1      32.505  34.196  28.227  1.00  0.00    -0.237 OA
ATOM     90  O   UNL A   1      32.516  35.179  30.498  1.00  0.00    -0.237 OA
ATOM     91  O   UNL A   1      33.691  36.321  28.659  1.00  0.00    -0.744 OA
ENDBRANCH  87  88
ENDBRANCH  55  80
BRANCH  67  92
ATOM     92  C   UNL A   1      42.190  33.762  34.630  1.00  0.00     0.058 A 
ATOM     93  C   UNL A   1      41.727  33.678  35.951  1.00  0.00     0.135 A 
ATOM     94  C   UNL A   1      42.982  34.865  34.274  1.00  0.00     0.135 A 
ATOM     95  F   UNL A   1      40.956  32.647  36.333  1.00  0.00    -0.206 F 
ATOM     96  C   UNL A   1      42.041  34.653  36.891  1.00  0.00     0.059 A 
ATOM     97  C   UNL A   1      43.324  35.842  35.202  1.00  0.00     0.059 A 
ATOM     98  F   UNL A   1      43.450  34.985  33.022  1.00  0.00    -0.206 F 
ATOM     99  C   UNL A   1      42.845  35.729  36.507  1.00  0.00     0.060 A 
BRANCH  99 100
ATOM    100  S   UNL A   1      43.305  36.953  37.753  1.00  0.00     0.124 S 
ATOM    101  O   UNL A   1      44.260  36.204  38.561  1.00  0.00    -0.237 OA
ATOM    102  O   UNL A   1      43.867  38.029  36.941  1.00  0.00    -0.237 OA
ATOM    103  O   UNL A   1      42.036  37.265  38.404  1.00  0.00    -0.744 OA
ENDBRANCH  99 100
ENDBRANCH  67  92
ENDBRANCH  41  42
ENDBRANCH  33  36
ENDBRANCH  31  32
ENDBRANCH   1  31
TORSDOF 17
ENDMDL
MODEL 2
REMARK VINA RESULT:     -12.3      1.065      8.044
REMARK SMILES O=C(NCCCNC(=O)c1ccc(-c2c3nc(c(-c4c(F)cc(S(=O)(=O)[O-])cc4F)c4ccc([nH]4)c(-c4c(F)cc(S(=O)(=O)[O-])cc4F)c4nc(c(-c5c(F)cc(S(=O)(=O)[O-])cc5F)c5ccc2[nH]5)C=C4)C=C3)cc1)C1=Cc2cc(Cl)cc(-c3ccc(CO)cc3)c2O[C@@H]1C(F)(F)F
REMARK SMILES IDX 5 1 4 2 3 3 1 4 2 5 76 7 77 8 94 9 78 10 93 11 79 12 92 13
REMARK SMILES IDX 80 14 83 15 81 16 82 17 95 18 96 19 97 20 98 21 84 22 85 23
REMARK SMILES IDX 91 24 86 25 90 26 87 27 88 28 89 29 6 31 7 32 8 33 9 35
REMARK SMILES IDX 10 36 11 37 75 38 12 39 74 40 13 41 14 42 15 43 68 44 16 45
REMARK SMILES IDX 73 46 67 47 69 48 17 49 72 50 66 51 65 52 18 54 52 55 31 56
REMARK SMILES IDX 51 57 32 58 35 59 50 60 70 61 33 62 34 63 49 65 71 66 36 67
REMARK SMILES IDX 19 68 20 69 29 70 21 71 22 72 28 73 30 74 23 75 24 76 25 77
REMARK SMILES IDX 26 78 27 79 53 80 54 81 63 82 55 83 56 84 62 85 64 86 57 87
REMARK SMILES IDX 58 88 59 89 60 90 61 91 37 92 38 93 47 94 39 95 40 96 46 97
REMARK SMILES IDX 48 98 41 99 42 100 43 101 44 102 45 103
REMARK H PARENT 3 6 89 30 7 34 69 53 35 64
REMARK Flexibility Score: inf
ROOT
ATOM      1  C   UNL A   1      35.986  23.005  25.861  1.00  0.00     0.042 C 
ENDROOT
BRANCH   1   2
ATOM      2  C   UNL A   1      34.651  22.788  25.153  1.00  0.00     0.118 C 
BRANCH   2   3
ATOM      3  N   UNL A   1      34.519  23.576  23.920  1.00  0.00    -0.352 N 
ATOM      4  O   UNL A   1      34.233  25.465  22.690  1.00  0.00    -0.270 OA
ATOM      5  C   UNL A   1      34.039  24.847  23.728  1.00  0.00     0.251 C 
ATOM      6  H   UNL A   1      34.824  23.119  23.103  1.00  0.00     0.163 HD
BRANCH   5   7
ATOM      7  C   UNL A   1      33.340  25.469  24.861  1.00  0.00     0.067 C 
ATOM      8  C   UNL A   1      34.068  26.221  25.695  1.00  0.00     0.025 C 
ATOM      9  C   UNL A   1      31.848  25.537  24.802  1.00  0.00     0.314 C 
ATOM     10  C   UNL A   1      33.397  27.446  26.138  1.00  0.00     0.019 A 
ATOM     11  O   UNL A   1      31.393  26.910  24.836  1.00  0.00    -0.475 OA
ATOM     12  C   UNL A   1      34.164  28.403  26.808  1.00  0.00     0.032 A 
ATOM     13  C   UNL A   1      32.179  27.810  25.522  1.00  0.00     0.135 A 
ATOM     14  C   UNL A   1      33.773  29.736  26.769  1.00  0.00     0.042 A 
ATOM     15  C   UNL A   1      31.817  29.163  25.429  1.00  0.00     0.026 A 
ATOM     16  Cl  UNL A   1      34.799  30.938  27.450  1.00  0.00    -0.084 Cl
ATOM     17  C   UNL A   1      32.631  30.118  26.067  1.00  0.00     0.033 A 
BRANCH   9  18
ATOM     18  C   UNL A   1      31.175  24.677  25.886  1.00  0.00     0.429 C 
ATOM     19  F   UNL A   1      31.127  23.373  25.514  1.00  0.00    -0.167 F 
ATOM     20  F   UNL A   1      31.855  24.718  27.056  1.00  0.00    -0.167 F 
ATOM     21  F   UNL A   1      29.904  25.060  26.147  1.00  0.00    -0.167 F 
ENDBRANCH   9  18
BRANCH  15  22
ATOM     22  C   UNL A   1      30.769  29.632  24.509  1.00  0.00    -0.015 A 
ATOM     23  C   UNL A   1      30.452  28.870  23.371  1.00  0.00     0.009 A 
ATOM     24  C   UNL A   1      30.142  30.869  24.672  1.00  0.00     0.009 A 
ATOM     25  C   UNL A   1      29.610  29.364  22.377  1.00  0.00     0.007 A 
ATOM     26  C   UNL A   1      29.279  31.360  23.686  1.00  0.00     0.007 A 
ATOM     27  C   UNL A   1      29.027  30.623  22.520  1.00  0.00    -0.023 A 
BRANCH  27  28
ATOM     28  C   UNL A   1      28.233  31.211  21.388  1.00  0.00     0.191 C 
BRANCH  28  29
ATOM     29  O   UNL A   1      27.702  30.176  20.570  1.00  0.00    -0.392 OA
ATOM     30  H   UNL A   1      26.784  30.386  20.338  1.00  0.00     0.211 HD
ENDBRANCH  28  29
ENDBRANCH  27  28
ENDBRANCH  15  22
ENDBRANCH   5   7
ENDBRANCH   2   3
ENDBRANCH   1   2
BRANCH   1  31
ATOM     31  C   UNL A   1      37.172  23.124  24.901  1.00  0.00     0.118 C 
BRANCH  31  32
ATOM     32  N   UNL A   1      38.402  22.473  25.329  1.00  0.00    -0.352 N 
ATOM     33  C   UNL A   1      39.346  22.909  26.242  1.00  0.00     0.251 C 
ATOM     34  H   UNL A   1      38.587  21.602  24.911  1.00  0.00     0.163 HD
ATOM     35  O   UNL A   1      40.290  22.180  26.539  1.00  0.00    -0.269 OA
BRANCH  33  36
ATOM     36  C   UNL A   1      39.299  24.304  26.744  1.00  0.00     0.039 A 
ATOM     37  C   UNL A   1      38.564  24.546  27.910  1.00  0.00     0.014 A 
ATOM     38  C   UNL A   1      40.094  25.310  26.200  1.00  0.00     0.014 A 
ATOM     39  C   UNL A   1      38.782  25.720  28.632  1.00  0.00     0.010 A 
ATOM     40  C   UNL A   1      40.382  26.436  26.966  1.00  0.00     0.010 A 
ATOM     41  C   UNL A   1      39.781  26.615  28.222  1.00  0.00    -0.014 A 
BRANCH  41  42
ATOM     42  C   UNL A   1      40.311  27.663  29.132  1.00  0.00     0.031 A 
ATOM     43  C   UNL A   1      39.512  28.904  29.406  1.00  0.00     0.074 A 
ATOM     44  C   UNL A   1      41.576  27.552  29.594  1.00  0.00     0.049 A 
ATOM     45  N   UNL A   1      39.883  30.012  29.992  1.00  0.00    -0.248 NA
ATOM     46  C   UNL A   1      38.123  28.914  28.922  1.00  0.00     0.031 C 
ATOM     47  C   UNL A   1      42.479  26.423  29.343  1.00  0.00     0.029 A 
ATOM     48  N   UNL A   1      42.336  28.408  30.353  1.00  0.00    -0.354 N 
ATOM     49  C   UNL A   1      38.786  30.860  29.924  1.00  0.00     0.074 A 
ATOM     50  C   UNL A   1      37.748  30.154  29.202  1.00  0.00     0.031 C 
ATOM     51  C   UNL A   1      43.651  26.641  29.958  1.00  0.00     0.029 A 
ATOM     52  C   UNL A   1      43.610  27.947  30.602  1.00  0.00     0.049 A 
ATOM     53  H   UNL A   1      42.000  29.269  30.690  1.00  0.00     0.167 HD
ATOM     54  C   UNL A   1      38.651  32.106  30.436  1.00  0.00     0.037 A 
ATOM     55  C   UNL A   1      44.637  28.523  31.256  1.00  0.00     0.037 A 
ATOM     56  C   UNL A   1      39.672  32.783  31.190  1.00  0.00     0.049 A 
ATOM     57  C   UNL A   1      44.455  29.902  31.827  1.00  0.00     0.074 A 
ATOM     58  C   UNL A   1      39.615  34.024  31.798  1.00  0.00     0.029 A 
ATOM     59  N   UNL A   1      40.932  32.266  31.453  1.00  0.00    -0.354 N 
ATOM     60  N   UNL A   1      43.397  30.677  31.777  1.00  0.00    -0.248 NA
ATOM     61  C   UNL A   1      45.603  30.491  32.528  1.00  0.00     0.031 C 
ATOM     62  C   UNL A   1      40.848  34.266  32.413  1.00  0.00     0.029 A 
ATOM     63  C   UNL A   1      41.664  33.165  32.208  1.00  0.00     0.049 A 
ATOM     64  H   UNL A   1      41.258  31.388  31.146  1.00  0.00     0.167 HD
ATOM     65  C   UNL A   1      43.749  31.839  32.452  1.00  0.00     0.074 A 
ATOM     66  C   UNL A   1      45.111  31.661  32.914  1.00  0.00     0.031 C 
ATOM     67  C   UNL A   1      43.014  32.957  32.664  1.00  0.00     0.037 A 
BRANCH  54  68
ATOM     68  C   UNL A   1      37.340  32.806  30.215  1.00  0.00     0.058 A 
ATOM     69  C   UNL A   1      37.139  33.642  29.106  1.00  0.00     0.135 A 
ATOM     70  C   UNL A   1      36.267  32.624  31.103  1.00  0.00     0.135 A 
ATOM     71  F   UNL A   1      38.138  33.864  28.238  1.00  0.00    -0.206 F 
ATOM     72  C   UNL A   1      35.931  34.298  28.900  1.00  0.00     0.059 A 
ATOM     73  C   UNL A   1      35.042  33.251  30.904  1.00  0.00     0.059 A 
ATOM     74  F   UNL A   1      36.409  31.835  32.181  1.00  0.00    -0.206 F 
ATOM     75  C   UNL A   1      34.888  34.099  29.807  1.00  0.00     0.060 A 
BRANCH  75  76
ATOM     76  S   UNL A   1      33.326  34.961  29.529  1.00  0.00     0.124 S 
ATOM     77  O   UNL A   1      32.736  34.927  30.864  1.00  0.00    -0.237 OA
ATOM     78  O   UNL A   1      33.770  36.272  29.066  1.00  0.00    -0.237 OA
ATOM     79  O   UNL A   1      32.659  34.138  28.526  1.00  0.00    -0.744 OA
ENDBRANCH  75  76
ENDBRANCH  54  68
BRANCH  55  80
ATOM     80  C   UNL A   1      45.930  27.805  31.414  1.00  0.00     0.058 A 
ATOM     81  C   UNL A   1      46.942  27.933  30.451  1.00  0.00     0.135 A 
ATOM     82  C   UNL A   1      46.177  26.967  32.513  1.00  0.00     0.135 A 
ATOM     83  F   UNL A   1      46.751  28.718  29.379  1.00  0.00    -0.206 F 
ATOM     84  C   UNL A   1      48.142  27.238  30.555  1.00  0.00     0.059 A 
ATOM     85  C   UNL A   1      47.379  26.278  32.651  1.00  0.00     0.059 A 
ATOM     86  F   UNL A   1      45.249  26.825  33.472  1.00  0.00    -0.206 F 
ATOM     87  C   UNL A   1      48.349  26.407  31.657  1.00  0.00     0.060 A 
BRANCH  87  88
ATOM     88  S   UNL A   1      49.917  25.521  31.799  1.00  0.00     0.124 S 
ATOM     89  O   UNL A   1      49.581  24.489  32.773  1.00  0.00    -0.237 OA
ATOM     90  O   UNL A   1      50.140  25.062  30.432  1.00  0.00    -0.237 OA
ATOM     91  O   UNL A   1      50.841  26.554  32.263  1.00  0.00    -0.744 OA
ENDBRANCH  87  88
ENDBRANCH  55  80
BRANCH  67  92
ATOM     92  C   UNL A   1      43.660  34.066  33.439  1.00  0.00     0.058 A 
ATOM     93  C   UNL A   1      44.347  35.102  32.791  1.00  0.00     0.135 A 
ATOM     94  C   UNL A   1      43.525  34.132  34.835  1.00  0.00     0.135 A 
ATOM     95  F   UNL A   1      44.511  35.074  31.458  1.00  0.00    -0.206 F 
ATOM     96  C   UNL A   1      44.882  36.171  33.501  1.00  0.00     0.059 A 
ATOM     97  C   UNL A   1      44.035  35.201  35.563  1.00  0.00     0.059 A 
ATOM     98  F   UNL A   1      42.871  33.165  35.497  1.00  0.00    -0.206 F 
ATOM     99  C   UNL A   1      44.715  36.214  34.887  1.00  0.00     0.060 A 
BRANCH  99 100
ATOM    100  S   UNL A   1      45.351  37.641  35.792  1.00  0.00     0.124 S 
ATOM    101  O   UNL A   1      45.919  38.442  34.713  1.00  0.00    -0.237 OA
ATOM    102  O   UNL A   1      44.146  38.180  36.415  1.00  0.00    -0.237 OA
ATOM    103  O   UNL A   1      46.317  37.053  36.715  1.00  0.00    -0.744 OA
ENDBRANCH  99 100
ENDBRANCH  67  92
ENDBRANCH  41  42
ENDBRANCH  33  36
ENDBRANCH  31  32
ENDBRANCH   1  31
TORSDOF 17
ENDMDL
MODEL 3
REMARK VINA RESULT:     -12.2      2.940      8.216
REMARK SMILES O=C(NCCCNC(=O)c1ccc(-c2c3nc(c(-c4c(F)cc(S(=O)(=O)[O-])cc4F)c4ccc([nH]4)c(-c4c(F)cc(S(=O)(=O)[O-])cc4F)c4nc(c(-c5c(F)cc(S(=O)(=O)[O-])cc5F)c5ccc2[nH]5)C=C4)C=C3)cc1)C1=Cc2cc(Cl)cc(-c3ccc(CO)cc3)c2O[C@@H]1C(F)(F)F
REMARK SMILES IDX 5 1 4 2 3 3 1 4 2 5 76 7 77 8 94 9 78 10 93 11 79 12 92 13
REMARK SMILES IDX 80 14 83 15 81 16 82 17 95 18 96 19 97 20 98 21 84 22 85 23
REMARK SMILES IDX 91 24 86 25 90 26 87 27 88 28 89 29 6 31 7 32 8 33 9 35
REMARK SMILES IDX 10 36 11 37 75 38 12 39 74 40 13 41 14 42 15 43 68 44 16 45
REMARK SMILES IDX 73 46 67 47 69 48 17 49 72 50 66 51 65 52 18 54 52 55 31 56
REMARK SMILES IDX 51 57 32 58 35 59 50 60 70 61 33 62 34 63 49 65 71 66 36 67
REMARK SMILES IDX 19 68 20 69 29 70 21 71 22 72 28 73 30 74 23 75 24 76 25 77
REMARK SMILES IDX 26 78 27 79 53 80 54 81 63 82 55 83 56 84 62 85 64 86 57 87
REMARK SMILES IDX 58 88 59 89 60 90 61 91 37 92 38 93 47 94 39 95 40 96 46 97
REMARK SMILES IDX 48 98 41 99 42 100 43 101 44 102 45 103
REMARK H PARENT 3 6 89 30 7 34 69 53 35 64
REMARK Flexibility Score: inf
ROOT
ATOM      1  C   UNL A   1      35.829  23.139  25.795  1.00  0.00     0.042 C 
ENDROOT
BRANCH   1   2
ATOM      2  C   UNL A   1      34.521  22.866  25.055  1.00  0.00     0.118 C 
BRANCH   2   3
ATOM      3  N   UNL A   1      34.397  23.627  23.806  1.00  0.00    -0.352 N 
ATOM      4  O   UNL A   1      34.081  25.484  22.534  1.00  0.00    -0.270 OA
ATOM      5  C   UNL A   1      33.880  24.878  23.578  1.00  0.00     0.251 C 
ATOM      6  H   UNL A   1      34.741  23.168  23.005  1.00  0.00     0.163 HD
BRANCH   5   7
ATOM      7  C   UNL A   1      33.127  25.494  24.679  1.00  0.00     0.067 C 
ATOM      8  C   UNL A   1      33.818  26.220  25.566  1.00  0.00     0.025 C 
ATOM      9  C   UNL A   1      31.642  25.588  24.537  1.00  0.00     0.314 C 
ATOM     10  C   UNL A   1      33.143  27.450  25.991  1.00  0.00     0.019 A 
ATOM     11  O   UNL A   1      31.208  26.968  24.568  1.00  0.00    -0.475 OA
ATOM     12  C   UNL A   1      33.886  28.383  26.718  1.00  0.00     0.032 A 
ATOM     13  C   UNL A   1      31.968  27.844  25.313  1.00  0.00     0.135 A 
ATOM     14  C   UNL A   1      33.520  29.722  26.679  1.00  0.00     0.042 A 
ATOM     15  C   UNL A   1      31.634  29.204  25.221  1.00  0.00     0.026 A 
ATOM     16  Cl  UNL A   1      34.524  30.896  27.437  1.00  0.00    -0.084 Cl
ATOM     17  C   UNL A   1      32.425  30.135  25.920  1.00  0.00     0.033 A 
BRANCH   9  18
ATOM     18  C   UNL A   1      30.895  24.723  25.567  1.00  0.00     0.429 C 
ATOM     19  F   UNL A   1      31.648  24.529  26.679  1.00  0.00    -0.167 F 
ATOM     20  F   UNL A   1      29.746  25.309  25.978  1.00  0.00    -0.167 F 
ATOM     21  F   UNL A   1      30.572  23.498  25.090  1.00  0.00    -0.167 F 
ENDBRANCH   9  18
BRANCH  15  22
ATOM     22  C   UNL A   1      30.647  29.705  24.251  1.00  0.00    -0.015 A 
ATOM     23  C   UNL A   1      30.579  29.130  22.970  1.00  0.00     0.009 A 
ATOM     24  C   UNL A   1      29.838  30.809  24.525  1.00  0.00     0.009 A 
ATOM     25  C   UNL A   1      29.800  29.693  21.962  1.00  0.00     0.007 A 
ATOM     26  C   UNL A   1      29.037  31.365  23.520  1.00  0.00     0.007 A 
ATOM     27  C   UNL A   1      29.033  30.827  22.226  1.00  0.00    -0.023 A 
BRANCH  27  28
ATOM     28  C   UNL A   1      28.305  31.513  21.104  1.00  0.00     0.191 C 
BRANCH  28  29
ATOM     29  O   UNL A   1      27.724  32.728  21.564  1.00  0.00    -0.392 OA
ATOM     30  H   UNL A   1      27.608  32.686  22.526  1.00  0.00     0.211 HD
ENDBRANCH  28  29
ENDBRANCH  27  28
ENDBRANCH  15  22
ENDBRANCH   5   7
ENDBRANCH   2   3
ENDBRANCH   1   2
BRANCH   1  31
ATOM     31  C   UNL A   1      37.067  23.029  24.902  1.00  0.00     0.118 C 
BRANCH  31  32
ATOM     32  N   UNL A   1      38.183  22.277  25.456  1.00  0.00    -0.352 N 
ATOM     33  C   UNL A   1      39.129  22.677  26.383  1.00  0.00     0.251 C 
ATOM     34  H   UNL A   1      38.279  21.355  25.125  1.00  0.00     0.163 HD
ATOM     35  O   UNL A   1      39.958  21.870  26.797  1.00  0.00    -0.269 OA
BRANCH  33  36
ATOM     36  C   UNL A   1      39.232  24.108  26.762  1.00  0.00     0.039 A 
ATOM     37  C   UNL A   1      38.906  24.452  28.079  1.00  0.00     0.014 A 
ATOM     38  C   UNL A   1      39.802  25.055  25.914  1.00  0.00     0.014 A 
ATOM     39  C   UNL A   1      39.334  25.676  28.598  1.00  0.00     0.010 A 
ATOM     40  C   UNL A   1      40.310  26.232  26.457  1.00  0.00     0.010 A 
ATOM     41  C   UNL A   1      40.140  26.519  27.820  1.00  0.00    -0.014 A 
BRANCH  41  42
ATOM     42  C   UNL A   1      40.924  27.626  28.427  1.00  0.00     0.031 A 
ATOM     43  C   UNL A   1      40.224  28.812  29.023  1.00  0.00     0.074 A 
ATOM     44  C   UNL A   1      42.270  27.618  28.309  1.00  0.00     0.049 A 
ATOM     45  N   UNL A   1      40.723  29.959  29.404  1.00  0.00    -0.248 NA
ATOM     46  C   UNL A   1      38.764  28.710  29.174  1.00  0.00     0.031 C 
ATOM     47  C   UNL A   1      43.065  26.551  27.690  1.00  0.00     0.029 A 
ATOM     48  N   UNL A   1      43.213  28.545  28.680  1.00  0.00    -0.354 N 
ATOM     49  C   UNL A   1      39.639  30.724  29.813  1.00  0.00     0.074 A 
ATOM     50  C   UNL A   1      38.450  29.926  29.594  1.00  0.00     0.031 C 
ATOM     51  C   UNL A   1      44.368  26.869  27.752  1.00  0.00     0.029 A 
ATOM     52  C   UNL A   1      44.503  28.185  28.362  1.00  0.00     0.049 A 
ATOM     53  H   UNL A   1      42.986  29.389  29.134  1.00  0.00     0.167 HD
ATOM     54  C   UNL A   1      39.639  31.970  30.343  1.00  0.00     0.037 A 
ATOM     55  C   UNL A   1      45.664  28.849  28.523  1.00  0.00     0.037 A 
ATOM     56  C   UNL A   1      40.828  32.737  30.598  1.00  0.00     0.049 A 
ATOM     57  C   UNL A   1      45.635  30.226  29.127  1.00  0.00     0.074 A 
ATOM     58  C   UNL A   1      40.939  33.987  31.181  1.00  0.00     0.029 A 
ATOM     59  N   UNL A   1      42.116  32.320  30.298  1.00  0.00    -0.354 N 
ATOM     60  N   UNL A   1      44.600  30.921  29.536  1.00  0.00    -0.248 NA
ATOM     61  C   UNL A   1      46.924  30.915  29.279  1.00  0.00     0.031 C 
ATOM     62  C   UNL A   1      42.294  34.333  31.217  1.00  0.00     0.029 A 
ATOM     63  C   UNL A   1      43.028  33.288  30.678  1.00  0.00     0.049 A 
ATOM     64  H   UNL A   1      42.347  31.460  29.876  1.00  0.00     0.167 HD
ATOM     65  C   UNL A   1      45.115  32.123  30.006  1.00  0.00     0.074 A 
ATOM     66  C   UNL A   1      46.553  32.055  29.845  1.00  0.00     0.031 C 
ATOM     67  C   UNL A   1      44.456  33.191  30.517  1.00  0.00     0.037 A 
BRANCH  54  68
ATOM     68  C   UNL A   1      38.308  32.567  30.704  1.00  0.00     0.058 A 
ATOM     69  C   UNL A   1      37.547  33.274  29.760  1.00  0.00     0.135 A 
ATOM     70  C   UNL A   1      37.776  32.415  31.994  1.00  0.00     0.135 A 
ATOM     71  F   UNL A   1      38.019  33.463  28.517  1.00  0.00    -0.206 F 
ATOM     72  C   UNL A   1      36.319  33.835  30.089  1.00  0.00     0.059 A 
ATOM     73  C   UNL A   1      36.538  32.948  32.340  1.00  0.00     0.059 A 
ATOM     74  F   UNL A   1      38.465  31.749  32.935  1.00  0.00    -0.206 F 
ATOM     75  C   UNL A   1      35.824  33.670  31.384  1.00  0.00     0.060 A 
BRANCH  75  76
ATOM     76  S   UNL A   1      34.229  34.408  31.798  1.00  0.00     0.124 S 
ATOM     77  O   UNL A   1      33.658  33.390  32.675  1.00  0.00    -0.237 OA
ATOM     78  O   UNL A   1      34.620  35.655  32.448  1.00  0.00    -0.237 OA
ATOM     79  O   UNL A   1      33.578  34.558  30.501  1.00  0.00    -0.744 OA
ENDBRANCH  75  76
ENDBRANCH  54  68
BRANCH  55  80
ATOM     80  C   UNL A   1      46.952  28.231  28.112  1.00  0.00     0.058 A 
ATOM     81  C   UNL A   1      47.412  28.342  26.792  1.00  0.00     0.135 A 
ATOM     82  C   UNL A   1      47.741  27.505  29.019  1.00  0.00     0.135 A 
ATOM     83  F   UNL A   1      46.689  29.022  25.887  1.00  0.00    -0.206 F 
ATOM     84  C   UNL A   1      48.591  27.736  26.375  1.00  0.00     0.059 A 
ATOM     85  C   UNL A   1      48.937  26.908  28.631  1.00  0.00     0.059 A 
ATOM     86  F   UNL A   1      47.357  27.384  30.299  1.00  0.00    -0.206 F 
ATOM     87  C   UNL A   1      49.346  27.015  27.301  1.00  0.00     0.060 A 
BRANCH  87  88
ATOM     88  S   UNL A   1      50.888  26.246  26.761  1.00  0.00     0.124 S 
ATOM     89  O   UNL A   1      51.850  26.847  27.677  1.00  0.00    -0.237 OA
ATOM     90  O   UNL A   1      50.615  24.826  26.962  1.00  0.00    -0.237 OA
ATOM     91  O   UNL A   1      50.996  26.663  25.365  1.00  0.00    -0.744 OA
ENDBRANCH  87  88
ENDBRANCH  55  80
BRANCH  67  92
ATOM     92  C   UNL A   1      45.282  34.363  30.953  1.00  0.00     0.058 A 
ATOM     93  C   UNL A   1      45.555  35.425  30.080  1.00  0.00     0.135 A 
ATOM     94  C   UNL A   1      45.740  34.459  32.277  1.00  0.00     0.135 A 
ATOM     95  F   UNL A   1      45.147  35.371  28.801  1.00  0.00    -0.206 F 
ATOM     96  C   UNL A   1      46.257  36.548  30.504  1.00  0.00     0.059 A 
ATOM     97  C   UNL A   1      46.427  35.581  32.727  1.00  0.00     0.059 A 
ATOM     98  F   UNL A   1      45.499  33.468  33.149  1.00  0.00    -0.206 F 
ATOM     99  C   UNL A   1      46.683  36.618  31.831  1.00  0.00     0.060 A 
BRANCH  99 100
ATOM    100  S   UNL A   1      47.532  38.111  32.390  1.00  0.00     0.124 S 
ATOM    101  O   UNL A   1      47.440  37.976  33.839  1.00  0.00    -0.237 OA
ATOM    102  O   UNL A   1      48.867  37.944  31.821  1.00  0.00    -0.237 OA
ATOM    103  O   UNL A   1      46.740  39.189  31.806  1.00  0.00    -0.744 OA
ENDBRANCH  99 100
ENDBRANCH  67  92
ENDBRANCH  41  42
ENDBRANCH  33  36
ENDBRANCH  31  32
ENDBRANCH   1  31
TORSDOF 17
ENDMDL
