MODEL 1
REMARK VINA RESULT:     -10.3      0.000      0.000
REMARK SMILES C[C@@H]([C@H](C)O)[C@@H](Cc1ccccc1)C(=O)NCCCNC(=O)c1ccc(-c2c3nc(c(-c4c(F)cc(S(=O)(=O)[O-])cc4F)c4ccc([nH]4)c(-c4c(F)cc(S(=O)(=O)[O-])cc4F)c4nc(c(-c5c(F)cc(S(=O)(=O)[O-])cc5F)c5ccc2[nH]5)C=C4)C=C3)cc1
REMARK SMILES IDX 18 1 17 2 16 3 14 4 15 5 6 7 2 8 1 9 3 10 4 11 5 12 7 14
REMARK SMILES IDX 8 15 9 16 13 17 10 18 12 19 11 20 19 21 20 22 21 23 22 25
REMARK SMILES IDX 23 26 24 27 88 28 25 29 87 30 26 31 27 32 28 33 81 34 29 35
REMARK SMILES IDX 86 36 80 37 82 38 30 39 85 40 79 41 78 42 31 44 65 45 44 46
REMARK SMILES IDX 64 47 45 48 48 49 63 50 83 51 46 52 47 53 62 55 84 56 49 57
REMARK SMILES IDX 32 58 33 59 42 60 34 61 35 62 41 63 43 64 36 65 37 66 38 67
REMARK SMILES IDX 39 68 40 69 66 70 67 71 76 72 68 73 69 74 75 75 77 76 70 77
REMARK SMILES IDX 71 78 72 79 73 80 74 81 50 82 51 83 60 84 52 85 53 86 59 87
REMARK SMILES IDX 61 88 54 89 55 90 56 91 57 92 58 93
REMARK H PARENT 16 6 5 13 20 24 82 43 48 54
REMARK Flexibility Score: inf
ROOT
ATOM      1  C   UNL A   1      35.611  23.321  25.519  1.00  0.00     0.042 C 
ENDROOT
BRANCH   1   2
ATOM      2  C   UNL A   1      34.610  24.452  25.508  1.00  0.00     0.117 C 
BRANCH   2   3
ATOM      3  N   UNL A   1      33.429  24.240  26.310  1.00  0.00    -0.356 N 
ATOM      4  C   UNL A   1      32.259  24.936  26.312  1.00  0.00     0.223 C 
ATOM      5  O   UNL A   1      31.277  24.404  26.842  1.00  0.00    -0.275 OA
ATOM      6  H   UNL A   1      33.476  23.488  26.944  1.00  0.00     0.163 HD
BRANCH   4   7
ATOM      7  C   UNL A   1      32.116  26.316  25.657  1.00  0.00     0.088 C 
BRANCH   7   8
ATOM      8  C   UNL A   1      31.554  26.303  24.189  1.00  0.00     0.027 C 
ATOM      9  C   UNL A   1      30.377  27.276  24.039  1.00  0.00     0.011 C 
BRANCH   8  10
ATOM     10  C   UNL A   1      32.682  26.653  23.162  1.00  0.00     0.115 C 
ATOM     11  C   UNL A   1      33.608  27.798  23.561  1.00  0.00     0.038 C 
BRANCH  10  12
ATOM     12  O   UNL A   1      32.111  27.012  21.907  1.00  0.00    -0.393 OA
ATOM     13  H   UNL A   1      32.622  26.603  21.190  1.00  0.00     0.210 HD
ENDBRANCH  10  12
ENDBRANCH   8  10
ENDBRANCH   7   8
BRANCH   7  14
ATOM     14  C   UNL A   1      31.606  27.379  26.677  1.00  0.00     0.049 C 
BRANCH  14  15
ATOM     15  C   UNL A   1      32.459  28.586  26.997  1.00  0.00    -0.047 A 
ATOM     16  C   UNL A   1      31.889  29.870  27.014  1.00  0.00     0.004 A 
ATOM     17  C   UNL A   1      33.837  28.465  27.227  1.00  0.00     0.004 A 
ATOM     18  C   UNL A   1      32.691  31.007  27.157  1.00  0.00     0.000 A 
ATOM     19  C   UNL A   1      34.637  29.602  27.372  1.00  0.00     0.000 A 
ATOM     20  C   UNL A   1      34.069  30.872  27.312  1.00  0.00     0.000 A 
ENDBRANCH  14  15
ENDBRANCH   7  14
ENDBRANCH   4   7
ENDBRANCH   2   3
ENDBRANCH   1   2
BRANCH   1  21
ATOM     21  C   UNL A   1      36.970  23.748  24.994  1.00  0.00     0.118 C 
BRANCH  21  22
ATOM     22  N   UNL A   1      38.042  22.821  25.365  1.00  0.00    -0.352 N 
ATOM     23  C   UNL A   1      39.200  23.026  26.076  1.00  0.00     0.251 C 
ATOM     24  H   UNL A   1      37.911  21.896  25.053  1.00  0.00     0.163 HD
ATOM     25  O   UNL A   1      40.073  22.161  26.087  1.00  0.00    -0.269 OA
BRANCH  23  26
ATOM     26  C   UNL A   1      39.396  24.294  26.803  1.00  0.00     0.039 A 
ATOM     27  C   UNL A   1      38.861  24.452  28.084  1.00  0.00     0.014 A 
ATOM     28  C   UNL A   1      40.141  25.321  26.224  1.00  0.00     0.014 A 
ATOM     29  C   UNL A   1      39.163  25.602  28.816  1.00  0.00     0.010 A 
ATOM     30  C   UNL A   1      40.555  26.389  27.001  1.00  0.00     0.010 A 
ATOM     31  C   UNL A   1      40.059  26.553  28.300  1.00  0.00    -0.014 A 
BRANCH  31  32
ATOM     32  C   UNL A   1      40.488  27.743  29.077  1.00  0.00     0.031 A 
ATOM     33  C   UNL A   1      41.806  27.718  29.806  1.00  0.00     0.074 A 
ATOM     34  C   UNL A   1      39.651  28.791  29.214  1.00  0.00     0.049 A 
ATOM     35  N   UNL A   1      42.301  28.584  30.649  1.00  0.00    -0.248 NA
ATOM     36  C   UNL A   1      42.661  26.535  29.596  1.00  0.00     0.031 C 
ATOM     37  C   UNL A   1      38.316  28.898  28.616  1.00  0.00     0.029 A 
ATOM     38  N   UNL A   1      39.791  29.962  29.915  1.00  0.00    -0.354 N 
ATOM     39  C   UNL A   1      43.501  28.036  31.092  1.00  0.00     0.074 A 
ATOM     40  C   UNL A   1      43.625  26.735  30.480  1.00  0.00     0.031 C 
ATOM     41  C   UNL A   1      37.777  30.081  28.949  1.00  0.00     0.029 A 
ATOM     42  C   UNL A   1      38.702  30.797  29.821  1.00  0.00     0.049 A 
ATOM     43  H   UNL A   1      40.595  30.183  30.438  1.00  0.00     0.167 HD
ATOM     44  C   UNL A   1      44.431  28.584  31.908  1.00  0.00     0.037 A 
ATOM     45  C   UNL A   1      38.475  32.001  30.381  1.00  0.00     0.037 A 
ATOM     46  C   UNL A   1      44.319  29.903  32.469  1.00  0.00     0.049 A 
ATOM     47  C   UNL A   1      39.538  32.606  31.256  1.00  0.00     0.074 A 
ATOM     48  C   UNL A   1      45.236  30.590  33.244  1.00  0.00     0.029 A 
ATOM     49  N   UNL A   1      43.225  30.740  32.306  1.00  0.00    -0.354 N 
ATOM     50  N   UNL A   1      40.698  32.103  31.610  1.00  0.00    -0.248 NA
ATOM     51  C   UNL A   1      39.268  33.942  31.803  1.00  0.00     0.031 C 
ATOM     52  C   UNL A   1      44.680  31.827  33.584  1.00  0.00     0.029 A 
ATOM     53  C   UNL A   1      43.437  31.931  32.979  1.00  0.00     0.049 A 
ATOM     54  H   UNL A   1      42.417  30.520  31.789  1.00  0.00     0.167 HD
ATOM     55  C   UNL A   1      41.307  33.073  32.397  1.00  0.00     0.074 A 
ATOM     56  C   UNL A   1      40.393  34.195  32.457  1.00  0.00     0.031 C 
ATOM     57  C   UNL A   1      42.514  33.039  33.015  1.00  0.00     0.037 A 
BRANCH  44  58
ATOM     58  C   UNL A   1      45.653  27.765  32.224  1.00  0.00     0.058 A 
ATOM     59  C   UNL A   1      45.710  26.924  33.348  1.00  0.00     0.135 A 
ATOM     60  C   UNL A   1      46.777  27.804  31.380  1.00  0.00     0.135 A 
ATOM     61  F   UNL A   1      44.674  26.861  34.198  1.00  0.00    -0.206 F 
ATOM     62  C   UNL A   1      46.846  26.178  33.643  1.00  0.00     0.059 A 
ATOM     63  C   UNL A   1      47.912  27.041  31.639  1.00  0.00     0.059 A 
ATOM     64  F   UNL A   1      46.780  28.592  30.293  1.00  0.00    -0.206 F 
ATOM     65  C   UNL A   1      47.942  26.243  32.783  1.00  0.00     0.060 A 
BRANCH  65  66
ATOM     66  S   UNL A   1      49.404  25.261  33.177  1.00  0.00     0.124 S 
ATOM     67  O   UNL A   1      49.911  24.946  31.845  1.00  0.00    -0.237 OA
ATOM     68  O   UNL A   1      50.209  26.198  33.955  1.00  0.00    -0.237 OA
ATOM     69  O   UNL A   1      48.863  24.131  33.926  1.00  0.00    -0.744 OA
ENDBRANCH  65  66
ENDBRANCH  44  58
BRANCH  45  70
ATOM     70  C   UNL A   1      37.203  32.723  30.102  1.00  0.00     0.058 A 
ATOM     71  C   UNL A   1      36.061  32.493  30.883  1.00  0.00     0.135 A 
ATOM     72  C   UNL A   1      37.109  33.668  29.070  1.00  0.00     0.135 A 
ATOM     73  F   UNL A   1      36.099  31.597  31.880  1.00  0.00    -0.206 F 
ATOM     74  C   UNL A   1      34.864  33.161  30.640  1.00  0.00     0.059 A 
ATOM     75  C   UNL A   1      35.931  34.368  28.823  1.00  0.00     0.059 A 
ATOM     76  F   UNL A   1      38.179  33.941  28.307  1.00  0.00    -0.206 F 
ATOM     77  C   UNL A   1      34.810  34.099  29.609  1.00  0.00     0.060 A 
BRANCH  77  78
ATOM     78  S   UNL A   1      33.267  34.998  29.335  1.00  0.00     0.124 S 
ATOM     79  O   UNL A   1      33.759  36.298  28.893  1.00  0.00    -0.237 OA
ATOM     80  O   UNL A   1      32.614  34.181  28.318  1.00  0.00    -0.237 OA
ATOM     81  O   UNL A   1      32.630  34.976  30.650  1.00  0.00    -0.744 OA
ENDBRANCH  77  78
ENDBRANCH  45  70
BRANCH  57  82
ATOM     82  C   UNL A   1      42.933  34.263  33.779  1.00  0.00     0.058 A 
ATOM     83  C   UNL A   1      42.730  34.375  35.163  1.00  0.00     0.135 A 
ATOM     84  C   UNL A   1      43.600  35.312  33.124  1.00  0.00     0.135 A 
ATOM     85  F   UNL A   1      42.093  33.403  35.833  1.00  0.00    -0.206 F 
ATOM     86  C   UNL A   1      43.154  35.495  35.868  1.00  0.00     0.059 A 
ATOM     87  C   UNL A   1      44.058  36.428  33.815  1.00  0.00     0.059 A 
ATOM     88  F   UNL A   1      43.829  35.248  31.803  1.00  0.00    -0.206 F 
ATOM     89  C   UNL A   1      43.821  36.515  35.186  1.00  0.00     0.060 A 
BRANCH  89  90
ATOM     90  S   UNL A   1      44.397  37.947  36.121  1.00  0.00     0.124 S 
ATOM     91  O   UNL A   1      45.811  37.632  36.298  1.00  0.00    -0.237 OA
ATOM     92  O   UNL A   1      44.102  39.051  35.212  1.00  0.00    -0.237 OA
ATOM     93  O   UNL A   1      43.588  37.910  37.335  1.00  0.00    -0.744 OA
ENDBRANCH  89  90
ENDBRANCH  57  82
ENDBRANCH  31  32
ENDBRANCH  23  26
ENDBRANCH  21  22
ENDBRANCH   1  21
TORSDOF 18
ENDMDL
MODEL 2
REMARK VINA RESULT:     -10.2      4.730     10.356
REMARK SMILES C[C@@H]([C@H](C)O)[C@@H](Cc1ccccc1)C(=O)NCCCNC(=O)c1ccc(-c2c3nc(c(-c4c(F)cc(S(=O)(=O)[O-])cc4F)c4ccc([nH]4)c(-c4c(F)cc(S(=O)(=O)[O-])cc4F)c4nc(c(-c5c(F)cc(S(=O)(=O)[O-])cc5F)c5ccc2[nH]5)C=C4)C=C3)cc1
REMARK SMILES IDX 18 1 17 2 16 3 14 4 15 5 6 7 2 8 1 9 3 10 4 11 5 12 7 14
REMARK SMILES IDX 8 15 9 16 13 17 10 18 12 19 11 20 19 21 20 22 21 23 22 25
REMARK SMILES IDX 23 26 24 27 88 28 25 29 87 30 26 31 27 32 28 33 81 34 29 35
REMARK SMILES IDX 86 36 80 37 82 38 30 39 85 40 79 41 78 42 31 44 65 45 44 46
REMARK SMILES IDX 64 47 45 48 48 49 63 50 83 51 46 52 47 53 62 55 84 56 49 57
REMARK SMILES IDX 32 58 33 59 42 60 34 61 35 62 41 63 43 64 36 65 37 66 38 67
REMARK SMILES IDX 39 68 40 69 66 70 67 71 76 72 68 73 69 74 75 75 77 76 70 77
REMARK SMILES IDX 71 78 72 79 73 80 74 81 50 82 51 83 60 84 52 85 53 86 59 87
REMARK SMILES IDX 61 88 54 89 55 90 56 91 57 92 58 93
REMARK H PARENT 16 6 5 13 20 24 82 43 48 54
REMARK Flexibility Score: inf
ROOT
ATOM      1  C   UNL A   1      33.869  29.537  27.476  1.00  0.00     0.042 C 
ENDROOT
BRANCH   1   2
ATOM      2  C   UNL A   1      33.123  30.064  26.273  1.00  0.00     0.117 C 
BRANCH   2   3
ATOM      3  N   UNL A   1      33.586  29.577  24.996  1.00  0.00    -0.356 N 
ATOM      4  C   UNL A   1      32.896  28.904  24.035  1.00  0.00     0.223 C 
ATOM      5  O   UNL A   1      33.388  28.859  22.902  1.00  0.00    -0.275 OA
ATOM      6  H   UNL A   1      34.533  29.757  24.790  1.00  0.00     0.163 HD
BRANCH   4   7
ATOM      7  C   UNL A   1      31.536  28.247  24.301  1.00  0.00     0.088 C 
BRANCH   7   8
ATOM      8  C   UNL A   1      30.552  28.229  23.075  1.00  0.00     0.027 C 
ATOM      9  C   UNL A   1      29.314  27.371  23.371  1.00  0.00     0.011 C 
BRANCH   8  10
ATOM     10  C   UNL A   1      30.123  29.683  22.689  1.00  0.00     0.115 C 
ATOM     11  C   UNL A   1      28.619  29.943  22.655  1.00  0.00     0.038 C 
BRANCH  10  12
ATOM     12  O   UNL A   1      30.621  30.017  21.395  1.00  0.00    -0.393 OA
ATOM     13  H   UNL A   1      30.757  30.976  21.339  1.00  0.00     0.210 HD
ENDBRANCH  10  12
ENDBRANCH   8  10
ENDBRANCH   7   8
BRANCH   7  14
ATOM     14  C   UNL A   1      31.682  26.982  25.201  1.00  0.00     0.049 C 
BRANCH  14  15
ATOM     15  C   UNL A   1      32.711  25.929  24.859  1.00  0.00    -0.047 A 
ATOM     16  C   UNL A   1      33.784  25.679  25.732  1.00  0.00     0.004 A 
ATOM     17  C   UNL A   1      32.657  25.220  23.650  1.00  0.00     0.004 A 
ATOM     18  C   UNL A   1      34.825  24.821  25.360  1.00  0.00     0.000 A 
ATOM     19  C   UNL A   1      33.696  24.361  23.281  1.00  0.00     0.000 A 
ATOM     20  C   UNL A   1      34.790  24.181  24.123  1.00  0.00     0.000 A 
ENDBRANCH  14  15
ENDBRANCH   7  14
ENDBRANCH   4   7
ENDBRANCH   2   3
ENDBRANCH   1   2
BRANCH   1  21
ATOM     21  C   UNL A   1      35.166  30.286  27.724  1.00  0.00     0.118 C 
BRANCH  21  22
ATOM     22  N   UNL A   1      35.279  30.793  29.094  1.00  0.00    -0.352 N 
ATOM     23  C   UNL A   1      36.262  30.617  30.038  1.00  0.00     0.251 C 
ATOM     24  H   UNL A   1      34.524  31.352  29.388  1.00  0.00     0.163 HD
ATOM     25  O   UNL A   1      36.059  30.948  31.204  1.00  0.00    -0.269 OA
BRANCH  23  26
ATOM     26  C   UNL A   1      37.549  30.012  29.647  1.00  0.00     0.039 A 
ATOM     27  C   UNL A   1      37.984  30.093  28.322  1.00  0.00     0.014 A 
ATOM     28  C   UNL A   1      38.345  29.388  30.607  1.00  0.00     0.014 A 
ATOM     29  C   UNL A   1      39.260  29.637  27.989  1.00  0.00     0.010 A 
ATOM     30  C   UNL A   1      39.658  29.068  30.306  1.00  0.00     0.010 A 
ATOM     31  C   UNL A   1      40.128  29.172  28.991  1.00  0.00    -0.014 A 
BRANCH  31  32
ATOM     32  C   UNL A   1      41.527  28.766  28.704  1.00  0.00     0.031 A 
ATOM     33  C   UNL A   1      42.617  29.806  28.710  1.00  0.00     0.074 A 
ATOM     34  C   UNL A   1      41.794  27.497  28.336  1.00  0.00     0.049 A 
ATOM     35  N   UNL A   1      43.868  29.694  28.350  1.00  0.00    -0.248 NA
ATOM     36  C   UNL A   1      42.237  31.167  29.130  1.00  0.00     0.031 C 
ATOM     37  C   UNL A   1      40.807  26.419  28.222  1.00  0.00     0.029 A 
ATOM     38  N   UNL A   1      42.975  26.902  27.972  1.00  0.00    -0.354 N 
ATOM     39  C   UNL A   1      44.410  30.970  28.468  1.00  0.00     0.074 A 
ATOM     40  C   UNL A   1      43.338  31.853  28.864  1.00  0.00     0.031 C 
ATOM     41  C   UNL A   1      41.429  25.289  27.848  1.00  0.00     0.029 A 
ATOM     42  C   UNL A   1      42.847  25.570  27.650  1.00  0.00     0.049 A 
ATOM     43  H   UNL A   1      43.833  27.382  27.943  1.00  0.00     0.167 HD
ATOM     44  C   UNL A   1      45.693  31.364  28.295  1.00  0.00     0.037 A 
ATOM     45  C   UNL A   1      43.769  24.681  27.235  1.00  0.00     0.037 A 
ATOM     46  C   UNL A   1      46.762  30.465  27.953  1.00  0.00     0.049 A 
ATOM     47  C   UNL A   1      45.196  25.132  27.084  1.00  0.00     0.074 A 
ATOM     48  C   UNL A   1      48.111  30.739  27.829  1.00  0.00     0.029 A 
ATOM     49  N   UNL A   1      46.601  29.112  27.687  1.00  0.00    -0.354 N 
ATOM     50  N   UNL A   1      45.705  26.329  27.266  1.00  0.00    -0.248 NA
ATOM     51  C   UNL A   1      46.176  24.116  26.679  1.00  0.00     0.031 C 
ATOM     52  C   UNL A   1      48.763  29.561  27.450  1.00  0.00     0.029 A 
ATOM     53  C   UNL A   1      47.825  28.542  27.385  1.00  0.00     0.049 A 
ATOM     54  H   UNL A   1      45.743  28.630  27.710  1.00  0.00     0.167 HD
ATOM     55  C   UNL A   1      47.068  26.202  27.025  1.00  0.00     0.074 A 
ATOM     56  C   UNL A   1      47.305  24.812  26.697  1.00  0.00     0.031 C 
ATOM     57  C   UNL A   1      48.037  27.150  27.071  1.00  0.00     0.037 A 
BRANCH  44  58
ATOM     58  C   UNL A   1      46.009  32.822  28.494  1.00  0.00     0.058 A 
ATOM     59  C   UNL A   1      46.360  33.336  29.753  1.00  0.00     0.135 A 
ATOM     60  C   UNL A   1      45.983  33.713  27.408  1.00  0.00     0.135 A 
ATOM     61  F   UNL A   1      46.383  32.535  30.829  1.00  0.00    -0.206 F 
ATOM     62  C   UNL A   1      46.640  34.687  29.935  1.00  0.00     0.059 A 
ATOM     63  C   UNL A   1      46.291  35.062  27.562  1.00  0.00     0.059 A 
ATOM     64  F   UNL A   1      45.652  33.277  26.182  1.00  0.00    -0.206 F 
ATOM     65  C   UNL A   1      46.603  35.542  28.834  1.00  0.00     0.060 A 
BRANCH  65  66
ATOM     66  S   UNL A   1      46.978  37.289  29.089  1.00  0.00     0.124 S 
ATOM     67  O   UNL A   1      45.655  37.829  29.390  1.00  0.00    -0.237 OA
ATOM     68  O   UNL A   1      47.915  37.247  30.207  1.00  0.00    -0.237 OA
ATOM     69  O   UNL A   1      47.548  37.704  27.811  1.00  0.00    -0.744 OA
ENDBRANCH  65  66
ENDBRANCH  44  58
BRANCH  45  70
ATOM     70  C   UNL A   1      43.375  23.271  26.967  1.00  0.00     0.058 A 
ATOM     71  C   UNL A   1      43.299  22.784  25.654  1.00  0.00     0.135 A 
ATOM     72  C   UNL A   1      43.088  22.379  28.011  1.00  0.00     0.135 A 
ATOM     73  F   UNL A   1      43.562  23.598  24.620  1.00  0.00    -0.206 F 
ATOM     74  C   UNL A   1      42.936  21.468  25.382  1.00  0.00     0.059 A 
ATOM     75  C   UNL A   1      42.747  21.051  27.767  1.00  0.00     0.059 A 
ATOM     76  F   UNL A   1      43.166  22.789  29.287  1.00  0.00    -0.206 F 
ATOM     77  C   UNL A   1      42.664  20.608  26.448  1.00  0.00     0.060 A 
BRANCH  77  78
ATOM     78  S   UNL A   1      42.244  18.889  26.087  1.00  0.00     0.124 S 
ATOM     79  O   UNL A   1      43.135  18.597  24.970  1.00  0.00    -0.237 OA
ATOM     80  O   UNL A   1      42.561  18.226  27.347  1.00  0.00    -0.237 OA
ATOM     81  O   UNL A   1      40.822  18.953  25.762  1.00  0.00    -0.744 OA
ENDBRANCH  77  78
ENDBRANCH  45  70
BRANCH  57  82
ATOM     82  C   UNL A   1      49.446  26.710  26.796  1.00  0.00     0.058 A 
ATOM     83  C   UNL A   1      50.312  26.319  27.828  1.00  0.00     0.135 A 
ATOM     84  C   UNL A   1      49.915  26.622  25.475  1.00  0.00     0.135 A 
ATOM     85  F   UNL A   1      49.914  26.390  29.108  1.00  0.00    -0.206 F 
ATOM     86  C   UNL A   1      51.604  25.878  27.562  1.00  0.00     0.059 A 
ATOM     87  C   UNL A   1      51.193  26.156  25.184  1.00  0.00     0.059 A 
ATOM     88  F   UNL A   1      49.122  26.973  24.450  1.00  0.00    -0.206 F 
ATOM     89  C   UNL A   1      52.033  25.796  26.237  1.00  0.00     0.060 A 
BRANCH  89  90
ATOM     90  S   UNL A   1      53.699  25.187  25.903  1.00  0.00     0.124 S 
ATOM     91  O   UNL A   1      53.427  23.839  25.417  1.00  0.00    -0.237 OA
ATOM     92  O   UNL A   1      54.184  26.137  24.905  1.00  0.00    -0.237 OA
ATOM     93  O   UNL A   1      54.357  25.266  27.204  1.00  0.00    -0.744 OA
ENDBRANCH  89  90
ENDBRANCH  57  82
ENDBRANCH  31  32
ENDBRANCH  23  26
ENDBRANCH  21  22
ENDBRANCH   1  21
TORSDOF 18
ENDMDL
MODEL 3
REMARK VINA RESULT:     -10.2      2.964      9.450
REMARK SMILES C[C@@H]([C@H](C)O)[C@@H](Cc1ccccc1)C(=O)NCCCNC(=O)c1ccc(-c2c3nc(c(-c4c(F)cc(S(=O)(=O)[O-])cc4F)c4ccc([nH]4)c(-c4c(F)cc(S(=O)(=O)[O-])cc4F)c4nc(c(-c5c(F)cc(S(=O)(=O)[O-])cc5F)c5ccc2[nH]5)C=C4)C=C3)cc1
REMARK SMILES IDX 18 1 17 2 16 3 14 4 15 5 6 7 2 8 1 9 3 10 4 11 5 12 7 14
REMARK SMILES IDX 8 15 9 16 13 17 10 18 12 19 11 20 19 21 20 22 21 23 22 25
REMARK SMILES IDX 23 26 24 27 88 28 25 29 87 30 26 31 27 32 28 33 81 34 29 35
REMARK SMILES IDX 86 36 80 37 82 38 30 39 85 40 79 41 78 42 31 44 65 45 44 46
REMARK SMILES IDX 64 47 45 48 48 49 63 50 83 51 46 52 47 53 62 55 84 56 49 57
REMARK SMILES IDX 32 58 33 59 42 60 34 61 35 62 41 63 43 64 36 65 37 66 38 67
REMARK SMILES IDX 39 68 40 69 66 70 67 71 76 72 68 73 69 74 75 75 77 76 70 77
REMARK SMILES IDX 71 78 72 79 73 80 74 81 50 82 51 83 60 84 52 85 53 86 59 87
REMARK SMILES IDX 61 88 54 89 55 90 56 91 57 92 58 93
REMARK H PARENT 16 6 5 13 20 24 82 43 48 54
REMARK Flexibility Score: inf
ROOT
ATOM      1  C   UNL A   1      33.246  28.325  25.732  1.00  0.00     0.042 C 
ENDROOT
BRANCH   1   2
ATOM      2  C   UNL A   1      33.417  26.870  25.365  1.00  0.00     0.117 C 
BRANCH   2   3
ATOM      3  N   UNL A   1      33.697  26.612  23.973  1.00  0.00    -0.356 N 
ATOM      4  C   UNL A   1      33.659  25.432  23.296  1.00  0.00     0.223 C 
ATOM      5  O   UNL A   1      33.626  25.481  22.061  1.00  0.00    -0.275 OA
ATOM      6  H   UNL A   1      33.950  27.400  23.438  1.00  0.00     0.163 HD
BRANCH   4   7
ATOM      7  C   UNL A   1      33.619  24.073  24.005  1.00  0.00     0.088 C 
BRANCH   7   8
ATOM      8  C   UNL A   1      32.187  23.448  24.172  1.00  0.00     0.027 C 
ATOM      9  C   UNL A   1      32.068  22.124  23.404  1.00  0.00     0.011 C 
BRANCH   8  10
ATOM     10  C   UNL A   1      31.851  23.230  25.684  1.00  0.00     0.115 C 
ATOM     11  C   UNL A   1      33.050  23.167  26.627  1.00  0.00     0.038 C 
BRANCH  10  12
ATOM     12  O   UNL A   1      31.134  22.011  25.859  1.00  0.00    -0.393 OA
ATOM     13  H   UNL A   1      31.095  21.534  25.015  1.00  0.00     0.210 HD
ENDBRANCH  10  12
ENDBRANCH   8  10
ENDBRANCH   7   8
BRANCH   7  14
ATOM     14  C   UNL A   1      34.817  23.172  23.575  1.00  0.00     0.049 C 
BRANCH  14  15
ATOM     15  C   UNL A   1      35.986  22.973  24.512  1.00  0.00    -0.047 A 
ATOM     16  C   UNL A   1      36.391  24.013  25.367  1.00  0.00     0.004 A 
ATOM     17  C   UNL A   1      36.725  21.782  24.515  1.00  0.00     0.004 A 
ATOM     18  C   UNL A   1      37.561  23.899  26.126  1.00  0.00     0.000 A 
ATOM     19  C   UNL A   1      37.892  21.669  25.276  1.00  0.00     0.000 A 
ATOM     20  C   UNL A   1      38.323  22.735  26.061  1.00  0.00     0.000 A 
ENDBRANCH  14  15
ENDBRANCH   7  14
ENDBRANCH   4   7
ENDBRANCH   2   3
ENDBRANCH   1   2
BRANCH   1  21
ATOM     21  C   UNL A   1      33.408  28.567  27.222  1.00  0.00     0.118 C 
BRANCH  21  22
ATOM     22  N   UNL A   1      33.451  29.990  27.567  1.00  0.00    -0.352 N 
ATOM     23  C   UNL A   1      34.439  30.739  28.162  1.00  0.00     0.251 C 
ATOM     24  H   UNL A   1      32.638  30.494  27.335  1.00  0.00     0.163 HD
ATOM     25  O   UNL A   1      34.189  31.874  28.563  1.00  0.00    -0.269 OA
BRANCH  23  26
ATOM     26  C   UNL A   1      35.787  30.166  28.334  1.00  0.00     0.039 A 
ATOM     27  C   UNL A   1      36.669  30.124  27.251  1.00  0.00     0.014 A 
ATOM     28  C   UNL A   1      36.190  29.698  29.583  1.00  0.00     0.014 A 
ATOM     29  C   UNL A   1      37.985  29.704  27.455  1.00  0.00     0.010 A 
ATOM     30  C   UNL A   1      37.526  29.420  29.813  1.00  0.00     0.010 A 
ATOM     31  C   UNL A   1      38.438  29.403  28.749  1.00  0.00    -0.014 A 
BRANCH  31  32
ATOM     32  C   UNL A   1      39.851  29.045  29.033  1.00  0.00     0.031 A 
ATOM     33  C   UNL A   1      40.784  30.091  29.584  1.00  0.00     0.074 A 
ATOM     34  C   UNL A   1      40.314  27.825  28.695  1.00  0.00     0.049 A 
ATOM     35  N   UNL A   1      42.077  30.032  29.767  1.00  0.00    -0.248 NA
ATOM     36  C   UNL A   1      40.193  31.396  29.930  1.00  0.00     0.031 C 
ATOM     37  C   UNL A   1      39.521  26.753  28.085  1.00  0.00     0.029 A 
ATOM     38  N   UNL A   1      41.570  27.284  28.801  1.00  0.00    -0.354 N 
ATOM     39  C   UNL A   1      42.453  31.294  30.214  1.00  0.00     0.074 A 
ATOM     40  C   UNL A   1      41.267  32.118  30.208  1.00  0.00     0.031 C 
ATOM     41  C   UNL A   1      40.301  25.676  27.902  1.00  0.00     0.029 A 
ATOM     42  C   UNL A   1      41.658  25.992  28.336  1.00  0.00     0.049 A 
ATOM     43  H   UNL A   1      42.337  27.775  29.174  1.00  0.00     0.167 HD
ATOM     44  C   UNL A   1      43.670  31.719  30.625  1.00  0.00     0.037 A 
ATOM     45  C   UNL A   1      42.715  25.162  28.262  1.00  0.00     0.037 A 
ATOM     46  C   UNL A   1      44.832  30.873  30.676  1.00  0.00     0.049 A 
ATOM     47  C   UNL A   1      44.051  25.643  28.758  1.00  0.00     0.074 A 
ATOM     48  C   UNL A   1      46.096  31.174  31.149  1.00  0.00     0.029 A 
ATOM     49  N   UNL A   1      44.867  29.554  30.247  1.00  0.00    -0.354 N 
ATOM     50  N   UNL A   1      44.375  26.820  29.242  1.00  0.00    -0.248 NA
ATOM     51  C   UNL A   1      45.164  24.686  28.705  1.00  0.00     0.031 C 
ATOM     52  C   UNL A   1      46.908  30.050  30.968  1.00  0.00     0.029 A 
ATOM     53  C   UNL A   1      46.136  29.032  30.429  1.00  0.00     0.049 A 
ATOM     54  H   UNL A   1      44.103  29.062  29.868  1.00  0.00     0.167 HD
ATOM     55  C   UNL A   1      45.721  26.734  29.577  1.00  0.00     0.074 A 
ATOM     56  C   UNL A   1      46.147  25.389  29.252  1.00  0.00     0.031 C 
ATOM     57  C   UNL A   1      46.533  27.683  30.106  1.00  0.00     0.037 A 
BRANCH  44  58
ATOM     58  C   UNL A   1      43.798  33.151  31.068  1.00  0.00     0.058 A 
ATOM     59  C   UNL A   1      44.045  34.188  30.153  1.00  0.00     0.135 A 
ATOM     60  C   UNL A   1      43.651  33.496  32.422  1.00  0.00     0.135 A 
ATOM     61  F   UNL A   1      44.214  33.915  28.850  1.00  0.00    -0.206 F 
ATOM     62  C   UNL A   1      44.176  35.510  30.569  1.00  0.00     0.059 A 
ATOM     63  C   UNL A   1      43.745  34.816  32.855  1.00  0.00     0.059 A 
ATOM     64  F   UNL A   1      43.416  32.546  33.341  1.00  0.00    -0.206 F 
ATOM     65  C   UNL A   1      44.024  35.814  31.921  1.00  0.00     0.060 A 
BRANCH  65  66
ATOM     66  S   UNL A   1      44.187  37.535  32.440  1.00  0.00     0.124 S 
ATOM     67  O   UNL A   1      43.153  37.629  33.466  1.00  0.00    -0.237 OA
ATOM     68  O   UNL A   1      45.564  37.586  32.921  1.00  0.00    -0.237 OA
ATOM     69  O   UNL A   1      43.926  38.285  31.215  1.00  0.00    -0.744 OA
ENDBRANCH  65  66
ENDBRANCH  44  58
BRANCH  45  70
ATOM     70  C   UNL A   1      42.543  23.783  27.728  1.00  0.00     0.058 A 
ATOM     71  C   UNL A   1      42.401  22.690  28.594  1.00  0.00     0.135 A 
ATOM     72  C   UNL A   1      42.495  23.533  26.348  1.00  0.00     0.135 A 
ATOM     73  F   UNL A   1      42.443  22.877  29.923  1.00  0.00    -0.206 F 
ATOM     74  C   UNL A   1      42.235  21.394  28.115  1.00  0.00     0.059 A 
ATOM     75  C   UNL A   1      42.304  22.250  25.843  1.00  0.00     0.059 A 
ATOM     76  F   UNL A   1      42.604  24.547  25.476  1.00  0.00    -0.206 F 
ATOM     77  C   UNL A   1      42.186  21.185  26.736  1.00  0.00     0.060 A 
BRANCH  77  78
ATOM     78  S   UNL A   1      41.919  19.506  26.124  1.00  0.00     0.124 S 
ATOM     79  O   UNL A   1      42.289  18.707  27.286  1.00  0.00    -0.237 OA
ATOM     80  O   UNL A   1      40.499  19.525  25.788  1.00  0.00    -0.237 OA
ATOM     81  O   UNL A   1      42.824  19.419  24.981  1.00  0.00    -0.744 OA
ENDBRANCH  77  78
ENDBRANCH  45  70
BRANCH  57  82
ATOM     82  C   UNL A   1      47.952  27.291  30.402  1.00  0.00     0.058 A 
ATOM     83  C   UNL A   1      48.981  27.483  29.468  1.00  0.00     0.135 A 
ATOM     84  C   UNL A   1      48.295  26.771  31.661  1.00  0.00     0.135 A 
ATOM     85  F   UNL A   1      48.705  27.972  28.249  1.00  0.00    -0.206 F 
ATOM     86  C   UNL A   1      50.299  27.151  29.763  1.00  0.00     0.059 A 
ATOM     87  C   UNL A   1      49.611  26.459  31.987  1.00  0.00     0.059 A 
ATOM     88  F   UNL A   1      47.350  26.579  32.594  1.00  0.00    -0.206 F 
ATOM     89  C   UNL A   1      50.604  26.643  31.026  1.00  0.00     0.060 A 
BRANCH  89  90
ATOM     90  S   UNL A   1      52.323  26.251  31.409  1.00  0.00     0.124 S 
ATOM     91  O   UNL A   1      53.027  26.921  30.320  1.00  0.00    -0.237 OA
ATOM     92  O   UNL A   1      52.491  26.843  32.733  1.00  0.00    -0.237 OA
ATOM     93  O   UNL A   1      52.355  24.792  31.374  1.00  0.00    -0.744 OA
ENDBRANCH  89  90
ENDBRANCH  57  82
ENDBRANCH  31  32
ENDBRANCH  23  26
ENDBRANCH  21  22
ENDBRANCH   1  21
TORSDOF 18
ENDMDL
