MODEL 1
REMARK VINA RESULT:     -13.0      0.000      0.000
REMARK SMILES Cc1c(C(=O)NCCCNC(=O)c2ccc(-c3c4nc(c(-c5c(F)cc(S(=O)(=O)[O-])cc5F)c5ccc([nH]5)c(-c5c(F)cc(S(=O)(=O)[O-])cc5F)c5nc(c(-c6c(F)cc(S(=O)(=O)[O-])cc6F)c6ccc3[nH]6)C=C5)C=C4)cc2)cccc1N1[C@@H](C)C=C(/C=C(\C#N)C(=O)NCCc2c[nH]c3ccccc23)[C@@H]1C
REMARK SMILES IDX 4 1 5 2 6 3 3 5 1 6 2 7 82 8 79 9 81 10 80 11 83 12 84 13
REMARK SMILES IDX 106 14 86 15 85 16 87 17 107 18 88 19 89 20 90 21 91 22
REMARK SMILES IDX 92 23 93 24 94 25 95 27 96 28 97 29 98 30 105 31 99 32
REMARK SMILES IDX 100 33 104 34 101 36 103 37 102 38 7 39 8 40 9 41 10 42
REMARK SMILES IDX 11 43 12 45 13 46 14 47 78 48 15 49 77 50 16 51 17 52 18 53
REMARK SMILES IDX 71 54 19 55 76 56 70 57 72 58 20 59 75 60 69 61 68 62 21 64
REMARK SMILES IDX 55 65 34 66 54 67 35 68 38 69 53 70 73 71 36 72 37 73 52 75
REMARK SMILES IDX 74 76 39 77 22 78 23 79 32 80 24 81 25 82 31 83 33 84 26 85
REMARK SMILES IDX 27 86 28 87 29 88 30 89 56 90 57 91 66 92 58 93 59 94 65 95
REMARK SMILES IDX 67 96 60 97 61 98 62 99 63 100 64 101 40 102 41 103 50 104
REMARK SMILES IDX 42 105 43 106 49 107 51 108 44 109 45 110 46 111 47 112
REMARK SMILES IDX 48 113
REMARK H PARENT 6 4 94 26 99 35 10 44 72 63 38 74
REMARK Flexibility Score: inf
ROOT
ATOM      1  C   UNL A   1      31.047  27.441  26.639  1.00  0.00     0.251 C 
ATOM      2  O   UNL A   1      30.444  27.380  27.719  1.00  0.00    -0.269 OA
ATOM      3  N   UNL A   1      31.409  28.710  26.276  1.00  0.00    -0.352 N 
ATOM      4  H   UNL A   1      31.168  29.374  26.961  1.00  0.00     0.163 HD
ENDROOT
BRANCH   1   5
ATOM      5  C   UNL A   1      31.347  26.139  25.927  1.00  0.00     0.044 A 
ATOM      6  C   UNL A   1      33.897  26.096  25.975  1.00  0.00     0.047 C 
ATOM      7  C   UNL A   1      32.575  25.466  25.702  1.00  0.00    -0.015 A 
ATOM      8  C   UNL A   1      32.618  24.223  25.014  1.00  0.00     0.041 A 
ATOM      9  C   UNL A   1      30.207  25.607  25.285  1.00  0.00     0.014 A 
ATOM     10  C   UNL A   1      31.453  23.757  24.398  1.00  0.00     0.026 A 
ATOM     11  C   UNL A   1      30.260  24.457  24.505  1.00  0.00     0.003 A 
BRANCH   8  12
ATOM     12  N   UNL A   1      33.805  23.552  24.770  1.00  0.00    -0.358 N 
ATOM     13  C   UNL A   1      34.307  23.453  23.395  1.00  0.00     0.103 C 
ATOM     14  C   UNL A   1      34.851  23.299  25.784  1.00  0.00     0.110 C 
ATOM     15  C   UNL A   1      35.768  23.243  23.629  1.00  0.00     0.003 C 
ATOM     16  C   UNL A   1      34.154  24.728  22.556  1.00  0.00     0.035 C 
ATOM     17  C   UNL A   1      36.107  23.291  24.924  1.00  0.00    -0.026 C 
ATOM     18  C   UNL A   1      34.595  21.948  26.455  1.00  0.00     0.036 C 
BRANCH  17  19
ATOM     19  C   UNL A   1      37.447  23.333  25.484  1.00  0.00     0.031 C 
ATOM     20  C   UNL A   1      38.308  22.308  25.692  1.00  0.00     0.117 C 
BRANCH  20  21
ATOM     21  C   UNL A   1      38.012  20.952  25.370  1.00  0.00     0.105 C 
ATOM     22  N   UNL A   1      37.768  19.867  25.064  1.00  0.00    -0.192 NA
ENDBRANCH  20  21
BRANCH  20  23
ATOM     23  C   UNL A   1      39.489  22.597  26.556  1.00  0.00     0.261 C 
ATOM     24  O   UNL A   1      39.715  23.739  26.966  1.00  0.00    -0.268 OA
ATOM     25  N   UNL A   1      40.187  21.579  27.130  1.00  0.00    -0.351 N 
ATOM     26  H   UNL A   1      40.334  21.709  28.094  1.00  0.00     0.163 HD
BRANCH  25  27
ATOM     27  C   UNL A   1      40.768  20.326  26.619  1.00  0.00     0.121 C 
BRANCH  27  28
ATOM     28  C   UNL A   1      42.274  20.398  26.212  1.00  0.00     0.059 C 
BRANCH  28  29
ATOM     29  C   UNL A   1      42.837  19.112  25.601  1.00  0.00    -0.021 A 
ATOM     30  C   UNL A   1      42.870  17.896  26.283  1.00  0.00     0.087 A 
ATOM     31  C   UNL A   1      44.069  19.014  24.877  1.00  0.00     0.003 A 
ATOM     32  N   UNL A   1      44.155  17.998  26.829  1.00  0.00    -0.361 N 
ATOM     33  C   UNL A   1      44.955  18.560  25.856  1.00  0.00     0.046 A 
ATOM     34  C   UNL A   1      44.582  19.320  23.605  1.00  0.00     0.010 A 
ATOM     35  H   UNL A   1      44.434  17.723  27.732  1.00  0.00     0.166 HD
ATOM     36  C   UNL A   1      46.338  18.656  25.746  1.00  0.00     0.026 A 
ATOM     37  C   UNL A   1      45.968  19.207  23.405  1.00  0.00     0.001 A 
ATOM     38  C   UNL A   1      46.831  18.960  24.477  1.00  0.00     0.002 A 
ENDBRANCH  28  29
ENDBRANCH  27  28
ENDBRANCH  25  27
ENDBRANCH  20  23
ENDBRANCH  17  19
ENDBRANCH   8  12
ENDBRANCH   1   5
BRANCH   3  39
ATOM     39  C   UNL A   1      32.064  29.317  25.131  1.00  0.00     0.118 C 
BRANCH  39  40
ATOM     40  C   UNL A   1      33.328  30.032  25.589  1.00  0.00     0.042 C 
BRANCH  40  41
ATOM     41  C   UNL A   1      33.346  30.432  27.026  1.00  0.00     0.118 C 
BRANCH  41  42
ATOM     42  N   UNL A   1      34.151  31.612  27.278  1.00  0.00    -0.352 N 
ATOM     43  C   UNL A   1      35.220  31.733  28.151  1.00  0.00     0.251 C 
ATOM     44  H   UNL A   1      33.911  32.420  26.769  1.00  0.00     0.163 HD
ATOM     45  O   UNL A   1      35.550  32.821  28.607  1.00  0.00    -0.269 OA
BRANCH  43  46
ATOM     46  C   UNL A   1      36.071  30.533  28.350  1.00  0.00     0.039 A 
ATOM     47  C   UNL A   1      35.961  29.935  29.610  1.00  0.00     0.014 A 
ATOM     48  C   UNL A   1      37.252  30.437  27.636  1.00  0.00     0.014 A 
ATOM     49  C   UNL A   1      37.110  29.530  30.268  1.00  0.00     0.010 A 
ATOM     50  C   UNL A   1      38.397  30.336  28.373  1.00  0.00     0.010 A 
ATOM     51  C   UNL A   1      38.320  29.874  29.693  1.00  0.00    -0.014 A 
BRANCH  51  52
ATOM     52  C   UNL A   1      39.623  29.494  30.181  1.00  0.00     0.031 A 
ATOM     53  C   UNL A   1      40.139  28.262  29.541  1.00  0.00     0.074 A 
ATOM     54  C   UNL A   1      40.364  30.449  30.787  1.00  0.00     0.049 A 
ATOM     55  N   UNL A   1      41.269  27.733  29.810  1.00  0.00    -0.248 NA
ATOM     56  C   UNL A   1      39.399  27.503  28.519  1.00  0.00     0.031 C 
ATOM     57  C   UNL A   1      41.813  30.603  30.809  1.00  0.00     0.029 A 
ATOM     58  N   UNL A   1      39.914  31.408  31.701  1.00  0.00    -0.354 N 
ATOM     59  C   UNL A   1      41.551  26.820  28.811  1.00  0.00     0.074 A 
ATOM     60  C   UNL A   1      40.316  26.626  28.104  1.00  0.00     0.031 C 
ATOM     61  C   UNL A   1      42.157  31.372  31.860  1.00  0.00     0.029 A 
ATOM     62  C   UNL A   1      40.953  31.576  32.648  1.00  0.00     0.049 A 
ATOM     63  H   UNL A   1      39.047  31.875  31.687  1.00  0.00     0.167 HD
ATOM     64  C   UNL A   1      42.853  26.467  28.652  1.00  0.00     0.037 A 
ATOM     65  C   UNL A   1      40.776  31.110  33.928  1.00  0.00     0.037 A 
ATOM     66  C   UNL A   1      43.640  27.108  29.703  1.00  0.00     0.049 A 
ATOM     67  C   UNL A   1      41.660  29.926  34.278  1.00  0.00     0.074 A 
ATOM     68  C   UNL A   1      44.381  28.272  29.789  1.00  0.00     0.029 A 
ATOM     69  N   UNL A   1      43.403  26.705  30.993  1.00  0.00    -0.354 N 
ATOM     70  N   UNL A   1      42.378  29.263  33.412  1.00  0.00    -0.248 NA
ATOM     71  C   UNL A   1      41.759  29.356  35.619  1.00  0.00     0.031 C 
ATOM     72  C   UNL A   1      44.560  28.561  31.178  1.00  0.00     0.029 A 
ATOM     73  C   UNL A   1      43.947  27.561  31.916  1.00  0.00     0.049 A 
ATOM     74  H   UNL A   1      42.898  25.893  31.230  1.00  0.00     0.167 HD
ATOM     75  C   UNL A   1      42.957  28.177  34.014  1.00  0.00     0.074 A 
ATOM     76  C   UNL A   1      42.526  28.271  35.399  1.00  0.00     0.031 C 
ATOM     77  C   UNL A   1      43.712  27.272  33.321  1.00  0.00     0.037 A 
BRANCH  64  78
ATOM     78  C   UNL A   1      43.510  25.705  27.529  1.00  0.00     0.058 A 
ATOM     79  C   UNL A   1      43.992  24.404  27.804  1.00  0.00     0.135 A 
ATOM     80  C   UNL A   1      43.750  26.155  26.215  1.00  0.00     0.135 A 
ATOM     81  F   UNL A   1      43.790  23.810  28.988  1.00  0.00    -0.206 F 
ATOM     82  C   UNL A   1      44.709  23.644  26.888  1.00  0.00     0.059 A 
ATOM     83  C   UNL A   1      44.465  25.403  25.272  1.00  0.00     0.059 A 
ATOM     84  F   UNL A   1      43.303  27.333  25.771  1.00  0.00    -0.206 F 
ATOM     85  C   UNL A   1      44.956  24.156  25.627  1.00  0.00     0.060 A 
BRANCH  85  86
ATOM     86  S   UNL A   1      45.918  23.150  24.489  1.00  0.00     0.124 S 
ATOM     87  O   UNL A   1      46.403  22.086  25.364  1.00  0.00    -0.237 OA
ATOM     88  O   UNL A   1      44.915  22.755  23.506  1.00  0.00    -0.237 OA
ATOM     89  O   UNL A   1      46.942  24.070  24.002  1.00  0.00    -0.744 OA
ENDBRANCH  85  86
ENDBRANCH  64  78
BRANCH  65  90
ATOM     90  C   UNL A   1      39.348  31.268  34.364  1.00  0.00     0.058 A 
ATOM     91  C   UNL A   1      38.950  32.549  34.797  1.00  0.00     0.135 A 
ATOM     92  C   UNL A   1      38.363  30.436  33.809  1.00  0.00     0.135 A 
ATOM     93  F   UNL A   1      39.840  33.368  35.382  1.00  0.00    -0.206 F 
ATOM     94  C   UNL A   1      37.709  33.076  34.454  1.00  0.00     0.059 A 
ATOM     95  C   UNL A   1      37.104  30.937  33.480  1.00  0.00     0.059 A 
ATOM     96  F   UNL A   1      38.675  29.194  33.407  1.00  0.00    -0.206 F 
ATOM     97  C   UNL A   1      36.829  32.285  33.717  1.00  0.00     0.060 A 
BRANCH  97  98
ATOM     98  S   UNL A   1      35.435  33.106  32.907  1.00  0.00     0.124 S 
ATOM     99  O   UNL A   1      35.132  32.184  31.818  1.00  0.00    -0.237 OA
ATOM    100  O   UNL A   1      34.451  33.152  33.987  1.00  0.00    -0.237 OA
ATOM    101  O   UNL A   1      35.996  34.389  32.500  1.00  0.00    -0.744 OA
ENDBRANCH  97  98
ENDBRANCH  65  90
BRANCH  77 102
ATOM    102  C   UNL A   1      44.276  25.997  33.906  1.00  0.00     0.058 A 
ATOM    103  C   UNL A   1      45.649  25.732  33.934  1.00  0.00     0.135 A 
ATOM    104  C   UNL A   1      43.442  24.942  34.363  1.00  0.00     0.135 A 
ATOM    105  F   UNL A   1      46.531  26.612  33.437  1.00  0.00    -0.206 F 
ATOM    106  C   UNL A   1      46.164  24.543  34.453  1.00  0.00     0.059 A 
ATOM    107  C   UNL A   1      43.927  23.719  34.801  1.00  0.00     0.059 A 
ATOM    108  F   UNL A   1      42.111  25.063  34.452  1.00  0.00    -0.206 F 
ATOM    109  C   UNL A   1      45.293  23.541  34.881  1.00  0.00     0.060 A 
BRANCH 109 110
ATOM    110  S   UNL A   1      45.958  22.008  35.540  1.00  0.00     0.124 S 
ATOM    111  O   UNL A   1      47.371  22.107  35.190  1.00  0.00    -0.237 OA
ATOM    112  O   UNL A   1      45.645  22.142  36.960  1.00  0.00    -0.237 OA
ATOM    113  O   UNL A   1      45.212  20.974  34.829  1.00  0.00    -0.744 OA
ENDBRANCH 109 110
ENDBRANCH  77 102
ENDBRANCH  51  52
ENDBRANCH  43  46
ENDBRANCH  41  42
ENDBRANCH  40  41
ENDBRANCH  39  40
ENDBRANCH   3  39
TORSDOF 20
ENDMDL
MODEL 2
REMARK VINA RESULT:     -12.7      1.931      2.532
REMARK SMILES Cc1c(C(=O)NCCCNC(=O)c2ccc(-c3c4nc(c(-c5c(F)cc(S(=O)(=O)[O-])cc5F)c5ccc([nH]5)c(-c5c(F)cc(S(=O)(=O)[O-])cc5F)c5nc(c(-c6c(F)cc(S(=O)(=O)[O-])cc6F)c6ccc3[nH]6)C=C5)C=C4)cc2)cccc1N1[C@@H](C)C=C(/C=C(\C#N)C(=O)NCCc2c[nH]c3ccccc23)[C@@H]1C
REMARK SMILES IDX 4 1 5 2 6 3 3 5 1 6 2 7 82 8 79 9 81 10 80 11 83 12 84 13
REMARK SMILES IDX 106 14 86 15 85 16 87 17 107 18 88 19 89 20 90 21 91 22
REMARK SMILES IDX 92 23 93 24 94 25 95 27 96 28 97 29 98 30 105 31 99 32
REMARK SMILES IDX 100 33 104 34 101 36 103 37 102 38 7 39 8 40 9 41 10 42
REMARK SMILES IDX 11 43 12 45 13 46 14 47 78 48 15 49 77 50 16 51 17 52 18 53
REMARK SMILES IDX 71 54 19 55 76 56 70 57 72 58 20 59 75 60 69 61 68 62 21 64
REMARK SMILES IDX 55 65 34 66 54 67 35 68 38 69 53 70 73 71 36 72 37 73 52 75
REMARK SMILES IDX 74 76 39 77 22 78 23 79 32 80 24 81 25 82 31 83 33 84 26 85
REMARK SMILES IDX 27 86 28 87 29 88 30 89 56 90 57 91 66 92 58 93 59 94 65 95
REMARK SMILES IDX 67 96 60 97 61 98 62 99 63 100 64 101 40 102 41 103 50 104
REMARK SMILES IDX 42 105 43 106 49 107 51 108 44 109 45 110 46 111 47 112
REMARK SMILES IDX 48 113
REMARK H PARENT 6 4 94 26 99 35 10 44 72 63 38 74
REMARK Flexibility Score: inf
ROOT
ATOM      1  C   UNL A   1      32.548  28.819  24.249  1.00  0.00     0.251 C 
ATOM      2  O   UNL A   1      33.387  28.928  23.345  1.00  0.00    -0.269 OA
ATOM      3  N   UNL A   1      32.256  29.998  24.881  1.00  0.00    -0.352 N 
ATOM      4  H   UNL A   1      32.734  30.760  24.481  1.00  0.00     0.163 HD
ENDROOT
BRANCH   1   5
ATOM      5  C   UNL A   1      31.933  27.455  24.476  1.00  0.00     0.044 A 
ATOM      6  C   UNL A   1      33.980  25.937  24.380  1.00  0.00     0.047 C 
ATOM      7  C   UNL A   1      32.534  26.180  24.638  1.00  0.00    -0.015 A 
ATOM      8  C   UNL A   1      31.747  25.017  24.862  1.00  0.00     0.041 A 
ATOM      9  C   UNL A   1      30.525  27.481  24.372  1.00  0.00     0.014 A 
ATOM     10  C   UNL A   1      30.358  25.114  24.739  1.00  0.00     0.026 A 
ATOM     11  C   UNL A   1      29.749  26.330  24.466  1.00  0.00     0.003 A 
BRANCH   8  12
ATOM     12  N   UNL A   1      32.309  23.761  25.011  1.00  0.00    -0.358 N 
ATOM     13  C   UNL A   1      32.103  22.751  23.966  1.00  0.00     0.103 C 
ATOM     14  C   UNL A   1      33.457  23.451  25.890  1.00  0.00     0.110 C 
ATOM     15  C   UNL A   1      33.279  21.857  24.182  1.00  0.00     0.003 C 
ATOM     16  C   UNL A   1      32.184  23.281  22.529  1.00  0.00     0.035 C 
ATOM     17  C   UNL A   1      34.106  22.296  25.141  1.00  0.00    -0.026 C 
ATOM     18  C   UNL A   1      32.944  23.036  27.270  1.00  0.00     0.036 C 
BRANCH  17  19
ATOM     19  C   UNL A   1      35.430  21.792  25.463  1.00  0.00     0.031 C 
ATOM     20  C   UNL A   1      36.595  21.994  24.802  1.00  0.00     0.117 C 
BRANCH  20  21
ATOM     21  C   UNL A   1      36.704  22.783  23.621  1.00  0.00     0.105 C 
ATOM     22  N   UNL A   1      36.769  23.388  22.640  1.00  0.00    -0.192 NA
ENDBRANCH  20  21
BRANCH  20  23
ATOM     23  C   UNL A   1      37.736  21.112  25.181  1.00  0.00     0.261 C 
ATOM     24  O   UNL A   1      37.729  19.908  24.912  1.00  0.00    -0.268 OA
ATOM     25  N   UNL A   1      38.917  21.653  25.586  1.00  0.00    -0.351 N 
ATOM     26  H   UNL A   1      39.696  21.274  25.118  1.00  0.00     0.163 HD
BRANCH  25  27
ATOM     27  C   UNL A   1      39.283  22.683  26.574  1.00  0.00     0.121 C 
BRANCH  27  28
ATOM     28  C   UNL A   1      40.775  23.141  26.549  1.00  0.00     0.059 C 
BRANCH  28  29
ATOM     29  C   UNL A   1      41.743  22.219  27.295  1.00  0.00    -0.021 A 
ATOM     30  C   UNL A   1      42.914  22.673  27.903  1.00  0.00     0.087 A 
ATOM     31  C   UNL A   1      42.198  20.945  26.823  1.00  0.00     0.003 A 
ATOM     32  N   UNL A   1      43.797  22.459  26.839  1.00  0.00    -0.361 N 
ATOM     33  C   UNL A   1      43.435  21.260  26.258  1.00  0.00     0.046 A 
ATOM     34  C   UNL A   1      41.728  19.626  26.703  1.00  0.00     0.010 A 
ATOM     35  H   UNL A   1      44.534  23.048  26.558  1.00  0.00     0.166 HD
ATOM     36  C   UNL A   1      44.099  20.440  25.353  1.00  0.00     0.026 A 
ATOM     37  C   UNL A   1      42.503  18.711  25.971  1.00  0.00     0.001 A 
ATOM     38  C   UNL A   1      43.621  19.135  25.245  1.00  0.00     0.002 A 
ENDBRANCH  28  29
ENDBRANCH  27  28
ENDBRANCH  25  27
ENDBRANCH  20  23
ENDBRANCH  17  19
ENDBRANCH   8  12
ENDBRANCH   1   5
BRANCH   3  39
ATOM     39  C   UNL A   1      31.414  30.401  25.992  1.00  0.00     0.118 C 
BRANCH  39  40
ATOM     40  C   UNL A   1      32.018  31.624  26.670  1.00  0.00     0.042 C 
BRANCH  40  41
ATOM     41  C   UNL A   1      33.103  31.335  27.652  1.00  0.00     0.118 C 
BRANCH  41  42
ATOM     42  N   UNL A   1      33.622  29.985  27.546  1.00  0.00    -0.352 N 
ATOM     43  C   UNL A   1      34.926  29.563  27.753  1.00  0.00     0.251 C 
ATOM     44  H   UNL A   1      32.973  29.287  27.300  1.00  0.00     0.163 HD
ATOM     45  O   UNL A   1      35.351  28.534  27.243  1.00  0.00    -0.269 OA
BRANCH  43  46
ATOM     46  C   UNL A   1      35.718  30.292  28.776  1.00  0.00     0.039 A 
ATOM     47  C   UNL A   1      36.596  31.253  28.265  1.00  0.00     0.014 A 
ATOM     48  C   UNL A   1      36.007  29.650  29.966  1.00  0.00     0.014 A 
ATOM     49  C   UNL A   1      37.882  31.331  28.771  1.00  0.00     0.010 A 
ATOM     50  C   UNL A   1      37.331  29.496  30.264  1.00  0.00     0.010 A 
ATOM     51  C   UNL A   1      38.268  30.348  29.665  1.00  0.00    -0.014 A 
BRANCH  51  52
ATOM     52  C   UNL A   1      39.533  30.285  30.355  1.00  0.00     0.031 A 
ATOM     53  C   UNL A   1      40.344  29.111  29.961  1.00  0.00     0.074 A 
ATOM     54  C   UNL A   1      39.998  31.428  30.908  1.00  0.00     0.049 A 
ATOM     55  N   UNL A   1      41.498  28.844  30.435  1.00  0.00    -0.248 NA
ATOM     56  C   UNL A   1      39.905  28.111  28.972  1.00  0.00     0.031 C 
ATOM     57  C   UNL A   1      41.378  31.860  31.084  1.00  0.00     0.029 A 
ATOM     58  N   UNL A   1      39.259  32.380  31.618  1.00  0.00    -0.354 N 
ATOM     59  C   UNL A   1      42.078  27.894  29.615  1.00  0.00     0.074 A 
ATOM     60  C   UNL A   1      41.012  27.386  28.797  1.00  0.00     0.031 C 
ATOM     61  C   UNL A   1      41.427  32.795  32.051  1.00  0.00     0.029 A 
ATOM     62  C   UNL A   1      40.104  32.852  32.651  1.00  0.00     0.049 A 
ATOM     63  H   UNL A   1      38.335  32.666  31.435  1.00  0.00     0.167 HD
ATOM     64  C   UNL A   1      43.432  27.783  29.665  1.00  0.00     0.037 A 
ATOM     65  C   UNL A   1      39.828  32.510  33.952  1.00  0.00     0.037 A 
ATOM     66  C   UNL A   1      43.933  28.679  30.704  1.00  0.00     0.049 A 
ATOM     67  C   UNL A   1      40.846  31.566  34.569  1.00  0.00     0.074 A 
ATOM     68  C   UNL A   1      44.437  29.966  30.717  1.00  0.00     0.029 A 
ATOM     69  N   UNL A   1      43.585  28.388  32.000  1.00  0.00    -0.354 N 
ATOM     70  N   UNL A   1      41.787  30.960  33.897  1.00  0.00    -0.248 NA
ATOM     71  C   UNL A   1      40.849  31.183  35.978  1.00  0.00     0.031 C 
ATOM     72  C   UNL A   1      44.360  30.441  32.063  1.00  0.00     0.029 A 
ATOM     73  C   UNL A   1      43.831  29.433  32.853  1.00  0.00     0.049 A 
ATOM     74  H   UNL A   1      43.202  27.527  32.284  1.00  0.00     0.167 HD
ATOM     75  C   UNL A   1      42.454  30.083  34.710  1.00  0.00     0.074 A 
ATOM     76  C   UNL A   1      41.818  30.249  36.006  1.00  0.00     0.031 C 
ATOM     77  C   UNL A   1      43.449  29.267  34.246  1.00  0.00     0.037 A 
BRANCH  64  78
ATOM     78  C   UNL A   1      44.368  27.039  28.747  1.00  0.00     0.058 A 
ATOM     79  C   UNL A   1      44.800  25.752  29.143  1.00  0.00     0.135 A 
ATOM     80  C   UNL A   1      44.915  27.495  27.531  1.00  0.00     0.135 A 
ATOM     81  F   UNL A   1      44.326  25.153  30.245  1.00  0.00    -0.206 F 
ATOM     82  C   UNL A   1      45.743  25.012  28.441  1.00  0.00     0.059 A 
ATOM     83  C   UNL A   1      45.862  26.762  26.802  1.00  0.00     0.059 A 
ATOM     84  F   UNL A   1      44.562  28.659  26.980  1.00  0.00    -0.206 F 
ATOM     85  C   UNL A   1      46.283  25.529  27.277  1.00  0.00     0.060 A 
BRANCH  85  86
ATOM     86  S   UNL A   1      47.524  24.549  26.422  1.00  0.00     0.124 S 
ATOM     87  O   UNL A   1      48.580  24.459  27.427  1.00  0.00    -0.237 OA
ATOM     88  O   UNL A   1      46.802  23.312  26.148  1.00  0.00    -0.237 OA
ATOM     89  O   UNL A   1      47.848  25.358  25.250  1.00  0.00    -0.744 OA
ENDBRANCH  85  86
ENDBRANCH  64  78
BRANCH  65  90
ATOM     90  C   UNL A   1      38.347  32.438  34.186  1.00  0.00     0.058 A 
ATOM     91  C   UNL A   1      37.682  33.654  34.449  1.00  0.00     0.135 A 
ATOM     92  C   UNL A   1      37.604  31.409  33.585  1.00  0.00     0.135 A 
ATOM     93  F   UNL A   1      38.330  34.654  35.069  1.00  0.00    -0.206 F 
ATOM     94  C   UNL A   1      36.432  33.926  33.905  1.00  0.00     0.059 A 
ATOM     95  C   UNL A   1      36.338  31.656  33.055  1.00  0.00     0.059 A 
ATOM     96  F   UNL A   1      38.175  30.220  33.338  1.00  0.00    -0.206 F 
ATOM     97  C   UNL A   1      35.810  32.945  33.134  1.00  0.00     0.060 A 
BRANCH  97  98
ATOM     98  S   UNL A   1      34.427  33.450  32.082  1.00  0.00     0.124 S 
ATOM     99  O   UNL A   1      34.488  32.463  31.008  1.00  0.00    -0.237 OA
ATOM    100  O   UNL A   1      33.295  33.315  32.998  1.00  0.00    -0.237 OA
ATOM    101  O   UNL A   1      34.780  34.812  31.699  1.00  0.00    -0.744 OA
ENDBRANCH  97  98
ENDBRANCH  65  90
BRANCH  77 102
ATOM    102  C   UNL A   1      44.137  28.200  35.067  1.00  0.00     0.058 A 
ATOM    103  C   UNL A   1      45.397  28.397  35.644  1.00  0.00     0.135 A 
ATOM    104  C   UNL A   1      43.599  26.893  35.212  1.00  0.00     0.135 A 
ATOM    105  F   UNL A   1      46.051  29.558  35.489  1.00  0.00    -0.206 F 
ATOM    106  C   UNL A   1      46.039  27.401  36.380  1.00  0.00     0.059 A 
ATOM    107  C   UNL A   1      44.259  25.862  35.864  1.00  0.00     0.059 A 
ATOM    108  F   UNL A   1      42.380  26.563  34.766  1.00  0.00    -0.206 F 
ATOM    109  C   UNL A   1      45.462  26.135  36.482  1.00  0.00     0.060 A 
BRANCH 109 110
ATOM    110  S   UNL A   1      46.296  24.852  37.423  1.00  0.00     0.124 S 
ATOM    111  O   UNL A   1      45.781  23.633  36.808  1.00  0.00    -0.237 OA
ATOM    112  O   UNL A   1      47.697  25.157  37.151  1.00  0.00    -0.237 OA
ATOM    113  O   UNL A   1      45.857  25.090  38.795  1.00  0.00    -0.744 OA
ENDBRANCH 109 110
ENDBRANCH  77 102
ENDBRANCH  51  52
ENDBRANCH  43  46
ENDBRANCH  41  42
ENDBRANCH  40  41
ENDBRANCH  39  40
ENDBRANCH   3  39
TORSDOF 20
ENDMDL
MODEL 3
REMARK VINA RESULT:     -11.9      5.094     12.011
REMARK SMILES Cc1c(C(=O)NCCCNC(=O)c2ccc(-c3c4nc(c(-c5c(F)cc(S(=O)(=O)[O-])cc5F)c5ccc([nH]5)c(-c5c(F)cc(S(=O)(=O)[O-])cc5F)c5nc(c(-c6c(F)cc(S(=O)(=O)[O-])cc6F)c6ccc3[nH]6)C=C5)C=C4)cc2)cccc1N1[C@@H](C)C=C(/C=C(\C#N)C(=O)NCCc2c[nH]c3ccccc23)[C@@H]1C
REMARK SMILES IDX 4 1 5 2 6 3 3 5 1 6 2 7 82 8 79 9 81 10 80 11 83 12 84 13
REMARK SMILES IDX 106 14 86 15 85 16 87 17 107 18 88 19 89 20 90 21 91 22
REMARK SMILES IDX 92 23 93 24 94 25 95 27 96 28 97 29 98 30 105 31 99 32
REMARK SMILES IDX 100 33 104 34 101 36 103 37 102 38 7 39 8 40 9 41 10 42
REMARK SMILES IDX 11 43 12 45 13 46 14 47 78 48 15 49 77 50 16 51 17 52 18 53
REMARK SMILES IDX 71 54 19 55 76 56 70 57 72 58 20 59 75 60 69 61 68 62 21 64
REMARK SMILES IDX 55 65 34 66 54 67 35 68 38 69 53 70 73 71 36 72 37 73 52 75
REMARK SMILES IDX 74 76 39 77 22 78 23 79 32 80 24 81 25 82 31 83 33 84 26 85
REMARK SMILES IDX 27 86 28 87 29 88 30 89 56 90 57 91 66 92 58 93 59 94 65 95
REMARK SMILES IDX 67 96 60 97 61 98 62 99 63 100 64 101 40 102 41 103 50 104
REMARK SMILES IDX 42 105 43 106 49 107 51 108 44 109 45 110 46 111 47 112
REMARK SMILES IDX 48 113
REMARK H PARENT 6 4 94 26 99 35 10 44 72 63 38 74
REMARK Flexibility Score: inf
ROOT
ATOM      1  C   UNL A   1      42.317  28.067  25.821  1.00  0.00     0.251 C 
ATOM      2  O   UNL A   1      42.288  28.958  24.961  1.00  0.00    -0.269 OA
ATOM      3  N   UNL A   1      42.850  26.886  25.379  1.00  0.00    -0.352 N 
ATOM      4  H   UNL A   1      43.168  26.948  24.449  1.00  0.00     0.163 HD
ENDROOT
BRANCH   1   5
ATOM      5  C   UNL A   1      41.839  28.418  27.213  1.00  0.00     0.044 A 
ATOM      6  C   UNL A   1      39.399  29.026  26.787  1.00  0.00     0.047 C 
ATOM      7  C   UNL A   1      40.546  28.748  27.695  1.00  0.00    -0.015 A 
ATOM      8  C   UNL A   1      40.322  29.029  29.071  1.00  0.00     0.041 A 
ATOM      9  C   UNL A   1      42.908  28.557  28.125  1.00  0.00     0.014 A 
ATOM     10  C   UNL A   1      41.427  29.156  29.917  1.00  0.00     0.026 A 
ATOM     11  C   UNL A   1      42.715  28.952  29.445  1.00  0.00     0.003 A 
BRANCH   8  12
ATOM     12  N   UNL A   1      39.073  29.366  29.564  1.00  0.00    -0.358 N 
ATOM     13  C   UNL A   1      38.147  28.301  29.967  1.00  0.00     0.103 C 
ATOM     14  C   UNL A   1      38.723  30.681  30.142  1.00  0.00     0.110 C 
ATOM     15  C   UNL A   1      37.270  29.023  30.937  1.00  0.00     0.003 C 
ATOM     16  C   UNL A   1      38.795  27.129  30.716  1.00  0.00     0.035 C 
ATOM     17  C   UNL A   1      37.651  30.290  31.150  1.00  0.00    -0.026 C 
ATOM     18  C   UNL A   1      38.183  31.594  29.041  1.00  0.00     0.036 C 
BRANCH  17  19
ATOM     19  C   UNL A   1      37.157  31.200  32.169  1.00  0.00     0.031 C 
ATOM     20  C   UNL A   1      36.116  32.064  32.098  1.00  0.00     0.117 C 
BRANCH  20  21
ATOM     21  C   UNL A   1      35.297  32.217  30.943  1.00  0.00     0.105 C 
ATOM     22  N   UNL A   1      34.629  32.293  30.004  1.00  0.00    -0.192 NA
ENDBRANCH  20  21
BRANCH  20  23
ATOM     23  C   UNL A   1      36.025  33.086  33.180  1.00  0.00     0.261 C 
ATOM     24  O   UNL A   1      35.089  33.082  33.984  1.00  0.00    -0.268 OA
ATOM     25  N   UNL A   1      37.096  33.872  33.474  1.00  0.00    -0.351 N 
ATOM     26  H   UNL A   1      37.305  33.895  34.436  1.00  0.00     0.163 HD
BRANCH  25  27
ATOM     27  C   UNL A   1      38.010  34.697  32.664  1.00  0.00     0.121 C 
BRANCH  27  28
ATOM     28  C   UNL A   1      39.531  34.395  32.848  1.00  0.00     0.059 C 
BRANCH  28  29
ATOM     29  C   UNL A   1      40.184  33.652  31.680  1.00  0.00    -0.021 A 
ATOM     30  C   UNL A   1      41.124  32.636  31.853  1.00  0.00     0.087 A 
ATOM     31  C   UNL A   1      40.716  34.272  30.502  1.00  0.00     0.003 A 
ATOM     32  N   UNL A   1      42.286  33.414  31.787  1.00  0.00    -0.361 N 
ATOM     33  C   UNL A   1      42.079  34.353  30.798  1.00  0.00     0.046 A 
ATOM     34  C   UNL A   1      40.259  34.848  29.305  1.00  0.00     0.010 A 
ATOM     35  H   UNL A   1      43.095  33.311  32.339  1.00  0.00     0.166 HD
ATOM     36  C   UNL A   1      42.960  35.200  30.135  1.00  0.00     0.026 A 
ATOM     37  C   UNL A   1      41.189  35.525  28.498  1.00  0.00     0.001 A 
ATOM     38  C   UNL A   1      42.492  35.763  28.948  1.00  0.00     0.002 A 
ENDBRANCH  28  29
ENDBRANCH  27  28
ENDBRANCH  25  27
ENDBRANCH  20  23
ENDBRANCH  17  19
ENDBRANCH   8  12
ENDBRANCH   1   5
BRANCH   3  39
ATOM     39  C   UNL A   1      43.063  25.566  25.944  1.00  0.00     0.118 C 
BRANCH  39  40
ATOM     40  C   UNL A   1      44.285  24.928  25.296  1.00  0.00     0.042 C 
BRANCH  40  41
ATOM     41  C   UNL A   1      45.417  24.638  26.224  1.00  0.00     0.118 C 
BRANCH  41  42
ATOM     42  N   UNL A   1      46.129  25.830  26.642  1.00  0.00    -0.352 N 
ATOM     43  C   UNL A   1      46.094  26.441  27.886  1.00  0.00     0.251 C 
ATOM     44  H   UNL A   1      46.704  26.255  25.965  1.00  0.00     0.163 HD
ATOM     45  O   UNL A   1      46.365  27.628  28.020  1.00  0.00    -0.269 OA
BRANCH  43  46
ATOM     46  C   UNL A   1      45.919  25.560  29.068  1.00  0.00     0.039 A 
ATOM     47  C   UNL A   1      44.612  25.105  29.275  1.00  0.00     0.014 A 
ATOM     48  C   UNL A   1      46.778  25.717  30.141  1.00  0.00     0.014 A 
ATOM     49  C   UNL A   1      44.087  25.118  30.555  1.00  0.00     0.010 A 
ATOM     50  C   UNL A   1      46.198  26.028  31.337  1.00  0.00     0.010 A 
ATOM     51  C   UNL A   1      44.847  25.719  31.542  1.00  0.00    -0.014 A 
BRANCH  51  52
ATOM     52  C   UNL A   1      44.514  25.780  32.944  1.00  0.00     0.031 A 
ATOM     53  C   UNL A   1      44.121  27.138  33.383  1.00  0.00     0.074 A 
ATOM     54  C   UNL A   1      44.195  24.619  33.559  1.00  0.00     0.049 A 
ATOM     55  N   UNL A   1      43.783  27.438  34.576  1.00  0.00    -0.248 NA
ATOM     56  C   UNL A   1      44.078  28.305  32.484  1.00  0.00     0.031 C 
ATOM     57  C   UNL A   1      43.269  24.394  34.661  1.00  0.00     0.029 A 
ATOM     58  N   UNL A   1      44.832  23.383  33.403  1.00  0.00    -0.354 N 
ATOM     59  C   UNL A   1      43.175  28.678  34.541  1.00  0.00     0.074 A 
ATOM     60  C   UNL A   1      43.487  29.225  33.250  1.00  0.00     0.031 C 
ATOM     61  C   UNL A   1      43.574  23.229  35.261  1.00  0.00     0.029 A 
ATOM     62  C   UNL A   1      44.821  22.765  34.677  1.00  0.00     0.049 A 
ATOM     63  H   UNL A   1      45.211  23.015  32.573  1.00  0.00     0.167 HD
ATOM     64  C   UNL A   1      42.367  28.996  35.586  1.00  0.00     0.037 A 
ATOM     65  C   UNL A   1      46.001  22.636  35.369  1.00  0.00     0.037 A 
ATOM     66  C   UNL A   1      42.439  27.922  36.572  1.00  0.00     0.049 A 
ATOM     67  C   UNL A   1      46.079  23.501  36.615  1.00  0.00     0.074 A 
ATOM     68  C   UNL A   1      41.679  26.799  36.843  1.00  0.00     0.029 A 
ATOM     69  N   UNL A   1      43.643  27.735  37.204  1.00  0.00    -0.354 N 
ATOM     70  N   UNL A   1      45.219  24.436  36.916  1.00  0.00    -0.248 NA
ATOM     71  C   UNL A   1      47.165  23.424  37.590  1.00  0.00     0.031 C 
ATOM     72  C   UNL A   1      42.480  25.925  37.643  1.00  0.00     0.029 A 
ATOM     73  C   UNL A   1      43.705  26.535  37.865  1.00  0.00     0.049 A 
ATOM     74  H   UNL A   1      44.380  28.387  37.184  1.00  0.00     0.167 HD
ATOM     75  C   UNL A   1      45.637  25.119  38.028  1.00  0.00     0.074 A 
ATOM     76  C   UNL A   1      46.873  24.455  38.406  1.00  0.00     0.031 C 
ATOM     77  C   UNL A   1      44.954  26.194  38.525  1.00  0.00     0.037 A 
BRANCH  64  78
ATOM     78  C   UNL A   1      41.390  30.136  35.730  1.00  0.00     0.058 A 
ATOM     79  C   UNL A   1      41.677  31.138  36.686  1.00  0.00     0.135 A 
ATOM     80  C   UNL A   1      40.171  30.310  35.045  1.00  0.00     0.135 A 
ATOM     81  F   UNL A   1      42.825  31.147  37.378  1.00  0.00    -0.206 F 
ATOM     82  C   UNL A   1      40.808  32.177  36.990  1.00  0.00     0.059 A 
ATOM     83  C   UNL A   1      39.281  31.355  35.330  1.00  0.00     0.059 A 
ATOM     84  F   UNL A   1      39.779  29.491  34.065  1.00  0.00    -0.206 F 
ATOM     85  C   UNL A   1      39.602  32.273  36.319  1.00  0.00     0.060 A 
BRANCH  85  86
ATOM     86  S   UNL A   1      38.496  33.616  36.771  1.00  0.00     0.124 S 
ATOM     87  O   UNL A   1      38.978  34.701  35.922  1.00  0.00    -0.237 OA
ATOM     88  O   UNL A   1      37.190  33.068  36.421  1.00  0.00    -0.237 OA
ATOM     89  O   UNL A   1      38.738  33.789  38.201  1.00  0.00    -0.744 OA
ENDBRANCH  85  86
ENDBRANCH  64  78
BRANCH  65  90
ATOM     90  C   UNL A   1      47.147  22.380  34.435  1.00  0.00     0.058 A 
ATOM     91  C   UNL A   1      48.062  23.435  34.242  1.00  0.00     0.135 A 
ATOM     92  C   UNL A   1      47.626  21.069  34.275  1.00  0.00     0.135 A 
ATOM     93  F   UNL A   1      47.647  24.710  34.332  1.00  0.00    -0.206 F 
ATOM     94  C   UNL A   1      49.430  23.201  34.161  1.00  0.00     0.059 A 
ATOM     95  C   UNL A   1      48.992  20.814  34.168  1.00  0.00     0.059 A 
ATOM     96  F   UNL A   1      46.795  20.025  34.416  1.00  0.00    -0.206 F 
ATOM     97  C   UNL A   1      49.887  21.885  34.214  1.00  0.00     0.060 A 
BRANCH  97  98
ATOM     98  S   UNL A   1      51.643  21.614  34.554  1.00  0.00     0.124 S 
ATOM     99  O   UNL A   1      52.239  21.798  33.234  1.00  0.00    -0.237 OA
ATOM    100  O   UNL A   1      51.923  22.671  35.525  1.00  0.00    -0.237 OA
ATOM    101  O   UNL A   1      51.676  20.250  35.068  1.00  0.00    -0.744 OA
ENDBRANCH  97  98
ENDBRANCH  65  90
BRANCH  77 102
ATOM    102  C   UNL A   1      45.428  27.056  39.674  1.00  0.00     0.058 A 
ATOM    103  C   UNL A   1      46.443  28.008  39.524  1.00  0.00     0.135 A 
ATOM    104  C   UNL A   1      44.951  26.877  41.000  1.00  0.00     0.135 A 
ATOM    105  F   UNL A   1      47.041  28.196  38.338  1.00  0.00    -0.206 F 
ATOM    106  C   UNL A   1      46.893  28.785  40.592  1.00  0.00     0.059 A 
ATOM    107  C   UNL A   1      45.446  27.576  42.092  1.00  0.00     0.059 A 
ATOM    108  F   UNL A   1      43.944  26.046  41.297  1.00  0.00    -0.206 F 
ATOM    109  C   UNL A   1      46.390  28.558  41.873  1.00  0.00     0.060 A 
BRANCH 109 110
ATOM    110  S   UNL A   1      46.980  29.553  43.248  1.00  0.00     0.124 S 
ATOM    111  O   UNL A   1      45.935  29.353  44.246  1.00  0.00    -0.237 OA
ATOM    112  O   UNL A   1      48.262  28.919  43.536  1.00  0.00    -0.237 OA
ATOM    113  O   UNL A   1      47.058  30.901  42.690  1.00  0.00    -0.744 OA
ENDBRANCH 109 110
ENDBRANCH  77 102
ENDBRANCH  51  52
ENDBRANCH  43  46
ENDBRANCH  41  42
ENDBRANCH  40  41
ENDBRANCH  39  40
ENDBRANCH   3  39
TORSDOF 20
ENDMDL
