MODEL 1
REMARK VINA RESULT:     -11.1      0.000      0.000
REMARK SMILES C[N@@H+]1CCC[C@H](NC(=O)N[C@@](C)(C(=O)NCCCNC(=O)c2ccc(-c3c4nc(c(-c5c(F)cc(S(=O)(=O)[O-])cc5F)c5ccc([nH]5)c(-c5c(F)cc(S(=O)(=O)[O-])cc5F)c5nc(c(-c6c(F)cc(S(=O)(=O)[O-])cc6F)c6ccc3[nH]6)C=C5)C=C4)cc2)C(F)(F)F)C1
REMARK SMILES IDX 17 1 16 2 15 3 13 4 14 5 11 7 12 8 10 9 7 10 8 11 9 13 6 15
REMARK SMILES IDX 1 16 2 17 3 18 92 19 4 21 5 22 88 23 89 24 90 25 91 26 18 27
REMARK SMILES IDX 19 28 20 29 21 31 22 32 23 33 87 34 24 35 86 36 25 37 26 38
REMARK SMILES IDX 27 39 80 40 28 41 85 42 79 43 81 44 29 45 84 46 78 47 77 48
REMARK SMILES IDX 30 50 64 51 43 52 63 53 44 54 47 55 62 56 82 57 45 58 46 59
REMARK SMILES IDX 61 61 83 62 48 63 31 64 32 65 41 66 33 67 34 68 40 69 42 70
REMARK SMILES IDX 35 71 36 72 37 73 38 74 39 75 65 76 66 77 75 78 67 79 68 80
REMARK SMILES IDX 74 81 76 82 69 83 70 84 71 85 72 86 73 87 49 88 50 89 59 90
REMARK SMILES IDX 51 91 52 92 58 93 60 94 53 95 54 96 55 97 56 98 57 99
REMARK H PARENT 15 6 7 12 10 14 2 20 19 30 81 49 47 60
REMARK Flexibility Score: inf
ROOT
ATOM      1  C   UNL A   1      33.316  27.745  25.683  1.00  0.00     0.042 C 
ENDROOT
BRANCH   1   2
ATOM      2  C   UNL A   1      31.863  27.333  25.838  1.00  0.00     0.117 C 
BRANCH   2   3
ATOM      3  N   UNL A   1      31.237  27.081  24.557  1.00  0.00    -0.354 N 
ATOM      4  C   UNL A   1      31.116  25.987  23.768  1.00  0.00     0.255 C 
ATOM      5  O   UNL A   1      30.625  26.230  22.661  1.00  0.00    -0.272 OA
ATOM      6  H   UNL A   1      30.805  27.880  24.176  1.00  0.00     0.163 HD
BRANCH   4   7
ATOM      7  C   UNL A   1      31.668  24.599  24.146  1.00  0.00     0.213 C 
ATOM      8  C   UNL A   1      31.081  23.433  23.315  1.00  0.00     0.056 C 
BRANCH   7   9
ATOM      9  N   UNL A   1      31.216  24.405  25.584  1.00  0.00    -0.316 N 
ATOM     10  N   UNL A   1      31.778  22.407  26.734  1.00  0.00    -0.330 N 
ATOM     11  C   UNL A   1      31.021  23.483  26.526  1.00  0.00     0.316 C 
ATOM     12  H   UNL A   1      31.395  21.728  27.338  1.00  0.00     0.165 HD
ATOM     13  O   UNL A   1      30.105  23.700  27.324  1.00  0.00    -0.249 OA
ATOM     14  H   UNL A   1      30.983  25.285  25.957  1.00  0.00     0.166 HD
BRANCH  10  15
ATOM     15  C   UNL A   1      33.073  22.099  26.198  1.00  0.00     0.139 C 
ATOM     16  C   UNL A   1      34.535  19.034  24.669  1.00  0.00     0.332 C 
ATOM     17  N   UNL A   1      34.421  20.401  25.143  1.00  0.00    -0.336 N 
ATOM     18  C   UNL A   1      35.667  20.961  25.670  1.00  0.00     0.262 C 
ATOM     19  C   UNL A   1      33.305  20.588  26.068  1.00  0.00     0.287 C 
ATOM     20  H   UNL A   1      34.212  20.942  24.305  1.00  0.00     0.347 HD
ATOM     21  C   UNL A   1      35.517  22.440  26.085  1.00  0.00     0.064 C 
ATOM     22  C   UNL A   1      34.266  22.705  26.938  1.00  0.00     0.037 C 
ENDBRANCH  10  15
ENDBRANCH   7   9
BRANCH   7  23
ATOM     23  C   UNL A   1      33.138  24.663  23.654  1.00  0.00     0.420 C 
ATOM     24  F   UNL A   1      33.393  25.478  22.620  1.00  0.00    -0.168 F 
ATOM     25  F   UNL A   1      33.966  24.985  24.677  1.00  0.00    -0.168 F 
ATOM     26  F   UNL A   1      33.548  23.423  23.253  1.00  0.00    -0.168 F 
ENDBRANCH   7  23
ENDBRANCH   4   7
ENDBRANCH   2   3
ENDBRANCH   1   2
BRANCH   1  27
ATOM     27  C   UNL A   1      33.996  28.141  26.983  1.00  0.00     0.118 C 
BRANCH  27  28
ATOM     28  N   UNL A   1      33.733  29.523  27.357  1.00  0.00    -0.352 N 
ATOM     29  C   UNL A   1      34.520  30.408  28.047  1.00  0.00     0.251 C 
ATOM     30  H   UNL A   1      32.858  29.876  27.073  1.00  0.00     0.163 HD
ATOM     31  O   UNL A   1      34.034  31.464  28.455  1.00  0.00    -0.269 OA
BRANCH  29  32
ATOM     32  C   UNL A   1      35.935  30.085  28.312  1.00  0.00     0.039 A 
ATOM     33  C   UNL A   1      36.305  29.625  29.577  1.00  0.00     0.014 A 
ATOM     34  C   UNL A   1      36.900  30.238  27.313  1.00  0.00     0.014 A 
ATOM     35  C   UNL A   1      37.634  29.274  29.819  1.00  0.00     0.010 A 
ATOM     36  C   UNL A   1      38.191  29.773  27.518  1.00  0.00     0.010 A 
ATOM     37  C   UNL A   1      38.582  29.319  28.784  1.00  0.00    -0.014 A 
BRANCH  37  38
ATOM     38  C   UNL A   1      40.001  28.951  29.024  1.00  0.00     0.031 A 
ATOM     39  C   UNL A   1      40.946  29.965  29.617  1.00  0.00     0.074 A 
ATOM     40  C   UNL A   1      40.445  27.730  28.668  1.00  0.00     0.049 A 
ATOM     41  N   UNL A   1      42.223  29.850  29.877  1.00  0.00    -0.248 NA
ATOM     42  C   UNL A   1      40.395  31.297  29.926  1.00  0.00     0.031 C 
ATOM     43  C   UNL A   1      39.642  26.692  28.015  1.00  0.00     0.029 A 
ATOM     44  N   UNL A   1      41.681  27.153  28.802  1.00  0.00    -0.354 N 
ATOM     45  C   UNL A   1      42.626  31.092  30.354  1.00  0.00     0.074 A 
ATOM     46  C   UNL A   1      41.478  31.967  30.289  1.00  0.00     0.031 C 
ATOM     47  C   UNL A   1      40.399  25.597  27.834  1.00  0.00     0.029 A 
ATOM     48  C   UNL A   1      41.746  25.864  28.328  1.00  0.00     0.049 A 
ATOM     49  H   UNL A   1      42.452  27.620  29.199  1.00  0.00     0.167 HD
ATOM     50  C   UNL A   1      43.835  31.463  30.835  1.00  0.00     0.037 A 
ATOM     51  C   UNL A   1      42.775  24.995  28.300  1.00  0.00     0.037 A 
ATOM     52  C   UNL A   1      44.959  30.570  30.944  1.00  0.00     0.049 A 
ATOM     53  C   UNL A   1      44.093  25.414  28.893  1.00  0.00     0.074 A 
ATOM     54  C   UNL A   1      46.206  30.820  31.488  1.00  0.00     0.029 A 
ATOM     55  N   UNL A   1      44.968  29.255  30.506  1.00  0.00    -0.354 N 
ATOM     56  N   UNL A   1      44.435  26.570  29.415  1.00  0.00    -0.248 NA
ATOM     57  C   UNL A   1      45.161  24.406  28.913  1.00  0.00     0.031 C 
ATOM     58  C   UNL A   1      46.985  29.668  31.339  1.00  0.00     0.029 A 
ATOM     59  C   UNL A   1      46.204  28.683  30.755  1.00  0.00     0.049 A 
ATOM     60  H   UNL A   1      44.209  28.795  30.081  1.00  0.00     0.167 HD
ATOM     61  C   UNL A   1      45.744  26.416  29.855  1.00  0.00     0.074 A 
ATOM     62  C   UNL A   1      46.126  25.051  29.555  1.00  0.00     0.031 C 
ATOM     63  C   UNL A   1      46.560  27.320  30.455  1.00  0.00     0.037 A 
BRANCH  50  64
ATOM     64  C   UNL A   1      44.007  32.885  31.296  1.00  0.00     0.058 A 
ATOM     65  C   UNL A   1      44.438  33.899  30.425  1.00  0.00     0.135 A 
ATOM     66  C   UNL A   1      43.685  33.249  32.613  1.00  0.00     0.135 A 
ATOM     67  F   UNL A   1      44.781  33.605  29.160  1.00  0.00    -0.206 F 
ATOM     68  C   UNL A   1      44.560  35.219  30.846  1.00  0.00     0.059 A 
ATOM     69  C   UNL A   1      43.770  34.569  33.049  1.00  0.00     0.059 A 
ATOM     70  F   UNL A   1      43.275  32.321  33.491  1.00  0.00    -0.206 F 
ATOM     71  C   UNL A   1      44.217  35.545  32.159  1.00  0.00     0.060 A 
BRANCH  71  72
ATOM     72  S   UNL A   1      44.342  37.269  32.679  1.00  0.00     0.124 S 
ATOM     73  O   UNL A   1      43.219  37.377  33.605  1.00  0.00    -0.237 OA
ATOM     74  O   UNL A   1      45.669  37.315  33.285  1.00  0.00    -0.237 OA
ATOM     75  O   UNL A   1      44.201  38.012  31.431  1.00  0.00    -0.744 OA
ENDBRANCH  71  72
ENDBRANCH  50  64
BRANCH  51  76
ATOM     76  C   UNL A   1      42.595  23.637  27.719  1.00  0.00     0.058 A 
ATOM     77  C   UNL A   1      42.343  22.524  28.537  1.00  0.00     0.135 A 
ATOM     78  C   UNL A   1      42.681  23.423  26.335  1.00  0.00     0.135 A 
ATOM     79  F   UNL A   1      42.251  22.676  29.866  1.00  0.00    -0.206 F 
ATOM     80  C   UNL A   1      42.218  21.243  28.008  1.00  0.00     0.059 A 
ATOM     81  C   UNL A   1      42.529  22.156  25.779  1.00  0.00     0.059 A 
ATOM     82  F   UNL A   1      42.897  24.456  25.506  1.00  0.00    -0.206 F 
ATOM     83  C   UNL A   1      42.316  21.069  26.625  1.00  0.00     0.060 A 
BRANCH  83  84
ATOM     84  S   UNL A   1      42.131  19.407  25.946  1.00  0.00     0.124 S 
ATOM     85  O   UNL A   1      40.690  19.332  25.736  1.00  0.00    -0.237 OA
ATOM     86  O   UNL A   1      42.951  19.474  24.741  1.00  0.00    -0.237 OA
ATOM     87  O   UNL A   1      42.659  18.552  27.007  1.00  0.00    -0.744 OA
ENDBRANCH  83  84
ENDBRANCH  51  76
BRANCH  63  88
ATOM     88  C   UNL A   1      47.924  26.843  30.870  1.00  0.00     0.058 A 
ATOM     89  C   UNL A   1      48.185  26.370  32.165  1.00  0.00     0.135 A 
ATOM     90  C   UNL A   1      48.984  26.846  29.947  1.00  0.00     0.135 A 
ATOM     91  F   UNL A   1      47.208  26.345  33.085  1.00  0.00    -0.206 F 
ATOM     92  C   UNL A   1      49.461  25.968  32.547  1.00  0.00     0.059 A 
ATOM     93  C   UNL A   1      50.259  26.415  30.298  1.00  0.00     0.059 A 
ATOM     94  F   UNL A   1      48.785  27.270  28.688  1.00  0.00    -0.206 F 
ATOM     95  C   UNL A   1      50.493  26.000  31.608  1.00  0.00     0.060 A 
BRANCH  95  96
ATOM     96  S   UNL A   1      52.146  25.489  32.116  1.00  0.00     0.124 S 
ATOM     97  O   UNL A   1      52.002  24.037  32.163  1.00  0.00    -0.237 OA
ATOM     98  O   UNL A   1      52.982  26.008  31.038  1.00  0.00    -0.237 OA
ATOM     99  O   UNL A   1      52.322  26.145  33.409  1.00  0.00    -0.744 OA
ENDBRANCH  95  96
ENDBRANCH  63  88
ENDBRANCH  37  38
ENDBRANCH  29  32
ENDBRANCH  27  28
ENDBRANCH   1  27
TORSDOF 16
ENDMDL
MODEL 2
REMARK VINA RESULT:     -11.1      4.533      5.973
REMARK SMILES C[N@@H+]1CCC[C@H](NC(=O)N[C@@](C)(C(=O)NCCCNC(=O)c2ccc(-c3c4nc(c(-c5c(F)cc(S(=O)(=O)[O-])cc5F)c5ccc([nH]5)c(-c5c(F)cc(S(=O)(=O)[O-])cc5F)c5nc(c(-c6c(F)cc(S(=O)(=O)[O-])cc6F)c6ccc3[nH]6)C=C5)C=C4)cc2)C(F)(F)F)C1
REMARK SMILES IDX 17 1 16 2 15 3 13 4 14 5 11 7 12 8 10 9 7 10 8 11 9 13 6 15
REMARK SMILES IDX 1 16 2 17 3 18 92 19 4 21 5 22 88 23 89 24 90 25 91 26 18 27
REMARK SMILES IDX 19 28 20 29 21 31 22 32 23 33 87 34 24 35 86 36 25 37 26 38
REMARK SMILES IDX 27 39 80 40 28 41 85 42 79 43 81 44 29 45 84 46 78 47 77 48
REMARK SMILES IDX 30 50 64 51 43 52 63 53 44 54 47 55 62 56 82 57 45 58 46 59
REMARK SMILES IDX 61 61 83 62 48 63 31 64 32 65 41 66 33 67 34 68 40 69 42 70
REMARK SMILES IDX 35 71 36 72 37 73 38 74 39 75 65 76 66 77 75 78 67 79 68 80
REMARK SMILES IDX 74 81 76 82 69 83 70 84 71 85 72 86 73 87 49 88 50 89 59 90
REMARK SMILES IDX 51 91 52 92 58 93 60 94 53 95 54 96 55 97 56 98 57 99
REMARK H PARENT 15 6 7 12 10 14 2 20 19 30 81 49 47 60
REMARK Flexibility Score: inf
ROOT
ATOM      1  C   UNL A   1      31.779  31.903  26.509  1.00  0.00     0.042 C 
ENDROOT
BRANCH   1   2
ATOM      2  C   UNL A   1      31.969  30.462  26.068  1.00  0.00     0.117 C 
BRANCH   2   3
ATOM      3  N   UNL A   1      31.923  29.547  27.188  1.00  0.00    -0.354 N 
ATOM      4  C   UNL A   1      31.802  28.202  27.300  1.00  0.00     0.255 C 
ATOM      5  O   UNL A   1      31.652  27.816  28.464  1.00  0.00    -0.272 OA
ATOM      6  H   UNL A   1      31.994  30.001  28.060  1.00  0.00     0.163 HD
BRANCH   4   7
ATOM      7  C   UNL A   1      31.713  27.251  26.091  1.00  0.00     0.213 C 
ATOM      8  C   UNL A   1      31.095  27.889  24.825  1.00  0.00     0.056 C 
BRANCH   7   9
ATOM      9  N   UNL A   1      30.770  26.155  26.555  1.00  0.00    -0.316 N 
ATOM     10  N   UNL A   1      30.200  24.387  25.078  1.00  0.00    -0.330 N 
ATOM     11  C   UNL A   1      29.970  25.181  26.124  1.00  0.00     0.316 C 
ATOM     12  H   UNL A   1      29.432  23.850  24.774  1.00  0.00     0.165 HD
ATOM     13  O   UNL A   1      28.971  24.946  26.810  1.00  0.00    -0.249 OA
ATOM     14  H   UNL A   1      30.738  26.169  27.540  1.00  0.00     0.166 HD
BRANCH  10  15
ATOM     15  C   UNL A   1      31.414  24.209  24.334  1.00  0.00     0.139 C 
ATOM     16  C   UNL A   1      32.833  25.895  21.332  1.00  0.00     0.332 C 
ATOM     17  N   UNL A   1      32.721  25.000  22.469  1.00  0.00    -0.336 N 
ATOM     18  C   UNL A   1      33.367  23.701  22.277  1.00  0.00     0.262 C 
ATOM     19  C   UNL A   1      31.348  24.861  22.947  1.00  0.00     0.287 C 
ATOM     20  H   UNL A   1      33.252  25.462  23.207  1.00  0.00     0.347 HD
ATOM     21  C   UNL A   1      33.294  22.816  23.540  1.00  0.00     0.064 C 
ATOM     22  C   UNL A   1      31.888  22.766  24.162  1.00  0.00     0.037 C 
ENDBRANCH  10  15
ENDBRANCH   7   9
BRANCH   7  23
ATOM     23  C   UNL A   1      33.200  27.063  25.688  1.00  0.00     0.420 C 
ATOM     24  F   UNL A   1      33.667  25.806  25.675  1.00  0.00    -0.168 F 
ATOM     25  F   UNL A   1      33.438  27.630  24.480  1.00  0.00    -0.168 F 
ATOM     26  F   UNL A   1      34.006  27.745  26.555  1.00  0.00    -0.168 F 
ENDBRANCH   7  23
ENDBRANCH   4   7
ENDBRANCH   2   3
ENDBRANCH   1   2
BRANCH   1  27
ATOM     27  C   UNL A   1      32.913  32.451  27.359  1.00  0.00     0.118 C 
BRANCH  27  28
ATOM     28  N   UNL A   1      32.712  33.843  27.735  1.00  0.00    -0.352 N 
ATOM     29  C   UNL A   1      33.287  34.568  28.746  1.00  0.00     0.251 C 
ATOM     30  H   UNL A   1      32.065  34.338  27.181  1.00  0.00     0.163 HD
ATOM     31  O   UNL A   1      32.826  35.672  29.040  1.00  0.00    -0.269 OA
BRANCH  29  32
ATOM     32  C   UNL A   1      34.440  34.019  29.485  1.00  0.00     0.039 A 
ATOM     33  C   UNL A   1      34.214  33.234  30.617  1.00  0.00     0.014 A 
ATOM     34  C   UNL A   1      35.746  34.279  29.063  1.00  0.00     0.014 A 
ATOM     35  C   UNL A   1      35.299  32.673  31.292  1.00  0.00     0.010 A 
ATOM     36  C   UNL A   1      36.813  33.622  29.660  1.00  0.00     0.010 A 
ATOM     37  C   UNL A   1      36.606  32.840  30.803  1.00  0.00    -0.014 A 
BRANCH  37  38
ATOM     38  C   UNL A   1      37.773  32.253  31.509  1.00  0.00     0.031 A 
ATOM     39  C   UNL A   1      38.187  32.801  32.851  1.00  0.00     0.074 A 
ATOM     40  C   UNL A   1      38.480  31.266  30.926  1.00  0.00     0.049 A 
ATOM     41  N   UNL A   1      39.189  32.446  33.613  1.00  0.00    -0.248 NA
ATOM     42  C   UNL A   1      37.395  33.918  33.395  1.00  0.00     0.031 C 
ATOM     43  C   UNL A   1      38.221  30.707  29.596  1.00  0.00     0.029 A 
ATOM     44  N   UNL A   1      39.565  30.558  31.375  1.00  0.00    -0.354 N 
ATOM     45  C   UNL A   1      39.159  33.308  34.704  1.00  0.00     0.074 A 
ATOM     46  C   UNL A   1      38.082  34.244  34.479  1.00  0.00     0.031 C 
ATOM     47  C   UNL A   1      39.103  29.723  29.351  1.00  0.00     0.029 A 
ATOM     48  C   UNL A   1      40.007  29.602  30.490  1.00  0.00     0.049 A 
ATOM     49  H   UNL A   1      39.989  30.720  32.248  1.00  0.00     0.167 HD
ATOM     50  C   UNL A   1      39.937  33.299  35.812  1.00  0.00     0.037 A 
ATOM     51  C   UNL A   1      41.024  28.725  30.590  1.00  0.00     0.037 A 
ATOM     52  C   UNL A   1      40.975  32.331  36.051  1.00  0.00     0.049 A 
ATOM     53  C   UNL A   1      41.838  28.700  31.856  1.00  0.00     0.074 A 
ATOM     54  C   UNL A   1      41.771  32.184  37.173  1.00  0.00     0.029 A 
ATOM     55  N   UNL A   1      41.355  31.343  35.157  1.00  0.00    -0.354 N 
ATOM     56  N   UNL A   1      41.743  29.471  32.914  1.00  0.00    -0.248 NA
ATOM     57  C   UNL A   1      42.883  27.673  31.951  1.00  0.00     0.031 C 
ATOM     58  C   UNL A   1      42.663  31.134  36.939  1.00  0.00     0.029 A 
ATOM     59  C   UNL A   1      42.384  30.590  35.695  1.00  0.00     0.049 A 
ATOM     60  H   UNL A   1      40.953  31.198  34.270  1.00  0.00     0.167 HD
ATOM     61  C   UNL A   1      42.693  29.000  33.814  1.00  0.00     0.074 A 
ATOM     62  C   UNL A   1      43.338  27.867  33.182  1.00  0.00     0.031 C 
ATOM     63  C   UNL A   1      43.006  29.460  35.052  1.00  0.00     0.037 A 
BRANCH  50  64
ATOM     64  C   UNL A   1      39.690  34.355  36.856  1.00  0.00     0.058 A 
ATOM     65  C   UNL A   1      38.936  34.091  38.011  1.00  0.00     0.135 A 
ATOM     66  C   UNL A   1      40.258  35.631  36.725  1.00  0.00     0.135 A 
ATOM     67  F   UNL A   1      38.351  32.894  38.180  1.00  0.00    -0.206 F 
ATOM     68  C   UNL A   1      38.741  35.058  38.991  1.00  0.00     0.059 A 
ATOM     69  C   UNL A   1      40.102  36.607  37.706  1.00  0.00     0.059 A 
ATOM     70  F   UNL A   1      40.981  35.942  35.638  1.00  0.00    -0.206 F 
ATOM     71  C   UNL A   1      39.334  36.312  38.832  1.00  0.00     0.060 A 
BRANCH  71  72
ATOM     72  S   UNL A   1      39.104  37.544  40.132  1.00  0.00     0.124 S 
ATOM     73  O   UNL A   1      40.463  38.052  40.295  1.00  0.00    -0.237 OA
ATOM     74  O   UNL A   1      38.152  38.466  39.521  1.00  0.00    -0.237 OA
ATOM     75  O   UNL A   1      38.587  36.765  41.252  1.00  0.00    -0.744 OA
ENDBRANCH  71  72
ENDBRANCH  50  64
BRANCH  51  76
ATOM     76  C   UNL A   1      41.312  27.781  29.477  1.00  0.00     0.058 A 
ATOM     77  C   UNL A   1      42.435  27.950  28.651  1.00  0.00     0.135 A 
ATOM     78  C   UNL A   1      40.465  26.694  29.209  1.00  0.00     0.135 A 
ATOM     79  F   UNL A   1      43.276  28.973  28.866  1.00  0.00    -0.206 F 
ATOM     80  C   UNL A   1      42.689  27.099  27.580  1.00  0.00     0.059 A 
ATOM     81  C   UNL A   1      40.715  25.812  28.162  1.00  0.00     0.059 A 
ATOM     82  F   UNL A   1      39.391  26.472  29.982  1.00  0.00    -0.206 F 
ATOM     83  C   UNL A   1      41.819  26.032  27.342  1.00  0.00     0.060 A 
BRANCH  83  84
ATOM     84  S   UNL A   1      42.169  24.921  25.962  1.00  0.00     0.124 S 
ATOM     85  O   UNL A   1      43.490  24.417  26.317  1.00  0.00    -0.237 OA
ATOM     86  O   UNL A   1      41.072  23.962  26.055  1.00  0.00    -0.237 OA
ATOM     87  O   UNL A   1      42.121  25.805  24.801  1.00  0.00    -0.744 OA
ENDBRANCH  83  84
ENDBRANCH  51  76
BRANCH  63  88
ATOM     88  C   UNL A   1      44.055  28.706  35.819  1.00  0.00     0.058 A 
ATOM     89  C   UNL A   1      43.731  27.637  36.670  1.00  0.00     0.135 A 
ATOM     90  C   UNL A   1      45.411  29.051  35.687  1.00  0.00     0.135 A 
ATOM     91  F   UNL A   1      42.452  27.266  36.830  1.00  0.00    -0.206 F 
ATOM     92  C   UNL A   1      44.708  26.972  37.403  1.00  0.00     0.059 A 
ATOM     93  C   UNL A   1      46.407  28.377  36.384  1.00  0.00     0.059 A 
ATOM     94  F   UNL A   1      45.779  30.053  34.872  1.00  0.00    -0.206 F 
ATOM     95  C   UNL A   1      46.043  27.354  37.258  1.00  0.00     0.060 A 
BRANCH  95  96
ATOM     96  S   UNL A   1      47.301  26.494  38.225  1.00  0.00     0.124 S 
ATOM     97  O   UNL A   1      48.434  27.407  38.106  1.00  0.00    -0.237 OA
ATOM     98  O   UNL A   1      46.685  26.418  39.546  1.00  0.00    -0.237 OA
ATOM     99  O   UNL A   1      47.447  25.218  37.533  1.00  0.00    -0.744 OA
ENDBRANCH  95  96
ENDBRANCH  63  88
ENDBRANCH  37  38
ENDBRANCH  29  32
ENDBRANCH  27  28
ENDBRANCH   1  27
TORSDOF 16
ENDMDL
MODEL 3
REMARK VINA RESULT:     -11.1      2.950      4.046
REMARK SMILES C[N@@H+]1CCC[C@H](NC(=O)N[C@@](C)(C(=O)NCCCNC(=O)c2ccc(-c3c4nc(c(-c5c(F)cc(S(=O)(=O)[O-])cc5F)c5ccc([nH]5)c(-c5c(F)cc(S(=O)(=O)[O-])cc5F)c5nc(c(-c6c(F)cc(S(=O)(=O)[O-])cc6F)c6ccc3[nH]6)C=C5)C=C4)cc2)C(F)(F)F)C1
REMARK SMILES IDX 17 1 16 2 15 3 13 4 14 5 11 7 12 8 10 9 7 10 8 11 9 13 6 15
REMARK SMILES IDX 1 16 2 17 3 18 92 19 4 21 5 22 88 23 89 24 90 25 91 26 18 27
REMARK SMILES IDX 19 28 20 29 21 31 22 32 23 33 87 34 24 35 86 36 25 37 26 38
REMARK SMILES IDX 27 39 80 40 28 41 85 42 79 43 81 44 29 45 84 46 78 47 77 48
REMARK SMILES IDX 30 50 64 51 43 52 63 53 44 54 47 55 62 56 82 57 45 58 46 59
REMARK SMILES IDX 61 61 83 62 48 63 31 64 32 65 41 66 33 67 34 68 40 69 42 70
REMARK SMILES IDX 35 71 36 72 37 73 38 74 39 75 65 76 66 77 75 78 67 79 68 80
REMARK SMILES IDX 74 81 76 82 69 83 70 84 71 85 72 86 73 87 49 88 50 89 59 90
REMARK SMILES IDX 51 91 52 92 58 93 60 94 53 95 54 96 55 97 56 98 57 99
REMARK H PARENT 15 6 7 12 10 14 2 20 19 30 81 49 47 60
REMARK Flexibility Score: inf
ROOT
ATOM      1  C   UNL A   1      34.858  30.018  27.195  1.00  0.00     0.042 C 
ENDROOT
BRANCH   1   2
ATOM      2  C   UNL A   1      33.344  30.136  27.189  1.00  0.00     0.117 C 
BRANCH   2   3
ATOM      3  N   UNL A   1      32.707  28.890  27.559  1.00  0.00    -0.354 N 
ATOM      4  C   UNL A   1      32.084  27.909  26.862  1.00  0.00     0.255 C 
ATOM      5  O   UNL A   1      31.535  27.068  27.581  1.00  0.00    -0.272 OA
ATOM      6  H   UNL A   1      32.731  28.718  28.528  1.00  0.00     0.163 HD
BRANCH   4   7
ATOM      7  C   UNL A   1      31.942  27.912  25.328  1.00  0.00     0.213 C 
ATOM      8  C   UNL A   1      32.001  29.318  24.686  1.00  0.00     0.056 C 
BRANCH   7   9
ATOM      9  N   UNL A   1      30.548  27.360  25.088  1.00  0.00    -0.316 N 
ATOM     10  N   UNL A   1      30.270  25.079  24.496  1.00  0.00    -0.330 N 
ATOM     11  C   UNL A   1      29.880  26.353  24.526  1.00  0.00     0.316 C 
ATOM     12  H   UNL A   1      29.767  24.494  23.883  1.00  0.00     0.165 HD
ATOM     13  O   UNL A   1      28.764  26.619  24.071  1.00  0.00    -0.249 OA
ATOM     14  H   UNL A   1      29.896  27.973  25.500  1.00  0.00     0.166 HD
BRANCH  10  15
ATOM     15  C   UNL A   1      31.324  24.442  25.233  1.00  0.00     0.139 C 
ATOM     16  C   UNL A   1      34.420  22.643  24.211  1.00  0.00     0.332 C 
ATOM     17  N   UNL A   1      33.412  23.247  25.061  1.00  0.00    -0.336 N 
ATOM     18  C   UNL A   1      33.203  22.554  26.333  1.00  0.00     0.262 C 
ATOM     19  C   UNL A   1      32.153  23.491  24.360  1.00  0.00     0.287 C 
ATOM     20  H   UNL A   1      33.801  24.157  25.307  1.00  0.00     0.347 HD
ATOM     21  C   UNL A   1      32.182  23.278  27.237  1.00  0.00     0.064 C 
ATOM     22  C   UNL A   1      30.900  23.687  26.493  1.00  0.00     0.037 C 
ENDBRANCH  10  15
ENDBRANCH   7   9
BRANCH   7  23
ATOM     23  C   UNL A   1      33.272  27.266  24.856  1.00  0.00     0.420 C 
ATOM     24  F   UNL A   1      33.896  26.462  25.729  1.00  0.00    -0.168 F 
ATOM     25  F   UNL A   1      33.083  26.589  23.697  1.00  0.00    -0.168 F 
ATOM     26  F   UNL A   1      34.177  28.241  24.545  1.00  0.00    -0.168 F 
ENDBRANCH   7  23
ENDBRANCH   4   7
ENDBRANCH   2   3
ENDBRANCH   1   2
BRANCH   1  27
ATOM     27  C   UNL A   1      35.429  29.359  28.440  1.00  0.00     0.118 C 
BRANCH  27  28
ATOM     28  N   UNL A   1      35.525  30.276  29.567  1.00  0.00    -0.352 N 
ATOM     29  C   UNL A   1      36.619  30.635  30.312  1.00  0.00     0.251 C 
ATOM     30  H   UNL A   1      34.678  30.702  29.835  1.00  0.00     0.163 HD
ATOM     31  O   UNL A   1      36.460  31.257  31.363  1.00  0.00    -0.269 OA
BRANCH  29  32
ATOM     32  C   UNL A   1      37.973  30.260  29.863  1.00  0.00     0.039 A 
ATOM     33  C   UNL A   1      38.925  29.879  30.811  1.00  0.00     0.014 A 
ATOM     34  C   UNL A   1      38.307  30.285  28.507  1.00  0.00     0.014 A 
ATOM     35  C   UNL A   1      40.193  29.478  30.387  1.00  0.00     0.010 A 
ATOM     36  C   UNL A   1      39.523  29.770  28.081  1.00  0.00     0.010 A 
ATOM     37  C   UNL A   1      40.494  29.394  29.018  1.00  0.00    -0.014 A 
BRANCH  37  38
ATOM     38  C   UNL A   1      41.838  28.972  28.549  1.00  0.00     0.031 A 
ATOM     39  C   UNL A   1      42.946  29.989  28.443  1.00  0.00     0.074 A 
ATOM     40  C   UNL A   1      42.047  27.693  28.180  1.00  0.00     0.049 A 
ATOM     41  N   UNL A   1      44.177  29.828  28.031  1.00  0.00    -0.248 NA
ATOM     42  C   UNL A   1      42.621  31.378  28.812  1.00  0.00     0.031 C 
ATOM     43  C   UNL A   1      41.031  26.637  28.167  1.00  0.00     0.029 A 
ATOM     44  N   UNL A   1      43.183  27.063  27.741  1.00  0.00    -0.354 N 
ATOM     45  C   UNL A   1      44.758  31.091  28.070  1.00  0.00     0.074 A 
ATOM     46  C   UNL A   1      43.732  32.020  28.484  1.00  0.00     0.031 C 
ATOM     47  C   UNL A   1      41.598  25.485  27.770  1.00  0.00     0.029 A 
ATOM     48  C   UNL A   1      43.006  25.726  27.473  1.00  0.00     0.049 A 
ATOM     49  H   UNL A   1      44.045  27.525  27.627  1.00  0.00     0.167 HD
ATOM     50  C   UNL A   1      46.041  31.442  27.818  1.00  0.00     0.037 A 
ATOM     51  C   UNL A   1      43.882  24.800  27.039  1.00  0.00     0.037 A 
ATOM     52  C   UNL A   1      47.069  30.501  27.456  1.00  0.00     0.049 A 
ATOM     53  C   UNL A   1      45.315  25.204  26.820  1.00  0.00     0.074 A 
ATOM     54  C   UNL A   1      48.417  30.737  27.253  1.00  0.00     0.029 A 
ATOM     55  N   UNL A   1      46.863  29.147  27.249  1.00  0.00    -0.354 N 
ATOM     56  N   UNL A   1      45.867  26.390  26.941  1.00  0.00    -0.248 NA
ATOM     57  C   UNL A   1      46.251  24.143  26.427  1.00  0.00     0.031 C 
ATOM     58  C   UNL A   1      49.018  29.532  26.881  1.00  0.00     0.029 A 
ATOM     59  C   UNL A   1      48.056  28.534  26.908  1.00  0.00     0.049 A 
ATOM     60  H   UNL A   1      45.996  28.687  27.333  1.00  0.00     0.167 HD
ATOM     61  C   UNL A   1      47.219  26.210  26.671  1.00  0.00     0.074 A 
ATOM     62  C   UNL A   1      47.403  24.799  26.398  1.00  0.00     0.031 C 
ATOM     63  C   UNL A   1      48.219  27.126  26.650  1.00  0.00     0.037 A 
BRANCH  50  64
ATOM     64  C   UNL A   1      46.412  32.895  27.938  1.00  0.00     0.058 A 
ATOM     65  C   UNL A   1      47.000  33.415  29.103  1.00  0.00     0.135 A 
ATOM     66  C   UNL A   1      46.226  33.768  26.855  1.00  0.00     0.135 A 
ATOM     67  F   UNL A   1      47.181  32.632  30.178  1.00  0.00    -0.206 F 
ATOM     68  C   UNL A   1      47.374  34.751  29.196  1.00  0.00     0.059 A 
ATOM     69  C   UNL A   1      46.621  35.102  26.913  1.00  0.00     0.059 A 
ATOM     70  F   UNL A   1      45.662  33.327  25.719  1.00  0.00    -0.206 F 
ATOM     71  C   UNL A   1      47.187  35.586  28.092  1.00  0.00     0.060 A 
BRANCH  71  72
ATOM     72  S   UNL A   1      47.715  37.307  28.215  1.00  0.00     0.124 S 
ATOM     73  O   UNL A   1      47.793  37.689  26.808  1.00  0.00    -0.237 OA
ATOM     74  O   UNL A   1      46.626  37.913  28.976  1.00  0.00    -0.237 OA
ATOM     75  O   UNL A   1      48.993  37.223  28.915  1.00  0.00    -0.744 OA
ENDBRANCH  71  72
ENDBRANCH  50  64
BRANCH  51  76
ATOM     76  C   UNL A   1      43.441  23.397  26.813  1.00  0.00     0.058 A 
ATOM     77  C   UNL A   1      43.202  22.527  27.889  1.00  0.00     0.135 A 
ATOM     78  C   UNL A   1      43.258  22.894  25.515  1.00  0.00     0.135 A 
ATOM     79  F   UNL A   1      43.362  22.959  29.148  1.00  0.00    -0.206 F 
ATOM     80  C   UNL A   1      42.833  21.200  27.687  1.00  0.00     0.059 A 
ATOM     81  C   UNL A   1      42.861  21.580  25.289  1.00  0.00     0.059 A 
ATOM     82  F   UNL A   1      43.451  23.690  24.452  1.00  0.00    -0.206 F 
ATOM     83  C   UNL A   1      42.667  20.735  26.380  1.00  0.00     0.060 A 
BRANCH  83  84
ATOM     84  S   UNL A   1      42.168  19.019  26.129  1.00  0.00     0.124 S 
ATOM     85  O   UNL A   1      43.077  18.600  25.069  1.00  0.00    -0.237 OA
ATOM     86  O   UNL A   1      42.406  18.433  27.445  1.00  0.00    -0.237 OA
ATOM     87  O   UNL A   1      40.763  19.132  25.748  1.00  0.00    -0.744 OA
ENDBRANCH  83  84
ENDBRANCH  51  76
BRANCH  63  88
ATOM     88  C   UNL A   1      49.607  26.619  26.372  1.00  0.00     0.058 A 
ATOM     89  C   UNL A   1      50.182  26.686  25.093  1.00  0.00     0.135 A 
ATOM     90  C   UNL A   1      50.379  26.071  27.410  1.00  0.00     0.135 A 
ATOM     91  F   UNL A   1      49.487  27.201  24.067  1.00  0.00    -0.206 F 
ATOM     92  C   UNL A   1      51.452  26.179  24.842  1.00  0.00     0.059 A 
ATOM     93  C   UNL A   1      51.665  25.590  27.188  1.00  0.00     0.059 A 
ATOM     94  F   UNL A   1      49.886  26.001  28.657  1.00  0.00    -0.206 F 
ATOM     95  C   UNL A   1      52.184  25.627  25.895  1.00  0.00     0.060 A 
BRANCH  95  96
ATOM     96  S   UNL A   1      53.825  24.959  25.556  1.00  0.00     0.124 S 
ATOM     97  O   UNL A   1      54.530  25.273  26.795  1.00  0.00    -0.237 OA
ATOM     98  O   UNL A   1      53.547  23.544  25.326  1.00  0.00    -0.237 OA
ATOM     99  O   UNL A   1      54.259  25.706  24.380  1.00  0.00    -0.744 OA
ENDBRANCH  95  96
ENDBRANCH  63  88
ENDBRANCH  37  38
ENDBRANCH  29  32
ENDBRANCH  27  28
ENDBRANCH   1  27
TORSDOF 16
ENDMDL
