MODEL 1
REMARK VINA RESULT:     -11.9      0.000      0.000
REMARK SMILES Cc1cc(Cl)cc2c1O[C@H](C(F)(F)F)C(C(=O)NCCCNC(=O)c1ccc(-c3c4nc(c(-c5c(F)cc(S(=O)(=O)[O-])cc5F)c5ccc([nH]5)c(-c5c(F)cc(S(=O)(=O)[O-])cc5F)c5nc(c(-c6c(F)cc(S(=O)(=O)[O-])cc6F)c6ccc3[nH]6)C=C5)C=C4)cc1)=C2
REMARK SMILES IDX 21 1 20 2 19 3 18 4 16 5 17 6 15 8 1 9 2 10 3 11 8 12 4 13
REMARK SMILES IDX 7 14 9 15 5 16 6 17 91 18 10 19 11 20 12 21 13 22 14 23
REMARK SMILES IDX 22 24 23 25 24 27 25 28 26 29 90 30 27 31 89 32 28 33 29 34
REMARK SMILES IDX 30 35 83 36 31 37 88 38 82 39 84 40 32 41 87 42 81 43 80 44
REMARK SMILES IDX 33 46 67 47 46 48 66 49 47 50 50 51 65 52 85 53 48 54 49 55
REMARK SMILES IDX 64 57 86 58 51 59 34 60 35 61 44 62 36 63 37 64 43 65 45 66
REMARK SMILES IDX 38 67 39 68 40 69 41 70 42 71 68 72 69 73 78 74 70 75 71 76
REMARK SMILES IDX 77 77 79 78 72 79 73 80 74 81 75 82 76 83 52 84 53 85 62 86
REMARK SMILES IDX 54 87 55 88 61 89 63 90 56 91 57 92 58 93 59 94 60 95
REMARK H PARENT 18 7 22 26 84 45 50 56
REMARK Flexibility Score: inf
ROOT
ATOM      1  C   UNL A   1      34.097  28.180  26.298  1.00  0.00     0.118 C 
ENDROOT
BRANCH   1   2
ATOM      2  C   UNL A   1      34.016  28.167  24.777  1.00  0.00     0.042 C 
BRANCH   2   3
ATOM      3  C   UNL A   1      32.899  27.267  24.273  1.00  0.00     0.118 C 
BRANCH   3   4
ATOM      4  N   UNL A   1      32.082  26.748  25.360  1.00  0.00    -0.352 N 
ATOM      5  C   UNL A   1      31.930  25.573  26.012  1.00  0.00     0.251 C 
ATOM      6  O   UNL A   1      31.098  25.579  26.925  1.00  0.00    -0.270 OA
ATOM      7  H   UNL A   1      31.478  27.438  25.717  1.00  0.00     0.163 HD
BRANCH   5   8
ATOM      8  C   UNL A   1      32.684  24.322  25.709  1.00  0.00     0.067 C 
ATOM      9  C   UNL A   1      34.201  19.505  24.677  1.00  0.00     0.048 C 
ATOM     10  C   UNL A   1      34.870  20.786  25.088  1.00  0.00    -0.007 A 
ATOM     11  C   UNL A   1      36.265  20.822  25.216  1.00  0.00     0.027 A 
ATOM     12  C   UNL A   1      34.144  21.953  25.358  1.00  0.00     0.131 A 
ATOM     13  C   UNL A   1      36.907  21.998  25.604  1.00  0.00     0.042 A 
ATOM     14  C   UNL A   1      34.786  23.135  25.748  1.00  0.00     0.019 A 
ATOM     15  O   UNL A   1      32.782  21.877  25.273  1.00  0.00    -0.475 OA
ATOM     16  Cl  UNL A   1      38.622  22.019  25.757  1.00  0.00    -0.084 Cl
ATOM     17  C   UNL A   1      36.176  23.154  25.872  1.00  0.00     0.032 A 
ATOM     18  C   UNL A   1      33.986  24.319  26.047  1.00  0.00     0.025 C 
ATOM     19  C   UNL A   1      32.081  23.124  25.038  1.00  0.00     0.314 C 
BRANCH  19  20
ATOM     20  C   UNL A   1      31.891  23.327  23.522  1.00  0.00     0.429 C 
ATOM     21  F   UNL A   1      32.049  22.153  22.862  1.00  0.00    -0.167 F 
ATOM     22  F   UNL A   1      30.655  23.780  23.205  1.00  0.00    -0.167 F 
ATOM     23  F   UNL A   1      32.773  24.208  22.998  1.00  0.00    -0.167 F 
ENDBRANCH  19  20
ENDBRANCH   5   8
ENDBRANCH   3   4
ENDBRANCH   2   3
ENDBRANCH   1   2
BRANCH   1  24
ATOM     24  N   UNL A   1      33.777  29.498  26.843  1.00  0.00    -0.352 N 
ATOM     25  C   UNL A   1      34.451  30.263  27.761  1.00  0.00     0.251 C 
ATOM     26  H   UNL A   1      32.946  29.899  26.499  1.00  0.00     0.163 HD
ATOM     27  O   UNL A   1      33.875  31.200  28.311  1.00  0.00    -0.269 OA
BRANCH  25  28
ATOM     28  C   UNL A   1      35.858  29.959  28.082  1.00  0.00     0.039 A 
ATOM     29  C   UNL A   1      36.189  29.496  29.357  1.00  0.00     0.014 A 
ATOM     30  C   UNL A   1      36.855  30.159  27.124  1.00  0.00     0.014 A 
ATOM     31  C   UNL A   1      37.516  29.175  29.647  1.00  0.00     0.010 A 
ATOM     32  C   UNL A   1      38.152  29.741  27.380  1.00  0.00     0.010 A 
ATOM     33  C   UNL A   1      38.501  29.265  28.650  1.00  0.00    -0.014 A 
BRANCH  33  34
ATOM     34  C   UNL A   1      39.913  28.905  28.922  1.00  0.00     0.031 A 
ATOM     35  C   UNL A   1      40.833  29.921  29.543  1.00  0.00     0.074 A 
ATOM     36  C   UNL A   1      40.372  27.691  28.564  1.00  0.00     0.049 A 
ATOM     37  N   UNL A   1      42.110  29.825  29.805  1.00  0.00    -0.248 NA
ATOM     38  C   UNL A   1      40.249  31.229  29.887  1.00  0.00     0.031 C 
ATOM     39  C   UNL A   1      39.580  26.644  27.913  1.00  0.00     0.029 A 
ATOM     40  N   UNL A   1      41.617  27.129  28.695  1.00  0.00    -0.354 N 
ATOM     41  C   UNL A   1      42.479  31.055  30.335  1.00  0.00     0.074 A 
ATOM     42  C   UNL A   1      41.313  31.906  30.291  1.00  0.00     0.031 C 
ATOM     43  C   UNL A   1      40.346  25.555  27.740  1.00  0.00     0.029 A 
ATOM     44  C   UNL A   1      41.692  25.838  28.228  1.00  0.00     0.049 A 
ATOM     45  H   UNL A   1      42.384  27.606  29.086  1.00  0.00     0.167 HD
ATOM     46  C   UNL A   1      43.673  31.428  30.851  1.00  0.00     0.037 A 
ATOM     47  C   UNL A   1      42.730  24.979  28.202  1.00  0.00     0.037 A 
ATOM     48  C   UNL A   1      44.817  30.561  30.921  1.00  0.00     0.049 A 
ATOM     49  C   UNL A   1      44.054  25.424  28.763  1.00  0.00     0.074 A 
ATOM     50  C   UNL A   1      46.062  30.822  31.466  1.00  0.00     0.029 A 
ATOM     51  N   UNL A   1      44.857  29.262  30.434  1.00  0.00    -0.354 N 
ATOM     52  N   UNL A   1      44.371  26.573  29.310  1.00  0.00    -0.248 NA
ATOM     53  C   UNL A   1      45.159  24.458  28.704  1.00  0.00     0.031 C 
ATOM     54  C   UNL A   1      46.866  29.697  31.270  1.00  0.00     0.029 A 
ATOM     55  C   UNL A   1      46.110  28.716  30.646  1.00  0.00     0.049 A 
ATOM     56  H   UNL A   1      44.103  28.798  30.002  1.00  0.00     0.167 HD
ATOM     57  C   UNL A   1      45.707  26.463  29.678  1.00  0.00     0.074 A 
ATOM     58  C   UNL A   1      46.133  25.130  29.305  1.00  0.00     0.031 C 
ATOM     59  C   UNL A   1      46.510  27.382  30.269  1.00  0.00     0.037 A 
BRANCH  46  60
ATOM     60  C   UNL A   1      43.793  32.822  31.402  1.00  0.00     0.058 A 
ATOM     61  C   UNL A   1      44.148  33.905  30.582  1.00  0.00     0.135 A 
ATOM     62  C   UNL A   1      43.508  33.089  32.750  1.00  0.00     0.135 A 
ATOM     63  F   UNL A   1      44.451  33.705  29.289  1.00  0.00    -0.206 F 
ATOM     64  C   UNL A   1      44.240  35.199  31.083  1.00  0.00     0.059 A 
ATOM     65  C   UNL A   1      43.565  34.380  33.267  1.00  0.00     0.059 A 
ATOM     66  F   UNL A   1      43.168  32.090  33.580  1.00  0.00    -0.206 F 
ATOM     67  C   UNL A   1      43.943  35.427  32.427  1.00  0.00     0.060 A 
BRANCH  67  68
ATOM     68  S   UNL A   1      44.050  37.116  33.053  1.00  0.00     0.124 S 
ATOM     69  O   UNL A   1      43.880  37.892  31.828  1.00  0.00    -0.237 OA
ATOM     70  O   UNL A   1      42.939  37.169  33.995  1.00  0.00    -0.237 OA
ATOM     71  O   UNL A   1      45.381  37.175  33.651  1.00  0.00    -0.744 OA
ENDBRANCH  67  68
ENDBRANCH  46  60
BRANCH  47  72
ATOM     72  C   UNL A   1      42.543  23.606  27.662  1.00  0.00     0.058 A 
ATOM     73  C   UNL A   1      42.611  23.362  26.283  1.00  0.00     0.135 A 
ATOM     74  C   UNL A   1      42.327  22.508  28.510  1.00  0.00     0.135 A 
ATOM     75  F   UNL A   1      42.809  24.380  25.431  1.00  0.00    -0.206 F 
ATOM     76  C   UNL A   1      42.463  22.082  25.760  1.00  0.00     0.059 A 
ATOM     77  C   UNL A   1      42.201  21.214  28.013  1.00  0.00     0.059 A 
ATOM     78  F   UNL A   1      42.271  22.684  29.839  1.00  0.00    -0.206 F 
ATOM     79  C   UNL A   1      42.265  21.011  26.635  1.00  0.00     0.060 A 
BRANCH  79  80
ATOM     80  S   UNL A   1      42.136  19.347  25.946  1.00  0.00     0.124 S 
ATOM     81  O   UNL A   1      42.995  19.446  24.772  1.00  0.00    -0.237 OA
ATOM     82  O   UNL A   1      42.642  18.526  27.041  1.00  0.00    -0.237 OA
ATOM     83  O   UNL A   1      40.709  19.205  25.674  1.00  0.00    -0.744 OA
ENDBRANCH  79  80
ENDBRANCH  47  72
BRANCH  59  84
ATOM     84  C   UNL A   1      47.929  26.985  30.562  1.00  0.00     0.058 A 
ATOM     85  C   UNL A   1      48.967  27.268  29.662  1.00  0.00     0.135 A 
ATOM     86  C   UNL A   1      48.265  26.401  31.795  1.00  0.00     0.135 A 
ATOM     87  F   UNL A   1      48.696  27.819  28.468  1.00  0.00    -0.206 F 
ATOM     88  C   UNL A   1      50.291  26.981  29.972  1.00  0.00     0.059 A 
ATOM     89  C   UNL A   1      49.585  26.131  32.135  1.00  0.00     0.059 A 
ATOM     90  F   UNL A   1      47.308  26.120  32.693  1.00  0.00    -0.206 F 
ATOM     91  C   UNL A   1      50.592  26.421  31.215  1.00  0.00     0.060 A 
BRANCH  91  92
ATOM     92  S   UNL A   1      52.322  26.113  31.624  1.00  0.00     0.124 S 
ATOM     93  O   UNL A   1      52.968  26.284  30.327  1.00  0.00    -0.237 OA
ATOM     94  O   UNL A   1      52.597  27.154  32.611  1.00  0.00    -0.237 OA
ATOM     95  O   UNL A   1      52.313  24.750  32.146  1.00  0.00    -0.744 OA
ENDBRANCH  91  92
ENDBRANCH  59  84
ENDBRANCH  33  34
ENDBRANCH  25  28
ENDBRANCH   1  24
TORSDOF 14
ENDMDL
MODEL 2
REMARK VINA RESULT:     -11.9      4.985     10.414
REMARK SMILES Cc1cc(Cl)cc2c1O[C@H](C(F)(F)F)C(C(=O)NCCCNC(=O)c1ccc(-c3c4nc(c(-c5c(F)cc(S(=O)(=O)[O-])cc5F)c5ccc([nH]5)c(-c5c(F)cc(S(=O)(=O)[O-])cc5F)c5nc(c(-c6c(F)cc(S(=O)(=O)[O-])cc6F)c6ccc3[nH]6)C=C5)C=C4)cc1)=C2
REMARK SMILES IDX 21 1 20 2 19 3 18 4 16 5 17 6 15 8 1 9 2 10 3 11 8 12 4 13
REMARK SMILES IDX 7 14 9 15 5 16 6 17 91 18 10 19 11 20 12 21 13 22 14 23
REMARK SMILES IDX 22 24 23 25 24 27 25 28 26 29 90 30 27 31 89 32 28 33 29 34
REMARK SMILES IDX 30 35 83 36 31 37 88 38 82 39 84 40 32 41 87 42 81 43 80 44
REMARK SMILES IDX 33 46 67 47 46 48 66 49 47 50 50 51 65 52 85 53 48 54 49 55
REMARK SMILES IDX 64 57 86 58 51 59 34 60 35 61 44 62 36 63 37 64 43 65 45 66
REMARK SMILES IDX 38 67 39 68 40 69 41 70 42 71 68 72 69 73 78 74 70 75 71 76
REMARK SMILES IDX 77 77 79 78 72 79 73 80 74 81 75 82 76 83 52 84 53 85 62 86
REMARK SMILES IDX 54 87 55 88 61 89 63 90 56 91 57 92 58 93 59 94 60 95
REMARK H PARENT 18 7 22 26 84 45 50 56
REMARK Flexibility Score: inf
ROOT
ATOM      1  C   UNL A   1      40.384  23.336  27.178  1.00  0.00     0.118 C 
ENDROOT
BRANCH   1   2
ATOM      2  C   UNL A   1      39.222  22.610  26.514  1.00  0.00     0.042 C 
BRANCH   2   3
ATOM      3  C   UNL A   1      38.113  23.565  26.099  1.00  0.00     0.118 C 
BRANCH   3   4
ATOM      4  N   UNL A   1      37.672  23.331  24.732  1.00  0.00    -0.352 N 
ATOM      5  C   UNL A   1      36.499  23.298  24.061  1.00  0.00     0.251 C 
ATOM      6  O   UNL A   1      36.588  23.069  22.850  1.00  0.00    -0.270 OA
ATOM      7  H   UNL A   1      38.433  23.149  24.135  1.00  0.00     0.163 HD
BRANCH   5   8
ATOM      8  C   UNL A   1      35.156  23.519  24.672  1.00  0.00     0.067 C 
ATOM      9  C   UNL A   1      30.301  23.183  26.373  1.00  0.00     0.048 C 
ATOM     10  C   UNL A   1      31.316  24.278  26.204  1.00  0.00    -0.007 A 
ATOM     11  C   UNL A   1      30.997  25.579  26.616  1.00  0.00     0.027 A 
ATOM     12  C   UNL A   1      32.576  24.047  25.636  1.00  0.00     0.131 A 
ATOM     13  C   UNL A   1      31.920  26.614  26.460  1.00  0.00     0.042 A 
ATOM     14  C   UNL A   1      33.504  25.084  25.478  1.00  0.00     0.019 A 
ATOM     15  O   UNL A   1      32.843  22.780  25.198  1.00  0.00    -0.475 OA
ATOM     16  Cl  UNL A   1      31.506  28.205  26.971  1.00  0.00    -0.084 Cl
ATOM     17  C   UNL A   1      33.171  26.374  25.893  1.00  0.00     0.032 A 
ATOM     18  C   UNL A   1      34.793  24.802  24.856  1.00  0.00     0.025 C 
ATOM     19  C   UNL A   1      34.242  22.412  25.104  1.00  0.00     0.314 C 
BRANCH  19  20
ATOM     20  C   UNL A   1      34.688  21.757  26.426  1.00  0.00     0.429 C 
ATOM     21  F   UNL A   1      35.841  21.064  26.248  1.00  0.00    -0.167 F 
ATOM     22  F   UNL A   1      34.933  22.663  27.403  1.00  0.00    -0.167 F 
ATOM     23  F   UNL A   1      33.770  20.895  26.918  1.00  0.00    -0.167 F 
ENDBRANCH  19  20
ENDBRANCH   5   8
ENDBRANCH   3   4
ENDBRANCH   2   3
ENDBRANCH   1   2
BRANCH   1  24
ATOM     24  N   UNL A   1      41.211  24.038  26.198  1.00  0.00    -0.352 N 
ATOM     25  C   UNL A   1      41.484  25.376  26.070  1.00  0.00     0.251 C 
ATOM     26  H   UNL A   1      41.638  23.461  25.526  1.00  0.00     0.163 HD
ATOM     27  O   UNL A   1      41.954  25.801  25.016  1.00  0.00    -0.269 OA
BRANCH  25  28
ATOM     28  C   UNL A   1      41.214  26.295  27.192  1.00  0.00     0.039 A 
ATOM     29  C   UNL A   1      40.216  25.979  28.116  1.00  0.00     0.014 A 
ATOM     30  C   UNL A   1      41.935  27.485  27.312  1.00  0.00     0.014 A 
ATOM     31  C   UNL A   1      39.987  26.832  29.196  1.00  0.00     0.010 A 
ATOM     32  C   UNL A   1      41.779  28.276  28.441  1.00  0.00     0.010 A 
ATOM     33  C   UNL A   1      40.789  27.970  29.384  1.00  0.00    -0.014 A 
BRANCH  33  34
ATOM     34  C   UNL A   1      40.587  28.879  30.537  1.00  0.00     0.031 A 
ATOM     35  C   UNL A   1      41.441  28.724  31.766  1.00  0.00     0.074 A 
ATOM     36  C   UNL A   1      39.605  29.800  30.495  1.00  0.00     0.049 A 
ATOM     37  N   UNL A   1      41.383  29.374  32.898  1.00  0.00    -0.248 NA
ATOM     38  C   UNL A   1      42.479  27.678  31.730  1.00  0.00     0.031 C 
ATOM     39  C   UNL A   1      38.686  30.007  29.373  1.00  0.00     0.029 A 
ATOM     40  N   UNL A   1      39.214  30.736  31.418  1.00  0.00    -0.354 N 
ATOM     41  C   UNL A   1      42.366  28.815  33.704  1.00  0.00     0.074 A 
ATOM     42  C   UNL A   1      42.957  27.725  32.964  1.00  0.00     0.031 C 
ATOM     43  C   UNL A   1      37.867  31.033  29.657  1.00  0.00     0.029 A 
ATOM     44  C   UNL A   1      38.174  31.529  30.995  1.00  0.00     0.049 A 
ATOM     45  H   UNL A   1      39.639  30.830  32.301  1.00  0.00     0.167 HD
ATOM     46  C   UNL A   1      42.768  29.203  34.937  1.00  0.00     0.037 A 
ATOM     47  C   UNL A   1      37.542  32.544  31.617  1.00  0.00     0.037 A 
ATOM     48  C   UNL A   1      42.195  30.311  35.651  1.00  0.00     0.049 A 
ATOM     49  C   UNL A   1      37.993  32.943  32.996  1.00  0.00     0.074 A 
ATOM     50  C   UNL A   1      42.558  30.818  36.886  1.00  0.00     0.029 A 
ATOM     51  N   UNL A   1      41.140  31.087  35.192  1.00  0.00    -0.354 N 
ATOM     52  N   UNL A   1      38.961  32.438  33.723  1.00  0.00    -0.248 NA
ATOM     53  C   UNL A   1      37.270  34.048  33.638  1.00  0.00     0.031 C 
ATOM     54  C   UNL A   1      41.695  31.874  37.192  1.00  0.00     0.029 A 
ATOM     55  C   UNL A   1      40.825  32.056  36.128  1.00  0.00     0.049 A 
ATOM     56  H   UNL A   1      40.684  30.966  34.328  1.00  0.00     0.167 HD
ATOM     57  C   UNL A   1      38.976  33.176  34.902  1.00  0.00     0.074 A 
ATOM     58  C   UNL A   1      37.931  34.171  34.782  1.00  0.00     0.031 C 
ATOM     59  C   UNL A   1      39.780  33.040  35.985  1.00  0.00     0.037 A 
BRANCH  46  60
ATOM     60  C   UNL A   1      43.894  28.440  35.578  1.00  0.00     0.058 A 
ATOM     61  C   UNL A   1      45.236  28.788  35.351  1.00  0.00     0.135 A 
ATOM     62  C   UNL A   1      43.634  27.379  36.460  1.00  0.00     0.135 A 
ATOM     63  F   UNL A   1      45.543  29.780  34.501  1.00  0.00    -0.206 F 
ATOM     64  C   UNL A   1      46.280  28.097  35.957  1.00  0.00     0.059 A 
ATOM     65  C   UNL A   1      44.662  26.693  37.100  1.00  0.00     0.059 A 
ATOM     66  F   UNL A   1      42.370  27.001  36.709  1.00  0.00    -0.206 F 
ATOM     67  C   UNL A   1      45.983  27.054  36.833  1.00  0.00     0.060 A 
BRANCH  67  68
ATOM     68  S   UNL A   1      47.352  26.183  37.623  1.00  0.00     0.124 S 
ATOM     69  O   UNL A   1      46.917  24.794  37.512  1.00  0.00    -0.237 OA
ATOM     70  O   UNL A   1      48.484  26.561  36.785  1.00  0.00    -0.237 OA
ATOM     71  O   UNL A   1      47.367  26.727  38.978  1.00  0.00    -0.744 OA
ENDBRANCH  67  68
ENDBRANCH  46  60
BRANCH  47  72
ATOM     72  C   UNL A   1      36.448  33.272  30.922  1.00  0.00     0.058 A 
ATOM     73  C   UNL A   1      35.115  33.126  31.332  1.00  0.00     0.135 A 
ATOM     74  C   UNL A   1      36.712  34.152  29.859  1.00  0.00     0.135 A 
ATOM     75  F   UNL A   1      34.811  32.292  32.339  1.00  0.00    -0.206 F 
ATOM     76  C   UNL A   1      34.080  33.818  30.712  1.00  0.00     0.059 A 
ATOM     77  C   UNL A   1      35.696  34.874  29.239  1.00  0.00     0.059 A 
ATOM     78  F   UNL A   1      37.972  34.341  29.439  1.00  0.00    -0.206 F 
ATOM     79  C   UNL A   1      34.382  34.696  29.669  1.00  0.00     0.060 A 
BRANCH  79  80
ATOM     80  S   UNL A   1      33.036  35.633  28.913  1.00  0.00     0.124 S 
ATOM     81  O   UNL A   1      33.768  36.653  28.172  1.00  0.00    -0.237 OA
ATOM     82  O   UNL A   1      32.371  34.612  28.109  1.00  0.00    -0.237 OA
ATOM     83  O   UNL A   1      32.273  36.111  30.061  1.00  0.00    -0.744 OA
ENDBRANCH  79  80
ENDBRANCH  47  72
BRANCH  59  84
ATOM     84  C   UNL A   1      39.575  33.992  37.129  1.00  0.00     0.058 A 
ATOM     85  C   UNL A   1      38.817  33.631  38.253  1.00  0.00     0.135 A 
ATOM     86  C   UNL A   1      40.221  35.239  37.143  1.00  0.00     0.135 A 
ATOM     87  F   UNL A   1      38.174  32.453  38.285  1.00  0.00    -0.206 F 
ATOM     88  C   UNL A   1      38.701  34.476  39.350  1.00  0.00     0.059 A 
ATOM     89  C   UNL A   1      40.141  36.088  38.241  1.00  0.00     0.059 A 
ATOM     90  F   UNL A   1      40.966  35.626  36.096  1.00  0.00    -0.206 F 
ATOM     91  C   UNL A   1      39.375  35.699  39.339  1.00  0.00     0.060 A 
BRANCH  91  92
ATOM     92  S   UNL A   1      39.264  36.756  40.798  1.00  0.00     0.124 S 
ATOM     93  O   UNL A   1      38.465  35.931  41.700  1.00  0.00    -0.237 OA
ATOM     94  O   UNL A   1      40.667  36.922  41.166  1.00  0.00    -0.237 OA
ATOM     95  O   UNL A   1      38.606  37.958  40.299  1.00  0.00    -0.744 OA
ENDBRANCH  91  92
ENDBRANCH  59  84
ENDBRANCH  33  34
ENDBRANCH  25  28
ENDBRANCH   1  24
TORSDOF 14
ENDMDL
MODEL 3
REMARK VINA RESULT:     -11.8      5.001     10.393
REMARK SMILES Cc1cc(Cl)cc2c1O[C@H](C(F)(F)F)C(C(=O)NCCCNC(=O)c1ccc(-c3c4nc(c(-c5c(F)cc(S(=O)(=O)[O-])cc5F)c5ccc([nH]5)c(-c5c(F)cc(S(=O)(=O)[O-])cc5F)c5nc(c(-c6c(F)cc(S(=O)(=O)[O-])cc6F)c6ccc3[nH]6)C=C5)C=C4)cc1)=C2
REMARK SMILES IDX 21 1 20 2 19 3 18 4 16 5 17 6 15 8 1 9 2 10 3 11 8 12 4 13
REMARK SMILES IDX 7 14 9 15 5 16 6 17 91 18 10 19 11 20 12 21 13 22 14 23
REMARK SMILES IDX 22 24 23 25 24 27 25 28 26 29 90 30 27 31 89 32 28 33 29 34
REMARK SMILES IDX 30 35 83 36 31 37 88 38 82 39 84 40 32 41 87 42 81 43 80 44
REMARK SMILES IDX 33 46 67 47 46 48 66 49 47 50 50 51 65 52 85 53 48 54 49 55
REMARK SMILES IDX 64 57 86 58 51 59 34 60 35 61 44 62 36 63 37 64 43 65 45 66
REMARK SMILES IDX 38 67 39 68 40 69 41 70 42 71 68 72 69 73 78 74 70 75 71 76
REMARK SMILES IDX 77 77 79 78 72 79 73 80 74 81 75 82 76 83 52 84 53 85 62 86
REMARK SMILES IDX 54 87 55 88 61 89 63 90 56 91 57 92 58 93 59 94 60 95
REMARK H PARENT 18 7 22 26 84 45 50 56
REMARK Flexibility Score: inf
ROOT
ATOM      1  C   UNL A   1      39.554  23.520  26.920  1.00  0.00     0.118 C 
ENDROOT
BRANCH   1   2
ATOM      2  C   UNL A   1      38.223  23.676  26.196  1.00  0.00     0.042 C 
BRANCH   2   3
ATOM      3  C   UNL A   1      37.766  22.374  25.556  1.00  0.00     0.118 C 
BRANCH   3   4
ATOM      4  N   UNL A   1      36.515  21.895  26.126  1.00  0.00    -0.352 N 
ATOM      5  C   UNL A   1      35.194  22.120  25.948  1.00  0.00     0.251 C 
ATOM      6  O   UNL A   1      34.442  21.454  26.666  1.00  0.00    -0.270 OA
ATOM      7  H   UNL A   1      36.674  21.225  26.830  1.00  0.00     0.163 HD
BRANCH   5   8
ATOM      8  C   UNL A   1      34.614  23.085  24.969  1.00  0.00     0.067 C 
ATOM      9  C   UNL A   1      32.903  25.576  20.792  1.00  0.00     0.048 C 
ATOM     10  C   UNL A   1      33.184  25.930  22.225  1.00  0.00    -0.007 A 
ATOM     11  C   UNL A   1      32.913  27.229  22.676  1.00  0.00     0.027 A 
ATOM     12  C   UNL A   1      33.719  25.005  23.131  1.00  0.00     0.131 A 
ATOM     13  C   UNL A   1      33.174  27.584  24.000  1.00  0.00     0.042 A 
ATOM     14  C   UNL A   1      33.983  25.359  24.460  1.00  0.00     0.019 A 
ATOM     15  O   UNL A   1      34.020  23.762  22.652  1.00  0.00    -0.475 OA
ATOM     16  Cl  UNL A   1      32.836  29.185  24.533  1.00  0.00    -0.084 Cl
ATOM     17  C   UNL A   1      33.708  26.657  24.894  1.00  0.00     0.032 A 
ATOM     18  C   UNL A   1      34.568  24.371  25.361  1.00  0.00     0.025 C 
ATOM     19  C   UNL A   1      34.070  22.691  23.628  1.00  0.00     0.314 C 
BRANCH  19  20
ATOM     20  C   UNL A   1      32.685  22.021  23.724  1.00  0.00     0.429 C 
ATOM     21  F   UNL A   1      32.023  22.125  22.545  1.00  0.00    -0.167 F 
ATOM     22  F   UNL A   1      32.762  20.698  24.005  1.00  0.00    -0.167 F 
ATOM     23  F   UNL A   1      31.902  22.575  24.678  1.00  0.00    -0.167 F 
ENDBRANCH  19  20
ENDBRANCH   5   8
ENDBRANCH   3   4
ENDBRANCH   2   3
ENDBRANCH   1   2
BRANCH   1  24
ATOM     24  N   UNL A   1      40.664  24.045  26.127  1.00  0.00    -0.352 N 
ATOM     25  C   UNL A   1      41.233  25.293  26.120  1.00  0.00     0.251 C 
ATOM     26  H   UNL A   1      41.065  23.404  25.498  1.00  0.00     0.163 HD
ATOM     27  O   UNL A   1      41.952  25.628  25.181  1.00  0.00    -0.269 OA
BRANCH  25  28
ATOM     28  C   UNL A   1      40.981  26.224  27.236  1.00  0.00     0.039 A 
ATOM     29  C   UNL A   1      40.072  25.871  28.236  1.00  0.00     0.014 A 
ATOM     30  C   UNL A   1      41.627  27.462  27.277  1.00  0.00     0.014 A 
ATOM     31  C   UNL A   1      39.863  26.737  29.310  1.00  0.00     0.010 A 
ATOM     32  C   UNL A   1      41.497  28.273  28.395  1.00  0.00     0.010 A 
ATOM     33  C   UNL A   1      40.598  27.930  29.413  1.00  0.00    -0.014 A 
BRANCH  33  34
ATOM     34  C   UNL A   1      40.416  28.856  30.556  1.00  0.00     0.031 A 
ATOM     35  C   UNL A   1      41.275  28.704  31.781  1.00  0.00     0.074 A 
ATOM     36  C   UNL A   1      39.448  29.791  30.507  1.00  0.00     0.049 A 
ATOM     37  N   UNL A   1      41.233  29.369  32.905  1.00  0.00    -0.248 NA
ATOM     38  C   UNL A   1      42.297  27.643  31.753  1.00  0.00     0.031 C 
ATOM     39  C   UNL A   1      38.525  29.998  29.388  1.00  0.00     0.029 A 
ATOM     40  N   UNL A   1      39.076  30.744  31.421  1.00  0.00    -0.354 N 
ATOM     41  C   UNL A   1      42.212  28.806  33.713  1.00  0.00     0.074 A 
ATOM     42  C   UNL A   1      42.783  27.698  32.984  1.00  0.00     0.031 C 
ATOM     43  C   UNL A   1      37.723  31.039  29.664  1.00  0.00     0.029 A 
ATOM     44  C   UNL A   1      38.045  31.547  30.994  1.00  0.00     0.049 A 
ATOM     45  H   UNL A   1      39.507  30.844  32.300  1.00  0.00     0.167 HD
ATOM     46  C   UNL A   1      42.627  29.203  34.939  1.00  0.00     0.037 A 
ATOM     47  C   UNL A   1      37.432  32.579  31.606  1.00  0.00     0.037 A 
ATOM     48  C   UNL A   1      42.074  30.329  35.641  1.00  0.00     0.049 A 
ATOM     49  C   UNL A   1      37.897  32.989  32.977  1.00  0.00     0.074 A 
ATOM     50  C   UNL A   1      42.452  30.846  36.868  1.00  0.00     0.029 A 
ATOM     51  N   UNL A   1      41.029  31.114  35.179  1.00  0.00    -0.354 N 
ATOM     52  N   UNL A   1      38.862  32.479  33.705  1.00  0.00    -0.248 NA
ATOM     53  C   UNL A   1      37.194  34.113  33.609  1.00  0.00     0.031 C 
ATOM     54  C   UNL A   1      41.607  31.918  37.165  1.00  0.00     0.029 A 
ATOM     55  C   UNL A   1      40.733  32.100  36.104  1.00  0.00     0.049 A 
ATOM     56  H   UNL A   1      40.566  30.989  34.319  1.00  0.00     0.167 HD
ATOM     57  C   UNL A   1      38.895  33.231  34.874  1.00  0.00     0.074 A 
ATOM     58  C   UNL A   1      37.863  34.241  34.748  1.00  0.00     0.031 C 
ATOM     59  C   UNL A   1      39.703  33.097  35.954  1.00  0.00     0.037 A 
BRANCH  46  60
ATOM     60  C   UNL A   1      43.746  28.432  35.583  1.00  0.00     0.058 A 
ATOM     61  C   UNL A   1      45.091  28.755  35.342  1.00  0.00     0.135 A 
ATOM     62  C   UNL A   1      43.475  27.388  36.481  1.00  0.00     0.135 A 
ATOM     63  F   UNL A   1      45.408  29.731  34.476  1.00  0.00    -0.206 F 
ATOM     64  C   UNL A   1      46.128  28.057  35.951  1.00  0.00     0.059 A 
ATOM     65  C   UNL A   1      44.497  26.694  37.124  1.00  0.00     0.059 A 
ATOM     66  F   UNL A   1      42.207  27.033  36.744  1.00  0.00    -0.206 F 
ATOM     67  C   UNL A   1      45.821  27.030  36.844  1.00  0.00     0.060 A 
BRANCH  67  68
ATOM     68  S   UNL A   1      47.182  26.149  37.637  1.00  0.00     0.124 S 
ATOM     69  O   UNL A   1      46.486  25.442  38.708  1.00  0.00    -0.237 OA
ATOM     70  O   UNL A   1      47.686  25.316  36.551  1.00  0.00    -0.237 OA
ATOM     71  O   UNL A   1      48.075  27.220  38.071  1.00  0.00    -0.744 OA
ENDBRANCH  67  68
ENDBRANCH  46  60
BRANCH  47  72
ATOM     72  C   UNL A   1      36.345  33.315  30.908  1.00  0.00     0.058 A 
ATOM     73  C   UNL A   1      35.010  33.175  31.313  1.00  0.00     0.135 A 
ATOM     74  C   UNL A   1      36.618  34.196  29.848  1.00  0.00     0.135 A 
ATOM     75  F   UNL A   1      34.697  32.341  32.316  1.00  0.00    -0.206 F 
ATOM     76  C   UNL A   1      33.981  33.875  30.689  1.00  0.00     0.059 A 
ATOM     77  C   UNL A   1      35.609  34.925  29.225  1.00  0.00     0.059 A 
ATOM     78  F   UNL A   1      37.881  34.379  29.434  1.00  0.00    -0.206 F 
ATOM     79  C   UNL A   1      34.292  34.753  29.649  1.00  0.00     0.060 A 
BRANCH  79  80
ATOM     80  S   UNL A   1      32.954  35.699  28.889  1.00  0.00     0.124 S 
ATOM     81  O   UNL A   1      32.361  34.707  28.001  1.00  0.00    -0.237 OA
ATOM     82  O   UNL A   1      32.154  36.078  30.050  1.00  0.00    -0.237 OA
ATOM     83  O   UNL A   1      33.652  36.799  28.232  1.00  0.00    -0.744 OA
ENDBRANCH  79  80
ENDBRANCH  47  72
BRANCH  59  84
ATOM     84  C   UNL A   1      39.518  34.066  37.088  1.00  0.00     0.058 A 
ATOM     85  C   UNL A   1      38.809  33.711  38.245  1.00  0.00     0.135 A 
ATOM     86  C   UNL A   1      40.138  35.327  37.055  1.00  0.00     0.135 A 
ATOM     87  F   UNL A   1      38.193  32.521  38.321  1.00  0.00    -0.206 F 
ATOM     88  C   UNL A   1      38.714  34.575  39.329  1.00  0.00     0.059 A 
ATOM     89  C   UNL A   1      40.079  36.195  38.140  1.00  0.00     0.059 A 
ATOM     90  F   UNL A   1      40.837  35.709  35.975  1.00  0.00    -0.206 F 
ATOM     91  C   UNL A   1      39.362  35.811  39.271  1.00  0.00     0.060 A 
BRANCH  91  92
ATOM     92  S   UNL A   1      39.280  36.893  40.713  1.00  0.00     0.124 S 
ATOM     93  O   UNL A   1      38.522  36.075  41.655  1.00  0.00    -0.237 OA
ATOM     94  O   UNL A   1      40.691  37.086  41.035  1.00  0.00    -0.237 OA
ATOM     95  O   UNL A   1      38.589  38.077  40.214  1.00  0.00    -0.744 OA
ENDBRANCH  91  92
ENDBRANCH  59  84
ENDBRANCH  33  34
ENDBRANCH  25  28
ENDBRANCH   1  24
TORSDOF 14
ENDMDL
