MODEL 1
REMARK VINA RESULT:     -13.3      0.000      0.000
REMARK SMILES O=C(NCCCNC(=O)c1ccc(-n2cc(CSc3nc4ccccc4c(=O)n3-c3ccc(Br)cc3)nn2)cc1)c1ccc(-c2c3nc(c(-c4c(F)cc(S(=O)(=O)[O-])cc4F)c4ccc([nH]4)c(-c4c(F)cc(S(=O)(=O)[O-])cc4F)c4nc(c(-c5c(F)cc(S(=O)(=O)[O-])cc5F)c5ccc2[nH]5)C=C4)C=C3)cc1
REMARK SMILES IDX 6 1 5 2 4 3 3 4 1 5 2 6 41 8 42 9 106 10 43 11 105 12 44 13
REMARK SMILES IDX 45 14 46 15 99 16 47 17 104 18 98 19 100 20 48 21 103 22
REMARK SMILES IDX 97 23 96 24 49 26 83 27 62 28 82 29 63 30 66 31 81 32 101 33
REMARK SMILES IDX 64 34 65 35 80 37 102 38 67 39 50 40 51 41 60 42 52 43 53 44
REMARK SMILES IDX 59 45 61 46 54 47 55 48 56 49 57 50 58 51 84 52 85 53 94 54
REMARK SMILES IDX 86 55 87 56 93 57 95 58 88 59 89 60 90 61 91 62 92 63 68 64
REMARK SMILES IDX 69 65 78 66 70 67 71 68 77 69 79 70 72 71 73 72 74 73 75 74
REMARK SMILES IDX 76 75 7 76 8 77 9 79 10 80 11 81 40 82 12 83 39 84 13 85
REMARK SMILES IDX 14 86 15 87 38 88 16 89 37 90 17 91 18 92 19 93 20 94 29 95
REMARK SMILES IDX 21 96 27 97 22 98 26 99 28 100 23 101 25 102 24 103 30 104
REMARK SMILES IDX 31 105 36 106 32 107 35 108 33 109 34 110
REMARK H PARENT 3 7 100 25 66 36 7 78
REMARK Flexibility Score: inf
ROOT
ATOM      1  C   UNL A   1      31.582  30.599  26.352  1.00  0.00     0.118 C 
ENDROOT
BRANCH   1   2
ATOM      2  C   UNL A   1      32.748  31.577  26.505  1.00  0.00     0.042 C 
BRANCH   2   3
ATOM      3  C   UNL A   1      33.885  31.111  27.410  1.00  0.00     0.118 C 
BRANCH   3   4
ATOM      4  N   UNL A   1      33.893  31.672  28.746  1.00  0.00    -0.352 N 
ATOM      5  O   UNL A   1      34.488  32.683  30.607  1.00  0.00    -0.269 OA
ATOM      6  C   UNL A   1      34.854  31.952  29.680  1.00  0.00     0.251 C 
ATOM      7  H   UNL A   1      32.990  31.909  29.057  1.00  0.00     0.163 HD
BRANCH   6   8
ATOM      8  C   UNL A   1      36.235  31.394  29.715  1.00  0.00     0.039 A 
ATOM      9  C   UNL A   1      37.424  32.119  29.794  1.00  0.00     0.014 A 
ATOM     10  C   UNL A   1      36.317  29.988  29.627  1.00  0.00     0.014 A 
ATOM     11  C   UNL A   1      38.656  31.458  29.706  1.00  0.00     0.010 A 
ATOM     12  C   UNL A   1      37.540  29.328  29.534  1.00  0.00     0.010 A 
ATOM     13  C   UNL A   1      38.716  30.066  29.543  1.00  0.00    -0.014 A 
BRANCH  13  14
ATOM     14  C   UNL A   1      40.018  29.390  29.607  1.00  0.00     0.031 A 
ATOM     15  C   UNL A   1      40.490  29.158  31.002  1.00  0.00     0.074 A 
ATOM     16  C   UNL A   1      40.696  28.869  28.559  1.00  0.00     0.049 A 
ATOM     17  N   UNL A   1      41.466  29.746  31.609  1.00  0.00    -0.248 NA
ATOM     18  C   UNL A   1      39.694  28.280  31.875  1.00  0.00     0.031 C 
ATOM     19  C   UNL A   1      40.251  28.736  27.171  1.00  0.00     0.029 A 
ATOM     20  N   UNL A   1      41.926  28.266  28.535  1.00  0.00    -0.354 N 
ATOM     21  C   UNL A   1      41.556  29.150  32.866  1.00  0.00     0.074 A 
ATOM     22  C   UNL A   1      40.341  28.397  33.036  1.00  0.00     0.031 C 
ATOM     23  C   UNL A   1      41.096  27.915  26.500  1.00  0.00     0.029 A 
ATOM     24  C   UNL A   1      42.215  27.568  27.362  1.00  0.00     0.049 A 
ATOM     25  H   UNL A   1      42.557  28.320  29.290  1.00  0.00     0.167 HD
ATOM     26  C   UNL A   1      42.727  29.141  33.563  1.00  0.00     0.037 A 
ATOM     27  C   UNL A   1      43.279  26.749  27.124  1.00  0.00     0.037 A 
ATOM     28  C   UNL A   1      43.665  30.084  33.010  1.00  0.00     0.049 A 
ATOM     29  C   UNL A   1      44.336  27.109  28.103  1.00  0.00     0.074 A 
ATOM     30  C   UNL A   1      43.676  31.449  32.808  1.00  0.00     0.029 A 
ATOM     31  N   UNL A   1      44.670  29.579  32.224  1.00  0.00    -0.354 N 
ATOM     32  N   UNL A   1      44.980  28.242  28.093  1.00  0.00    -0.248 NA
ATOM     33  C   UNL A   1      44.364  26.383  29.363  1.00  0.00     0.031 C 
ATOM     34  C   UNL A   1      44.348  31.631  31.564  1.00  0.00     0.029 A 
ATOM     35  C   UNL A   1      44.772  30.378  31.118  1.00  0.00     0.049 A 
ATOM     36  H   UNL A   1      45.219  28.785  32.420  1.00  0.00     0.167 HD
ATOM     37  C   UNL A   1      45.096  28.587  29.430  1.00  0.00     0.074 A 
ATOM     38  C   UNL A   1      44.780  27.365  30.167  1.00  0.00     0.031 C 
ATOM     39  C   UNL A   1      45.161  29.895  29.813  1.00  0.00     0.037 A 
BRANCH  26  40
ATOM     40  C   UNL A   1      43.176  28.035  34.491  1.00  0.00     0.058 A 
ATOM     41  C   UNL A   1      43.522  28.354  35.823  1.00  0.00     0.135 A 
ATOM     42  C   UNL A   1      43.563  26.748  34.057  1.00  0.00     0.135 A 
ATOM     43  F   UNL A   1      43.213  29.554  36.342  1.00  0.00    -0.206 F 
ATOM     44  C   UNL A   1      44.263  27.494  36.633  1.00  0.00     0.059 A 
ATOM     45  C   UNL A   1      44.256  25.854  34.867  1.00  0.00     0.059 A 
ATOM     46  F   UNL A   1      43.375  26.331  32.800  1.00  0.00    -0.206 F 
ATOM     47  C   UNL A   1      44.636  26.248  36.139  1.00  0.00     0.060 A 
BRANCH  47  48
ATOM     48  S   UNL A   1      45.656  25.167  37.156  1.00  0.00     0.124 S 
ATOM     49  O   UNL A   1      46.923  25.200  36.438  1.00  0.00    -0.237 OA
ATOM     50  O   UNL A   1      45.630  25.854  38.443  1.00  0.00    -0.237 OA
ATOM     51  O   UNL A   1      44.937  23.896  37.116  1.00  0.00    -0.744 OA
ENDBRANCH  47  48
ENDBRANCH  26  40
BRANCH  27  52
ATOM     52  C   UNL A   1      43.356  25.480  26.339  1.00  0.00     0.058 A 
ATOM     53  C   UNL A   1      44.366  25.266  25.376  1.00  0.00     0.135 A 
ATOM     54  C   UNL A   1      42.641  24.335  26.737  1.00  0.00     0.135 A 
ATOM     55  F   UNL A   1      45.116  26.293  24.944  1.00  0.00    -0.206 F 
ATOM     56  C   UNL A   1      44.688  23.990  24.891  1.00  0.00     0.059 A 
ATOM     57  C   UNL A   1      42.939  23.055  26.263  1.00  0.00     0.059 A 
ATOM     58  F   UNL A   1      41.691  24.412  27.679  1.00  0.00    -0.206 F 
ATOM     59  C   UNL A   1      43.983  22.884  25.361  1.00  0.00     0.060 A 
BRANCH  59  60
ATOM     60  S   UNL A   1      44.514  21.217  24.892  1.00  0.00     0.124 S 
ATOM     61  O   UNL A   1      45.826  21.126  25.523  1.00  0.00    -0.237 OA
ATOM     62  O   UNL A   1      43.468  20.383  25.473  1.00  0.00    -0.237 OA
ATOM     63  O   UNL A   1      44.528  21.265  23.432  1.00  0.00    -0.744 OA
ENDBRANCH  59  60
ENDBRANCH  27  52
BRANCH  39  64
ATOM     64  C   UNL A   1      45.465  30.937  28.769  1.00  0.00     0.058 A 
ATOM     65  C   UNL A   1      44.517  31.532  27.918  1.00  0.00     0.135 A 
ATOM     66  C   UNL A   1      46.770  31.454  28.737  1.00  0.00     0.135 A 
ATOM     67  F   UNL A   1      43.227  31.170  27.955  1.00  0.00    -0.206 F 
ATOM     68  C   UNL A   1      44.865  32.566  27.045  1.00  0.00     0.059 A 
ATOM     69  C   UNL A   1      47.130  32.506  27.903  1.00  0.00     0.059 A 
ATOM     70  F   UNL A   1      47.708  30.965  29.566  1.00  0.00    -0.206 F 
ATOM     71  C   UNL A   1      46.174  33.049  27.048  1.00  0.00     0.060 A 
BRANCH  71  72
ATOM     72  S   UNL A   1      46.610  34.432  25.973  1.00  0.00     0.124 S 
ATOM     73  O   UNL A   1      47.988  34.114  25.608  1.00  0.00    -0.237 OA
ATOM     74  O   UNL A   1      45.629  34.316  24.895  1.00  0.00    -0.237 OA
ATOM     75  O   UNL A   1      46.445  35.599  26.831  1.00  0.00    -0.744 OA
ENDBRANCH  71  72
ENDBRANCH  39  64
ENDBRANCH  13  14
ENDBRANCH   6   8
ENDBRANCH   3   4
ENDBRANCH   2   3
ENDBRANCH   1   2
BRANCH   1  76
ATOM     76  N   UNL A   1      31.035  30.544  25.004  1.00  0.00    -0.352 N 
ATOM     77  C   UNL A   1      30.677  29.478  24.215  1.00  0.00     0.251 C 
ATOM     78  H   UNL A   1      30.899  31.425  24.585  1.00  0.00     0.163 HD
ATOM     79  O   UNL A   1      30.310  29.677  23.064  1.00  0.00    -0.269 OA
BRANCH  77  80
ATOM     80  C   UNL A   1      30.741  28.086  24.720  1.00  0.00     0.039 A 
ATOM     81  C   UNL A   1      31.745  27.770  25.643  1.00  0.00     0.016 A 
ATOM     82  C   UNL A   1      29.904  27.078  24.233  1.00  0.00     0.016 A 
ATOM     83  C   UNL A   1      31.881  26.463  26.118  1.00  0.00     0.029 A 
ATOM     84  C   UNL A   1      30.040  25.765  24.701  1.00  0.00     0.029 A 
ATOM     85  C   UNL A   1      31.040  25.452  25.636  1.00  0.00     0.066 A 
BRANCH  85  86
ATOM     86  N   UNL A   1      31.280  24.113  26.033  1.00  0.00    -0.220 N 
ATOM     87  C   UNL A   1      31.448  23.010  25.233  1.00  0.00     0.141 A 
ATOM     88  N   UNL A   1      31.482  23.751  27.325  1.00  0.00    -0.062 NA
ATOM     89  C   UNL A   1      31.911  22.020  26.072  1.00  0.00     0.093 A 
ATOM     90  N   UNL A   1      31.864  22.479  27.356  1.00  0.00    -0.134 NA
BRANCH  89  91
ATOM     91  C   UNL A   1      32.259  20.620  25.750  1.00  0.00     0.138 C 
BRANCH  91  92
ATOM     92  S   UNL A   1      33.487  20.225  24.493  1.00  0.00    -0.081 SA
BRANCH  92  93
ATOM     93  C   UNL A   1      34.991  21.085  24.722  1.00  0.00     0.176 A 
ATOM     94  N   UNL A   1      35.973  20.274  24.997  1.00  0.00    -0.223 NA
ATOM     95  N   UNL A   1      35.194  22.454  24.598  1.00  0.00    -0.255 N 
ATOM     96  C   UNL A   1      37.228  20.812  25.297  1.00  0.00     0.079 A 
ATOM     97  C   UNL A   1      36.161  22.976  25.470  1.00  0.00     0.266 A 
ATOM     98  C   UNL A   1      38.376  20.020  25.279  1.00  0.00     0.029 A 
ATOM     99  C   UNL A   1      37.335  22.128  25.719  1.00  0.00     0.066 A 
ATOM    100  O   UNL A   1      36.121  24.078  26.028  1.00  0.00    -0.268 OA
ATOM    101  C   UNL A   1      39.593  20.526  25.751  1.00  0.00     0.002 A 
ATOM    102  C   UNL A   1      38.527  22.633  26.249  1.00  0.00     0.016 A 
ATOM    103  C   UNL A   1      39.660  21.819  26.274  1.00  0.00     0.001 A 
BRANCH  95 104
ATOM    104  C   UNL A   1      34.537  23.365  23.678  1.00  0.00     0.051 A 
ATOM    105  C   UNL A   1      34.503  24.750  23.958  1.00  0.00     0.028 A 
ATOM    106  C   UNL A   1      33.954  22.990  22.464  1.00  0.00     0.028 A 
ATOM    107  C   UNL A   1      33.738  25.650  23.207  1.00  0.00     0.018 A 
ATOM    108  C   UNL A   1      33.122  23.862  21.744  1.00  0.00     0.018 A 
ATOM    109  C   UNL A   1      32.987  25.182  22.145  1.00  0.00     0.018 A 
ATOM    110  Br  UNL A   1      31.778  26.327  21.263  1.00  0.00    -0.051 Br
ENDBRANCH  95 104
ENDBRANCH  92  93
ENDBRANCH  91  92
ENDBRANCH  89  91
ENDBRANCH  85  86
ENDBRANCH  77  80
ENDBRANCH   1  76
TORSDOF 18
ENDMDL
MODEL 2
REMARK VINA RESULT:     -13.0      4.787      9.364
REMARK SMILES O=C(NCCCNC(=O)c1ccc(-n2cc(CSc3nc4ccccc4c(=O)n3-c3ccc(Br)cc3)nn2)cc1)c1ccc(-c2c3nc(c(-c4c(F)cc(S(=O)(=O)[O-])cc4F)c4ccc([nH]4)c(-c4c(F)cc(S(=O)(=O)[O-])cc4F)c4nc(c(-c5c(F)cc(S(=O)(=O)[O-])cc5F)c5ccc2[nH]5)C=C4)C=C3)cc1
REMARK SMILES IDX 6 1 5 2 4 3 3 4 1 5 2 6 41 8 42 9 106 10 43 11 105 12 44 13
REMARK SMILES IDX 45 14 46 15 99 16 47 17 104 18 98 19 100 20 48 21 103 22
REMARK SMILES IDX 97 23 96 24 49 26 83 27 62 28 82 29 63 30 66 31 81 32 101 33
REMARK SMILES IDX 64 34 65 35 80 37 102 38 67 39 50 40 51 41 60 42 52 43 53 44
REMARK SMILES IDX 59 45 61 46 54 47 55 48 56 49 57 50 58 51 84 52 85 53 94 54
REMARK SMILES IDX 86 55 87 56 93 57 95 58 88 59 89 60 90 61 91 62 92 63 68 64
REMARK SMILES IDX 69 65 78 66 70 67 71 68 77 69 79 70 72 71 73 72 74 73 75 74
REMARK SMILES IDX 76 75 7 76 8 77 9 79 10 80 11 81 40 82 12 83 39 84 13 85
REMARK SMILES IDX 14 86 15 87 38 88 16 89 37 90 17 91 18 92 19 93 20 94 29 95
REMARK SMILES IDX 21 96 27 97 22 98 26 99 28 100 23 101 25 102 24 103 30 104
REMARK SMILES IDX 31 105 36 106 32 107 35 108 33 109 34 110
REMARK H PARENT 3 7 100 25 66 36 7 78
REMARK Flexibility Score: inf
ROOT
ATOM      1  C   UNL A   1      34.324  34.500  31.297  1.00  0.00     0.118 C 
ENDROOT
BRANCH   1   2
ATOM      2  C   UNL A   1      33.606  34.895  30.006  1.00  0.00     0.042 C 
BRANCH   2   3
ATOM      3  C   UNL A   1      34.308  34.492  28.711  1.00  0.00     0.118 C 
BRANCH   3   4
ATOM      4  N   UNL A   1      33.824  33.275  28.089  1.00  0.00    -0.352 N 
ATOM      5  O   UNL A   1      33.419  31.167  27.612  1.00  0.00    -0.269 OA
ATOM      6  C   UNL A   1      34.256  31.978  28.020  1.00  0.00     0.251 C 
ATOM      7  H   UNL A   1      32.982  33.415  27.599  1.00  0.00     0.163 HD
BRANCH   6   8
ATOM      8  C   UNL A   1      35.638  31.496  28.304  1.00  0.00     0.039 A 
ATOM      9  C   UNL A   1      36.717  32.269  28.732  1.00  0.00     0.014 A 
ATOM     10  C   UNL A   1      35.851  30.119  28.079  1.00  0.00     0.014 A 
ATOM     11  C   UNL A   1      37.988  31.692  28.853  1.00  0.00     0.010 A 
ATOM     12  C   UNL A   1      37.114  29.544  28.193  1.00  0.00     0.010 A 
ATOM     13  C   UNL A   1      38.196  30.337  28.552  1.00  0.00    -0.014 A 
BRANCH  13  14
ATOM     14  C   UNL A   1      39.502  29.730  28.833  1.00  0.00     0.031 A 
ATOM     15  C   UNL A   1      39.744  29.507  30.287  1.00  0.00     0.074 A 
ATOM     16  C   UNL A   1      40.374  29.258  27.914  1.00  0.00     0.049 A 
ATOM     17  N   UNL A   1      40.571  30.139  31.052  1.00  0.00    -0.248 NA
ATOM     18  C   UNL A   1      38.861  28.578  31.011  1.00  0.00     0.031 C 
ATOM     19  C   UNL A   1      40.177  29.118  26.470  1.00  0.00     0.029 A 
ATOM     20  N   UNL A   1      41.621  28.720  28.096  1.00  0.00    -0.354 N 
ATOM     21  C   UNL A   1      40.479  29.533  32.304  1.00  0.00     0.074 A 
ATOM     22  C   UNL A   1      39.295  28.715  32.265  1.00  0.00     0.031 C 
ATOM     23  C   UNL A   1      41.167  28.351  25.949  1.00  0.00     0.029 A 
ATOM     24  C   UNL A   1      42.142  28.053  26.986  1.00  0.00     0.049 A 
ATOM     25  H   UNL A   1      42.113  28.799  28.946  1.00  0.00     0.167 HD
ATOM     26  C   UNL A   1      41.515  29.577  33.189  1.00  0.00     0.037 A 
ATOM     27  C   UNL A   1      43.273  27.294  26.930  1.00  0.00     0.037 A 
ATOM     28  C   UNL A   1      42.481  30.575  32.805  1.00  0.00     0.049 A 
ATOM     29  C   UNL A   1      44.128  27.698  28.074  1.00  0.00     0.074 A 
ATOM     30  C   UNL A   1      42.452  31.942  32.612  1.00  0.00     0.029 A 
ATOM     31  N   UNL A   1      43.630  30.133  32.199  1.00  0.00    -0.354 N 
ATOM     32  N   UNL A   1      44.703  28.863  28.177  1.00  0.00    -0.248 NA
ATOM     33  C   UNL A   1      43.983  26.960  29.319  1.00  0.00     0.031 C 
ATOM     34  C   UNL A   1      43.314  32.173  31.500  1.00  0.00     0.029 A 
ATOM     35  C   UNL A   1      43.873  30.950  31.128  1.00  0.00     0.049 A 
ATOM     36  H   UNL A   1      44.180  29.367  32.483  1.00  0.00     0.167 HD
ATOM     37  C   UNL A   1      44.574  29.198  29.515  1.00  0.00     0.074 A 
ATOM     38  C   UNL A   1      44.204  27.952  30.184  1.00  0.00     0.031 C 
ATOM     39  C   UNL A   1      44.503  30.503  29.907  1.00  0.00     0.037 A 
BRANCH  26  40
ATOM     40  C   UNL A   1      41.860  28.486  34.177  1.00  0.00     0.058 A 
ATOM     41  C   UNL A   1      41.801  28.768  35.560  1.00  0.00     0.135 A 
ATOM     42  C   UNL A   1      42.524  27.289  33.831  1.00  0.00     0.135 A 
ATOM     43  F   UNL A   1      41.202  29.884  36.007  1.00  0.00    -0.206 F 
ATOM     44  C   UNL A   1      42.422  27.964  36.517  1.00  0.00     0.059 A 
ATOM     45  C   UNL A   1      43.103  26.445  34.773  1.00  0.00     0.059 A 
ATOM     46  F   UNL A   1      42.728  26.927  32.559  1.00  0.00    -0.206 F 
ATOM     47  C   UNL A   1      43.081  26.809  36.110  1.00  0.00     0.060 A 
BRANCH  47  48
ATOM     48  S   UNL A   1      43.945  25.811  37.335  1.00  0.00     0.124 S 
ATOM     49  O   UNL A   1      45.335  26.152  37.062  1.00  0.00    -0.237 OA
ATOM     50  O   UNL A   1      43.392  26.324  38.584  1.00  0.00    -0.237 OA
ATOM     51  O   UNL A   1      43.548  24.447  36.994  1.00  0.00    -0.744 OA
ENDBRANCH  47  48
ENDBRANCH  26  40
BRANCH  27  52
ATOM     52  C   UNL A   1      43.550  26.040  26.166  1.00  0.00     0.058 A 
ATOM     53  C   UNL A   1      44.790  25.821  25.528  1.00  0.00     0.135 A 
ATOM     54  C   UNL A   1      42.730  24.905  26.310  1.00  0.00     0.135 A 
ATOM     55  F   UNL A   1      45.652  26.837  25.358  1.00  0.00    -0.206 F 
ATOM     56  C   UNL A   1      45.215  24.547  25.122  1.00  0.00     0.059 A 
ATOM     57  C   UNL A   1      43.128  23.628  25.907  1.00  0.00     0.059 A 
ATOM     58  F   UNL A   1      41.550  24.987  26.941  1.00  0.00    -0.206 F 
ATOM     59  C   UNL A   1      44.384  23.450  25.339  1.00  0.00     0.060 A 
BRANCH  59  60
ATOM     60  S   UNL A   1      44.997  21.780  24.997  1.00  0.00     0.124 S 
ATOM     61  O   UNL A   1      44.776  21.662  23.560  1.00  0.00    -0.237 OA
ATOM     62  O   UNL A   1      46.391  21.867  25.422  1.00  0.00    -0.237 OA
ATOM     63  O   UNL A   1      44.149  20.931  25.830  1.00  0.00    -0.744 OA
ENDBRANCH  59  60
ENDBRANCH  27  52
BRANCH  39  64
ATOM     64  C   UNL A   1      44.921  31.572  28.932  1.00  0.00     0.058 A 
ATOM     65  C   UNL A   1      46.234  32.045  28.761  1.00  0.00     0.135 A 
ATOM     66  C   UNL A   1      43.950  32.034  28.028  1.00  0.00     0.135 A 
ATOM     67  F   UNL A   1      47.242  31.581  29.514  1.00  0.00    -0.206 F 
ATOM     68  C   UNL A   1      46.556  32.967  27.763  1.00  0.00     0.059 A 
ATOM     69  C   UNL A   1      44.255  32.923  27.005  1.00  0.00     0.059 A 
ATOM     70  F   UNL A   1      42.689  31.576  28.104  1.00  0.00    -0.206 F 
ATOM     71  C   UNL A   1      45.559  33.397  26.886  1.00  0.00     0.060 A 
BRANCH  71  72
ATOM     72  S   UNL A   1      45.985  34.534  25.550  1.00  0.00     0.124 S 
ATOM     73  O   UNL A   1      47.413  34.283  25.376  1.00  0.00    -0.237 OA
ATOM     74  O   UNL A   1      45.126  34.076  24.459  1.00  0.00    -0.237 OA
ATOM     75  O   UNL A   1      45.643  35.845  26.092  1.00  0.00    -0.744 OA
ENDBRANCH  71  72
ENDBRANCH  39  64
ENDBRANCH  13  14
ENDBRANCH   6   8
ENDBRANCH   3   4
ENDBRANCH   2   3
ENDBRANCH   1   2
BRANCH   1  76
ATOM     76  N   UNL A   1      34.494  33.063  31.458  1.00  0.00    -0.352 N 
ATOM     77  C   UNL A   1      35.500  32.331  32.040  1.00  0.00     0.251 C 
ATOM     78  H   UNL A   1      33.761  32.523  31.084  1.00  0.00     0.163 HD
ATOM     79  O   UNL A   1      35.465  31.108  31.982  1.00  0.00    -0.269 OA
BRANCH  77  80
ATOM     80  C   UNL A   1      36.639  32.987  32.722  1.00  0.00     0.039 A 
ATOM     81  C   UNL A   1      36.419  33.526  33.996  1.00  0.00     0.016 A 
ATOM     82  C   UNL A   1      37.878  33.165  32.100  1.00  0.00     0.016 A 
ATOM     83  C   UNL A   1      37.445  34.196  34.666  1.00  0.00     0.029 A 
ATOM     84  C   UNL A   1      38.908  33.841  32.764  1.00  0.00     0.029 A 
ATOM     85  C   UNL A   1      38.689  34.371  34.046  1.00  0.00     0.066 A 
BRANCH  85  86
ATOM     86  N   UNL A   1      39.671  35.164  34.691  1.00  0.00    -0.220 N 
ATOM     87  C   UNL A   1      41.021  35.202  34.445  1.00  0.00     0.141 A 
ATOM     88  N   UNL A   1      39.367  36.109  35.615  1.00  0.00    -0.062 NA
ATOM     89  C   UNL A   1      41.484  36.304  35.134  1.00  0.00     0.093 A 
ATOM     90  N   UNL A   1      40.465  36.803  35.891  1.00  0.00    -0.134 NA
BRANCH  89  91
ATOM     91  C   UNL A   1      42.864  36.824  35.230  1.00  0.00     0.138 C 
BRANCH  91  92
ATOM     92  S   UNL A   1      43.842  37.165  33.757  1.00  0.00    -0.081 SA
BRANCH  92  93
ATOM     93  C   UNL A   1      44.671  35.750  33.153  1.00  0.00     0.176 A 
ATOM     94  N   UNL A   1      44.763  34.821  34.061  1.00  0.00    -0.223 NA
ATOM     95  N   UNL A   1      45.156  35.556  31.865  1.00  0.00    -0.255 N 
ATOM     96  C   UNL A   1      45.479  33.657  33.766  1.00  0.00     0.079 A 
ATOM     97  C   UNL A   1      46.326  34.783  31.799  1.00  0.00     0.266 A 
ATOM     98  C   UNL A   1      45.346  32.510  34.549  1.00  0.00     0.029 A 
ATOM     99  C   UNL A   1      46.413  33.660  32.743  1.00  0.00     0.066 A 
ATOM    100  O   UNL A   1      47.267  34.951  31.018  1.00  0.00    -0.268 OA
ATOM    101  C   UNL A   1      46.196  31.415  34.349  1.00  0.00     0.002 A 
ATOM    102  C   UNL A   1      47.310  32.600  32.567  1.00  0.00     0.016 A 
ATOM    103  C   UNL A   1      47.205  31.476  33.386  1.00  0.00     0.001 A 
BRANCH  95 104
ATOM    104  C   UNL A   1      44.587  36.047  30.623  1.00  0.00     0.051 A 
ATOM    105  C   UNL A   1      44.922  37.336  30.153  1.00  0.00     0.028 A 
ATOM    106  C   UNL A   1      43.743  35.310  29.787  1.00  0.00     0.028 A 
ATOM    107  C   UNL A   1      44.275  37.930  29.063  1.00  0.00     0.018 A 
ATOM    108  C   UNL A   1      43.031  35.915  28.739  1.00  0.00     0.018 A 
ATOM    109  C   UNL A   1      43.273  37.239  28.409  1.00  0.00     0.018 A 
ATOM    110  Br  UNL A   1      42.235  38.097  27.090  1.00  0.00    -0.051 Br
ENDBRANCH  95 104
ENDBRANCH  92  93
ENDBRANCH  91  92
ENDBRANCH  89  91
ENDBRANCH  85  86
ENDBRANCH  77  80
ENDBRANCH   1  76
TORSDOF 18
ENDMDL
MODEL 3
REMARK VINA RESULT:     -12.9      1.996      3.041
REMARK SMILES O=C(NCCCNC(=O)c1ccc(-n2cc(CSc3nc4ccccc4c(=O)n3-c3ccc(Br)cc3)nn2)cc1)c1ccc(-c2c3nc(c(-c4c(F)cc(S(=O)(=O)[O-])cc4F)c4ccc([nH]4)c(-c4c(F)cc(S(=O)(=O)[O-])cc4F)c4nc(c(-c5c(F)cc(S(=O)(=O)[O-])cc5F)c5ccc2[nH]5)C=C4)C=C3)cc1
REMARK SMILES IDX 6 1 5 2 4 3 3 4 1 5 2 6 41 8 42 9 106 10 43 11 105 12 44 13
REMARK SMILES IDX 45 14 46 15 99 16 47 17 104 18 98 19 100 20 48 21 103 22
REMARK SMILES IDX 97 23 96 24 49 26 83 27 62 28 82 29 63 30 66 31 81 32 101 33
REMARK SMILES IDX 64 34 65 35 80 37 102 38 67 39 50 40 51 41 60 42 52 43 53 44
REMARK SMILES IDX 59 45 61 46 54 47 55 48 56 49 57 50 58 51 84 52 85 53 94 54
REMARK SMILES IDX 86 55 87 56 93 57 95 58 88 59 89 60 90 61 91 62 92 63 68 64
REMARK SMILES IDX 69 65 78 66 70 67 71 68 77 69 79 70 72 71 73 72 74 73 75 74
REMARK SMILES IDX 76 75 7 76 8 77 9 79 10 80 11 81 40 82 12 83 39 84 13 85
REMARK SMILES IDX 14 86 15 87 38 88 16 89 37 90 17 91 18 92 19 93 20 94 29 95
REMARK SMILES IDX 21 96 27 97 22 98 26 99 28 100 23 101 25 102 24 103 30 104
REMARK SMILES IDX 31 105 36 106 32 107 35 108 33 109 34 110
REMARK H PARENT 3 7 100 25 66 36 7 78
REMARK Flexibility Score: inf
ROOT
ATOM      1  C   UNL A   1      34.744  31.357  27.583  1.00  0.00     0.118 C 
ENDROOT
BRANCH   1   2
ATOM      2  C   UNL A   1      35.446  32.582  28.170  1.00  0.00     0.042 C 
BRANCH   2   3
ATOM      3  C   UNL A   1      34.597  33.448  29.096  1.00  0.00     0.118 C 
BRANCH   3   4
ATOM      4  N   UNL A   1      34.324  32.885  30.404  1.00  0.00    -0.352 N 
ATOM      5  O   UNL A   1      34.507  32.195  32.484  1.00  0.00    -0.269 OA
ATOM      6  C   UNL A   1      35.075  32.309  31.392  1.00  0.00     0.251 C 
ATOM      7  H   UNL A   1      33.369  32.927  30.636  1.00  0.00     0.163 HD
BRANCH   6   8
ATOM      8  C   UNL A   1      36.446  31.746  31.240  1.00  0.00     0.039 A 
ATOM      9  C   UNL A   1      37.646  32.457  31.279  1.00  0.00     0.014 A 
ATOM     10  C   UNL A   1      36.502  30.356  31.003  1.00  0.00     0.014 A 
ATOM     11  C   UNL A   1      38.856  31.805  31.009  1.00  0.00     0.010 A 
ATOM     12  C   UNL A   1      37.703  29.705  30.730  1.00  0.00     0.010 A 
ATOM     13  C   UNL A   1      38.884  30.435  30.702  1.00  0.00    -0.014 A 
BRANCH  13  14
ATOM     14  C   UNL A   1      40.177  29.753  30.574  1.00  0.00     0.031 A 
ATOM     15  C   UNL A   1      40.813  29.450  31.889  1.00  0.00     0.074 A 
ATOM     16  C   UNL A   1      40.718  29.282  29.428  1.00  0.00     0.049 A 
ATOM     17  N   UNL A   1      41.861  30.005  32.400  1.00  0.00    -0.248 NA
ATOM     18  C   UNL A   1      40.120  28.533  32.808  1.00  0.00     0.031 C 
ATOM     19  C   UNL A   1      40.107  29.220  28.099  1.00  0.00     0.029 A 
ATOM     20  N   UNL A   1      41.931  28.677  29.225  1.00  0.00    -0.354 N 
ATOM     21  C   UNL A   1      42.096  29.347  33.606  1.00  0.00     0.074 A 
ATOM     22  C   UNL A   1      40.904  28.591  33.886  1.00  0.00     0.031 C 
ATOM     23  C   UNL A   1      40.857  28.431  27.291  1.00  0.00     0.029 A 
ATOM     24  C   UNL A   1      42.069  28.037  27.992  1.00  0.00     0.049 A 
ATOM     25  H   UNL A   1      42.649  28.692  29.898  1.00  0.00     0.167 HD
ATOM     26  C   UNL A   1      43.343  29.299  34.154  1.00  0.00     0.037 A 
ATOM     27  C   UNL A   1      43.089  27.228  27.587  1.00  0.00     0.037 A 
ATOM     28  C   UNL A   1      44.216  30.266  33.539  1.00  0.00     0.049 A 
ATOM     29  C   UNL A   1      44.260  27.536  28.447  1.00  0.00     0.074 A 
ATOM     30  C   UNL A   1      44.216  31.639  33.403  1.00  0.00     0.029 A 
ATOM     31  N   UNL A   1      45.114  29.797  32.612  1.00  0.00    -0.354 N 
ATOM     32  N   UNL A   1      44.909  28.665  28.414  1.00  0.00    -0.248 NA
ATOM     33  C   UNL A   1      44.434  26.748  29.657  1.00  0.00     0.031 C 
ATOM     34  C   UNL A   1      44.733  31.880  32.097  1.00  0.00     0.029 A 
ATOM     35  C   UNL A   1      45.088  30.650  31.542  1.00  0.00     0.049 A 
ATOM     36  H   UNL A   1      45.675  28.992  32.701  1.00  0.00     0.167 HD
ATOM     37  C   UNL A   1      45.189  28.944  29.742  1.00  0.00     0.074 A 
ATOM     38  C   UNL A   1      44.953  27.687  30.451  1.00  0.00     0.031 C 
ATOM     39  C   UNL A   1      45.312  30.231  30.178  1.00  0.00     0.037 A 
BRANCH  26  40
ATOM     40  C   UNL A   1      43.892  28.147  34.966  1.00  0.00     0.058 A 
ATOM     41  C   UNL A   1      44.509  28.415  36.208  1.00  0.00     0.135 A 
ATOM     42  C   UNL A   1      44.103  26.850  34.452  1.00  0.00     0.135 A 
ATOM     43  F   UNL A   1      44.385  29.620  36.789  1.00  0.00    -0.206 F 
ATOM     44  C   UNL A   1      45.336  27.492  36.849  1.00  0.00     0.059 A 
ATOM     45  C   UNL A   1      44.880  25.896  35.102  1.00  0.00     0.059 A 
ATOM     46  F   UNL A   1      43.648  26.473  33.252  1.00  0.00    -0.206 F 
ATOM     47  C   UNL A   1      45.524  26.238  36.280  1.00  0.00     0.060 A 
BRANCH  47  48
ATOM     48  S   UNL A   1      46.650  25.074  37.068  1.00  0.00     0.124 S 
ATOM     49  O   UNL A   1      47.307  24.475  35.913  1.00  0.00    -0.237 OA
ATOM     50  O   UNL A   1      47.472  25.958  37.887  1.00  0.00    -0.237 OA
ATOM     51  O   UNL A   1      45.753  24.194  37.813  1.00  0.00    -0.744 OA
ENDBRANCH  47  48
ENDBRANCH  26  40
BRANCH  27  52
ATOM     52  C   UNL A   1      43.058  25.999  26.737  1.00  0.00     0.058 A 
ATOM     53  C   UNL A   1      43.881  25.867  25.598  1.00  0.00     0.135 A 
ATOM     54  C   UNL A   1      42.463  24.810  27.200  1.00  0.00     0.135 A 
ATOM     55  F   UNL A   1      44.508  26.940  25.089  1.00  0.00    -0.206 F 
ATOM     56  C   UNL A   1      44.147  24.628  24.998  1.00  0.00     0.059 A 
ATOM     57  C   UNL A   1      42.707  23.566  26.615  1.00  0.00     0.059 A 
ATOM     58  F   UNL A   1      41.699  24.809  28.302  1.00  0.00    -0.206 F 
ATOM     59  C   UNL A   1      43.573  23.476  25.531  1.00  0.00     0.060 A 
BRANCH  59  60
ATOM     60  S   UNL A   1      44.058  21.853  24.889  1.00  0.00     0.124 S 
ATOM     61  O   UNL A   1      45.320  21.616  25.582  1.00  0.00    -0.237 OA
ATOM     62  O   UNL A   1      42.939  21.010  25.297  1.00  0.00    -0.237 OA
ATOM     63  O   UNL A   1      44.171  22.078  23.450  1.00  0.00    -0.744 OA
ENDBRANCH  59  60
ENDBRANCH  27  52
BRANCH  39  64
ATOM     64  C   UNL A   1      45.497  31.322  29.157  1.00  0.00     0.058 A 
ATOM     65  C   UNL A   1      46.726  31.704  28.591  1.00  0.00     0.135 A 
ATOM     66  C   UNL A   1      44.336  31.910  28.628  1.00  0.00     0.135 A 
ATOM     67  F   UNL A   1      47.873  31.121  28.966  1.00  0.00    -0.206 F 
ATOM     68  C   UNL A   1      46.797  32.659  27.574  1.00  0.00     0.059 A 
ATOM     69  C   UNL A   1      44.381  32.834  27.591  1.00  0.00     0.059 A 
ATOM     70  F   UNL A   1      43.128  31.545  29.087  1.00  0.00    -0.206 F 
ATOM     71  C   UNL A   1      45.618  33.216  27.078  1.00  0.00     0.060 A 
BRANCH  71  72
ATOM     72  S   UNL A   1      45.702  34.397  25.714  1.00  0.00     0.124 S 
ATOM     73  O   UNL A   1      47.129  34.410  25.407  1.00  0.00    -0.237 OA
ATOM     74  O   UNL A   1      44.844  33.776  24.706  1.00  0.00    -0.237 OA
ATOM     75  O   UNL A   1      45.177  35.628  26.293  1.00  0.00    -0.744 OA
ENDBRANCH  71  72
ENDBRANCH  39  64
ENDBRANCH  13  14
ENDBRANCH   6   8
ENDBRANCH   3   4
ENDBRANCH   2   3
ENDBRANCH   1   2
BRANCH   1  76
ATOM     76  N   UNL A   1      33.294  31.477  27.538  1.00  0.00    -0.352 N 
ATOM     77  C   UNL A   1      32.352  30.792  26.809  1.00  0.00     0.251 C 
ATOM     78  H   UNL A   1      32.925  32.171  28.131  1.00  0.00     0.163 HD
ATOM     79  O   UNL A   1      31.177  31.131  26.876  1.00  0.00    -0.269 OA
BRANCH  77  80
ATOM     80  C   UNL A   1      32.726  29.662  25.927  1.00  0.00     0.039 A 
ATOM     81  C   UNL A   1      32.385  29.748  24.572  1.00  0.00     0.016 A 
ATOM     82  C   UNL A   1      33.313  28.494  26.422  1.00  0.00     0.016 A 
ATOM     83  C   UNL A   1      32.674  28.692  23.704  1.00  0.00     0.029 A 
ATOM     84  C   UNL A   1      33.599  27.430  25.558  1.00  0.00     0.029 A 
ATOM     85  C   UNL A   1      33.266  27.522  24.197  1.00  0.00     0.066 A 
BRANCH  85  86
ATOM     86  N   UNL A   1      33.431  26.417  23.324  1.00  0.00    -0.220 N 
ATOM     87  C   UNL A   1      33.358  25.080  23.630  1.00  0.00     0.141 A 
ATOM     88  N   UNL A   1      33.594  26.552  21.984  1.00  0.00    -0.062 NA
ATOM     89  C   UNL A   1      33.322  24.432  22.413  1.00  0.00     0.093 A 
ATOM     90  N   UNL A   1      33.531  25.349  21.425  1.00  0.00    -0.134 NA
BRANCH  89  91
ATOM     91  C   UNL A   1      33.247  22.982  22.138  1.00  0.00     0.138 C 
BRANCH  91  92
ATOM     92  S   UNL A   1      33.121  21.780  23.473  1.00  0.00    -0.081 SA
BRANCH  92  93
ATOM     93  C   UNL A   1      34.610  21.611  24.374  1.00  0.00     0.176 A 
ATOM     94  N   UNL A   1      35.087  22.768  24.737  1.00  0.00    -0.223 NA
ATOM     95  N   UNL A   1      35.237  20.424  24.732  1.00  0.00    -0.255 N 
ATOM     96  C   UNL A   1      36.322  22.814  25.390  1.00  0.00     0.079 A 
ATOM     97  C   UNL A   1      36.638  20.498  24.766  1.00  0.00     0.266 A 
ATOM     98  C   UNL A   1      36.731  23.954  26.083  1.00  0.00     0.029 A 
ATOM     99  C   UNL A   1      37.207  21.755  25.271  1.00  0.00     0.066 A 
ATOM    100  O   UNL A   1      37.423  19.607  24.429  1.00  0.00    -0.268 OA
ATOM    101  C   UNL A   1      38.036  24.050  26.579  1.00  0.00     0.002 A 
ATOM    102  C   UNL A   1      38.533  21.856  25.708  1.00  0.00     0.016 A 
ATOM    103  C   UNL A   1      38.950  23.018  26.356  1.00  0.00     0.001 A 
BRANCH  95 104
ATOM    104  C   UNL A   1      34.608  19.161  25.074  1.00  0.00     0.051 A 
ATOM    105  C   UNL A   1      35.261  17.944  24.780  1.00  0.00     0.028 A 
ATOM    106  C   UNL A   1      33.386  19.033  25.742  1.00  0.00     0.028 A 
ATOM    107  C   UNL A   1      34.635  16.700  24.923  1.00  0.00     0.018 A 
ATOM    108  C   UNL A   1      32.714  17.803  25.822  1.00  0.00     0.018 A 
ATOM    109  C   UNL A   1      33.329  16.646  25.372  1.00  0.00     0.018 A 
ATOM    110  Br  UNL A   1      32.390  15.011  25.358  1.00  0.00    -0.051 Br
ENDBRANCH  95 104
ENDBRANCH  92  93
ENDBRANCH  91  92
ENDBRANCH  89  91
ENDBRANCH  85  86
ENDBRANCH  77  80
ENDBRANCH   1  76
TORSDOF 18
ENDMDL
