MODEL 1
REMARK VINA RESULT:     -11.8      0.000      0.000
REMARK SMILES O=C(Cc1csc(NC(=O)CS[C@@H]2CCS(=O)(=O)C2)n1)NCCCNC(=O)c1ccc(-c2c3nc(c(-c4c(F)cc(S(=O)(=O)[O-])cc4F)c4ccc([nH]4)c(-c4c(F)cc(S(=O)(=O)[O-])cc4F)c4nc(c(-c5c(F)cc(S(=O)(=O)[O-])cc5F)c5ccc2[nH]5)C=C4)C=C3)cc1
REMARK SMILES IDX 22 1 21 2 1 3 2 4 3 6 4 7 5 8 20 9 6 10 7 11 8 12 9 13 10 15
REMARK SMILES IDX 11 16 12 17 13 18 14 19 19 20 15 21 16 22 17 23 18 24 23 25
REMARK SMILES IDX 24 26 25 27 26 28 27 30 28 31 29 32 93 33 30 34 92 35 31 36
REMARK SMILES IDX 32 37 33 38 86 39 34 40 91 41 85 42 87 43 35 44 90 45 84 46
REMARK SMILES IDX 83 47 36 49 70 50 49 51 69 52 50 53 53 54 68 55 88 56 51 57
REMARK SMILES IDX 52 58 67 60 89 61 54 62 37 63 38 64 47 65 39 66 40 67 46 68
REMARK SMILES IDX 48 69 41 70 42 71 43 72 44 73 45 74 71 75 72 76 81 77 73 78
REMARK SMILES IDX 74 79 80 80 82 81 75 82 76 83 77 84 78 85 79 86 55 87 56 88
REMARK SMILES IDX 65 89 57 90 58 91 64 92 66 93 59 94 60 95 61 96 62 97 63 98
REMARK H PARENT 21 5 8 14 25 29 87 48 53 59
REMARK Flexibility Score: inf
ROOT
ATOM      1  C   UNL A   1      39.795  21.534  26.165  1.00  0.00     0.117 C 
ENDROOT
BRANCH   1   2
ATOM      2  N   UNL A   1      38.568  22.000  25.556  1.00  0.00    -0.356 N 
ATOM      3  O   UNL A   1      37.750  19.930  24.975  1.00  0.00    -0.275 OA
ATOM      4  C   UNL A   1      37.622  21.151  25.021  1.00  0.00     0.226 C 
ATOM      5  H   UNL A   1      38.400  22.970  25.523  1.00  0.00     0.163 HD
BRANCH   4   6
ATOM      6  C   UNL A   1      36.426  21.858  24.409  1.00  0.00     0.157 C 
BRANCH   6   7
ATOM      7  C   UNL A   1      35.108  21.359  24.911  1.00  0.00     0.063 A 
ATOM      8  C   UNL A   1      34.572  20.111  24.649  1.00  0.00     0.093 A 
ATOM      9  N   UNL A   1      34.280  22.178  25.666  1.00  0.00    -0.224 NA
ATOM     10  S   UNL A   1      33.099  19.927  25.495  1.00  0.00    -0.105 S 
ATOM     11  C   UNL A   1      33.158  21.561  25.954  1.00  0.00     0.189 A 
BRANCH  11  12
ATOM     12  N   UNL A   1      32.171  22.208  26.644  1.00  0.00    -0.301 N 
ATOM     13  C   UNL A   1      31.539  23.397  26.471  1.00  0.00     0.236 C 
ATOM     14  H   UNL A   1      31.853  21.709  27.430  1.00  0.00     0.172 HD
ATOM     15  O   UNL A   1      30.651  23.690  27.287  1.00  0.00    -0.274 OA
BRANCH  13  16
ATOM     16  C   UNL A   1      31.863  24.387  25.374  1.00  0.00     0.170 C 
BRANCH  16  17
ATOM     17  S   UNL A   1      32.717  25.875  25.981  1.00  0.00    -0.148 SA
BRANCH  17  18
ATOM     18  C   UNL A   1      31.351  27.073  26.230  1.00  0.00     0.063 C 
ATOM     19  C   UNL A   1      31.043  27.898  24.975  1.00  0.00     0.031 C 
ATOM     20  C   UNL A   1      31.804  28.105  27.273  1.00  0.00     0.151 C 
ATOM     21  C   UNL A   1      32.239  28.818  24.734  1.00  0.00     0.138 C 
ATOM     22  S   UNL A   1      32.790  29.296  26.366  1.00  0.00     0.151 S 
ATOM     23  O   UNL A   1      34.195  28.963  26.498  1.00  0.00    -0.229 OA
ATOM     24  O   UNL A   1      32.290  30.624  26.645  1.00  0.00    -0.229 OA
ENDBRANCH  17  18
ENDBRANCH  16  17
ENDBRANCH  13  16
ENDBRANCH  11  12
ENDBRANCH   6   7
ENDBRANCH   4   6
ENDBRANCH   1   2
BRANCH   1  25
ATOM     25  C   UNL A   1      40.178  22.349  27.394  1.00  0.00     0.042 C 
BRANCH  25  26
ATOM     26  C   UNL A   1      41.543  23.026  27.310  1.00  0.00     0.118 C 
BRANCH  26  27
ATOM     27  N   UNL A   1      41.669  23.927  26.173  1.00  0.00    -0.352 N 
ATOM     28  C   UNL A   1      41.521  25.290  26.094  1.00  0.00     0.251 C 
ATOM     29  H   UNL A   1      41.898  23.488  25.322  1.00  0.00     0.163 HD
ATOM     30  O   UNL A   1      41.542  25.825  24.987  1.00  0.00    -0.269 OA
BRANCH  28  31
ATOM     31  C   UNL A   1      41.315  26.114  27.309  1.00  0.00     0.039 A 
ATOM     32  C   UNL A   1      42.275  27.079  27.630  1.00  0.00     0.014 A 
ATOM     33  C   UNL A   1      40.217  25.928  28.152  1.00  0.00     0.014 A 
ATOM     34  C   UNL A   1      42.105  27.885  28.758  1.00  0.00     0.010 A 
ATOM     35  C   UNL A   1      40.005  26.790  29.229  1.00  0.00     0.010 A 
ATOM     36  C   UNL A   1      40.950  27.774  29.551  1.00  0.00    -0.014 A 
BRANCH  36  37
ATOM     37  C   UNL A   1      40.731  28.691  30.704  1.00  0.00     0.031 A 
ATOM     38  C   UNL A   1      41.561  28.569  31.957  1.00  0.00     0.074 A 
ATOM     39  C   UNL A   1      39.761  29.624  30.632  1.00  0.00     0.049 A 
ATOM     40  N   UNL A   1      41.522  29.294  33.045  1.00  0.00    -0.248 NA
ATOM     41  C   UNL A   1      42.546  27.477  32.003  1.00  0.00     0.031 C 
ATOM     42  C   UNL A   1      38.846  29.806  29.502  1.00  0.00     0.029 A 
ATOM     43  N   UNL A   1      39.381  30.598  31.522  1.00  0.00    -0.354 N 
ATOM     44  C   UNL A   1      42.470  28.748  33.904  1.00  0.00     0.074 A 
ATOM     45  C   UNL A   1      43.023  27.591  33.235  1.00  0.00     0.031 C 
ATOM     46  C   UNL A   1      38.041  30.852  29.749  1.00  0.00     0.029 A 
ATOM     47  C   UNL A   1      38.353  31.392  31.068  1.00  0.00     0.049 A 
ATOM     48  H   UNL A   1      39.804  30.718  32.403  1.00  0.00     0.167 HD
ATOM     49  C   UNL A   1      42.864  29.184  35.125  1.00  0.00     0.037 A 
ATOM     50  C   UNL A   1      37.730  32.439  31.645  1.00  0.00     0.037 A 
ATOM     51  C   UNL A   1      42.319  30.346  35.783  1.00  0.00     0.049 A 
ATOM     52  C   UNL A   1      38.187  32.906  33.001  1.00  0.00     0.074 A 
ATOM     53  C   UNL A   1      42.688  30.900  36.996  1.00  0.00     0.029 A 
ATOM     54  N   UNL A   1      41.284  31.127  35.288  1.00  0.00    -0.354 N 
ATOM     55  N   UNL A   1      39.139  32.421  33.765  1.00  0.00    -0.248 NA
ATOM     56  C   UNL A   1      37.495  34.070  33.569  1.00  0.00     0.031 C 
ATOM     57  C   UNL A   1      41.841  31.982  37.260  1.00  0.00     0.029 A 
ATOM     58  C   UNL A   1      40.987  32.144  36.182  1.00  0.00     0.049 A 
ATOM     59  H   UNL A   1      40.829  30.982  34.427  1.00  0.00     0.167 HD
ATOM     60  C   UNL A   1      39.178  33.240  34.889  1.00  0.00     0.074 A 
ATOM     61  C   UNL A   1      38.168  34.261  34.695  1.00  0.00     0.031 C 
ATOM     62  C   UNL A   1      39.977  33.154  35.982  1.00  0.00     0.037 A 
BRANCH  49  63
ATOM     63  C   UNL A   1      43.942  28.406  35.835  1.00  0.00     0.058 A 
ATOM     64  C   UNL A   1      45.305  28.696  35.653  1.00  0.00     0.135 A 
ATOM     65  C   UNL A   1      43.610  27.386  36.741  1.00  0.00     0.135 A 
ATOM     66  F   UNL A   1      45.684  29.651  34.788  1.00  0.00    -0.206 F 
ATOM     67  C   UNL A   1      46.297  27.985  36.320  1.00  0.00     0.059 A 
ATOM     68  C   UNL A   1      44.585  26.683  37.445  1.00  0.00     0.059 A 
ATOM     69  F   UNL A   1      42.324  27.065  36.957  1.00  0.00    -0.206 F 
ATOM     70  C   UNL A   1      45.927  26.981  37.216  1.00  0.00     0.060 A 
BRANCH  70  71
ATOM     71  S   UNL A   1      47.229  26.076  38.079  1.00  0.00     0.124 S 
ATOM     72  O   UNL A   1      46.493  24.923  38.589  1.00  0.00    -0.237 OA
ATOM     73  O   UNL A   1      48.179  25.797  37.007  1.00  0.00    -0.237 OA
ATOM     74  O   UNL A   1      47.688  27.023  39.091  1.00  0.00    -0.744 OA
ENDBRANCH  70  71
ENDBRANCH  49  63
BRANCH  50  75
ATOM     75  C   UNL A   1      36.626  33.136  30.930  1.00  0.00     0.058 A 
ATOM     76  C   UNL A   1      35.292  33.001  31.345  1.00  0.00     0.135 A 
ATOM     77  C   UNL A   1      36.884  33.958  29.822  1.00  0.00     0.135 A 
ATOM     78  F   UNL A   1      34.993  32.223  32.396  1.00  0.00    -0.206 F 
ATOM     79  C   UNL A   1      34.252  33.635  30.675  1.00  0.00     0.059 A 
ATOM     80  C   UNL A   1      35.863  34.628  29.153  1.00  0.00     0.059 A 
ATOM     81  F   UNL A   1      38.143  34.136  29.394  1.00  0.00    -0.206 F 
ATOM     82  C   UNL A   1      34.548  34.450  29.581  1.00  0.00     0.060 A 
BRANCH  82  83
ATOM     83  S   UNL A   1      33.193  35.304  28.746  1.00  0.00     0.124 S 
ATOM     84  O   UNL A   1      32.445  35.843  29.875  1.00  0.00    -0.237 OA
ATOM     85  O   UNL A   1      33.907  36.279  27.927  1.00  0.00    -0.237 OA
ATOM     86  O   UNL A   1      32.532  34.235  28.002  1.00  0.00    -0.744 OA
ENDBRANCH  82  83
ENDBRANCH  50  75
BRANCH  62  87
ATOM     87  C   UNL A   1      39.818  34.217  37.036  1.00  0.00     0.058 A 
ATOM     88  C   UNL A   1      39.057  34.006  38.197  1.00  0.00     0.135 A 
ATOM     89  C   UNL A   1      40.453  35.463  36.890  1.00  0.00     0.135 A 
ATOM     90  F   UNL A   1      38.427  32.835  38.389  1.00  0.00    -0.206 F 
ATOM     91  C   UNL A   1      38.892  35.004  39.152  1.00  0.00     0.059 A 
ATOM     92  C   UNL A   1      40.330  36.464  37.850  1.00  0.00     0.059 A 
ATOM     93  F   UNL A   1      41.205  35.717  35.808  1.00  0.00    -0.206 F 
ATOM     94  C   UNL A   1      39.530  36.232  38.967  1.00  0.00     0.060 A 
BRANCH  94  95
ATOM     95  S   UNL A   1      39.305  37.521  40.211  1.00  0.00     0.124 S 
ATOM     96  O   UNL A   1      38.271  38.347  39.595  1.00  0.00    -0.237 OA
ATOM     97  O   UNL A   1      38.890  36.755  41.382  1.00  0.00    -0.237 OA
ATOM     98  O   UNL A   1      40.625  38.136  40.307  1.00  0.00    -0.744 OA
ENDBRANCH  94  95
ENDBRANCH  62  87
ENDBRANCH  36  37
ENDBRANCH  28  31
ENDBRANCH  26  27
ENDBRANCH  25  26
ENDBRANCH   1  25
TORSDOF 18
ENDMDL
MODEL 2
REMARK VINA RESULT:     -11.7      1.471      2.032
REMARK SMILES O=C(Cc1csc(NC(=O)CS[C@@H]2CCS(=O)(=O)C2)n1)NCCCNC(=O)c1ccc(-c2c3nc(c(-c4c(F)cc(S(=O)(=O)[O-])cc4F)c4ccc([nH]4)c(-c4c(F)cc(S(=O)(=O)[O-])cc4F)c4nc(c(-c5c(F)cc(S(=O)(=O)[O-])cc5F)c5ccc2[nH]5)C=C4)C=C3)cc1
REMARK SMILES IDX 22 1 21 2 1 3 2 4 3 6 4 7 5 8 20 9 6 10 7 11 8 12 9 13 10 15
REMARK SMILES IDX 11 16 12 17 13 18 14 19 19 20 15 21 16 22 17 23 18 24 23 25
REMARK SMILES IDX 24 26 25 27 26 28 27 30 28 31 29 32 93 33 30 34 92 35 31 36
REMARK SMILES IDX 32 37 33 38 86 39 34 40 91 41 85 42 87 43 35 44 90 45 84 46
REMARK SMILES IDX 83 47 36 49 70 50 49 51 69 52 50 53 53 54 68 55 88 56 51 57
REMARK SMILES IDX 52 58 67 60 89 61 54 62 37 63 38 64 47 65 39 66 40 67 46 68
REMARK SMILES IDX 48 69 41 70 42 71 43 72 44 73 45 74 71 75 72 76 81 77 73 78
REMARK SMILES IDX 74 79 80 80 82 81 75 82 76 83 77 84 78 85 79 86 55 87 56 88
REMARK SMILES IDX 65 89 57 90 58 91 64 92 66 93 59 94 60 95 61 96 62 97 63 98
REMARK H PARENT 21 5 8 14 25 29 87 48 53 59
REMARK Flexibility Score: inf
ROOT
ATOM      1  C   UNL A   1      38.891  23.078  26.563  1.00  0.00     0.117 C 
ENDROOT
BRANCH   1   2
ATOM      2  N   UNL A   1      38.231  22.687  25.336  1.00  0.00    -0.356 N 
ATOM      3  O   UNL A   1      36.452  24.135  25.511  1.00  0.00    -0.275 OA
ATOM      4  C   UNL A   1      37.061  23.266  24.891  1.00  0.00     0.226 C 
ATOM      5  H   UNL A   1      38.638  21.974  24.793  1.00  0.00     0.163 HD
BRANCH   4   6
ATOM      6  C   UNL A   1      36.532  22.682  23.594  1.00  0.00     0.157 C 
BRANCH   6   7
ATOM      7  C   UNL A   1      35.058  22.857  23.411  1.00  0.00     0.063 A 
ATOM      8  C   UNL A   1      34.078  22.149  24.082  1.00  0.00     0.093 A 
ATOM      9  N   UNL A   1      34.561  23.751  22.471  1.00  0.00    -0.224 NA
ATOM     10  S   UNL A   1      32.535  22.734  23.636  1.00  0.00    -0.105 S 
ATOM     11  C   UNL A   1      33.250  23.706  22.440  1.00  0.00     0.189 A 
BRANCH  11  12
ATOM     12  N   UNL A   1      32.554  24.466  21.541  1.00  0.00    -0.301 N 
ATOM     13  C   UNL A   1      32.203  25.777  21.502  1.00  0.00     0.236 C 
ATOM     14  H   UNL A   1      32.243  23.956  20.759  1.00  0.00     0.172 HD
ATOM     15  O   UNL A   1      31.571  26.164  20.509  1.00  0.00    -0.274 OA
BRANCH  13  16
ATOM     16  C   UNL A   1      32.509  26.776  22.596  1.00  0.00     0.170 C 
BRANCH  16  17
ATOM     17  S   UNL A   1      31.245  26.816  23.904  1.00  0.00    -0.148 SA
BRANCH  17  18
ATOM     18  C   UNL A   1      32.137  26.173  25.372  1.00  0.00     0.063 C 
ATOM     19  C   UNL A   1      31.509  26.623  26.696  1.00  0.00     0.031 C 
ATOM     20  C   UNL A   1      33.545  26.785  25.382  1.00  0.00     0.151 C 
ATOM     21  C   UNL A   1      31.734  28.129  26.816  1.00  0.00     0.138 C 
ATOM     22  S   UNL A   1      33.353  28.411  26.111  1.00  0.00     0.151 S 
ATOM     23  O   UNL A   1      33.234  29.403  25.060  1.00  0.00    -0.229 OA
ATOM     24  O   UNL A   1      34.303  28.553  27.192  1.00  0.00    -0.229 OA
ENDBRANCH  17  18
ENDBRANCH  16  17
ENDBRANCH  13  16
ENDBRANCH  11  12
ENDBRANCH   6   7
ENDBRANCH   4   6
ENDBRANCH   1   2
BRANCH   1  25
ATOM     25  C   UNL A   1      40.145  22.258  26.834  1.00  0.00     0.042 C 
BRANCH  25  26
ATOM     26  C   UNL A   1      41.398  23.082  27.115  1.00  0.00     0.118 C 
BRANCH  26  27
ATOM     27  N   UNL A   1      41.739  23.996  26.035  1.00  0.00    -0.352 N 
ATOM     28  C   UNL A   1      41.769  25.368  26.004  1.00  0.00     0.251 C 
ATOM     29  H   UNL A   1      41.990  23.560  25.188  1.00  0.00     0.163 HD
ATOM     30  O   UNL A   1      41.958  25.933  24.928  1.00  0.00    -0.269 OA
BRANCH  28  31
ATOM     31  C   UNL A   1      41.555  26.172  27.231  1.00  0.00     0.039 A 
ATOM     32  C   UNL A   1      42.490  27.161  27.550  1.00  0.00     0.014 A 
ATOM     33  C   UNL A   1      40.475  25.942  28.087  1.00  0.00     0.014 A 
ATOM     34  C   UNL A   1      42.312  27.949  28.691  1.00  0.00     0.010 A 
ATOM     35  C   UNL A   1      40.252  26.784  29.177  1.00  0.00     0.010 A 
ATOM     36  C   UNL A   1      41.171  27.793  29.498  1.00  0.00    -0.014 A 
BRANCH  36  37
ATOM     37  C   UNL A   1      40.942  28.689  30.665  1.00  0.00     0.031 A 
ATOM     38  C   UNL A   1      41.790  28.575  31.906  1.00  0.00     0.074 A 
ATOM     39  C   UNL A   1      39.945  29.595  30.617  1.00  0.00     0.049 A 
ATOM     40  N   UNL A   1      41.745  29.286  33.004  1.00  0.00    -0.248 NA
ATOM     41  C   UNL A   1      42.806  27.511  31.927  1.00  0.00     0.031 C 
ATOM     42  C   UNL A   1      39.011  29.765  29.501  1.00  0.00     0.029 A 
ATOM     43  N   UNL A   1      39.548  30.547  31.524  1.00  0.00    -0.354 N 
ATOM     44  C   UNL A   1      42.718  28.757  33.844  1.00  0.00     0.074 A 
ATOM     45  C   UNL A   1      43.295  27.624  33.154  1.00  0.00     0.031 C 
ATOM     46  C   UNL A   1      38.180  30.784  29.771  1.00  0.00     0.029 A 
ATOM     47  C   UNL A   1      38.493  31.317  31.093  1.00  0.00     0.049 A 
ATOM     48  H   UNL A   1      39.979  30.668  32.401  1.00  0.00     0.167 HD
ATOM     49  C   UNL A   1      43.115  29.189  35.066  1.00  0.00     0.037 A 
ATOM     50  C   UNL A   1      37.848  32.339  31.691  1.00  0.00     0.037 A 
ATOM     51  C   UNL A   1      42.546  30.326  35.745  1.00  0.00     0.049 A 
ATOM     52  C   UNL A   1      38.309  32.801  33.046  1.00  0.00     0.074 A 
ATOM     53  C   UNL A   1      42.914  30.876  36.960  1.00  0.00     0.029 A 
ATOM     54  N   UNL A   1      41.483  31.084  35.272  1.00  0.00    -0.354 N 
ATOM     55  N   UNL A   1      39.283  32.335  33.792  1.00  0.00    -0.248 NA
ATOM     56  C   UNL A   1      37.591  33.939  33.638  1.00  0.00     0.031 C 
ATOM     57  C   UNL A   1      42.041  31.929  37.249  1.00  0.00     0.029 A 
ATOM     58  C   UNL A   1      41.168  32.080  36.183  1.00  0.00     0.049 A 
ATOM     59  H   UNL A   1      41.021  30.936  34.416  1.00  0.00     0.167 HD
ATOM     60  C   UNL A   1      39.313  33.141  34.926  1.00  0.00     0.074 A 
ATOM     61  C   UNL A   1      38.273  34.135  34.757  1.00  0.00     0.031 C 
ATOM     62  C   UNL A   1      40.128  33.064  36.008  1.00  0.00     0.037 A 
BRANCH  49  63
ATOM     63  C   UNL A   1      44.223  28.432  35.752  1.00  0.00     0.058 A 
ATOM     64  C   UNL A   1      43.958  27.376  36.640  1.00  0.00     0.135 A 
ATOM     65  C   UNL A   1      45.568  28.736  35.488  1.00  0.00     0.135 A 
ATOM     66  F   UNL A   1      42.691  27.049  36.943  1.00  0.00    -0.206 F 
ATOM     67  C   UNL A   1      44.983  26.671  37.262  1.00  0.00     0.059 A 
ATOM     68  C   UNL A   1      46.612  28.022  36.073  1.00  0.00     0.059 A 
ATOM     69  F   UNL A   1      45.884  29.734  34.647  1.00  0.00    -0.206 F 
ATOM     70  C   UNL A   1      46.308  27.000  36.970  1.00  0.00     0.060 A 
BRANCH  70  71
ATOM     71  S   UNL A   1      47.624  26.067  37.779  1.00  0.00     0.124 S 
ATOM     72  O   UNL A   1      48.769  26.952  37.587  1.00  0.00    -0.237 OA
ATOM     73  O   UNL A   1      47.132  25.957  39.149  1.00  0.00    -0.237 OA
ATOM     74  O   UNL A   1      47.666  24.816  37.028  1.00  0.00    -0.744 OA
ENDBRANCH  70  71
ENDBRANCH  49  63
BRANCH  50  75
ATOM     75  C   UNL A   1      36.716  33.013  30.998  1.00  0.00     0.058 A 
ATOM     76  C   UNL A   1      35.397  32.874  31.456  1.00  0.00     0.135 A 
ATOM     77  C   UNL A   1      36.931  33.816  29.867  1.00  0.00     0.135 A 
ATOM     78  F   UNL A   1      35.138  32.112  32.530  1.00  0.00    -0.206 F 
ATOM     79  C   UNL A   1      34.331  33.486  30.808  1.00  0.00     0.059 A 
ATOM     80  C   UNL A   1      35.884  34.465  29.219  1.00  0.00     0.059 A 
ATOM     81  F   UNL A   1      38.175  33.997  29.397  1.00  0.00    -0.206 F 
ATOM     82  C   UNL A   1      34.585  34.284  29.691  1.00  0.00     0.060 A 
BRANCH  82  83
ATOM     83  S   UNL A   1      33.197  35.110  28.883  1.00  0.00     0.124 S 
ATOM     84  O   UNL A   1      33.825  36.332  28.395  1.00  0.00    -0.237 OA
ATOM     85  O   UNL A   1      32.813  34.137  27.866  1.00  0.00    -0.237 OA
ATOM     86  O   UNL A   1      32.234  35.285  29.968  1.00  0.00    -0.744 OA
ENDBRANCH  82  83
ENDBRANCH  50  75
BRANCH  62  87
ATOM     87  C   UNL A   1      39.953  34.109  37.078  1.00  0.00     0.058 A 
ATOM     88  C   UNL A   1      39.249  33.848  38.265  1.00  0.00     0.135 A 
ATOM     89  C   UNL A   1      40.512  35.389  36.919  1.00  0.00     0.135 A 
ATOM     90  F   UNL A   1      38.692  32.643  38.469  1.00  0.00    -0.206 F 
ATOM     91  C   UNL A   1      39.067  34.829  39.235  1.00  0.00     0.059 A 
ATOM     92  C   UNL A   1      40.373  36.374  37.892  1.00  0.00     0.059 A 
ATOM     93  F   UNL A   1      41.208  35.691  35.811  1.00  0.00    -0.206 F 
ATOM     94  C   UNL A   1      39.630  36.091  39.037  1.00  0.00     0.060 A 
BRANCH  94  95
ATOM     95  S   UNL A   1      39.383  37.357  40.300  1.00  0.00     0.124 S 
ATOM     96  O   UNL A   1      40.759  37.691  40.654  1.00  0.00    -0.237 OA
ATOM     97  O   UNL A   1      38.648  38.386  39.572  1.00  0.00    -0.237 OA
ATOM     98  O   UNL A   1      38.620  36.663  41.333  1.00  0.00    -0.744 OA
ENDBRANCH  94  95
ENDBRANCH  62  87
ENDBRANCH  36  37
ENDBRANCH  28  31
ENDBRANCH  26  27
ENDBRANCH  25  26
ENDBRANCH   1  25
TORSDOF 18
ENDMDL
MODEL 3
REMARK VINA RESULT:     -11.6      6.178      8.527
REMARK SMILES O=C(Cc1csc(NC(=O)CS[C@@H]2CCS(=O)(=O)C2)n1)NCCCNC(=O)c1ccc(-c2c3nc(c(-c4c(F)cc(S(=O)(=O)[O-])cc4F)c4ccc([nH]4)c(-c4c(F)cc(S(=O)(=O)[O-])cc4F)c4nc(c(-c5c(F)cc(S(=O)(=O)[O-])cc5F)c5ccc2[nH]5)C=C4)C=C3)cc1
REMARK SMILES IDX 22 1 21 2 1 3 2 4 3 6 4 7 5 8 20 9 6 10 7 11 8 12 9 13 10 15
REMARK SMILES IDX 11 16 12 17 13 18 14 19 19 20 15 21 16 22 17 23 18 24 23 25
REMARK SMILES IDX 24 26 25 27 26 28 27 30 28 31 29 32 93 33 30 34 92 35 31 36
REMARK SMILES IDX 32 37 33 38 86 39 34 40 91 41 85 42 87 43 35 44 90 45 84 46
REMARK SMILES IDX 83 47 36 49 70 50 49 51 69 52 50 53 53 54 68 55 88 56 51 57
REMARK SMILES IDX 52 58 67 60 89 61 54 62 37 63 38 64 47 65 39 66 40 67 46 68
REMARK SMILES IDX 48 69 41 70 42 71 43 72 44 73 45 74 71 75 72 76 81 77 73 78
REMARK SMILES IDX 74 79 80 80 82 81 75 82 76 83 77 84 78 85 79 86 55 87 56 88
REMARK SMILES IDX 65 89 57 90 58 91 64 92 66 93 59 94 60 95 61 96 62 97 63 98
REMARK H PARENT 21 5 8 14 25 29 87 48 53 59
REMARK Flexibility Score: inf
ROOT
ATOM      1  C   UNL A   1      37.403  21.287  24.516  1.00  0.00     0.117 C 
ENDROOT
BRANCH   1   2
ATOM      2  N   UNL A   1      36.064  21.379  25.056  1.00  0.00    -0.356 N 
ATOM      3  O   UNL A   1      36.345  23.388  26.140  1.00  0.00    -0.275 OA
ATOM      4  C   UNL A   1      35.629  22.443  25.818  1.00  0.00     0.226 C 
ATOM      5  H   UNL A   1      35.433  20.646  24.871  1.00  0.00     0.163 HD
BRANCH   4   6
ATOM      6  C   UNL A   1      34.196  22.317  26.303  1.00  0.00     0.157 C 
BRANCH   6   7
ATOM      7  C   UNL A   1      33.181  22.805  25.318  1.00  0.00     0.063 A 
ATOM      8  C   UNL A   1      31.810  22.763  25.495  1.00  0.00     0.093 A 
ATOM      9  N   UNL A   1      33.573  23.306  24.084  1.00  0.00    -0.224 NA
ATOM     10  S   UNL A   1      31.034  23.509  24.168  1.00  0.00    -0.105 S 
ATOM     11  C   UNL A   1      32.525  23.625  23.362  1.00  0.00     0.189 A 
BRANCH  11  12
ATOM     12  N   UNL A   1      32.681  24.086  22.084  1.00  0.00    -0.301 N 
ATOM     13  C   UNL A   1      33.055  25.283  21.564  1.00  0.00     0.236 C 
ATOM     14  H   UNL A   1      32.481  23.410  21.398  1.00  0.00     0.172 HD
ATOM     15  O   UNL A   1      33.116  25.369  20.329  1.00  0.00    -0.274 OA
BRANCH  13  16
ATOM     16  C   UNL A   1      33.373  26.511  22.388  1.00  0.00     0.170 C 
BRANCH  16  17
ATOM     17  S   UNL A   1      31.893  27.309  23.085  1.00  0.00    -0.148 SA
BRANCH  17  18
ATOM     18  C   UNL A   1      32.577  28.390  24.399  1.00  0.00     0.063 C 
ATOM     19  C   UNL A   1      33.646  27.694  25.249  1.00  0.00     0.031 C 
ATOM     20  C   UNL A   1      31.446  28.716  25.386  1.00  0.00     0.151 C 
ATOM     21  C   UNL A   1      32.943  26.607  26.059  1.00  0.00     0.138 C 
ATOM     22  S   UNL A   1      31.353  27.303  26.485  1.00  0.00     0.151 S 
ATOM     23  O   UNL A   1      30.314  26.401  26.029  1.00  0.00    -0.229 OA
ATOM     24  O   UNL A   1      31.412  27.771  27.853  1.00  0.00    -0.229 OA
ENDBRANCH  17  18
ENDBRANCH  16  17
ENDBRANCH  13  16
ENDBRANCH  11  12
ENDBRANCH   6   7
ENDBRANCH   4   6
ENDBRANCH   1   2
BRANCH   1  25
ATOM     25  C   UNL A   1      38.164  20.082  25.055  1.00  0.00     0.042 C 
BRANCH  25  26
ATOM     26  C   UNL A   1      39.293  20.421  26.024  1.00  0.00     0.118 C 
BRANCH  26  27
ATOM     27  N   UNL A   1      40.371  19.443  26.017  1.00  0.00    -0.352 N 
ATOM     28  C   UNL A   1      41.729  19.610  26.132  1.00  0.00     0.251 C 
ATOM     29  H   UNL A   1      40.079  18.508  25.913  1.00  0.00     0.163 HD
ATOM     30  O   UNL A   1      42.462  18.639  25.960  1.00  0.00    -0.269 OA
BRANCH  28  31
ATOM     31  C   UNL A   1      42.319  20.936  26.433  1.00  0.00     0.039 A 
ATOM     32  C   UNL A   1      42.600  21.797  25.368  1.00  0.00     0.014 A 
ATOM     33  C   UNL A   1      42.632  21.329  27.737  1.00  0.00     0.014 A 
ATOM     34  C   UNL A   1      43.141  23.061  25.615  1.00  0.00     0.010 A 
ATOM     35  C   UNL A   1      43.091  22.621  27.989  1.00  0.00     0.010 A 
ATOM     36  C   UNL A   1      43.360  23.502  26.932  1.00  0.00    -0.014 A 
BRANCH  36  37
ATOM     37  C   UNL A   1      43.858  24.880  27.197  1.00  0.00     0.031 A 
ATOM     38  C   UNL A   1      45.312  25.227  27.002  1.00  0.00     0.074 A 
ATOM     39  C   UNL A   1      42.999  25.820  27.641  1.00  0.00     0.049 A 
ATOM     40  N   UNL A   1      45.914  26.379  27.162  1.00  0.00    -0.248 NA
ATOM     41  C   UNL A   1      46.212  24.137  26.596  1.00  0.00     0.031 C 
ATOM     42  C   UNL A   1      41.580  25.598  27.930  1.00  0.00     0.029 A 
ATOM     43  N   UNL A   1      43.188  27.150  27.923  1.00  0.00    -0.354 N 
ATOM     44  C   UNL A   1      47.256  26.152  26.882  1.00  0.00     0.074 A 
ATOM     45  C   UNL A   1      47.393  24.739  26.603  1.00  0.00     0.031 C 
ATOM     46  C   UNL A   1      41.020  26.757  28.309  1.00  0.00     0.029 A 
ATOM     47  C   UNL A   1      42.043  27.798  28.327  1.00  0.00     0.049 A 
ATOM     48  H   UNL A   1      44.060  27.600  27.845  1.00  0.00     0.167 HD
ATOM     49  C   UNL A   1      48.278  27.041  26.833  1.00  0.00     0.037 A 
ATOM     50  C   UNL A   1      41.836  29.084  28.674  1.00  0.00     0.037 A 
ATOM     51  C   UNL A   1      48.135  28.451  27.099  1.00  0.00     0.049 A 
ATOM     52  C   UNL A   1      42.986  30.053  28.610  1.00  0.00     0.074 A 
ATOM     53  C   UNL A   1      49.098  29.443  27.025  1.00  0.00     0.029 A 
ATOM     54  N   UNL A   1      46.959  29.069  27.499  1.00  0.00    -0.354 N 
ATOM     55  N   UNL A   1      44.234  29.833  28.268  1.00  0.00    -0.248 NA
ATOM     56  C   UNL A   1      42.697  31.448  28.967  1.00  0.00     0.031 C 
ATOM     57  C   UNL A   1      48.518  30.649  27.432  1.00  0.00     0.029 A 
ATOM     58  C   UNL A   1      47.178  30.424  27.698  1.00  0.00     0.049 A 
ATOM     59  H   UNL A   1      46.095  28.614  27.623  1.00  0.00     0.167 HD
ATOM     60  C   UNL A   1      44.871  31.068  28.340  1.00  0.00     0.074 A 
ATOM     61  C   UNL A   1      43.865  32.032  28.739  1.00  0.00     0.031 C 
ATOM     62  C   UNL A   1      46.170  31.376  28.098  1.00  0.00     0.037 A 
BRANCH  49  63
ATOM     63  C   UNL A   1      49.646  26.520  26.475  1.00  0.00     0.058 A 
ATOM     64  C   UNL A   1      50.531  26.034  27.453  1.00  0.00     0.135 A 
ATOM     65  C   UNL A   1      50.063  26.466  25.136  1.00  0.00     0.135 A 
ATOM     66  F   UNL A   1      50.193  26.073  28.752  1.00  0.00    -0.206 F 
ATOM     67  C   UNL A   1      51.788  25.541  27.117  1.00  0.00     0.059 A 
ATOM     68  C   UNL A   1      51.304  25.946  24.774  1.00  0.00     0.059 A 
ATOM     69  F   UNL A   1      49.261  26.915  24.158  1.00  0.00    -0.206 F 
ATOM     70  C   UNL A   1      52.165  25.499  25.774  1.00  0.00     0.060 A 
BRANCH  70  71
ATOM     71  S   UNL A   1      53.796  24.847  25.359  1.00  0.00     0.124 S 
ATOM     72  O   UNL A   1      54.183  25.714  24.250  1.00  0.00    -0.237 OA
ATOM     73  O   UNL A   1      54.535  25.040  26.602  1.00  0.00    -0.237 OA
ATOM     74  O   UNL A   1      53.527  23.457  25.002  1.00  0.00    -0.744 OA
ENDBRANCH  70  71
ENDBRANCH  49  63
BRANCH  50  75
ATOM     75  C   UNL A   1      40.478  29.537  29.083  1.00  0.00     0.058 A 
ATOM     76  C   UNL A   1      40.186  29.842  30.421  1.00  0.00     0.135 A 
ATOM     77  C   UNL A   1      39.447  29.681  28.142  1.00  0.00     0.135 A 
ATOM     78  F   UNL A   1      41.137  29.716  31.359  1.00  0.00    -0.206 F 
ATOM     79  C   UNL A   1      38.918  30.251  30.816  1.00  0.00     0.059 A 
ATOM     80  C   UNL A   1      38.177  30.118  28.508  1.00  0.00     0.059 A 
ATOM     81  F   UNL A   1      39.676  29.419  26.845  1.00  0.00    -0.206 F 
ATOM     82  C   UNL A   1      37.919  30.389  29.851  1.00  0.00     0.060 A 
BRANCH  82  83
ATOM     83  S   UNL A   1      36.287  30.963  30.369  1.00  0.00     0.124 S 
ATOM     84  O   UNL A   1      36.586  32.308  30.847  1.00  0.00    -0.237 OA
ATOM     85  O   UNL A   1      35.526  30.881  29.126  1.00  0.00    -0.237 OA
ATOM     86  O   UNL A   1      35.903  29.998  31.396  1.00  0.00    -0.744 OA
ENDBRANCH  82  83
ENDBRANCH  50  75
BRANCH  62  87
ATOM     87  C   UNL A   1      46.570  32.822  28.220  1.00  0.00     0.058 A 
ATOM     88  C   UNL A   1      47.088  33.353  29.413  1.00  0.00     0.135 A 
ATOM     89  C   UNL A   1      46.448  33.688  27.120  1.00  0.00     0.135 A 
ATOM     90  F   UNL A   1      47.225  32.572  30.497  1.00  0.00    -0.206 F 
ATOM     91  C   UNL A   1      47.427  34.697  29.525  1.00  0.00     0.059 A 
ATOM     92  C   UNL A   1      46.814  35.029  27.199  1.00  0.00     0.059 A 
ATOM     93  F   UNL A   1      45.972  33.233  25.950  1.00  0.00    -0.206 F 
ATOM     94  C   UNL A   1      47.282  35.529  28.412  1.00  0.00     0.060 A 
BRANCH  94  95
ATOM     95  S   UNL A   1      47.722  37.273  28.572  1.00  0.00     0.124 S 
ATOM     96  O   UNL A   1      47.250  37.812  27.301  1.00  0.00    -0.237 OA
ATOM     97  O   UNL A   1      46.965  37.678  29.753  1.00  0.00    -0.237 OA
ATOM     98  O   UNL A   1      49.171  37.245  28.743  1.00  0.00    -0.744 OA
ENDBRANCH  94  95
ENDBRANCH  62  87
ENDBRANCH  36  37
ENDBRANCH  28  31
ENDBRANCH  26  27
ENDBRANCH  25  26
ENDBRANCH   1  25
TORSDOF 18
ENDMDL
