MODEL 1
REMARK VINA RESULT:     -10.7      0.000      0.000
REMARK SMILES CC(C)c1cc2c(cc1Cl)C=C(C(=O)NCCCNC(=O)c1ccc(-c3c4nc(c(-c5c(F)cc(S(=O)(=O)[O-])cc5F)c5ccc([nH]5)c(-c5c(F)cc(S(=O)(=O)[O-])cc5F)c5nc(c(-c6c(F)cc(S(=O)(=O)[O-])cc6F)c6ccc3[nH]6)C=C5)C=C4)cc1)[C@@H](C(F)(F)F)O2
REMARK SMILES IDX 18 1 17 2 16 3 15 4 13 5 14 6 12 8 4 9 5 10 9 11 6 12 8 13
REMARK SMILES IDX 10 14 7 15 93 16 11 17 88 18 2 19 1 20 3 21 89 22 90 23
REMARK SMILES IDX 91 24 92 25 19 26 20 27 21 29 22 30 23 31 87 32 24 33 86 34
REMARK SMILES IDX 25 35 26 36 27 37 80 38 28 39 85 40 79 41 81 42 29 43 84 44
REMARK SMILES IDX 78 45 77 46 30 48 64 49 43 50 63 51 44 52 47 53 62 54 82 55
REMARK SMILES IDX 45 56 46 57 61 59 83 60 48 61 31 62 32 63 41 64 33 65 34 66
REMARK SMILES IDX 40 67 42 68 35 69 36 70 37 71 38 72 39 73 65 74 66 75 75 76
REMARK SMILES IDX 67 77 68 78 74 79 76 80 69 81 70 82 71 83 72 84 73 85 49 86
REMARK SMILES IDX 50 87 59 88 51 89 52 90 58 91 60 92 53 93 54 94 55 95 56 96
REMARK SMILES IDX 57 97
REMARK H PARENT 15 7 19 28 81 47 47 58
REMARK Flexibility Score: inf
ROOT
ATOM      1  C   UNL A   1      40.022  21.566  26.811  1.00  0.00     0.118 C 
ENDROOT
BRANCH   1   2
ATOM      2  C   UNL A   1      41.124  20.808  26.083  1.00  0.00     0.042 C 
BRANCH   2   3
ATOM      3  C   UNL A   1      42.389  20.664  26.916  1.00  0.00     0.118 C 
BRANCH   3   4
ATOM      4  N   UNL A   1      42.373  21.525  28.089  1.00  0.00    -0.352 N 
ATOM      5  C   UNL A   1      43.093  22.566  28.566  1.00  0.00     0.251 C 
ATOM      6  O   UNL A   1      42.701  23.025  29.644  1.00  0.00    -0.270 OA
ATOM      7  H   UNL A   1      41.639  21.284  28.701  1.00  0.00     0.163 HD
BRANCH   5   8
ATOM      8  C   UNL A   1      44.276  23.174  27.893  1.00  0.00     0.067 C 
ATOM      9  C   UNL A   1      48.544  25.705  26.856  1.00  0.00    -0.023 A 
ATOM     10  C   UNL A   1      47.762  24.731  26.192  1.00  0.00     0.052 A 
ATOM     11  C   UNL A   1      48.161  26.043  28.167  1.00  0.00     0.045 A 
ATOM     12  C   UNL A   1      46.641  24.157  26.789  1.00  0.00     0.128 A 
ATOM     13  C   UNL A   1      47.059  25.417  28.781  1.00  0.00     0.032 A 
ATOM     14  Cl  UNL A   1      48.943  27.242  29.132  1.00  0.00    -0.084 Cl
ATOM     15  C   UNL A   1      46.290  24.482  28.091  1.00  0.00     0.019 A 
ATOM     16  O   UNL A   1      45.932  23.263  26.041  1.00  0.00    -0.475 OA
ATOM     17  C   UNL A   1      45.135  23.831  28.696  1.00  0.00     0.025 C 
ATOM     18  C   UNL A   1      44.530  23.124  26.413  1.00  0.00     0.314 C 
BRANCH   9  19
ATOM     19  C   UNL A   1      49.686  26.285  26.024  1.00  0.00     0.014 C 
ATOM     20  C   UNL A   1      50.987  25.516  26.304  1.00  0.00     0.012 C 
ATOM     21  C   UNL A   1      49.510  26.441  24.514  1.00  0.00     0.012 C 
ENDBRANCH   9  19
BRANCH  18  22
ATOM     22  C   UNL A   1      43.684  24.153  25.636  1.00  0.00     0.429 C 
ATOM     23  F   UNL A   1      43.459  25.255  26.392  1.00  0.00    -0.167 F 
ATOM     24  F   UNL A   1      44.294  24.581  24.505  1.00  0.00    -0.167 F 
ATOM     25  F   UNL A   1      42.477  23.668  25.262  1.00  0.00    -0.167 F 
ENDBRANCH  18  22
ENDBRANCH   5   8
ENDBRANCH   3   4
ENDBRANCH   2   3
ENDBRANCH   1   2
BRANCH   1  26
ATOM     26  N   UNL A   1      39.082  22.201  25.889  1.00  0.00    -0.352 N 
ATOM     27  C   UNL A   1      38.594  23.485  25.859  1.00  0.00     0.251 C 
ATOM     28  H   UNL A   1      38.744  21.613  25.175  1.00  0.00     0.163 HD
ATOM     29  O   UNL A   1      37.649  23.758  25.123  1.00  0.00    -0.269 OA
BRANCH  27  30
ATOM     30  C   UNL A   1      39.191  24.526  26.722  1.00  0.00     0.039 A 
ATOM     31  C   UNL A   1      38.926  24.541  28.090  1.00  0.00     0.014 A 
ATOM     32  C   UNL A   1      40.024  25.497  26.159  1.00  0.00     0.014 A 
ATOM     33  C   UNL A   1      39.323  25.628  28.854  1.00  0.00     0.010 A 
ATOM     34  C   UNL A   1      40.519  26.534  26.958  1.00  0.00     0.010 A 
ATOM     35  C   UNL A   1      40.131  26.635  28.302  1.00  0.00    -0.014 A 
BRANCH  35  36
ATOM     36  C   UNL A   1      40.546  27.769  29.167  1.00  0.00     0.031 A 
ATOM     37  C   UNL A   1      39.639  28.951  29.384  1.00  0.00     0.074 A 
ATOM     38  C   UNL A   1      41.714  27.679  29.837  1.00  0.00     0.049 A 
ATOM     39  N   UNL A   1      39.817  29.991  30.159  1.00  0.00    -0.248 NA
ATOM     40  C   UNL A   1      38.372  28.976  28.636  1.00  0.00     0.031 C 
ATOM     41  C   UNL A   1      42.672  26.576  29.708  1.00  0.00     0.029 A 
ATOM     42  N   UNL A   1      42.273  28.489  30.790  1.00  0.00    -0.354 N 
ATOM     43  C   UNL A   1      38.702  30.800  29.975  1.00  0.00     0.074 A 
ATOM     44  C   UNL A   1      37.862  30.146  28.996  1.00  0.00     0.031 C 
ATOM     45  C   UNL A   1      43.649  26.733  30.611  1.00  0.00     0.029 A 
ATOM     46  C   UNL A   1      43.432  27.984  31.330  1.00  0.00     0.049 A 
ATOM     47  H   UNL A   1      41.883  29.351  31.062  1.00  0.00     0.167 HD
ATOM     48  C   UNL A   1      38.400  31.975  30.580  1.00  0.00     0.037 A 
ATOM     49  C   UNL A   1      44.238  28.471  32.292  1.00  0.00     0.037 A 
ATOM     50  C   UNL A   1      39.227  32.603  31.578  1.00  0.00     0.049 A 
ATOM     51  C   UNL A   1      43.892  29.784  32.929  1.00  0.00     0.074 A 
ATOM     52  C   UNL A   1      39.003  33.787  32.258  1.00  0.00     0.029 A 
ATOM     53  N   UNL A   1      40.430  32.094  32.046  1.00  0.00    -0.354 N 
ATOM     54  N   UNL A   1      42.840  30.541  32.731  1.00  0.00    -0.248 NA
ATOM     55  C   UNL A   1      44.850  30.322  33.904  1.00  0.00     0.031 C 
ATOM     56  C   UNL A   1      40.089  34.012  33.113  1.00  0.00     0.029 A 
ATOM     57  C   UNL A   1      40.968  32.948  32.993  1.00  0.00     0.049 A 
ATOM     58  H   UNL A   1      40.840  31.250  31.748  1.00  0.00     0.167 HD
ATOM     59  C   UNL A   1      43.009  31.648  33.552  1.00  0.00     0.074 A 
ATOM     60  C   UNL A   1      44.253  31.450  34.269  1.00  0.00     0.031 C 
ATOM     61  C   UNL A   1      42.212  32.735  33.690  1.00  0.00     0.037 A 
BRANCH  48  62
ATOM     62  C   UNL A   1      37.128  32.666  30.176  1.00  0.00     0.058 A 
ATOM     63  C   UNL A   1      35.907  32.396  30.814  1.00  0.00     0.135 A 
ATOM     64  C   UNL A   1      37.137  33.649  29.172  1.00  0.00     0.135 A 
ATOM     65  F   UNL A   1      35.839  31.454  31.768  1.00  0.00    -0.206 F 
ATOM     66  C   UNL A   1      34.738  33.062  30.461  1.00  0.00     0.059 A 
ATOM     67  C   UNL A   1      35.984  34.344  28.817  1.00  0.00     0.059 A 
ATOM     68  F   UNL A   1      38.277  33.946  28.528  1.00  0.00    -0.206 F 
ATOM     69  C   UNL A   1      34.787  34.035  29.461  1.00  0.00     0.060 A 
BRANCH  69  70
ATOM     70  S   UNL A   1      33.261  34.894  29.021  1.00  0.00     0.124 S 
ATOM     71  O   UNL A   1      33.777  36.163  28.515  1.00  0.00    -0.237 OA
ATOM     72  O   UNL A   1      32.679  34.004  28.021  1.00  0.00    -0.237 OA
ATOM     73  O   UNL A   1      32.536  34.973  30.286  1.00  0.00    -0.744 OA
ENDBRANCH  69  70
ENDBRANCH  48  62
BRANCH  49  74
ATOM     74  C   UNL A   1      45.445  27.706  32.699  1.00  0.00     0.058 A 
ATOM     75  C   UNL A   1      45.388  26.766  33.737  1.00  0.00     0.135 A 
ATOM     76  C   UNL A   1      46.665  27.861  32.022  1.00  0.00     0.135 A 
ATOM     77  F   UNL A   1      44.245  26.586  34.417  1.00  0.00    -0.206 F 
ATOM     78  C   UNL A   1      46.496  26.002  34.089  1.00  0.00     0.059 A 
ATOM     79  C   UNL A   1      47.780  27.092  32.338  1.00  0.00     0.059 A 
ATOM     80  F   UNL A   1      46.766  28.737  31.010  1.00  0.00    -0.206 F 
ATOM     81  C   UNL A   1      47.686  26.167  33.377  1.00  0.00     0.060 A 
BRANCH  81  82
ATOM     82  S   UNL A   1      49.097  25.118  33.789  1.00  0.00     0.124 S 
ATOM     83  O   UNL A   1      49.818  25.956  34.740  1.00  0.00    -0.237 OA
ATOM     84  O   UNL A   1      48.447  23.934  34.343  1.00  0.00    -0.237 OA
ATOM     85  O   UNL A   1      49.752  24.917  32.499  1.00  0.00    -0.744 OA
ENDBRANCH  81  82
ENDBRANCH  49  74
BRANCH  61  86
ATOM     86  C   UNL A   1      42.661  33.799  34.648  1.00  0.00     0.058 A 
ATOM     87  C   UNL A   1      43.419  34.896  34.212  1.00  0.00     0.135 A 
ATOM     88  C   UNL A   1      42.269  33.761  35.995  1.00  0.00     0.135 A 
ATOM     89  F   UNL A   1      43.825  34.972  32.935  1.00  0.00    -0.206 F 
ATOM     90  C   UNL A   1      43.780  35.918  35.082  1.00  0.00     0.059 A 
ATOM     91  C   UNL A   1      42.601  34.783  36.878  1.00  0.00     0.059 A 
ATOM     92  F   UNL A   1      41.537  32.734  36.457  1.00  0.00    -0.206 F 
ATOM     93  C   UNL A   1      43.360  35.856  36.413  1.00  0.00     0.060 A 
BRANCH  93  94
ATOM     94  S   UNL A   1      43.789  37.217  37.516  1.00  0.00     0.124 S 
ATOM     95  O   UNL A   1      42.560  37.371  38.287  1.00  0.00    -0.237 OA
ATOM     96  O   UNL A   1      44.933  36.679  38.245  1.00  0.00    -0.237 OA
ATOM     97  O   UNL A   1      44.097  38.313  36.600  1.00  0.00    -0.744 OA
ENDBRANCH  93  94
ENDBRANCH  61  86
ENDBRANCH  35  36
ENDBRANCH  27  30
ENDBRANCH   1  26
TORSDOF 15
ENDMDL
MODEL 2
REMARK VINA RESULT:     -10.7      5.599     11.868
REMARK SMILES CC(C)c1cc2c(cc1Cl)C=C(C(=O)NCCCNC(=O)c1ccc(-c3c4nc(c(-c5c(F)cc(S(=O)(=O)[O-])cc5F)c5ccc([nH]5)c(-c5c(F)cc(S(=O)(=O)[O-])cc5F)c5nc(c(-c6c(F)cc(S(=O)(=O)[O-])cc6F)c6ccc3[nH]6)C=C5)C=C4)cc1)[C@@H](C(F)(F)F)O2
REMARK SMILES IDX 18 1 17 2 16 3 15 4 13 5 14 6 12 8 4 9 5 10 9 11 6 12 8 13
REMARK SMILES IDX 10 14 7 15 93 16 11 17 88 18 2 19 1 20 3 21 89 22 90 23
REMARK SMILES IDX 91 24 92 25 19 26 20 27 21 29 22 30 23 31 87 32 24 33 86 34
REMARK SMILES IDX 25 35 26 36 27 37 80 38 28 39 85 40 79 41 81 42 29 43 84 44
REMARK SMILES IDX 78 45 77 46 30 48 64 49 43 50 63 51 44 52 47 53 62 54 82 55
REMARK SMILES IDX 45 56 46 57 61 59 83 60 48 61 31 62 32 63 41 64 33 65 34 66
REMARK SMILES IDX 40 67 42 68 35 69 36 70 37 71 38 72 39 73 65 74 66 75 75 76
REMARK SMILES IDX 67 77 68 78 74 79 76 80 69 81 70 82 71 83 72 84 73 85 49 86
REMARK SMILES IDX 50 87 59 88 51 89 52 90 58 91 60 92 53 93 54 94 55 95 56 96
REMARK SMILES IDX 57 97
REMARK H PARENT 15 7 19 28 81 47 47 58
REMARK Flexibility Score: inf
ROOT
ATOM      1  C   UNL A   1      34.967  29.362  27.658  1.00  0.00     0.118 C 
ENDROOT
BRANCH   1   2
ATOM      2  C   UNL A   1      34.036  30.066  26.679  1.00  0.00     0.042 C 
BRANCH   2   3
ATOM      3  C   UNL A   1      32.585  30.048  27.132  1.00  0.00     0.118 C 
BRANCH   3   4
ATOM      4  N   UNL A   1      31.662  30.266  26.028  1.00  0.00    -0.352 N 
ATOM      5  C   UNL A   1      31.187  29.558  24.977  1.00  0.00     0.251 C 
ATOM      6  O   UNL A   1      30.371  30.156  24.268  1.00  0.00    -0.270 OA
ATOM      7  H   UNL A   1      31.281  31.174  26.052  1.00  0.00     0.163 HD
BRANCH   5   8
ATOM      8  C   UNL A   1      31.566  28.156  24.643  1.00  0.00     0.067 C 
ATOM      9  C   UNL A   1      32.607  23.197  24.828  1.00  0.00    -0.023 A 
ATOM     10  C   UNL A   1      32.364  24.140  23.801  1.00  0.00     0.052 A 
ATOM     11  C   UNL A   1      32.451  23.646  26.153  1.00  0.00     0.045 A 
ATOM     12  C   UNL A   1      32.025  25.461  24.082  1.00  0.00     0.128 A 
ATOM     13  C   UNL A   1      32.055  24.970  26.425  1.00  0.00     0.032 A 
ATOM     14  Cl  UNL A   1      32.750  22.677  27.551  1.00  0.00    -0.084 Cl
ATOM     15  C   UNL A   1      31.853  25.883  25.393  1.00  0.00     0.019 A 
ATOM     16  O   UNL A   1      31.860  26.298  23.017  1.00  0.00    -0.475 OA
ATOM     17  C   UNL A   1      31.458  27.264  25.647  1.00  0.00     0.025 C 
ATOM     18  C   UNL A   1      32.078  27.710  23.302  1.00  0.00     0.314 C 
BRANCH   9  19
ATOM     19  C   UNL A   1      33.045  21.818  24.341  1.00  0.00     0.014 C 
ATOM     20  C   UNL A   1      34.537  21.602  24.639  1.00  0.00     0.012 C 
ATOM     21  C   UNL A   1      32.261  20.583  24.785  1.00  0.00     0.012 C 
ENDBRANCH   9  19
BRANCH  18  22
ATOM     22  C   UNL A   1      33.567  28.056  23.097  1.00  0.00     0.429 C 
ATOM     23  F   UNL A   1      33.743  29.399  23.052  1.00  0.00    -0.167 F 
ATOM     24  F   UNL A   1      34.351  27.599  24.103  1.00  0.00    -0.167 F 
ATOM     25  F   UNL A   1      34.074  27.544  21.951  1.00  0.00    -0.167 F 
ENDBRANCH  18  22
ENDBRANCH   5   8
ENDBRANCH   3   4
ENDBRANCH   2   3
ENDBRANCH   1   2
BRANCH   1  26
ATOM     26  N   UNL A   1      35.159  30.126  28.889  1.00  0.00    -0.352 N 
ATOM     27  C   UNL A   1      36.269  30.261  29.689  1.00  0.00     0.251 C 
ATOM     28  H   UNL A   1      34.366  30.624  29.194  1.00  0.00     0.163 HD
ATOM     29  O   UNL A   1      36.158  30.784  30.795  1.00  0.00    -0.269 OA
BRANCH  27  30
ATOM     30  C   UNL A   1      37.581  29.763  29.228  1.00  0.00     0.039 A 
ATOM     31  C   UNL A   1      38.478  29.204  30.136  1.00  0.00     0.014 A 
ATOM     32  C   UNL A   1      37.920  29.855  27.875  1.00  0.00     0.014 A 
ATOM     33  C   UNL A   1      39.776  28.924  29.736  1.00  0.00     0.010 A 
ATOM     34  C   UNL A   1      39.195  29.465  27.451  1.00  0.00     0.010 A 
ATOM     35  C   UNL A   1      40.151  29.043  28.387  1.00  0.00    -0.014 A 
BRANCH  35  36
ATOM     36  C   UNL A   1      41.548  28.713  28.005  1.00  0.00     0.031 A 
ATOM     37  C   UNL A   1      42.647  29.735  28.130  1.00  0.00     0.074 A 
ATOM     38  C   UNL A   1      41.837  27.449  27.634  1.00  0.00     0.049 A 
ATOM     39  N   UNL A   1      43.929  29.593  27.905  1.00  0.00    -0.248 NA
ATOM     40  C   UNL A   1      42.264  31.090  28.558  1.00  0.00     0.031 C 
ATOM     41  C   UNL A   1      40.851  26.373  27.483  1.00  0.00     0.029 A 
ATOM     42  N   UNL A   1      43.033  26.837  27.367  1.00  0.00    -0.354 N 
ATOM     43  C   UNL A   1      44.499  30.839  28.141  1.00  0.00     0.074 A 
ATOM     44  C   UNL A   1      43.422  31.734  28.502  1.00  0.00     0.031 C 
ATOM     45  C   UNL A   1      41.490  25.221  27.240  1.00  0.00     0.029 A 
ATOM     46  C   UNL A   1      42.921  25.485  27.142  1.00  0.00     0.049 A 
ATOM     47  H   UNL A   1      43.891  27.319  27.339  1.00  0.00     0.167 HD
ATOM     48  C   UNL A   1      45.804  31.197  28.075  1.00  0.00     0.037 A 
ATOM     49  C   UNL A   1      43.862  24.558  26.879  1.00  0.00     0.037 A 
ATOM     50  C   UNL A   1      46.874  30.291  27.746  1.00  0.00     0.049 A 
ATOM     51  C   UNL A   1      45.296  24.986  26.791  1.00  0.00     0.074 A 
ATOM     52  C   UNL A   1      48.230  30.555  27.665  1.00  0.00     0.029 A 
ATOM     53  N   UNL A   1      46.710  28.945  27.455  1.00  0.00    -0.354 N 
ATOM     54  N   UNL A   1      45.813  26.173  27.003  1.00  0.00    -0.248 NA
ATOM     55  C   UNL A   1      46.273  23.960  26.407  1.00  0.00     0.031 C 
ATOM     56  C   UNL A   1      48.883  29.375  27.290  1.00  0.00     0.029 A 
ATOM     57  C   UNL A   1      47.938  28.368  27.177  1.00  0.00     0.049 A 
ATOM     58  H   UNL A   1      45.848  28.469  27.446  1.00  0.00     0.167 HD
ATOM     59  C   UNL A   1      47.176  26.039  26.775  1.00  0.00     0.074 A 
ATOM     60  C   UNL A   1      47.407  24.650  26.433  1.00  0.00     0.031 C 
ATOM     61  C   UNL A   1      48.145  26.984  26.832  1.00  0.00     0.037 A 
BRANCH  48  62
ATOM     62  C   UNL A   1      46.152  32.633  28.356  1.00  0.00     0.058 A 
ATOM     63  C   UNL A   1      46.160  33.602  27.341  1.00  0.00     0.135 A 
ATOM     64  C   UNL A   1      46.429  33.057  29.667  1.00  0.00     0.135 A 
ATOM     65  F   UNL A   1      45.920  33.247  26.069  1.00  0.00    -0.206 F 
ATOM     66  C   UNL A   1      46.450  34.935  27.610  1.00  0.00     0.059 A 
ATOM     67  C   UNL A   1      46.699  34.390  29.963  1.00  0.00     0.059 A 
ATOM     68  F   UNL A   1      46.436  32.172  30.676  1.00  0.00    -0.206 F 
ATOM     69  C   UNL A   1      46.717  35.320  28.925  1.00  0.00     0.060 A 
BRANCH  69  70
ATOM     70  S   UNL A   1      47.082  37.057  29.257  1.00  0.00     0.124 S 
ATOM     71  O   UNL A   1      45.889  37.712  28.726  1.00  0.00    -0.237 OA
ATOM     72  O   UNL A   1      47.220  37.075  30.709  1.00  0.00    -0.237 OA
ATOM     73  O   UNL A   1      48.313  37.297  28.508  1.00  0.00    -0.744 OA
ENDBRANCH  69  70
ENDBRANCH  48  62
BRANCH  49  74
ATOM     74  C   UNL A   1      43.462  23.141  26.681  1.00  0.00     0.058 A 
ATOM     75  C   UNL A   1      43.487  22.556  25.407  1.00  0.00     0.135 A 
ATOM     76  C   UNL A   1      43.100  22.329  27.767  1.00  0.00     0.135 A 
ATOM     77  F   UNL A   1      43.822  23.293  24.337  1.00  0.00    -0.206 F 
ATOM     78  C   UNL A   1      43.170  21.214  25.216  1.00  0.00     0.059 A 
ATOM     79  C   UNL A   1      42.803  20.980  27.607  1.00  0.00     0.059 A 
ATOM     80  F   UNL A   1      43.076  22.839  29.009  1.00  0.00    -0.206 F 
ATOM     81  C   UNL A   1      42.838  20.433  26.325  1.00  0.00     0.060 A 
BRANCH  81  82
ATOM     82  S   UNL A   1      42.504  18.675  26.078  1.00  0.00     0.124 S 
ATOM     83  O   UNL A   1      43.400  18.359  24.972  1.00  0.00    -0.237 OA
ATOM     84  O   UNL A   1      42.862  18.109  27.375  1.00  0.00    -0.237 OA
ATOM     85  O   UNL A   1      41.077  18.647  25.764  1.00  0.00    -0.744 OA
ENDBRANCH  81  82
ENDBRANCH  49  74
BRANCH  61  86
ATOM     86  C   UNL A   1      49.546  26.551  26.513  1.00  0.00     0.058 A 
ATOM     87  C   UNL A   1      50.357  25.941  27.482  1.00  0.00     0.135 A 
ATOM     88  C   UNL A   1      50.056  26.680  25.211  1.00  0.00     0.135 A 
ATOM     89  F   UNL A   1      49.916  25.804  28.742  1.00  0.00    -0.206 F 
ATOM     90  C   UNL A   1      51.630  25.478  27.172  1.00  0.00     0.059 A 
ATOM     91  C   UNL A   1      51.318  26.206  24.875  1.00  0.00     0.059 A 
ATOM     92  F   UNL A   1      49.314  27.253  24.249  1.00  0.00    -0.206 F 
ATOM     93  C   UNL A   1      52.100  25.609  25.864  1.00  0.00     0.060 A 
BRANCH  93  94
ATOM     94  S   UNL A   1      53.733  24.953  25.465  1.00  0.00     0.124 S 
ATOM     95  O   UNL A   1      54.054  25.681  24.242  1.00  0.00    -0.237 OA
ATOM     96  O   UNL A   1      54.512  25.318  26.644  1.00  0.00    -0.237 OA
ATOM     97  O   UNL A   1      53.493  23.522  25.299  1.00  0.00    -0.744 OA
ENDBRANCH  93  94
ENDBRANCH  61  86
ENDBRANCH  35  36
ENDBRANCH  27  30
ENDBRANCH   1  26
TORSDOF 15
ENDMDL
MODEL 3
REMARK VINA RESULT:     -10.7      3.613     11.184
REMARK SMILES CC(C)c1cc2c(cc1Cl)C=C(C(=O)NCCCNC(=O)c1ccc(-c3c4nc(c(-c5c(F)cc(S(=O)(=O)[O-])cc5F)c5ccc([nH]5)c(-c5c(F)cc(S(=O)(=O)[O-])cc5F)c5nc(c(-c6c(F)cc(S(=O)(=O)[O-])cc6F)c6ccc3[nH]6)C=C5)C=C4)cc1)[C@@H](C(F)(F)F)O2
REMARK SMILES IDX 18 1 17 2 16 3 15 4 13 5 14 6 12 8 4 9 5 10 9 11 6 12 8 13
REMARK SMILES IDX 10 14 7 15 93 16 11 17 88 18 2 19 1 20 3 21 89 22 90 23
REMARK SMILES IDX 91 24 92 25 19 26 20 27 21 29 22 30 23 31 87 32 24 33 86 34
REMARK SMILES IDX 25 35 26 36 27 37 80 38 28 39 85 40 79 41 81 42 29 43 84 44
REMARK SMILES IDX 78 45 77 46 30 48 64 49 43 50 63 51 44 52 47 53 62 54 82 55
REMARK SMILES IDX 45 56 46 57 61 59 83 60 48 61 31 62 32 63 41 64 33 65 34 66
REMARK SMILES IDX 40 67 42 68 35 69 36 70 37 71 38 72 39 73 65 74 66 75 75 76
REMARK SMILES IDX 67 77 68 78 74 79 76 80 69 81 70 82 71 83 72 84 73 85 49 86
REMARK SMILES IDX 50 87 59 88 51 89 52 90 58 91 60 92 53 93 54 94 55 95 56 96
REMARK SMILES IDX 57 97
REMARK H PARENT 15 7 19 28 81 47 47 58
REMARK Flexibility Score: inf
ROOT
ATOM      1  C   UNL A   1      34.284  32.362  28.008  1.00  0.00     0.118 C 
ENDROOT
BRANCH   1   2
ATOM      2  C   UNL A   1      35.043  32.579  29.311  1.00  0.00     0.042 C 
BRANCH   2   3
ATOM      3  C   UNL A   1      34.598  33.833  30.047  1.00  0.00     0.118 C 
BRANCH   3   4
ATOM      4  N   UNL A   1      34.053  33.532  31.363  1.00  0.00    -0.352 N 
ATOM      5  C   UNL A   1      34.523  33.112  32.560  1.00  0.00     0.251 C 
ATOM      6  O   UNL A   1      33.672  32.999  33.448  1.00  0.00    -0.270 OA
ATOM      7  H   UNL A   1      33.078  33.671  31.388  1.00  0.00     0.163 HD
BRANCH   5   8
ATOM      8  C   UNL A   1      35.949  32.800  32.862  1.00  0.00     0.067 C 
ATOM      9  C   UNL A   1      40.436  30.511  33.437  1.00  0.00    -0.023 A 
ATOM     10  C   UNL A   1      39.980  31.850  33.429  1.00  0.00     0.052 A 
ATOM     11  C   UNL A   1      39.491  29.516  33.127  1.00  0.00     0.045 A 
ATOM     12  C   UNL A   1      38.651  32.172  33.167  1.00  0.00     0.128 A 
ATOM     13  C   UNL A   1      38.161  29.856  32.810  1.00  0.00     0.032 A 
ATOM     14  Cl  UNL A   1      39.823  27.821  33.134  1.00  0.00    -0.084 Cl
ATOM     15  C   UNL A   1      37.735  31.182  32.841  1.00  0.00     0.019 A 
ATOM     16  O   UNL A   1      38.308  33.492  33.232  1.00  0.00    -0.475 OA
ATOM     17  C   UNL A   1      36.361  31.561  32.532  1.00  0.00     0.025 C 
ATOM     18  C   UNL A   1      36.905  33.751  33.525  1.00  0.00     0.314 C 
BRANCH   9  19
ATOM     19  C   UNL A   1      41.904  30.336  33.822  1.00  0.00     0.014 C 
ATOM     20  C   UNL A   1      42.016  29.900  35.291  1.00  0.00     0.012 C 
ATOM     21  C   UNL A   1      42.802  29.446  32.964  1.00  0.00     0.012 C 
ENDBRANCH   9  19
BRANCH  18  22
ATOM     22  C   UNL A   1      36.700  33.821  35.053  1.00  0.00     0.429 C 
ATOM     23  F   UNL A   1      35.535  34.446  35.350  1.00  0.00    -0.167 F 
ATOM     24  F   UNL A   1      36.635  32.595  35.625  1.00  0.00    -0.167 F 
ATOM     25  F   UNL A   1      37.690  34.490  35.687  1.00  0.00    -0.167 F 
ENDBRANCH  18  22
ENDBRANCH   5   8
ENDBRANCH   3   4
ENDBRANCH   2   3
ENDBRANCH   1   2
BRANCH   1  26
ATOM     26  N   UNL A   1      33.731  31.012  27.906  1.00  0.00    -0.352 N 
ATOM     27  C   UNL A   1      34.361  29.791  27.883  1.00  0.00     0.251 C 
ATOM     28  H   UNL A   1      32.749  30.972  27.844  1.00  0.00     0.163 HD
ATOM     29  O   UNL A   1      33.724  28.786  27.581  1.00  0.00    -0.269 OA
BRANCH  27  30
ATOM     30  C   UNL A   1      35.800  29.693  28.202  1.00  0.00     0.039 A 
ATOM     31  C   UNL A   1      36.756  29.984  27.230  1.00  0.00     0.014 A 
ATOM     32  C   UNL A   1      36.201  29.305  29.483  1.00  0.00     0.014 A 
ATOM     33  C   UNL A   1      38.091  29.698  27.473  1.00  0.00     0.010 A 
ATOM     34  C   UNL A   1      37.560  29.126  29.762  1.00  0.00     0.010 A 
ATOM     35  C   UNL A   1      38.514  29.273  28.743  1.00  0.00    -0.014 A 
BRANCH  35  36
ATOM     36  C   UNL A   1      39.958  28.999  28.959  1.00  0.00     0.031 A 
ATOM     37  C   UNL A   1      40.562  27.677  28.566  1.00  0.00     0.074 A 
ATOM     38  C   UNL A   1      40.743  29.992  29.424  1.00  0.00     0.049 A 
ATOM     39  N   UNL A   1      41.813  27.298  28.623  1.00  0.00    -0.248 NA
ATOM     40  C   UNL A   1      39.650  26.645  28.048  1.00  0.00     0.031 C 
ATOM     41  C   UNL A   1      40.266  31.318  29.832  1.00  0.00     0.029 A 
ATOM     42  N   UNL A   1      42.102  30.068  29.585  1.00  0.00    -0.354 N 
ATOM     43  C   UNL A   1      41.836  25.983  28.171  1.00  0.00     0.074 A 
ATOM     44  C   UNL A   1      40.470  25.618  27.868  1.00  0.00     0.031 C 
ATOM     45  C   UNL A   1      41.319  32.099  30.109  1.00  0.00     0.029 A 
ATOM     46  C   UNL A   1      42.540  31.312  29.974  1.00  0.00     0.049 A 
ATOM     47  H   UNL A   1      42.706  29.305  29.438  1.00  0.00     0.167 HD
ATOM     48  C   UNL A   1      42.902  25.162  28.011  1.00  0.00     0.037 A 
ATOM     49  C   UNL A   1      43.785  31.772  30.203  1.00  0.00     0.037 A 
ATOM     50  C   UNL A   1      44.263  25.545  28.285  1.00  0.00     0.049 A 
ATOM     51  C   UNL A   1      44.944  30.836  30.039  1.00  0.00     0.074 A 
ATOM     52  C   UNL A   1      45.413  24.789  28.143  1.00  0.00     0.029 A 
ATOM     53  N   UNL A   1      44.658  26.792  28.745  1.00  0.00    -0.354 N 
ATOM     54  N   UNL A   1      44.942  29.591  29.625  1.00  0.00    -0.248 NA
ATOM     55  C   UNL A   1      46.272  31.354  30.393  1.00  0.00     0.031 C 
ATOM     56  C   UNL A   1      46.501  25.569  28.551  1.00  0.00     0.029 A 
ATOM     57  C   UNL A   1      46.032  26.823  28.909  1.00  0.00     0.049 A 
ATOM     58  H   UNL A   1      44.050  27.545  28.928  1.00  0.00     0.167 HD
ATOM     59  C   UNL A   1      46.266  29.175  29.672  1.00  0.00     0.074 A 
ATOM     60  C   UNL A   1      47.045  30.308  30.130  1.00  0.00     0.031 C 
ATOM     61  C   UNL A   1      46.787  27.960  29.373  1.00  0.00     0.037 A 
BRANCH  48  62
ATOM     62  C   UNL A   1      42.642  23.763  27.525  1.00  0.00     0.058 A 
ATOM     63  C   UNL A   1      42.644  23.444  26.159  1.00  0.00     0.135 A 
ATOM     64  C   UNL A   1      42.442  22.715  28.440  1.00  0.00     0.135 A 
ATOM     65  F   UNL A   1      42.813  24.410  25.241  1.00  0.00    -0.206 F 
ATOM     66  C   UNL A   1      42.437  22.143  25.714  1.00  0.00     0.059 A 
ATOM     67  C   UNL A   1      42.256  21.401  28.019  1.00  0.00     0.059 A 
ATOM     68  F   UNL A   1      42.430  22.963  29.759  1.00  0.00    -0.206 F 
ATOM     69  C   UNL A   1      42.245  21.127  26.653  1.00  0.00     0.060 A 
BRANCH  69  70
ATOM     70  S   UNL A   1      41.986  19.442  26.057  1.00  0.00     0.124 S 
ATOM     71  O   UNL A   1      42.857  19.411  24.885  1.00  0.00    -0.237 OA
ATOM     72  O   UNL A   1      42.427  18.639  27.193  1.00  0.00    -0.237 OA
ATOM     73  O   UNL A   1      40.555  19.395  25.775  1.00  0.00    -0.744 OA
ENDBRANCH  69  70
ENDBRANCH  48  62
BRANCH  49  74
ATOM     74  C   UNL A   1      43.982  33.187  30.612  1.00  0.00     0.058 A 
ATOM     75  C   UNL A   1      44.102  33.536  31.964  1.00  0.00     0.135 A 
ATOM     76  C   UNL A   1      44.109  34.209  29.658  1.00  0.00     0.135 A 
ATOM     77  F   UNL A   1      43.983  32.595  32.914  1.00  0.00    -0.206 F 
ATOM     78  C   UNL A   1      44.344  34.849  32.358  1.00  0.00     0.059 A 
ATOM     79  C   UNL A   1      44.376  35.523  30.024  1.00  0.00     0.059 A 
ATOM     80  F   UNL A   1      44.017  33.922  28.350  1.00  0.00    -0.206 F 
ATOM     81  C   UNL A   1      44.488  35.834  31.379  1.00  0.00     0.060 A 
BRANCH  81  82
ATOM     82  S   UNL A   1      44.879  37.520  31.895  1.00  0.00     0.124 S 
ATOM     83  O   UNL A   1      43.586  37.982  32.389  1.00  0.00    -0.237 OA
ATOM     84  O   UNL A   1      45.909  37.301  32.905  1.00  0.00    -0.237 OA
ATOM     85  O   UNL A   1      45.345  38.148  30.661  1.00  0.00    -0.744 OA
ENDBRANCH  81  82
ENDBRANCH  49  74
BRANCH  61  86
ATOM     86  C   UNL A   1      48.269  27.788  29.538  1.00  0.00     0.058 A 
ATOM     87  C   UNL A   1      48.811  27.243  30.711  1.00  0.00     0.135 A 
ATOM     88  C   UNL A   1      49.146  28.101  28.488  1.00  0.00     0.135 A 
ATOM     89  F   UNL A   1      48.013  26.936  31.746  1.00  0.00    -0.206 F 
ATOM     90  C   UNL A   1      50.177  27.020  30.841  1.00  0.00     0.059 A 
ATOM     91  C   UNL A   1      50.512  27.866  28.589  1.00  0.00     0.059 A 
ATOM     92  F   UNL A   1      48.672  28.619  27.343  1.00  0.00    -0.206 F 
ATOM     93  C   UNL A   1      51.019  27.329  29.771  1.00  0.00     0.060 A 
BRANCH  93  94
ATOM     94  S   UNL A   1      52.782  26.981  29.935  1.00  0.00     0.124 S 
ATOM     95  O   UNL A   1      53.336  28.323  30.079  1.00  0.00    -0.237 OA
ATOM     96  O   UNL A   1      52.825  26.145  31.130  1.00  0.00    -0.237 OA
ATOM     97  O   UNL A   1      53.111  26.297  28.687  1.00  0.00    -0.744 OA
ENDBRANCH  93  94
ENDBRANCH  61  86
ENDBRANCH  35  36
ENDBRANCH  27  30
ENDBRANCH   1  26
TORSDOF 15
ENDMDL
