MODEL 1
REMARK VINA RESULT:     -12.9      0.000      0.000
REMARK SMILES COc1cc2c(cc1OC)[C@H](c1cccc([N+](=O)[O-])c1)N(C(=O)CCC(=O)NCCCNC(=O)c1ccc(-c3c4nc(c(-c5c(F)cc(S(=O)(=O)[O-])cc5F)c5ccc([nH]5)c(-c5c(F)cc(S(=O)(=O)[O-])cc5F)c5nc(c(-c6c(F)cc(S(=O)(=O)[O-])cc6F)c6ccc3[nH]6)C=C5)C=C4)cc1)CC2
REMARK SMILES IDX 29 1 28 2 26 3 27 4 25 6 24 7 22 8 23 9 21 10 3 11 4 12 8 13
REMARK SMILES IDX 5 14 7 15 6 16 102 17 11 18 101 19 2 20 1 21 9 22 10 23
REMARK SMILES IDX 12 24 13 25 20 26 14 27 16 28 15 29 17 30 18 31 19 32 30 33
REMARK SMILES IDX 31 34 32 35 33 36 34 38 35 39 36 40 100 41 37 42 99 43 38 44
REMARK SMILES IDX 39 45 40 46 93 47 41 48 98 49 92 50 94 51 42 52 97 53 91 54
REMARK SMILES IDX 90 55 43 57 77 58 56 59 76 60 57 61 60 62 75 63 95 64 58 65
REMARK SMILES IDX 59 66 74 68 96 69 61 70 44 71 45 72 54 73 46 74 47 75 53 76
REMARK SMILES IDX 55 77 48 78 49 79 50 80 51 81 52 82 78 83 79 84 88 85 80 86
REMARK SMILES IDX 81 87 87 88 89 89 82 90 83 91 84 92 85 93 86 94 62 95 63 96
REMARK SMILES IDX 72 97 64 98 65 99 71 100 73 101 66 102 67 103 68 104 69 105
REMARK SMILES IDX 70 106
REMARK H PARENT 28 5 32 37 94 56 60 67
REMARK Flexibility Score: inf
ROOT
ATOM      1  C   UNL A   1      31.130  27.235  26.020  1.00  0.00     0.117 C 
ENDROOT
BRANCH   1   2
ATOM      2  N   UNL A   1      30.112  26.095  26.373  1.00  0.00    -0.356 N 
ATOM      3  C   UNL A   1      30.204  24.770  26.664  1.00  0.00     0.220 C 
ATOM      4  O   UNL A   1      29.162  24.195  26.991  1.00  0.00    -0.275 OA
ATOM      5  H   UNL A   1      29.181  26.417  26.388  1.00  0.00     0.163 HD
BRANCH   3   6
ATOM      6  C   UNL A   1      31.505  24.020  26.590  1.00  0.00     0.110 C 
BRANCH   6   7
ATOM      7  C   UNL A   1      31.620  22.900  27.615  1.00  0.00     0.110 C 
BRANCH   7   8
ATOM      8  C   UNL A   1      32.808  22.092  27.203  1.00  0.00     0.223 C 
ATOM      9  O   UNL A   1      33.592  21.660  28.047  1.00  0.00    -0.275 OA
BRANCH   8  10
ATOM     10  N   UNL A   1      33.108  22.094  25.845  1.00  0.00    -0.331 N 
ATOM     11  C   UNL A   1      33.040  25.574  21.240  1.00  0.00     0.161 A 
ATOM     12  C   UNL A   1      32.469  24.294  21.335  1.00  0.00     0.054 A 
ATOM     13  C   UNL A   1      33.830  26.256  22.276  1.00  0.00     0.161 A 
ATOM     14  C   UNL A   1      32.810  23.622  22.483  1.00  0.00    -0.037 A 
ATOM     15  C   UNL A   1      34.226  25.674  23.517  1.00  0.00     0.057 A 
ATOM     16  C   UNL A   1      33.840  24.358  23.713  1.00  0.00    -0.014 A 
ATOM     17  C   UNL A   1      31.863  22.005  22.817  1.00  0.00     0.057 C 
ATOM     18  C   UNL A   1      34.244  23.509  25.391  1.00  0.00     0.146 C 
ATOM     19  C   UNL A   1      32.132  21.126  24.574  1.00  0.00     0.125 C 
BRANCH  11  20
ATOM     20  O   UNL A   1      32.859  26.189  20.009  1.00  0.00    -0.493 OA
ATOM     21  C   UNL A   1      32.130  25.303  19.144  1.00  0.00     0.278 C 
ENDBRANCH  11  20
BRANCH  13  22
ATOM     22  O   UNL A   1      34.134  27.565  21.944  1.00  0.00    -0.493 OA
ATOM     23  C   UNL A   1      34.024  28.530  22.979  1.00  0.00     0.278 C 
ENDBRANCH  13  22
BRANCH  18  24
ATOM     24  C   UNL A   1      35.715  23.035  25.656  1.00  0.00    -0.014 A 
ATOM     25  C   UNL A   1      36.773  23.897  25.949  1.00  0.00     0.007 A 
ATOM     26  C   UNL A   1      36.036  21.661  25.487  1.00  0.00     0.091 A 
ATOM     27  C   UNL A   1      38.098  23.419  25.924  1.00  0.00     0.007 A 
ATOM     28  C   UNL A   1      37.350  21.212  25.356  1.00  0.00     0.269 A 
ATOM     29  C   UNL A   1      38.395  22.096  25.570  1.00  0.00     0.085 A 
BRANCH  28  30
ATOM     30  N   UNL A   1      37.592  19.852  24.846  1.00  0.00     0.062 N 
ATOM     31  O   UNL A   1      36.650  19.051  24.867  1.00  0.00    -0.258 OA
ATOM     32  O   UNL A   1      38.748  19.568  24.491  1.00  0.00    -0.258 OA
ENDBRANCH  28  30
ENDBRANCH  18  24
ENDBRANCH   8  10
ENDBRANCH   7   8
ENDBRANCH   6   7
ENDBRANCH   3   6
ENDBRANCH   1   2
BRANCH   1  33
ATOM     33  C   UNL A   1      33.187  27.503  26.547  1.00  0.00     0.042 C 
BRANCH  33  34
ATOM     34  C   UNL A   1      34.419  28.772  26.585  1.00  0.00     0.118 C 
BRANCH  34  35
ATOM     35  N   UNL A   1      34.374  30.052  27.289  1.00  0.00    -0.352 N 
ATOM     36  C   UNL A   1      35.124  30.592  28.301  1.00  0.00     0.251 C 
ATOM     37  H   UNL A   1      33.658  30.649  26.972  1.00  0.00     0.163 HD
ATOM     38  O   UNL A   1      34.737  31.585  28.911  1.00  0.00    -0.269 OA
BRANCH  36  39
ATOM     39  C   UNL A   1      36.438  30.036  28.619  1.00  0.00     0.039 A 
ATOM     40  C   UNL A   1      36.708  29.534  29.901  1.00  0.00     0.014 A 
ATOM     41  C   UNL A   1      37.437  30.124  27.655  1.00  0.00     0.014 A 
ATOM     42  C   UNL A   1      37.990  29.080  30.205  1.00  0.00     0.010 A 
ATOM     43  C   UNL A   1      38.672  29.591  27.921  1.00  0.00     0.010 A 
ATOM     44  C   UNL A   1      38.965  29.107  29.205  1.00  0.00    -0.014 A 
BRANCH  44  45
ATOM     45  C   UNL A   1      40.385  28.786  29.409  1.00  0.00     0.031 A 
ATOM     46  C   UNL A   1      41.307  29.965  29.509  1.00  0.00     0.074 A 
ATOM     47  C   UNL A   1      40.797  27.537  29.141  1.00  0.00     0.049 A 
ATOM     48  N   UNL A   1      42.556  30.072  29.161  1.00  0.00    -0.248 NA
ATOM     49  C   UNL A   1      40.687  31.230  29.955  1.00  0.00     0.031 C 
ATOM     50  C   UNL A   1      39.929  26.369  28.991  1.00  0.00     0.029 A 
ATOM     51  N   UNL A   1      42.043  27.072  28.834  1.00  0.00    -0.354 N 
ATOM     52  C   UNL A   1      42.865  31.418  29.319  1.00  0.00     0.074 A 
ATOM     53  C   UNL A   1      41.650  32.101  29.698  1.00  0.00     0.031 C 
ATOM     54  C   UNL A   1      40.654  25.340  28.524  1.00  0.00     0.029 A 
ATOM     55  C   UNL A   1      42.030  25.785  28.348  1.00  0.00     0.049 A 
ATOM     56  H   UNL A   1      42.866  27.602  28.948  1.00  0.00     0.167 HD
ATOM     57  C   UNL A   1      44.077  32.008  29.197  1.00  0.00     0.037 A 
ATOM     58  C   UNL A   1      43.029  25.068  27.805  1.00  0.00     0.037 A 
ATOM     59  C   UNL A   1      45.257  31.255  28.869  1.00  0.00     0.049 A 
ATOM     60  C   UNL A   1      44.385  25.714  27.755  1.00  0.00     0.074 A 
ATOM     61  C   UNL A   1      46.571  31.672  28.811  1.00  0.00     0.029 A 
ATOM     62  N   UNL A   1      45.248  29.896  28.572  1.00  0.00    -0.354 N 
ATOM     63  N   UNL A   1      44.703  26.970  27.976  1.00  0.00    -0.248 NA
ATOM     64  C   UNL A   1      45.524  24.844  27.450  1.00  0.00     0.031 C 
ATOM     65  C   UNL A   1      47.360  30.558  28.496  1.00  0.00     0.029 A 
ATOM     66  C   UNL A   1      46.537  29.445  28.377  1.00  0.00     0.049 A 
ATOM     67  H   UNL A   1      44.440  29.336  28.511  1.00  0.00     0.167 HD
ATOM     68  C   UNL A   1      46.087  27.026  27.916  1.00  0.00     0.074 A 
ATOM     69  C   UNL A   1      46.540  25.682  27.606  1.00  0.00     0.031 C 
ATOM     70  C   UNL A   1      46.917  28.079  28.122  1.00  0.00     0.037 A 
BRANCH  57  71
ATOM     71  C   UNL A   1      44.172  33.480  29.496  1.00  0.00     0.058 A 
ATOM     72  C   UNL A   1      44.443  33.937  30.799  1.00  0.00     0.135 A 
ATOM     73  C   UNL A   1      43.986  34.448  28.497  1.00  0.00     0.135 A 
ATOM     74  F   UNL A   1      44.618  33.060  31.801  1.00  0.00    -0.206 F 
ATOM     75  C   UNL A   1      44.473  35.292  31.110  1.00  0.00     0.059 A 
ATOM     76  C   UNL A   1      44.047  35.813  28.780  1.00  0.00     0.059 A 
ATOM     77  F   UNL A   1      43.724  34.077  27.234  1.00  0.00    -0.206 F 
ATOM     78  C   UNL A   1      44.269  36.223  30.094  1.00  0.00     0.060 A 
BRANCH  78  79
ATOM     79  S   UNL A   1      44.310  37.979  30.519  1.00  0.00     0.124 S 
ATOM     80  O   UNL A   1      43.890  37.948  31.916  1.00  0.00    -0.237 OA
ATOM     81  O   UNL A   1      45.708  38.326  30.286  1.00  0.00    -0.237 OA
ATOM     82  O   UNL A   1      43.356  38.574  29.590  1.00  0.00    -0.744 OA
ENDBRANCH  78  79
ENDBRANCH  57  71
BRANCH  58  83
ATOM     83  C   UNL A   1      42.805  23.657  27.408  1.00  0.00     0.058 A 
ATOM     84  C   UNL A   1      42.720  23.318  26.050  1.00  0.00     0.135 A 
ATOM     85  C   UNL A   1      42.729  22.616  28.346  1.00  0.00     0.135 A 
ATOM     86  F   UNL A   1      42.810  24.276  25.115  1.00  0.00    -0.206 F 
ATOM     87  C   UNL A   1      42.534  22.005  25.633  1.00  0.00     0.059 A 
ATOM     88  C   UNL A   1      42.557  21.289  27.953  1.00  0.00     0.059 A 
ATOM     89  F   UNL A   1      42.848  22.881  29.656  1.00  0.00    -0.206 F 
ATOM     90  C   UNL A   1      42.448  20.997  26.593  1.00  0.00     0.060 A 
BRANCH  90  91
ATOM     91  S   UNL A   1      42.231  19.294  26.027  1.00  0.00     0.124 S 
ATOM     92  O   UNL A   1      42.821  18.541  27.128  1.00  0.00    -0.237 OA
ATOM     93  O   UNL A   1      40.780  19.201  25.896  1.00  0.00    -0.237 OA
ATOM     94  O   UNL A   1      42.970  19.260  24.769  1.00  0.00    -0.744 OA
ENDBRANCH  90  91
ENDBRANCH  58  83
BRANCH  70  95
ATOM     95  C   UNL A   1      48.385  27.788  28.125  1.00  0.00     0.058 A 
ATOM     96  C   UNL A   1      49.045  27.349  29.279  1.00  0.00     0.135 A 
ATOM     97  C   UNL A   1      49.111  27.869  26.926  1.00  0.00     0.135 A 
ATOM     98  F   UNL A   1      48.387  27.269  30.445  1.00  0.00    -0.206 F 
ATOM     99  C   UNL A   1      50.387  26.996  29.245  1.00  0.00     0.059 A 
ATOM    100  C   UNL A   1      50.447  27.501  26.865  1.00  0.00     0.059 A 
ATOM    101  F   UNL A   1      48.510  28.281  25.798  1.00  0.00    -0.206 F 
ATOM    102  C   UNL A   1      51.076  27.068  28.031  1.00  0.00     0.060 A 
BRANCH 102 103
ATOM    103  S   UNL A   1      52.796  26.528  27.983  1.00  0.00     0.124 S 
ATOM    104  O   UNL A   1      53.059  26.263  29.393  1.00  0.00    -0.237 OA
ATOM    105  O   UNL A   1      52.731  25.354  27.117  1.00  0.00    -0.237 OA
ATOM    106  O   UNL A   1      53.495  27.677  27.417  1.00  0.00    -0.744 OA
ENDBRANCH 102 103
ENDBRANCH  70  95
ENDBRANCH  44  45
ENDBRANCH  36  39
ENDBRANCH  34  35
ENDBRANCH  33  34
ENDBRANCH   1  33
TORSDOF 20
ENDMDL
MODEL 2
REMARK VINA RESULT:     -12.5      4.505      8.444
REMARK SMILES COc1cc2c(cc1OC)[C@H](c1cccc([N+](=O)[O-])c1)N(C(=O)CCC(=O)NCCCNC(=O)c1ccc(-c3c4nc(c(-c5c(F)cc(S(=O)(=O)[O-])cc5F)c5ccc([nH]5)c(-c5c(F)cc(S(=O)(=O)[O-])cc5F)c5nc(c(-c6c(F)cc(S(=O)(=O)[O-])cc6F)c6ccc3[nH]6)C=C5)C=C4)cc1)CC2
REMARK SMILES IDX 29 1 28 2 26 3 27 4 25 6 24 7 22 8 23 9 21 10 3 11 4 12 8 13
REMARK SMILES IDX 5 14 7 15 6 16 102 17 11 18 101 19 2 20 1 21 9 22 10 23
REMARK SMILES IDX 12 24 13 25 20 26 14 27 16 28 15 29 17 30 18 31 19 32 30 33
REMARK SMILES IDX 31 34 32 35 33 36 34 38 35 39 36 40 100 41 37 42 99 43 38 44
REMARK SMILES IDX 39 45 40 46 93 47 41 48 98 49 92 50 94 51 42 52 97 53 91 54
REMARK SMILES IDX 90 55 43 57 77 58 56 59 76 60 57 61 60 62 75 63 95 64 58 65
REMARK SMILES IDX 59 66 74 68 96 69 61 70 44 71 45 72 54 73 46 74 47 75 53 76
REMARK SMILES IDX 55 77 48 78 49 79 50 80 51 81 52 82 78 83 79 84 88 85 80 86
REMARK SMILES IDX 81 87 87 88 89 89 82 90 83 91 84 92 85 93 86 94 62 95 63 96
REMARK SMILES IDX 72 97 64 98 65 99 71 100 73 101 66 102 67 103 68 104 69 105
REMARK SMILES IDX 70 106
REMARK H PARENT 28 5 32 37 94 56 60 67
REMARK Flexibility Score: inf
ROOT
ATOM      1  C   UNL A   1      31.298  26.805  25.883  1.00  0.00     0.117 C 
ENDROOT
BRANCH   1   2
ATOM      2  N   UNL A   1      30.482  25.545  26.342  1.00  0.00    -0.356 N 
ATOM      3  C   UNL A   1      30.794  24.304  26.800  1.00  0.00     0.220 C 
ATOM      4  O   UNL A   1      29.856  23.588  27.160  1.00  0.00    -0.275 OA
ATOM      5  H   UNL A   1      29.510  25.688  26.283  1.00  0.00     0.163 HD
BRANCH   3   6
ATOM      6  C   UNL A   1      32.211  23.805  26.868  1.00  0.00     0.110 C 
BRANCH   6   7
ATOM      7  C   UNL A   1      32.369  22.531  27.686  1.00  0.00     0.110 C 
BRANCH   7   8
ATOM      8  C   UNL A   1      33.537  21.809  27.095  1.00  0.00     0.223 C 
ATOM      9  O   UNL A   1      34.435  21.378  27.817  1.00  0.00    -0.275 OA
BRANCH   8  10
ATOM     10  N   UNL A   1      33.674  21.896  25.713  1.00  0.00    -0.331 N 
ATOM     11  C   UNL A   1      32.943  25.612  21.356  1.00  0.00     0.161 A 
ATOM     12  C   UNL A   1      32.432  24.306  21.443  1.00  0.00     0.054 A 
ATOM     13  C   UNL A   1      33.825  26.270  22.332  1.00  0.00     0.161 A 
ATOM     14  C   UNL A   1      32.929  23.588  22.503  1.00  0.00    -0.037 A 
ATOM     15  C   UNL A   1      34.385  25.639  23.483  1.00  0.00     0.057 A 
ATOM     16  C   UNL A   1      34.071  24.300  23.646  1.00  0.00    -0.014 A 
ATOM     17  C   UNL A   1      32.085  21.918  22.850  1.00  0.00     0.057 C 
ATOM     18  C   UNL A   1      34.699  23.379  25.214  1.00  0.00     0.146 C 
ATOM     19  C   UNL A   1      32.590  20.958  24.511  1.00  0.00     0.125 C 
BRANCH  11  20
ATOM     20  O   UNL A   1      32.596  26.283  20.192  1.00  0.00    -0.493 OA
ATOM     21  C   UNL A   1      32.305  25.322  19.165  1.00  0.00     0.278 C 
ENDBRANCH  11  20
BRANCH  13  22
ATOM     22  O   UNL A   1      34.042  27.606  22.043  1.00  0.00    -0.493 OA
ATOM     23  C   UNL A   1      33.232  28.548  22.728  1.00  0.00     0.278 C 
ENDBRANCH  13  22
BRANCH  18  24
ATOM     24  C   UNL A   1      36.206  22.953  25.279  1.00  0.00    -0.014 A 
ATOM     25  C   UNL A   1      36.665  21.659  25.028  1.00  0.00     0.007 A 
ATOM     26  C   UNL A   1      37.170  23.900  25.722  1.00  0.00     0.091 A 
ATOM     27  C   UNL A   1      37.990  21.307  25.353  1.00  0.00     0.007 A 
ATOM     28  C   UNL A   1      38.446  23.525  26.141  1.00  0.00     0.269 A 
ATOM     29  C   UNL A   1      38.864  22.216  25.963  1.00  0.00     0.085 A 
BRANCH  28  30
ATOM     30  N   UNL A   1      39.260  24.490  26.900  1.00  0.00     0.062 N 
ATOM     31  O   UNL A   1      39.151  24.495  28.131  1.00  0.00    -0.258 OA
ATOM     32  O   UNL A   1      39.955  25.290  26.253  1.00  0.00    -0.258 OA
ENDBRANCH  28  30
ENDBRANCH  18  24
ENDBRANCH   8  10
ENDBRANCH   7   8
ENDBRANCH   6   7
ENDBRANCH   3   6
ENDBRANCH   1   2
BRANCH   1  33
ATOM     33  C   UNL A   1      33.200  27.559  26.510  1.00  0.00     0.042 C 
BRANCH  33  34
ATOM     34  C   UNL A   1      34.239  28.972  26.276  1.00  0.00     0.118 C 
BRANCH  34  35
ATOM     35  N   UNL A   1      34.002  30.348  26.708  1.00  0.00    -0.352 N 
ATOM     36  C   UNL A   1      34.553  31.129  27.690  1.00  0.00     0.251 C 
ATOM     37  H   UNL A   1      33.303  30.807  26.189  1.00  0.00     0.163 HD
ATOM     38  O   UNL A   1      34.011  32.174  28.042  1.00  0.00    -0.269 OA
BRANCH  36  39
ATOM     39  C   UNL A   1      35.838  30.766  28.284  1.00  0.00     0.039 A 
ATOM     40  C   UNL A   1      35.959  29.608  29.069  1.00  0.00     0.014 A 
ATOM     41  C   UNL A   1      36.899  31.654  28.143  1.00  0.00     0.014 A 
ATOM     42  C   UNL A   1      37.175  29.323  29.688  1.00  0.00     0.010 A 
ATOM     43  C   UNL A   1      38.120  31.328  28.672  1.00  0.00     0.010 A 
ATOM     44  C   UNL A   1      38.252  30.186  29.479  1.00  0.00    -0.014 A 
BRANCH  44  45
ATOM     45  C   UNL A   1      39.550  30.091  30.164  1.00  0.00     0.031 A 
ATOM     46  C   UNL A   1      40.485  29.044  29.635  1.00  0.00     0.074 A 
ATOM     47  C   UNL A   1      39.669  30.656  31.375  1.00  0.00     0.049 A 
ATOM     48  N   UNL A   1      41.390  28.350  30.261  1.00  0.00    -0.248 NA
ATOM     49  C   UNL A   1      40.279  28.650  28.227  1.00  0.00     0.031 C 
ATOM     50  C   UNL A   1      38.756  31.646  31.946  1.00  0.00     0.029 A 
ATOM     51  N   UNL A   1      40.546  30.387  32.385  1.00  0.00    -0.354 N 
ATOM     52  C   UNL A   1      41.842  27.418  29.334  1.00  0.00     0.074 A 
ATOM     53  C   UNL A   1      41.045  27.573  28.140  1.00  0.00     0.031 C 
ATOM     54  C   UNL A   1      39.060  31.830  33.241  1.00  0.00     0.029 A 
ATOM     55  C   UNL A   1      40.188  30.971  33.578  1.00  0.00     0.049 A 
ATOM     56  H   UNL A   1      41.353  29.832  32.273  1.00  0.00     0.167 HD
ATOM     57  C   UNL A   1      42.868  26.546  29.471  1.00  0.00     0.037 A 
ATOM     58  C   UNL A   1      40.714  30.803  34.803  1.00  0.00     0.037 A 
ATOM     59  C   UNL A   1      43.655  26.484  30.671  1.00  0.00     0.049 A 
ATOM     60  C   UNL A   1      41.904  29.892  34.917  1.00  0.00     0.074 A 
ATOM     61  C   UNL A   1      44.788  25.741  30.936  1.00  0.00     0.029 A 
ATOM     62  N   UNL A   1      43.390  27.241  31.809  1.00  0.00    -0.354 N 
ATOM     63  N   UNL A   1      42.388  29.062  34.021  1.00  0.00    -0.248 NA
ATOM     64  C   UNL A   1      42.659  29.940  36.171  1.00  0.00     0.031 C 
ATOM     65  C   UNL A   1      45.217  26.062  32.230  1.00  0.00     0.029 A 
ATOM     66  C   UNL A   1      44.362  27.020  32.762  1.00  0.00     0.049 A 
ATOM     67  H   UNL A   1      42.621  27.846  31.918  1.00  0.00     0.167 HD
ATOM     68  C   UNL A   1      43.551  28.546  34.573  1.00  0.00     0.074 A 
ATOM     69  C   UNL A   1      43.676  29.136  35.893  1.00  0.00     0.031 C 
ATOM     70  C   UNL A   1      44.451  27.684  34.038  1.00  0.00     0.037 A 
BRANCH  57  71
ATOM     71  C   UNL A   1      43.217  25.687  28.285  1.00  0.00     0.058 A 
ATOM     72  C   UNL A   1      42.746  24.365  28.186  1.00  0.00     0.135 A 
ATOM     73  C   UNL A   1      44.028  26.163  27.244  1.00  0.00     0.135 A 
ATOM     74  F   UNL A   1      41.975  23.847  29.157  1.00  0.00    -0.206 F 
ATOM     75  C   UNL A   1      43.106  23.534  27.131  1.00  0.00     0.059 A 
ATOM     76  C   UNL A   1      44.374  25.358  26.158  1.00  0.00     0.059 A 
ATOM     77  F   UNL A   1      44.511  27.416  27.279  1.00  0.00    -0.206 F 
ATOM     78  C   UNL A   1      43.925  24.038  26.123  1.00  0.00     0.060 A 
BRANCH  78  79
ATOM     79  S   UNL A   1      44.385  22.942  24.763  1.00  0.00     0.124 S 
ATOM     80  O   UNL A   1      45.292  23.792  24.000  1.00  0.00    -0.237 OA
ATOM     81  O   UNL A   1      45.006  21.820  25.460  1.00  0.00    -0.237 OA
ATOM     82  O   UNL A   1      43.109  22.647  24.120  1.00  0.00    -0.744 OA
ENDBRANCH  78  79
ENDBRANCH  57  71
BRANCH  58  83
ATOM     83  C   UNL A   1      40.209  31.598  35.949  1.00  0.00     0.058 A 
ATOM     84  C   UNL A   1      40.919  32.727  36.382  1.00  0.00     0.135 A 
ATOM     85  C   UNL A   1      39.000  31.300  36.595  1.00  0.00     0.135 A 
ATOM     86  F   UNL A   1      42.069  33.066  35.780  1.00  0.00    -0.206 F 
ATOM     87  C   UNL A   1      40.469  33.514  37.437  1.00  0.00     0.059 A 
ATOM     88  C   UNL A   1      38.520  32.081  37.646  1.00  0.00     0.059 A 
ATOM     89  F   UNL A   1      38.261  30.256  36.190  1.00  0.00    -0.206 F 
ATOM     90  C   UNL A   1      39.270  33.180  38.066  1.00  0.00     0.060 A 
BRANCH  90  91
ATOM     91  S   UNL A   1      38.693  34.231  39.419  1.00  0.00     0.124 S 
ATOM     92  O   UNL A   1      38.861  35.562  38.847  1.00  0.00    -0.237 OA
ATOM     93  O   UNL A   1      37.316  33.779  39.589  1.00  0.00    -0.237 OA
ATOM     94  O   UNL A   1      39.596  33.895  40.515  1.00  0.00    -0.744 OA
ENDBRANCH  90  91
ENDBRANCH  58  83
BRANCH  70  95
ATOM     95  C   UNL A   1      45.690  27.423  34.835  1.00  0.00     0.058 A 
ATOM     96  C   UNL A   1      45.771  26.357  35.740  1.00  0.00     0.135 A 
ATOM     97  C   UNL A   1      46.835  28.205  34.614  1.00  0.00     0.135 A 
ATOM     98  F   UNL A   1      44.695  25.595  35.984  1.00  0.00    -0.206 F 
ATOM     99  C   UNL A   1      46.956  26.072  36.405  1.00  0.00     0.059 A 
ATOM    100  C   UNL A   1      48.035  27.925  35.252  1.00  0.00     0.059 A 
ATOM    101  F   UNL A   1      46.796  29.232  33.751  1.00  0.00    -0.206 F 
ATOM    102  C   UNL A   1      48.083  26.856  36.147  1.00  0.00     0.060 A 
BRANCH 102 103
ATOM    103  S   UNL A   1      49.637  26.424  36.954  1.00  0.00     0.124 S 
ATOM    104  O   UNL A   1      50.589  27.243  36.211  1.00  0.00    -0.237 OA
ATOM    105  O   UNL A   1      49.394  26.829  38.336  1.00  0.00    -0.237 OA
ATOM    106  O   UNL A   1      49.741  24.985  36.740  1.00  0.00    -0.744 OA
ENDBRANCH 102 103
ENDBRANCH  70  95
ENDBRANCH  44  45
ENDBRANCH  36  39
ENDBRANCH  34  35
ENDBRANCH  33  34
ENDBRANCH   1  33
TORSDOF 20
ENDMDL
MODEL 3
REMARK VINA RESULT:     -12.4      1.750      3.929
REMARK SMILES COc1cc2c(cc1OC)[C@H](c1cccc([N+](=O)[O-])c1)N(C(=O)CCC(=O)NCCCNC(=O)c1ccc(-c3c4nc(c(-c5c(F)cc(S(=O)(=O)[O-])cc5F)c5ccc([nH]5)c(-c5c(F)cc(S(=O)(=O)[O-])cc5F)c5nc(c(-c6c(F)cc(S(=O)(=O)[O-])cc6F)c6ccc3[nH]6)C=C5)C=C4)cc1)CC2
REMARK SMILES IDX 29 1 28 2 26 3 27 4 25 6 24 7 22 8 23 9 21 10 3 11 4 12 8 13
REMARK SMILES IDX 5 14 7 15 6 16 102 17 11 18 101 19 2 20 1 21 9 22 10 23
REMARK SMILES IDX 12 24 13 25 20 26 14 27 16 28 15 29 17 30 18 31 19 32 30 33
REMARK SMILES IDX 31 34 32 35 33 36 34 38 35 39 36 40 100 41 37 42 99 43 38 44
REMARK SMILES IDX 39 45 40 46 93 47 41 48 98 49 92 50 94 51 42 52 97 53 91 54
REMARK SMILES IDX 90 55 43 57 77 58 56 59 76 60 57 61 60 62 75 63 95 64 58 65
REMARK SMILES IDX 59 66 74 68 96 69 61 70 44 71 45 72 54 73 46 74 47 75 53 76
REMARK SMILES IDX 55 77 48 78 49 79 50 80 51 81 52 82 78 83 79 84 88 85 80 86
REMARK SMILES IDX 81 87 87 88 89 89 82 90 83 91 84 92 85 93 86 94 62 95 63 96
REMARK SMILES IDX 72 97 64 98 65 99 71 100 73 101 66 102 67 103 68 104 69 105
REMARK SMILES IDX 70 106
REMARK H PARENT 28 5 32 37 94 56 60 67
REMARK Flexibility Score: inf
ROOT
ATOM      1  C   UNL A   1      31.534  29.085  25.327  1.00  0.00     0.117 C 
ENDROOT
BRANCH   1   2
ATOM      2  N   UNL A   1      30.682  27.809  25.000  1.00  0.00    -0.356 N 
ATOM      3  C   UNL A   1      30.511  26.586  25.569  1.00  0.00     0.220 C 
ATOM      4  O   UNL A   1      29.660  25.848  25.065  1.00  0.00    -0.275 OA
ATOM      5  H   UNL A   1      30.141  27.921  24.185  1.00  0.00     0.163 HD
BRANCH   3   6
ATOM      6  C   UNL A   1      31.315  26.132  26.755  1.00  0.00     0.110 C 
BRANCH   6   7
ATOM      7  C   UNL A   1      32.118  24.865  26.498  1.00  0.00     0.110 C 
BRANCH   7   8
ATOM      8  C   UNL A   1      33.451  25.321  25.998  1.00  0.00     0.223 C 
ATOM      9  O   UNL A   1      33.743  26.517  26.000  1.00  0.00    -0.275 OA
BRANCH   8  10
ATOM     10  N   UNL A   1      34.199  24.377  25.304  1.00  0.00    -0.331 N 
ATOM     11  C   UNL A   1      34.594  18.674  24.499  1.00  0.00     0.161 A 
ATOM     12  C   UNL A   1      35.632  19.545  24.871  1.00  0.00     0.054 A 
ATOM     13  C   UNL A   1      33.211  19.054  24.175  1.00  0.00     0.161 A 
ATOM     14  C   UNL A   1      35.292  20.873  24.797  1.00  0.00    -0.037 A 
ATOM     15  C   UNL A   1      32.730  20.395  24.090  1.00  0.00     0.057 A 
ATOM     16  C   UNL A   1      33.673  21.386  24.313  1.00  0.00    -0.014 A 
ATOM     17  C   UNL A   1      36.541  22.099  25.543  1.00  0.00     0.057 C 
ATOM     18  C   UNL A   1      33.109  23.225  24.313  1.00  0.00     0.146 C 
ATOM     19  C   UNL A   1      35.992  23.999  25.690  1.00  0.00     0.125 C 
BRANCH  11  20
ATOM     20  O   UNL A   1      34.977  17.345  24.390  1.00  0.00    -0.493 OA
ATOM     21  C   UNL A   1      34.352  16.587  25.438  1.00  0.00     0.278 C 
ENDBRANCH  11  20
BRANCH  13  22
ATOM     22  O   UNL A   1      32.384  17.960  23.986  1.00  0.00    -0.493 OA
ATOM     23  C   UNL A   1      31.984  17.683  22.653  1.00  0.00     0.278 C 
ENDBRANCH  13  22
BRANCH  18  24
ATOM     24  C   UNL A   1      32.818  23.919  22.938  1.00  0.00    -0.014 A 
ATOM     25  C   UNL A   1      33.285  23.448  21.710  1.00  0.00     0.007 A 
ATOM     26  C   UNL A   1      32.131  25.163  22.927  1.00  0.00     0.091 A 
ATOM     27  C   UNL A   1      33.193  24.261  20.563  1.00  0.00     0.007 A 
ATOM     28  C   UNL A   1      32.136  26.009  21.819  1.00  0.00     0.269 A 
ATOM     29  C   UNL A   1      32.675  25.562  20.623  1.00  0.00     0.085 A 
BRANCH  28  30
ATOM     30  N   UNL A   1      31.706  27.408  21.987  1.00  0.00     0.062 N 
ATOM     31  O   UNL A   1      32.570  28.249  22.257  1.00  0.00    -0.258 OA
ATOM     32  O   UNL A   1      30.489  27.648  21.916  1.00  0.00    -0.258 OA
ENDBRANCH  28  30
ENDBRANCH  18  24
ENDBRANCH   8  10
ENDBRANCH   7   8
ENDBRANCH   6   7
ENDBRANCH   3   6
ENDBRANCH   1   2
BRANCH   1  33
ATOM     33  C   UNL A   1      32.594  29.659  27.096  1.00  0.00     0.042 C 
BRANCH  33  34
ATOM     34  C   UNL A   1      33.942  30.691  27.590  1.00  0.00     0.118 C 
BRANCH  34  35
ATOM     35  N   UNL A   1      33.932  31.788  28.556  1.00  0.00    -0.352 N 
ATOM     36  C   UNL A   1      34.711  32.086  29.643  1.00  0.00     0.251 C 
ATOM     37  H   UNL A   1      33.220  32.447  28.393  1.00  0.00     0.163 HD
ATOM     38  O   UNL A   1      34.352  32.926  30.464  1.00  0.00    -0.269 OA
BRANCH  36  39
ATOM     39  C   UNL A   1      36.023  31.459  29.803  1.00  0.00     0.039 A 
ATOM     40  C   UNL A   1      36.370  30.829  31.008  1.00  0.00     0.014 A 
ATOM     41  C   UNL A   1      36.946  31.604  28.774  1.00  0.00     0.014 A 
ATOM     42  C   UNL A   1      37.652  30.306  31.164  1.00  0.00     0.010 A 
ATOM     43  C   UNL A   1      38.175  31.008  28.889  1.00  0.00     0.010 A 
ATOM     44  C   UNL A   1      38.547  30.395  30.096  1.00  0.00    -0.014 A 
BRANCH  44  45
ATOM     45  C   UNL A   1      39.964  30.010  30.154  1.00  0.00     0.031 A 
ATOM     46  C   UNL A   1      40.944  31.145  30.161  1.00  0.00     0.074 A 
ATOM     47  C   UNL A   1      40.290  28.745  29.845  1.00  0.00     0.049 A 
ATOM     48  N   UNL A   1      42.155  31.197  29.689  1.00  0.00    -0.248 NA
ATOM     49  C   UNL A   1      40.430  32.434  30.669  1.00  0.00     0.031 C 
ATOM     50  C   UNL A   1      39.359  27.617  29.783  1.00  0.00     0.029 A 
ATOM     51  N   UNL A   1      41.476  28.225  29.413  1.00  0.00    -0.354 N 
ATOM     52  C   UNL A   1      42.540  32.527  29.815  1.00  0.00     0.074 A 
ATOM     53  C   UNL A   1      41.402  33.262  30.316  1.00  0.00     0.031 C 
ATOM     54  C   UNL A   1      39.986  26.559  29.243  1.00  0.00     0.029 A 
ATOM     55  C   UNL A   1      41.356  26.943  28.929  1.00  0.00     0.049 A 
ATOM     56  H   UNL A   1      42.329  28.717  29.444  1.00  0.00     0.167 HD
ATOM     57  C   UNL A   1      43.759  33.062  29.572  1.00  0.00     0.037 A 
ATOM     58  C   UNL A   1      42.261  26.185  28.288  1.00  0.00     0.037 A 
ATOM     59  C   UNL A   1      44.864  32.259  29.126  1.00  0.00     0.049 A 
ATOM     60  C   UNL A   1      43.632  26.769  28.101  1.00  0.00     0.074 A 
ATOM     61  C   UNL A   1      46.183  32.617  28.935  1.00  0.00     0.029 A 
ATOM     62  N   UNL A   1      44.763  30.903  28.830  1.00  0.00    -0.354 N 
ATOM     63  N   UNL A   1      44.028  28.008  28.290  1.00  0.00    -0.248 NA
ATOM     64  C   UNL A   1      44.694  25.850  27.681  1.00  0.00     0.031 C 
ATOM     65  C   UNL A   1      46.884  31.470  28.541  1.00  0.00     0.029 A 
ATOM     66  C   UNL A   1      46.003  30.395  28.505  1.00  0.00     0.049 A 
ATOM     67  H   UNL A   1      43.928  30.381  28.851  1.00  0.00     0.167 HD
ATOM     68  C   UNL A   1      45.400  28.002  28.090  1.00  0.00     0.074 A 
ATOM     69  C   UNL A   1      45.757  26.640  27.734  1.00  0.00     0.031 C 
ATOM     70  C   UNL A   1      46.294  29.015  28.211  1.00  0.00     0.037 A 
BRANCH  57  71
ATOM     71  C   UNL A   1      43.950  34.527  29.861  1.00  0.00     0.058 A 
ATOM     72  C   UNL A   1      44.330  34.967  31.142  1.00  0.00     0.135 A 
ATOM     73  C   UNL A   1      43.749  35.505  28.875  1.00  0.00     0.135 A 
ATOM     74  F   UNL A   1      44.526  34.081  32.132  1.00  0.00    -0.206 F 
ATOM     75  C   UNL A   1      44.453  36.318  31.447  1.00  0.00     0.059 A 
ATOM     76  C   UNL A   1      43.900  36.864  29.150  1.00  0.00     0.059 A 
ATOM     77  F   UNL A   1      43.384  35.150  27.632  1.00  0.00    -0.206 F 
ATOM     78  C   UNL A   1      44.231  37.260  30.446  1.00  0.00     0.060 A 
BRANCH  78  79
ATOM     79  S   UNL A   1      44.391  39.011  30.864  1.00  0.00     0.124 S 
ATOM     80  O   UNL A   1      43.985  39.012  32.265  1.00  0.00    -0.237 OA
ATOM     81  O   UNL A   1      45.806  39.265  30.615  1.00  0.00    -0.237 OA
ATOM     82  O   UNL A   1      43.469  39.665  29.941  1.00  0.00    -0.744 OA
ENDBRANCH  78  79
ENDBRANCH  57  71
BRANCH  58  83
ATOM     83  C   UNL A   1      41.934  24.787  27.914  1.00  0.00     0.058 A 
ATOM     84  C   UNL A   1      41.286  24.522  26.699  1.00  0.00     0.135 A 
ATOM     85  C   UNL A   1      42.301  23.691  28.710  1.00  0.00     0.135 A 
ATOM     86  F   UNL A   1      40.935  25.535  25.894  1.00  0.00    -0.206 F 
ATOM     87  C   UNL A   1      40.981  23.225  26.300  1.00  0.00     0.059 A 
ATOM     88  C   UNL A   1      42.020  22.381  28.325  1.00  0.00     0.059 A 
ATOM     89  F   UNL A   1      42.961  23.888  29.862  1.00  0.00    -0.206 F 
ATOM     90  C   UNL A   1      41.348  22.161  27.123  1.00  0.00     0.060 A 
BRANCH  90  91
ATOM     91  S   UNL A   1      40.964  20.483  26.571  1.00  0.00     0.124 S 
ATOM     92  O   UNL A   1      42.099  20.192  25.703  1.00  0.00    -0.237 OA
ATOM     93  O   UNL A   1      40.922  19.750  27.832  1.00  0.00    -0.237 OA
ATOM     94  O   UNL A   1      39.677  20.635  25.900  1.00  0.00    -0.744 OA
ENDBRANCH  90  91
ENDBRANCH  58  83
BRANCH  70  95
ATOM     95  C   UNL A   1      47.739  28.658  28.065  1.00  0.00     0.058 A 
ATOM     96  C   UNL A   1      48.534  28.342  29.174  1.00  0.00     0.135 A 
ATOM     97  C   UNL A   1      48.301  28.549  26.783  1.00  0.00     0.135 A 
ATOM     98  F   UNL A   1      48.035  28.445  30.415  1.00  0.00    -0.206 F 
ATOM     99  C   UNL A   1      49.849  27.925  29.016  1.00  0.00     0.059 A 
ATOM    100  C   UNL A   1      49.606  28.113  26.601  1.00  0.00     0.059 A 
ATOM    101  F   UNL A   1      47.568  28.839  25.696  1.00  0.00    -0.206 F 
ATOM    102  C   UNL A   1      50.372  27.806  27.725  1.00  0.00     0.060 A 
BRANCH 102 103
ATOM    103  S   UNL A   1      52.053  27.184  27.530  1.00  0.00     0.124 S 
ATOM    104  O   UNL A   1      52.394  26.828  28.903  1.00  0.00    -0.237 OA
ATOM    105  O   UNL A   1      51.867  26.065  26.610  1.00  0.00    -0.237 OA
ATOM    106  O   UNL A   1      52.774  28.326  26.978  1.00  0.00    -0.744 OA
ENDBRANCH 102 103
ENDBRANCH  70  95
ENDBRANCH  44  45
ENDBRANCH  36  39
ENDBRANCH  34  35
ENDBRANCH  33  34
ENDBRANCH   1  33
TORSDOF 20
ENDMDL
