MODEL 1
REMARK VINA RESULT:     -13.1      0.000      0.000
REMARK SMILES CCc1cc(S(F)(F)(F)(F)F)cc2c1O[C@@H](C(F)(F)F)C(C(=O)NCCCNC(=O)c1ccc(-c3c4nc(c(-c5c(F)cc(S(=O)(=O)[O-])cc5F)c5ccc([nH]5)c(-c5c(F)cc(S(=O)(=O)[O-])cc5F)c5nc(c(-c6c(F)cc(S(=O)(=O)[O-])cc6F)c6ccc3[nH]6)C=C5)C=C4)cc1)=C2
REMARK SMILES IDX 27 1 26 2 25 3 24 4 22 5 23 6 21 8 3 9 4 10 14 11 5 12 13 13
REMARK SMILES IDX 15 14 12 15 97 16 16 17 2 18 1 19 6 20 7 21 8 22 9 23 10 24
REMARK SMILES IDX 11 25 17 26 18 27 19 28 20 29 28 30 29 31 30 33 31 34 32 35
REMARK SMILES IDX 96 36 33 37 95 38 34 39 35 40 36 41 89 42 37 43 94 44 88 45
REMARK SMILES IDX 90 46 38 47 93 48 87 49 86 50 39 52 73 53 52 54 72 55 53 56
REMARK SMILES IDX 56 57 71 58 91 59 54 60 55 61 70 63 92 64 57 65 40 66 41 67
REMARK SMILES IDX 50 68 42 69 43 70 49 71 51 72 44 73 45 74 46 75 47 76 48 77
REMARK SMILES IDX 74 78 75 79 84 80 76 81 77 82 83 83 85 84 78 85 79 86 80 87
REMARK SMILES IDX 81 88 82 89 58 90 59 91 68 92 60 93 61 94 67 95 69 96 62 97
REMARK SMILES IDX 63 98 64 99 65 100 66 101
REMARK H PARENT 24 7 28 32 90 51 56 62
REMARK Flexibility Score: inf
ROOT
ATOM      1  C   UNL A   1      40.253  23.386  27.144  1.00  0.00     0.118 C 
ENDROOT
BRANCH   1   2
ATOM      2  C   UNL A   1      39.327  22.254  26.728  1.00  0.00     0.042 C 
BRANCH   2   3
ATOM      3  C   UNL A   1      38.025  22.833  26.199  1.00  0.00     0.118 C 
BRANCH   3   4
ATOM      4  N   UNL A   1      37.970  22.664  24.741  1.00  0.00    -0.352 N 
ATOM      5  C   UNL A   1      36.717  22.921  24.017  1.00  0.00     0.251 C 
ATOM      6  O   UNL A   1      36.670  22.775  22.755  1.00  0.00    -0.270 OA
ATOM      7  H   UNL A   1      38.774  22.378  24.248  1.00  0.00     0.163 HD
BRANCH   5   8
ATOM      8  C   UNL A   1      35.477  23.362  24.777  1.00  0.00     0.067 C 
ATOM      9  C   UNL A   1      31.805  24.449  26.446  1.00  0.00    -0.004 A 
ATOM     10  C   UNL A   1      31.538  25.777  26.723  1.00  0.00     0.032 A 
ATOM     11  C   UNL A   1      32.999  24.125  25.849  1.00  0.00     0.131 A 
ATOM     12  C   UNL A   1      32.441  26.757  26.404  1.00  0.00     0.108 A 
ATOM     13  C   UNL A   1      33.942  25.086  25.529  1.00  0.00     0.019 A 
ATOM     14  O   UNL A   1      33.201  22.819  25.479  1.00  0.00    -0.475 OA
ATOM     15  C   UNL A   1      33.640  26.412  25.816  1.00  0.00     0.036 A 
ATOM     16  C   UNL A   1      35.156  24.648  24.864  1.00  0.00     0.025 C 
ATOM     17  C   UNL A   1      34.575  22.340  25.456  1.00  0.00     0.314 C 
BRANCH   9  18
ATOM     18  C   UNL A   1      30.909  23.322  26.935  1.00  0.00     0.036 C 
ATOM     19  C   UNL A   1      29.458  23.773  26.895  1.00  0.00     0.009 C 
ENDBRANCH   9  18
BRANCH  12  20
ATOM     20  S   UNL A   1      32.062  28.493  26.752  1.00  0.00     0.310 S 
ATOM     21  F   UNL A   1      30.954  28.286  27.867  1.00  0.00    -0.094 F 
ATOM     22  F   UNL A   1      30.898  28.493  25.691  1.00  0.00    -0.094 F 
ATOM     23  F   UNL A   1      31.904  30.025  26.966  1.00  0.00    -0.094 F 
ATOM     24  F   UNL A   1      33.134  28.449  27.911  1.00  0.00    -0.094 F 
ATOM     25  F   UNL A   1      32.157  26.920  26.626  1.00  0.00    -0.094 F 
ENDBRANCH  12  20
BRANCH  17  26
ATOM     26  C   UNL A   1      34.633  21.034  24.680  1.00  0.00     0.429 C 
ATOM     27  F   UNL A   1      35.882  20.574  24.679  1.00  0.00    -0.167 F 
ATOM     28  F   UNL A   1      33.832  20.141  25.254  1.00  0.00    -0.167 F 
ATOM     29  F   UNL A   1      34.238  21.245  23.427  1.00  0.00    -0.167 F 
ENDBRANCH  17  26
ENDBRANCH   5   8
ENDBRANCH   3   4
ENDBRANCH   2   3
ENDBRANCH   1   2
BRANCH   1  30
ATOM     30  N   UNL A   1      41.043  23.824  25.985  1.00  0.00    -0.352 N 
ATOM     31  C   UNL A   1      41.640  25.167  25.967  1.00  0.00     0.251 C 
ATOM     32  H   UNL A   1      41.172  23.218  25.219  1.00  0.00     0.163 HD
ATOM     33  O   UNL A   1      42.323  25.546  24.965  1.00  0.00    -0.269 OA
BRANCH  31  34
ATOM     34  C   UNL A   1      41.439  26.103  27.148  1.00  0.00     0.039 A 
ATOM     35  C   UNL A   1      42.362  27.110  27.376  1.00  0.00     0.014 A 
ATOM     36  C   UNL A   1      40.377  25.952  27.931  1.00  0.00     0.014 A 
ATOM     37  C   UNL A   1      42.228  27.736  28.638  1.00  0.00     0.010 A 
ATOM     38  C   UNL A   1      40.244  26.694  29.079  1.00  0.00     0.010 A 
ATOM     39  C   UNL A   1      41.151  27.666  29.398  1.00  0.00    -0.014 A 
BRANCH  39  40
ATOM     40  C   UNL A   1      40.930  28.617  30.563  1.00  0.00     0.031 A 
ATOM     41  C   UNL A   1      39.942  29.595  30.436  1.00  0.00     0.074 A 
ATOM     42  C   UNL A   1      41.731  28.467  31.682  1.00  0.00     0.049 A 
ATOM     43  N   UNL A   1      39.578  30.506  31.339  1.00  0.00    -0.248 NA
ATOM     44  C   UNL A   1      39.112  29.777  29.235  1.00  0.00     0.031 C 
ATOM     45  C   UNL A   1      42.724  27.477  31.822  1.00  0.00     0.029 A 
ATOM     46  N   UNL A   1      41.723  29.222  32.834  1.00  0.00    -0.354 N 
ATOM     47  C   UNL A   1      38.583  31.257  30.862  1.00  0.00     0.074 A 
ATOM     48  C   UNL A   1      38.274  30.803  29.500  1.00  0.00     0.031 C 
ATOM     49  C   UNL A   1      43.314  27.640  33.035  1.00  0.00     0.029 A 
ATOM     50  C   UNL A   1      42.700  28.733  33.675  1.00  0.00     0.049 A 
ATOM     51  H   UNL A   1      41.124  29.979  33.024  1.00  0.00     0.167 HD
ATOM     52  C   UNL A   1      37.922  32.301  31.510  1.00  0.00     0.037 A 
ATOM     53  C   UNL A   1      43.051  29.203  34.931  1.00  0.00     0.037 A 
ATOM     54  C   UNL A   1      38.243  32.743  32.784  1.00  0.00     0.049 A 
ATOM     55  C   UNL A   1      42.427  30.286  35.556  1.00  0.00     0.074 A 
ATOM     56  C   UNL A   1      37.581  33.789  33.454  1.00  0.00     0.029 A 
ATOM     57  N   UNL A   1      39.236  32.271  33.614  1.00  0.00    -0.354 N 
ATOM     58  N   UNL A   1      41.407  31.011  35.094  1.00  0.00    -0.248 NA
ATOM     59  C   UNL A   1      42.812  30.811  36.872  1.00  0.00     0.031 C 
ATOM     60  C   UNL A   1      38.172  33.951  34.669  1.00  0.00     0.029 A 
ATOM     61  C   UNL A   1      39.213  33.011  34.776  1.00  0.00     0.049 A 
ATOM     62  H   UNL A   1      39.855  31.531  33.412  1.00  0.00     0.167 HD
ATOM     63  C   UNL A   1      41.071  31.949  35.982  1.00  0.00     0.074 A 
ATOM     64  C   UNL A   1      41.975  31.839  37.135  1.00  0.00     0.031 C 
ATOM     65  C   UNL A   1      40.044  32.890  35.878  1.00  0.00     0.037 A 
BRANCH  52  66
ATOM     66  C   UNL A   1      36.784  32.993  30.778  1.00  0.00     0.058 A 
ATOM     67  C   UNL A   1      37.059  33.940  29.806  1.00  0.00     0.135 A 
ATOM     68  C   UNL A   1      35.535  32.710  31.128  1.00  0.00     0.135 A 
ATOM     69  F   UNL A   1      38.258  34.078  29.246  1.00  0.00    -0.206 F 
ATOM     70  C   UNL A   1      35.949  34.749  29.461  1.00  0.00     0.059 A 
ATOM     71  C   UNL A   1      34.486  33.457  30.647  1.00  0.00     0.059 A 
ATOM     72  F   UNL A   1      35.297  31.694  31.953  1.00  0.00    -0.206 F 
ATOM     73  C   UNL A   1      34.692  34.447  29.728  1.00  0.00     0.060 A 
BRANCH  73  74
ATOM     74  S   UNL A   1      33.316  35.301  28.920  1.00  0.00     0.124 S 
ATOM     75  O   UNL A   1      33.859  36.432  28.044  1.00  0.00    -0.237 OA
ATOM     76  O   UNL A   1      32.540  34.308  28.050  1.00  0.00    -0.237 OA
ATOM     77  O   UNL A   1      32.273  35.951  30.110  1.00  0.00    -0.744 OA
ENDBRANCH  73  74
ENDBRANCH  52  66
BRANCH  53  78
ATOM     78  C   UNL A   1      44.178  28.500  35.670  1.00  0.00     0.058 A 
ATOM     79  C   UNL A   1      43.823  27.450  36.500  1.00  0.00     0.135 A 
ATOM     80  C   UNL A   1      45.447  28.857  35.515  1.00  0.00     0.135 A 
ATOM     81  F   UNL A   1      42.614  26.896  36.493  1.00  0.00    -0.206 F 
ATOM     82  C   UNL A   1      44.865  27.018  37.355  1.00  0.00     0.059 A 
ATOM     83  C   UNL A   1      46.431  28.296  36.290  1.00  0.00     0.059 A 
ATOM     84  F   UNL A   1      45.768  29.768  34.600  1.00  0.00    -0.206 F 
ATOM     85  C   UNL A   1      46.144  27.293  37.175  1.00  0.00     0.060 A 
BRANCH  85  86
ATOM     86  S   UNL A   1      47.446  26.393  38.052  1.00  0.00     0.124 S 
ATOM     87  O   UNL A   1      47.048  24.920  38.184  1.00  0.00    -0.237 OA
ATOM     88  O   UNL A   1      48.756  26.498  37.269  1.00  0.00    -0.237 OA
ATOM     89  O   UNL A   1      47.657  27.068  39.609  1.00  0.00    -0.744 OA
ENDBRANCH  85  86
ENDBRANCH  53  78
BRANCH  65  90
ATOM     90  C   UNL A   1      39.826  33.838  37.045  1.00  0.00     0.058 A 
ATOM     91  C   UNL A   1      38.976  33.463  38.073  1.00  0.00     0.135 A 
ATOM     92  C   UNL A   1      40.462  35.004  37.069  1.00  0.00     0.135 A 
ATOM     93  F   UNL A   1      38.521  32.222  38.221  1.00  0.00    -0.206 F 
ATOM     94  C   UNL A   1      38.637  34.519  38.950  1.00  0.00     0.059 A 
ATOM     95  C   UNL A   1      40.177  35.936  38.037  1.00  0.00     0.059 A 
ATOM     96  F   UNL A   1      41.383  35.270  36.147  1.00  0.00    -0.206 F 
ATOM     97  C   UNL A   1      39.304  35.654  39.049  1.00  0.00     0.060 A 
BRANCH  97  98
ATOM     98  S   UNL A   1      39.072  36.778  40.449  1.00  0.00     0.124 S 
ATOM     99  O   UNL A   1      38.251  37.990  40.001  1.00  0.00    -0.237 OA
ATOM    100  O   UNL A   1      38.332  36.048  41.572  1.00  0.00    -0.237 OA
ATOM    101  O   UNL A   1      40.598  37.302  41.018  1.00  0.00    -0.744 OA
ENDBRANCH  97  98
ENDBRANCH  65  90
ENDBRANCH  39  40
ENDBRANCH  31  34
ENDBRANCH   1  30
TORSDOF 16
ENDMDL
MODEL 2
REMARK VINA RESULT:     -12.9      6.368     11.553
REMARK SMILES CCc1cc(S(F)(F)(F)(F)F)cc2c1O[C@@H](C(F)(F)F)C(C(=O)NCCCNC(=O)c1ccc(-c3c4nc(c(-c5c(F)cc(S(=O)(=O)[O-])cc5F)c5ccc([nH]5)c(-c5c(F)cc(S(=O)(=O)[O-])cc5F)c5nc(c(-c6c(F)cc(S(=O)(=O)[O-])cc6F)c6ccc3[nH]6)C=C5)C=C4)cc1)=C2
REMARK SMILES IDX 27 1 26 2 25 3 24 4 22 5 23 6 21 8 3 9 4 10 14 11 5 12 13 13
REMARK SMILES IDX 15 14 12 15 97 16 16 17 2 18 1 19 6 20 7 21 8 22 9 23 10 24
REMARK SMILES IDX 11 25 17 26 18 27 19 28 20 29 28 30 29 31 30 33 31 34 32 35
REMARK SMILES IDX 96 36 33 37 95 38 34 39 35 40 36 41 89 42 37 43 94 44 88 45
REMARK SMILES IDX 90 46 38 47 93 48 87 49 86 50 39 52 73 53 52 54 72 55 53 56
REMARK SMILES IDX 56 57 71 58 91 59 54 60 55 61 70 63 92 64 57 65 40 66 41 67
REMARK SMILES IDX 50 68 42 69 43 70 49 71 51 72 44 73 45 74 46 75 47 76 48 77
REMARK SMILES IDX 74 78 75 79 84 80 76 81 77 82 83 83 85 84 78 85 79 86 80 87
REMARK SMILES IDX 81 88 82 89 58 90 59 91 68 92 60 93 61 94 67 95 69 96 62 97
REMARK SMILES IDX 63 98 64 99 65 100 66 101
REMARK H PARENT 24 7 28 32 90 51 56 62
REMARK Flexibility Score: inf
ROOT
ATOM      1  C   UNL A   1      35.705  30.122  28.843  1.00  0.00     0.118 C 
ENDROOT
BRANCH   1   2
ATOM      2  C   UNL A   1      35.015  31.019  27.827  1.00  0.00     0.042 C 
BRANCH   2   3
ATOM      3  C   UNL A   1      34.120  30.176  26.934  1.00  0.00     0.118 C 
BRANCH   3   4
ATOM      4  N   UNL A   1      32.954  29.718  27.701  1.00  0.00    -0.352 N 
ATOM      5  C   UNL A   1      32.259  28.481  27.314  1.00  0.00     0.251 C 
ATOM      6  O   UNL A   1      31.251  28.084  27.979  1.00  0.00    -0.270 OA
ATOM      7  H   UNL A   1      32.637  30.239  28.474  1.00  0.00     0.163 HD
BRANCH   5   8
ATOM      8  C   UNL A   1      32.747  27.676  26.121  1.00  0.00     0.067 C 
ATOM      9  C   UNL A   1      33.624  25.249  22.836  1.00  0.00    -0.004 A 
ATOM     10  C   UNL A   1      34.552  24.231  22.958  1.00  0.00     0.032 A 
ATOM     11  C   UNL A   1      33.315  25.998  23.946  1.00  0.00     0.131 A 
ATOM     12  C   UNL A   1      35.152  23.965  24.161  1.00  0.00     0.108 A 
ATOM     13  C   UNL A   1      33.914  25.770  25.172  1.00  0.00     0.019 A 
ATOM     14  O   UNL A   1      32.313  26.929  23.836  1.00  0.00    -0.475 OA
ATOM     15  C   UNL A   1      34.838  24.736  25.262  1.00  0.00     0.036 A 
ATOM     16  C   UNL A   1      33.492  26.590  26.295  1.00  0.00     0.025 C 
ATOM     17  C   UNL A   1      32.393  28.097  24.701  1.00  0.00     0.314 C 
BRANCH   9  18
ATOM     18  C   UNL A   1      33.066  25.683  21.490  1.00  0.00     0.036 C 
ATOM     19  C   UNL A   1      33.000  24.484  20.558  1.00  0.00     0.009 C 
ENDBRANCH   9  18
BRANCH  12  20
ATOM     20  S   UNL A   1      36.345  22.612  24.306  1.00  0.00     0.310 S 
ATOM     21  F   UNL A   1      36.773  22.496  22.782  1.00  0.00    -0.094 F 
ATOM     22  F   UNL A   1      35.229  21.542  24.004  1.00  0.00    -0.094 F 
ATOM     23  F   UNL A   1      37.376  21.490  24.617  1.00  0.00    -0.094 F 
ATOM     24  F   UNL A   1      37.485  23.693  24.468  1.00  0.00    -0.094 F 
ATOM     25  F   UNL A   1      35.341  23.757  23.883  1.00  0.00    -0.094 F 
ENDBRANCH  12  20
BRANCH  17  26
ATOM     26  C   UNL A   1      31.045  28.799  24.713  1.00  0.00     0.429 C 
ATOM     27  F   UNL A   1      31.119  29.886  25.477  1.00  0.00    -0.167 F 
ATOM     28  F   UNL A   1      30.717  29.151  23.473  1.00  0.00    -0.167 F 
ATOM     29  F   UNL A   1      30.121  27.977  25.200  1.00  0.00    -0.167 F 
ENDBRANCH  17  26
ENDBRANCH   5   8
ENDBRANCH   3   4
ENDBRANCH   2   3
ENDBRANCH   1   2
BRANCH   1  30
ATOM     30  N   UNL A   1      35.578  30.710  30.183  1.00  0.00    -0.352 N 
ATOM     31  C   UNL A   1      36.775  30.921  31.010  1.00  0.00     0.251 C 
ATOM     32  H   UNL A   1      34.691  30.964  30.527  1.00  0.00     0.163 HD
ATOM     33  O   UNL A   1      36.665  31.430  32.169  1.00  0.00    -0.269 OA
BRANCH  31  34
ATOM     34  C   UNL A   1      38.144  30.529  30.479  1.00  0.00     0.039 A 
ATOM     35  C   UNL A   1      38.433  30.736  29.141  1.00  0.00     0.014 A 
ATOM     36  C   UNL A   1      39.044  30.010  31.306  1.00  0.00     0.014 A 
ATOM     37  C   UNL A   1      39.615  30.093  28.703  1.00  0.00     0.010 A 
ATOM     38  C   UNL A   1      40.236  29.523  30.826  1.00  0.00     0.010 A 
ATOM     39  C   UNL A   1      40.563  29.642  29.504  1.00  0.00    -0.014 A 
BRANCH  39  40
ATOM     40  C   UNL A   1      41.943  29.274  28.984  1.00  0.00     0.031 A 
ATOM     41  C   UNL A   1      42.909  30.279  28.915  1.00  0.00     0.074 A 
ATOM     42  C   UNL A   1      42.161  27.964  28.595  1.00  0.00     0.049 A 
ATOM     43  N   UNL A   1      44.175  30.165  28.512  1.00  0.00    -0.248 NA
ATOM     44  C   UNL A   1      42.670  31.680  29.297  1.00  0.00     0.031 C 
ATOM     45  C   UNL A   1      41.194  26.942  28.669  1.00  0.00     0.029 A 
ATOM     46  N   UNL A   1      43.314  27.416  28.077  1.00  0.00    -0.354 N 
ATOM     47  C   UNL A   1      44.798  31.342  28.605  1.00  0.00     0.074 A 
ATOM     48  C   UNL A   1      43.837  32.334  29.105  1.00  0.00     0.031 C 
ATOM     49  C   UNL A   1      41.752  25.798  28.193  1.00  0.00     0.029 A 
ATOM     50  C   UNL A   1      43.077  26.085  27.813  1.00  0.00     0.049 A 
ATOM     51  H   UNL A   1      44.160  27.894  27.922  1.00  0.00     0.167 HD
ATOM     52  C   UNL A   1      46.128  31.626  28.294  1.00  0.00     0.037 A 
ATOM     53  C   UNL A   1      43.954  25.158  27.270  1.00  0.00     0.037 A 
ATOM     54  C   UNL A   1      47.017  30.690  27.792  1.00  0.00     0.049 A 
ATOM     55  C   UNL A   1      45.268  25.457  26.904  1.00  0.00     0.074 A 
ATOM     56  C   UNL A   1      48.364  30.958  27.480  1.00  0.00     0.029 A 
ATOM     57  N   UNL A   1      46.773  29.365  27.505  1.00  0.00    -0.354 N 
ATOM     58  N   UNL A   1      45.901  26.625  27.034  1.00  0.00    -0.248 NA
ATOM     59  C   UNL A   1      46.195  24.492  26.299  1.00  0.00     0.031 C 
ATOM     60  C   UNL A   1      48.922  29.813  27.004  1.00  0.00     0.029 A 
ATOM     61  C   UNL A   1      47.933  28.811  27.008  1.00  0.00     0.049 A 
ATOM     62  H   UNL A   1      45.918  28.894  27.632  1.00  0.00     0.167 HD
ATOM     63  C   UNL A   1      47.156  26.519  26.591  1.00  0.00     0.074 A 
ATOM     64  C   UNL A   1      47.360  25.148  26.105  1.00  0.00     0.031 C 
ATOM     65  C   UNL A   1      48.139  27.510  26.577  1.00  0.00     0.037 A 
BRANCH  52  66
ATOM     66  C   UNL A   1      46.630  33.043  28.518  1.00  0.00     0.058 A 
ATOM     67  C   UNL A   1      47.159  33.405  29.746  1.00  0.00     0.135 A 
ATOM     68  C   UNL A   1      46.501  33.928  27.537  1.00  0.00     0.135 A 
ATOM     69  F   UNL A   1      47.541  32.519  30.661  1.00  0.00    -0.206 F 
ATOM     70  C   UNL A   1      47.257  34.805  29.938  1.00  0.00     0.059 A 
ATOM     71  C   UNL A   1      46.744  35.262  27.760  1.00  0.00     0.059 A 
ATOM     72  F   UNL A   1      46.131  33.518  26.326  1.00  0.00    -0.206 F 
ATOM     73  C   UNL A   1      47.212  35.698  28.967  1.00  0.00     0.060 A 
BRANCH  73  74
ATOM     74  S   UNL A   1      47.741  37.410  29.223  1.00  0.00     0.124 S 
ATOM     75  O   UNL A   1      47.828  37.699  30.723  1.00  0.00    -0.237 OA
ATOM     76  O   UNL A   1      49.116  37.620  28.582  1.00  0.00    -0.237 OA
ATOM     77  O   UNL A   1      46.609  38.470  28.502  1.00  0.00    -0.744 OA
ENDBRANCH  73  74
ENDBRANCH  52  66
BRANCH  53  78
ATOM     78  C   UNL A   1      43.456  23.737  27.061  1.00  0.00     0.058 A 
ATOM     79  C   UNL A   1      43.023  23.406  25.788  1.00  0.00     0.135 A 
ATOM     80  C   UNL A   1      43.453  22.844  28.044  1.00  0.00     0.135 A 
ATOM     81  F   UNL A   1      43.241  24.175  24.725  1.00  0.00    -0.206 F 
ATOM     82  C   UNL A   1      42.329  22.175  25.721  1.00  0.00     0.059 A 
ATOM     83  C   UNL A   1      42.878  21.610  27.865  1.00  0.00     0.059 A 
ATOM     84  F   UNL A   1      44.013  23.148  29.212  1.00  0.00    -0.206 F 
ATOM     85  C   UNL A   1      42.376  21.237  26.649  1.00  0.00     0.060 A 
BRANCH  85  86
ATOM     86  S   UNL A   1      41.807  19.549  26.329  1.00  0.00     0.124 S 
ATOM     87  O   UNL A   1      40.288  19.551  26.135  1.00  0.00    -0.237 OA
ATOM     88  O   UNL A   1      42.482  19.014  25.065  1.00  0.00    -0.237 OA
ATOM     89  O   UNL A   1      42.211  18.550  27.657  1.00  0.00    -0.744 OA
ENDBRANCH  85  86
ENDBRANCH  53  78
BRANCH  65  90
ATOM     90  C   UNL A   1      49.517  27.140  26.057  1.00  0.00     0.058 A 
ATOM     91  C   UNL A   1      49.780  27.245  24.701  1.00  0.00     0.135 A 
ATOM     92  C   UNL A   1      50.452  26.735  26.910  1.00  0.00     0.135 A 
ATOM     93  F   UNL A   1      48.974  27.878  23.853  1.00  0.00    -0.206 F 
ATOM     94  C   UNL A   1      50.984  26.620  24.300  1.00  0.00     0.059 A 
ATOM     95  C   UNL A   1      51.659  26.262  26.453  1.00  0.00     0.059 A 
ATOM     96  F   UNL A   1      50.217  26.788  28.218  1.00  0.00    -0.206 F 
ATOM     97  C   UNL A   1      51.962  26.282  25.121  1.00  0.00     0.060 A 
BRANCH  97  98
ATOM     98  S   UNL A   1      53.616  25.867  24.514  1.00  0.00     0.124 S 
ATOM     99  O   UNL A   1      54.636  26.848  25.100  1.00  0.00    -0.237 OA
ATOM    100  O   UNL A   1      53.975  24.442  24.942  1.00  0.00    -0.237 OA
ATOM    101  O   UNL A   1      53.640  25.973  22.807  1.00  0.00    -0.744 OA
ENDBRANCH  97  98
ENDBRANCH  65  90
ENDBRANCH  39  40
ENDBRANCH  31  34
ENDBRANCH   1  30
TORSDOF 16
ENDMDL
MODEL 3
REMARK VINA RESULT:     -12.9      6.353     11.939
REMARK SMILES CCc1cc(S(F)(F)(F)(F)F)cc2c1O[C@@H](C(F)(F)F)C(C(=O)NCCCNC(=O)c1ccc(-c3c4nc(c(-c5c(F)cc(S(=O)(=O)[O-])cc5F)c5ccc([nH]5)c(-c5c(F)cc(S(=O)(=O)[O-])cc5F)c5nc(c(-c6c(F)cc(S(=O)(=O)[O-])cc6F)c6ccc3[nH]6)C=C5)C=C4)cc1)=C2
REMARK SMILES IDX 27 1 26 2 25 3 24 4 22 5 23 6 21 8 3 9 4 10 14 11 5 12 13 13
REMARK SMILES IDX 15 14 12 15 97 16 16 17 2 18 1 19 6 20 7 21 8 22 9 23 10 24
REMARK SMILES IDX 11 25 17 26 18 27 19 28 20 29 28 30 29 31 30 33 31 34 32 35
REMARK SMILES IDX 96 36 33 37 95 38 34 39 35 40 36 41 89 42 37 43 94 44 88 45
REMARK SMILES IDX 90 46 38 47 93 48 87 49 86 50 39 52 73 53 52 54 72 55 53 56
REMARK SMILES IDX 56 57 71 58 91 59 54 60 55 61 70 63 92 64 57 65 40 66 41 67
REMARK SMILES IDX 50 68 42 69 43 70 49 71 51 72 44 73 45 74 46 75 47 76 48 77
REMARK SMILES IDX 74 78 75 79 84 80 76 81 77 82 83 83 85 84 78 85 79 86 80 87
REMARK SMILES IDX 81 88 82 89 58 90 59 91 68 92 60 93 61 94 67 95 69 96 62 97
REMARK SMILES IDX 63 98 64 99 65 100 66 101
REMARK H PARENT 24 7 28 32 90 51 56 62
REMARK Flexibility Score: inf
ROOT
ATOM      1  C   UNL A   1      35.596  30.023  28.737  1.00  0.00     0.118 C 
ENDROOT
BRANCH   1   2
ATOM      2  C   UNL A   1      34.939  30.810  27.613  1.00  0.00     0.042 C 
BRANCH   2   3
ATOM      3  C   UNL A   1      34.058  29.882  26.794  1.00  0.00     0.118 C 
BRANCH   3   4
ATOM      4  N   UNL A   1      32.917  29.443  27.610  1.00  0.00    -0.352 N 
ATOM      5  C   UNL A   1      32.243  28.172  27.310  1.00  0.00     0.251 C 
ATOM      6  O   UNL A   1      31.257  27.792  28.017  1.00  0.00    -0.270 OA
ATOM      7  H   UNL A   1      32.603  30.002  28.358  1.00  0.00     0.163 HD
BRANCH   5   8
ATOM      8  C   UNL A   1      32.727  27.309  26.156  1.00  0.00     0.067 C 
ATOM      9  C   UNL A   1      33.612  24.688  23.026  1.00  0.00    -0.004 A 
ATOM     10  C   UNL A   1      34.627  23.761  23.169  1.00  0.00     0.032 A 
ATOM     11  C   UNL A   1      33.306  25.502  24.090  1.00  0.00     0.131 A 
ATOM     12  C   UNL A   1      35.316  23.646  24.348  1.00  0.00     0.108 A 
ATOM     13  C   UNL A   1      33.992  25.427  25.289  1.00  0.00     0.019 A 
ATOM     14  O   UNL A   1      32.225  26.339  23.971  1.00  0.00    -0.475 OA
ATOM     15  C   UNL A   1      35.003  24.480  25.401  1.00  0.00     0.036 A 
ATOM     16  C   UNL A   1      33.569  26.304  26.367  1.00  0.00     0.025 C 
ATOM     17  C   UNL A   1      32.257  27.578  24.733  1.00  0.00     0.314 C 
BRANCH   9  18
ATOM     18  C   UNL A   1      32.943  24.961  21.688  1.00  0.00     0.036 C 
ATOM     19  C   UNL A   1      33.187  26.406  21.284  1.00  0.00     0.009 C 
ENDBRANCH   9  18
BRANCH  12  20
ATOM     20  S   UNL A   1      36.625  22.408  24.522  1.00  0.00     0.310 S 
ATOM     21  F   UNL A   1      37.031  22.260  22.996  1.00  0.00    -0.094 F 
ATOM     22  F   UNL A   1      35.600  21.233  24.293  1.00  0.00    -0.094 F 
ATOM     23  F   UNL A   1      37.754  21.393  24.857  1.00  0.00    -0.094 F 
ATOM     24  F   UNL A   1      37.670  23.589  24.611  1.00  0.00    -0.094 F 
ATOM     25  F   UNL A   1      35.517  23.442  24.074  1.00  0.00    -0.094 F 
ENDBRANCH  12  20
BRANCH  17  26
ATOM     26  C   UNL A   1      30.858  28.172  24.776  1.00  0.00     0.429 C 
ATOM     27  F   UNL A   1      30.056  27.364  25.464  1.00  0.00    -0.167 F 
ATOM     28  F   UNL A   1      30.900  29.363  25.366  1.00  0.00    -0.167 F 
ATOM     29  F   UNL A   1      30.395  28.307  23.536  1.00  0.00    -0.167 F 
ENDBRANCH  17  26
ENDBRANCH   5   8
ENDBRANCH   3   4
ENDBRANCH   2   3
ENDBRANCH   1   2
BRANCH   1  30
ATOM     30  N   UNL A   1      35.515  30.793  29.986  1.00  0.00    -0.352 N 
ATOM     31  C   UNL A   1      36.739  31.105  30.738  1.00  0.00     0.251 C 
ATOM     32  H   UNL A   1      34.640  31.100  30.320  1.00  0.00     0.163 HD
ATOM     33  O   UNL A   1      36.669  31.771  31.818  1.00  0.00    -0.269 OA
BRANCH  31  34
ATOM     34  C   UNL A   1      38.088  30.631  30.224  1.00  0.00     0.039 A 
ATOM     35  C   UNL A   1      38.350  30.687  28.865  1.00  0.00     0.014 A 
ATOM     36  C   UNL A   1      38.998  30.186  31.083  1.00  0.00     0.014 A 
ATOM     37  C   UNL A   1      39.510  29.977  28.475  1.00  0.00     0.010 A 
ATOM     38  C   UNL A   1      40.169  29.627  30.633  1.00  0.00     0.010 A 
ATOM     39  C   UNL A   1      40.468  29.595  29.300  1.00  0.00    -0.014 A 
BRANCH  39  40
ATOM     40  C   UNL A   1      41.829  29.146  28.794  1.00  0.00     0.031 A 
ATOM     41  C   UNL A   1      41.992  27.802  28.452  1.00  0.00     0.074 A 
ATOM     42  C   UNL A   1      42.835  30.093  28.713  1.00  0.00     0.049 A 
ATOM     43  N   UNL A   1      43.088  27.212  27.973  1.00  0.00    -0.248 NA
ATOM     44  C   UNL A   1      40.934  26.787  28.568  1.00  0.00     0.031 C 
ATOM     45  C   UNL A   1      42.676  31.452  29.048  1.00  0.00     0.029 A 
ATOM     46  N   UNL A   1      44.138  29.908  28.309  1.00  0.00    -0.354 N 
ATOM     47  C   UNL A   1      42.854  25.918  27.747  1.00  0.00     0.074 A 
ATOM     48  C   UNL A   1      41.467  25.625  28.133  1.00  0.00     0.031 C 
ATOM     49  C   UNL A   1      43.868  32.075  28.860  1.00  0.00     0.029 A 
ATOM     50  C   UNL A   1      44.794  31.117  28.404  1.00  0.00     0.049 A 
ATOM     51  H   UNL A   1      44.534  29.060  28.006  1.00  0.00     0.167 HD
ATOM     52  C   UNL A   1      43.742  24.972  27.234  1.00  0.00     0.037 A 
ATOM     53  C   UNL A   1      46.122  31.388  28.115  1.00  0.00     0.037 A 
ATOM     54  C   UNL A   1      45.059  25.251  26.904  1.00  0.00     0.049 A 
ATOM     55  C   UNL A   1      47.027  30.427  27.657  1.00  0.00     0.074 A 
ATOM     56  C   UNL A   1      45.965  24.310  26.378  1.00  0.00     0.029 A 
ATOM     57  N   UNL A   1      45.719  26.454  27.022  1.00  0.00    -0.354 N 
ATOM     58  N   UNL A   1      46.781  29.142  27.394  1.00  0.00    -0.248 NA
ATOM     59  C   UNL A   1      48.443  30.695  27.378  1.00  0.00     0.031 C 
ATOM     60  C   UNL A   1      47.158  24.935  26.190  1.00  0.00     0.029 A 
ATOM     61  C   UNL A   1      47.018  26.275  26.596  1.00  0.00     0.049 A 
ATOM     62  H   UNL A   1      45.332  27.296  27.353  1.00  0.00     0.167 HD
ATOM     63  C   UNL A   1      47.890  28.543  26.954  1.00  0.00     0.074 A 
ATOM     64  C   UNL A   1      48.977  29.532  26.945  1.00  0.00     0.031 C 
ATOM     65  C   UNL A   1      48.038  27.213  26.557  1.00  0.00     0.037 A 
BRANCH  52  66
ATOM     66  C   UNL A   1      43.237  23.553  27.025  1.00  0.00     0.058 A 
ATOM     67  C   UNL A   1      43.142  22.685  28.100  1.00  0.00     0.135 A 
ATOM     68  C   UNL A   1      42.944  23.156  25.793  1.00  0.00     0.135 A 
ATOM     69  F   UNL A   1      43.177  23.092  29.366  1.00  0.00    -0.206 F 
ATOM     70  C   UNL A   1      43.005  21.326  27.730  1.00  0.00     0.059 A 
ATOM     71  C   UNL A   1      42.688  21.833  25.526  1.00  0.00     0.059 A 
ATOM     72  F   UNL A   1      42.899  24.048  24.806  1.00  0.00    -0.206 F 
ATOM     73  C   UNL A   1      42.637  20.910  26.533  1.00  0.00     0.060 A 
BRANCH  73  74
ATOM     74  S   UNL A   1      42.094  19.208  26.241  1.00  0.00     0.124 S 
ATOM     75  O   UNL A   1      42.922  18.594  25.110  1.00  0.00    -0.237 OA
ATOM     76  O   UNL A   1      42.285  18.385  27.518  1.00  0.00    -0.237 OA
ATOM     77  O   UNL A   1      40.440  19.205  25.804  1.00  0.00    -0.744 OA
ENDBRANCH  73  74
ENDBRANCH  52  66
BRANCH  53  78
ATOM     78  C   UNL A   1      46.622  32.810  28.308  1.00  0.00     0.058 A 
ATOM     79  C   UNL A   1      46.531  33.660  27.219  1.00  0.00     0.135 A 
ATOM     80  C   UNL A   1      47.106  33.230  29.471  1.00  0.00     0.135 A 
ATOM     81  F   UNL A   1      45.831  33.366  26.127  1.00  0.00    -0.206 F 
ATOM     82  C   UNL A   1      47.249  34.869  27.373  1.00  0.00     0.059 A 
ATOM     83  C   UNL A   1      47.672  34.476  29.584  1.00  0.00     0.059 A 
ATOM     84  F   UNL A   1      47.042  32.437  30.537  1.00  0.00    -0.206 F 
ATOM     85  C   UNL A   1      47.670  35.347  28.530  1.00  0.00     0.060 A 
BRANCH  85  86
ATOM     86  S   UNL A   1      48.215  37.064  28.710  1.00  0.00     0.124 S 
ATOM     87  O   UNL A   1      47.063  38.006  28.350  1.00  0.00    -0.237 OA
ATOM     88  O   UNL A   1      48.644  37.314  30.157  1.00  0.00    -0.237 OA
ATOM     89  O   UNL A   1      49.537  37.355  27.666  1.00  0.00    -0.744 OA
ENDBRANCH  85  86
ENDBRANCH  53  78
BRANCH  65  90
ATOM     90  C   UNL A   1      49.399  26.766  26.052  1.00  0.00     0.058 A 
ATOM     91  C   UNL A   1      50.290  26.179  26.935  1.00  0.00     0.135 A 
ATOM     92  C   UNL A   1      49.708  26.933  24.771  1.00  0.00     0.135 A 
ATOM     93  F   UNL A   1      49.940  25.763  28.149  1.00  0.00    -0.206 F 
ATOM     94  C   UNL A   1      51.605  26.061  26.428  1.00  0.00     0.059 A 
ATOM     95  C   UNL A   1      50.978  26.668  24.318  1.00  0.00     0.059 A 
ATOM     96  F   UNL A   1      48.780  27.359  23.919  1.00  0.00    -0.206 F 
ATOM     97  C   UNL A   1      51.926  26.142  25.150  1.00  0.00     0.060 A 
BRANCH  97  98
ATOM     98  S   UNL A   1      53.534  25.586  24.533  1.00  0.00     0.124 S 
ATOM     99  O   UNL A   1      53.669  24.075  24.747  1.00  0.00    -0.237 OA
ATOM    100  O   UNL A   1      53.645  25.901  23.040  1.00  0.00    -0.237 OA
ATOM    101  O   UNL A   1      54.781  26.395  25.381  1.00  0.00    -0.744 OA
ENDBRANCH  97  98
ENDBRANCH  65  90
ENDBRANCH  39  40
ENDBRANCH  31  34
ENDBRANCH   1  30
TORSDOF 16
ENDMDL
