MODEL 1
REMARK VINA RESULT:     -12.3      0.000      0.000
REMARK SMILES COc1ccc([C@@H]2[NH2+][C@H](C(=O)NCCCNC(=O)c3ccc(-c4c5nc(c(-c6c(F)cc(S(=O)(=O)[O-])cc6F)c6ccc([nH]6)c(-c6c(F)cc(S(=O)(=O)[O-])cc6F)c6nc(c(-c7c(F)cc(S(=O)(=O)[O-])cc7F)c7ccc4[nH]7)C=C6)C=C5)cc3)CS2)cc1Cn1nc(C)c(Br)c1C
REMARK SMILES IDX 14 1 13 2 12 3 10 4 11 5 9 7 7 8 8 9 86 10 85 13 6 14 3 15
REMARK SMILES IDX 4 16 88 17 5 18 87 19 2 20 1 21 89 22 90 23 91 24 96 25
REMARK SMILES IDX 92 26 94 27 97 28 93 29 95 30 15 31 16 32 17 33 18 35 19 36
REMARK SMILES IDX 20 37 84 38 21 39 83 40 22 41 23 42 24 43 77 44 25 45 82 46
REMARK SMILES IDX 76 47 78 48 26 49 81 50 75 51 74 52 27 54 61 55 40 56 60 57
REMARK SMILES IDX 41 58 44 59 59 60 79 61 42 62 43 63 58 65 80 66 45 67 28 68
REMARK SMILES IDX 29 69 38 70 30 71 31 72 37 73 39 74 32 75 33 76 34 77 35 78
REMARK SMILES IDX 36 79 62 80 63 81 72 82 64 83 65 84 71 85 73 86 66 87 67 88
REMARK SMILES IDX 68 89 69 90 70 91 46 92 47 93 56 94 48 95 49 96 55 97 57 98
REMARK SMILES IDX 50 99 51 100 52 101 53 102 54 103
REMARK H PARENT 12 6 8 11 8 12 16 34 78 53 44 64
REMARK Flexibility Score: inf
ROOT
ATOM      1  C   UNL A   1      33.702  29.298  26.408  1.00  0.00     0.042 C 
ENDROOT
BRANCH   1   2
ATOM      2  C   UNL A   1      33.396  28.152  25.465  1.00  0.00     0.118 C 
BRANCH   2   3
ATOM      3  N   UNL A   1      34.149  28.065  24.234  1.00  0.00    -0.351 N 
ATOM      4  C   UNL A   1      33.708  28.276  22.957  1.00  0.00     0.279 C 
ATOM      5  O   UNL A   1      34.561  28.656  22.141  1.00  0.00    -0.268 OA
ATOM      6  H   UNL A   1      35.100  27.825  24.327  1.00  0.00     0.163 HD
BRANCH   4   7
ATOM      7  C   UNL A   1      32.248  28.083  22.458  1.00  0.00     0.283 C 
ATOM      8  C   UNL A   1      30.503  26.454  22.962  1.00  0.00     0.274 C 
ATOM      9  N   UNL A   1      31.795  26.682  22.291  1.00  0.00    -0.321 N 
ATOM     10  S   UNL A   1      29.700  28.048  23.184  1.00  0.00    -0.088 SA
ATOM     11  H   UNL A   1      31.693  26.482  21.296  1.00  0.00     0.348 HD
ATOM     12  H   UNL A   1      32.490  26.066  22.715  1.00  0.00     0.348 HD
ATOM     13  C   UNL A   1      31.277  28.912  23.290  1.00  0.00     0.151 C 
BRANCH   8  14
ATOM     14  C   UNL A   1      30.710  25.627  24.235  1.00  0.00     0.021 A 
ATOM     15  C   UNL A   1      30.540  23.879  26.434  1.00  0.00     0.123 A 
ATOM     16  C   UNL A   1      29.899  25.125  26.464  1.00  0.00     0.047 A 
ATOM     17  C   UNL A   1      31.269  23.456  25.311  1.00  0.00     0.016 A 
ATOM     18  C   UNL A   1      29.973  25.987  25.372  1.00  0.00     0.015 A 
ATOM     19  C   UNL A   1      31.395  24.386  24.256  1.00  0.00     0.020 A 
BRANCH  15  20
ATOM     20  O   UNL A   1      30.279  23.077  27.505  1.00  0.00    -0.496 OA
ATOM     21  C   UNL A   1      28.973  22.517  27.505  1.00  0.00     0.278 C 
ENDBRANCH  15  20
BRANCH  17  22
ATOM     22  C   UNL A   1      31.890  22.068  25.192  1.00  0.00     0.184 C 
BRANCH  22  23
ATOM     23  N   UNL A   1      33.365  21.990  25.271  1.00  0.00    -0.264 N 
ATOM     24  N   UNL A   1      34.055  23.131  25.532  1.00  0.00    -0.177 NA
ATOM     25  C   UNL A   1      34.220  20.949  24.963  1.00  0.00     0.050 A 
ATOM     26  C   UNL A   1      35.351  22.802  25.468  1.00  0.00     0.074 A 
ATOM     27  C   UNL A   1      35.491  21.441  25.170  1.00  0.00     0.061 A 
ATOM     28  C   UNL A   1      33.827  19.603  24.497  1.00  0.00     0.067 C 
ATOM     29  C   UNL A   1      36.392  23.839  25.692  1.00  0.00     0.070 C 
ATOM     30  Br  UNL A   1      37.113  20.515  25.023  1.00  0.00    -0.047 Br
ENDBRANCH  22  23
ENDBRANCH  17  22
ENDBRANCH   8  14
ENDBRANCH   4   7
ENDBRANCH   2   3
ENDBRANCH   1   2
BRANCH   1  31
ATOM     31  C   UNL A   1      34.935  29.088  27.283  1.00  0.00     0.118 C 
BRANCH  31  32
ATOM     32  N   UNL A   1      35.027  29.920  28.488  1.00  0.00    -0.352 N 
ATOM     33  C   UNL A   1      36.072  30.331  29.279  1.00  0.00     0.251 C 
ATOM     34  H   UNL A   1      34.154  30.257  28.793  1.00  0.00     0.163 HD
ATOM     35  O   UNL A   1      35.905  31.136  30.201  1.00  0.00    -0.269 OA
BRANCH  33  36
ATOM     36  C   UNL A   1      37.419  29.807  29.057  1.00  0.00     0.039 A 
ATOM     37  C   UNL A   1      37.972  29.829  27.771  1.00  0.00     0.014 A 
ATOM     38  C   UNL A   1      38.128  29.276  30.125  1.00  0.00     0.014 A 
ATOM     39  C   UNL A   1      39.285  29.403  27.579  1.00  0.00     0.010 A 
ATOM     40  C   UNL A   1      39.464  28.974  29.962  1.00  0.00     0.010 A 
ATOM     41  C   UNL A   1      40.050  29.019  28.687  1.00  0.00    -0.014 A 
BRANCH  41  42
ATOM     42  C   UNL A   1      41.458  28.586  28.586  1.00  0.00     0.031 A 
ATOM     43  C   UNL A   1      42.525  29.645  28.614  1.00  0.00     0.074 A 
ATOM     44  C   UNL A   1      41.746  27.303  28.301  1.00  0.00     0.049 A 
ATOM     45  N   UNL A   1      43.767  29.579  28.225  1.00  0.00    -0.248 NA
ATOM     46  C   UNL A   1      42.105  30.983  29.076  1.00  0.00     0.031 C 
ATOM     47  C   UNL A   1      40.774  26.209  28.218  1.00  0.00     0.029 A 
ATOM     48  N   UNL A   1      42.940  26.711  27.982  1.00  0.00    -0.354 N 
ATOM     49  C   UNL A   1      44.262  30.872  28.345  1.00  0.00     0.074 A 
ATOM     50  C   UNL A   1      43.173  31.711  28.790  1.00  0.00     0.031 C 
ATOM     51  C   UNL A   1      41.412  25.080  27.871  1.00  0.00     0.029 A 
ATOM     52  C   UNL A   1      42.822  25.381  27.651  1.00  0.00     0.049 A 
ATOM     53  H   UNL A   1      43.799  27.191  27.990  1.00  0.00     0.167 HD
ATOM     54  C   UNL A   1      45.522  31.310  28.120  1.00  0.00     0.037 A 
ATOM     55  C   UNL A   1      43.748  24.520  27.191  1.00  0.00     0.037 A 
ATOM     56  C   UNL A   1      46.596  30.438  27.730  1.00  0.00     0.049 A 
ATOM     57  C   UNL A   1      45.150  25.024  26.973  1.00  0.00     0.074 A 
ATOM     58  C   UNL A   1      47.933  30.743  27.549  1.00  0.00     0.029 A 
ATOM     59  N   UNL A   1      46.455  29.080  27.475  1.00  0.00    -0.354 N 
ATOM     60  N   UNL A   1      45.622  26.239  27.130  1.00  0.00    -0.248 NA
ATOM     61  C   UNL A   1      46.144  24.044  26.518  1.00  0.00     0.031 C 
ATOM     62  C   UNL A   1      48.592  29.577  27.148  1.00  0.00     0.029 A 
ATOM     63  C   UNL A   1      47.676  28.536  27.125  1.00  0.00     0.049 A 
ATOM     64  H   UNL A   1      45.609  28.579  27.535  1.00  0.00     0.167 HD
ATOM     65  C   UNL A   1      46.973  26.165  26.814  1.00  0.00     0.074 A 
ATOM     66  C   UNL A   1      47.244  24.783  26.474  1.00  0.00     0.031 C 
ATOM     67  C   UNL A   1      47.908  27.148  26.802  1.00  0.00     0.037 A 
BRANCH  54  68
ATOM     68  C   UNL A   1      45.798  32.776  28.303  1.00  0.00     0.058 A 
ATOM     69  C   UNL A   1      45.673  33.690  27.243  1.00  0.00     0.135 A 
ATOM     70  C   UNL A   1      46.175  33.282  29.557  1.00  0.00     0.135 A 
ATOM     71  F   UNL A   1      45.337  33.260  26.016  1.00  0.00    -0.206 F 
ATOM     72  C   UNL A   1      45.940  35.044  27.411  1.00  0.00     0.059 A 
ATOM     73  C   UNL A   1      46.415  34.640  29.757  1.00  0.00     0.059 A 
ATOM     74  F   UNL A   1      46.318  32.456  30.605  1.00  0.00    -0.206 F 
ATOM     75  C   UNL A   1      46.308  35.510  28.674  1.00  0.00     0.060 A 
BRANCH  75  76
ATOM     76  S   UNL A   1      46.627  37.275  28.879  1.00  0.00     0.124 S 
ATOM     77  O   UNL A   1      46.019  37.824  27.670  1.00  0.00    -0.237 OA
ATOM     78  O   UNL A   1      45.933  37.573  30.128  1.00  0.00    -0.237 OA
ATOM     79  O   UNL A   1      48.082  37.353  28.940  1.00  0.00    -0.744 OA
ENDBRANCH  75  76
ENDBRANCH  54  68
BRANCH  55  80
ATOM     80  C   UNL A   1      43.383  23.103  26.920  1.00  0.00     0.058 A 
ATOM     81  C   UNL A   1      43.123  22.218  27.977  1.00  0.00     0.135 A 
ATOM     82  C   UNL A   1      43.263  22.607  25.612  1.00  0.00     0.135 A 
ATOM     83  F   UNL A   1      43.226  22.643  29.246  1.00  0.00    -0.206 F 
ATOM     84  C   UNL A   1      42.776  20.891  27.751  1.00  0.00     0.059 A 
ATOM     85  C   UNL A   1      42.893  21.289  25.359  1.00  0.00     0.059 A 
ATOM     86  F   UNL A   1      43.481  23.416  24.563  1.00  0.00    -0.206 F 
ATOM     87  C   UNL A   1      42.661  20.436  26.436  1.00  0.00     0.060 A 
BRANCH  87  88
ATOM     88  S   UNL A   1      42.163  18.722  26.156  1.00  0.00     0.124 S 
ATOM     89  O   UNL A   1      42.377  18.134  27.473  1.00  0.00    -0.237 OA
ATOM     90  O   UNL A   1      40.770  18.872  25.743  1.00  0.00    -0.237 OA
ATOM     91  O   UNL A   1      43.075  18.275  25.107  1.00  0.00    -0.744 OA
ENDBRANCH  87  88
ENDBRANCH  55  80
BRANCH  67  92
ATOM     92  C   UNL A   1      49.310  26.755  26.437  1.00  0.00     0.058 A 
ATOM     93  C   UNL A   1      50.185  26.196  27.381  1.00  0.00     0.135 A 
ATOM     94  C   UNL A   1      49.759  26.880  25.112  1.00  0.00     0.135 A 
ATOM     95  F   UNL A   1      49.803  26.064  28.661  1.00  0.00    -0.206 F 
ATOM     96  C   UNL A   1      51.466  25.790  27.027  1.00  0.00     0.059 A 
ATOM     97  C   UNL A   1      51.025  26.453  24.731  1.00  0.00     0.059 A 
ATOM     98  F   UNL A   1      48.953  27.399  24.171  1.00  0.00    -0.206 F 
ATOM     99  C   UNL A   1      51.875  25.919  25.697  1.00  0.00     0.060 A 
BRANCH  99 100
ATOM    100  S   UNL A   1      53.525  25.346  25.244  1.00  0.00     0.124 S 
ATOM    101  O   UNL A   1      54.359  26.071  26.196  1.00  0.00    -0.237 OA
ATOM    102  O   UNL A   1      53.424  23.906  25.456  1.00  0.00    -0.237 OA
ATOM    103  O   UNL A   1      53.658  25.761  23.850  1.00  0.00    -0.744 OA
ENDBRANCH  99 100
ENDBRANCH  67  92
ENDBRANCH  41  42
ENDBRANCH  33  36
ENDBRANCH  31  32
ENDBRANCH   1  31
TORSDOF 17
ENDMDL
MODEL 2
REMARK VINA RESULT:     -12.0      6.503     10.806
REMARK SMILES COc1ccc([C@@H]2[NH2+][C@H](C(=O)NCCCNC(=O)c3ccc(-c4c5nc(c(-c6c(F)cc(S(=O)(=O)[O-])cc6F)c6ccc([nH]6)c(-c6c(F)cc(S(=O)(=O)[O-])cc6F)c6nc(c(-c7c(F)cc(S(=O)(=O)[O-])cc7F)c7ccc4[nH]7)C=C6)C=C5)cc3)CS2)cc1Cn1nc(C)c(Br)c1C
REMARK SMILES IDX 14 1 13 2 12 3 10 4 11 5 9 7 7 8 8 9 86 10 85 13 6 14 3 15
REMARK SMILES IDX 4 16 88 17 5 18 87 19 2 20 1 21 89 22 90 23 91 24 96 25
REMARK SMILES IDX 92 26 94 27 97 28 93 29 95 30 15 31 16 32 17 33 18 35 19 36
REMARK SMILES IDX 20 37 84 38 21 39 83 40 22 41 23 42 24 43 77 44 25 45 82 46
REMARK SMILES IDX 76 47 78 48 26 49 81 50 75 51 74 52 27 54 61 55 40 56 60 57
REMARK SMILES IDX 41 58 44 59 59 60 79 61 42 62 43 63 58 65 80 66 45 67 28 68
REMARK SMILES IDX 29 69 38 70 30 71 31 72 37 73 39 74 32 75 33 76 34 77 35 78
REMARK SMILES IDX 36 79 62 80 63 81 72 82 64 83 65 84 71 85 73 86 66 87 67 88
REMARK SMILES IDX 68 89 69 90 70 91 46 92 47 93 56 94 48 95 49 96 55 97 57 98
REMARK SMILES IDX 50 99 51 100 52 101 53 102 54 103
REMARK H PARENT 12 6 8 11 8 12 16 34 78 53 44 64
REMARK Flexibility Score: inf
ROOT
ATOM      1  C   UNL A   1      31.949  31.851  26.974  1.00  0.00     0.042 C 
ENDROOT
BRANCH   1   2
ATOM      2  C   UNL A   1      32.538  30.472  26.753  1.00  0.00     0.118 C 
BRANCH   2   3
ATOM      3  N   UNL A   1      31.760  29.326  27.168  1.00  0.00    -0.351 N 
ATOM      4  C   UNL A   1      31.518  28.173  26.475  1.00  0.00     0.279 C 
ATOM      5  O   UNL A   1      31.297  27.161  27.158  1.00  0.00    -0.268 OA
ATOM      6  H   UNL A   1      31.353  29.384  28.063  1.00  0.00     0.163 HD
BRANCH   4   7
ATOM      7  C   UNL A   1      31.503  28.031  24.926  1.00  0.00     0.283 C 
ATOM      8  C   UNL A   1      32.601  26.509  23.368  1.00  0.00     0.274 C 
ATOM      9  N   UNL A   1      32.784  27.640  24.293  1.00  0.00    -0.321 N 
ATOM     10  S   UNL A   1      30.864  26.442  22.905  1.00  0.00    -0.088 SA
ATOM     11  H   UNL A   1      33.156  28.437  23.775  1.00  0.00     0.348 HD
ATOM     12  H   UNL A   1      33.431  27.353  25.028  1.00  0.00     0.348 HD
ATOM     13  C   UNL A   1      30.340  27.155  24.474  1.00  0.00     0.151 C 
BRANCH   8  14
ATOM     14  C   UNL A   1      33.178  25.229  23.981  1.00  0.00     0.021 A 
ATOM     15  C   UNL A   1      34.140  23.168  25.639  1.00  0.00     0.123 A 
ATOM     16  C   UNL A   1      34.956  24.260  25.315  1.00  0.00     0.047 A 
ATOM     17  C   UNL A   1      32.821  23.072  25.167  1.00  0.00     0.016 A 
ATOM     18  C   UNL A   1      34.479  25.287  24.503  1.00  0.00     0.015 A 
ATOM     19  C   UNL A   1      32.395  24.085  24.279  1.00  0.00     0.020 A 
BRANCH  15  20
ATOM     20  O   UNL A   1      34.677  22.303  26.546  1.00  0.00    -0.496 OA
ATOM     21  C   UNL A   1      35.675  21.446  26.009  1.00  0.00     0.278 C 
ENDBRANCH  15  20
BRANCH  17  22
ATOM     22  C   UNL A   1      31.864  21.960  25.581  1.00  0.00     0.184 C 
BRANCH  22  23
ATOM     23  N   UNL A   1      32.106  20.622  24.997  1.00  0.00    -0.264 N 
ATOM     24  N   UNL A   1      32.383  19.594  25.840  1.00  0.00    -0.177 NA
ATOM     25  C   UNL A   1      32.259  20.241  23.678  1.00  0.00     0.050 A 
ATOM     26  C   UNL A   1      32.637  18.536  25.061  1.00  0.00     0.074 A 
ATOM     27  C   UNL A   1      32.516  18.887  23.712  1.00  0.00     0.061 A 
ATOM     28  C   UNL A   1      32.174  21.124  22.496  1.00  0.00     0.067 C 
ATOM     29  C   UNL A   1      32.996  17.231  25.677  1.00  0.00     0.070 C 
ATOM     30  Br  UNL A   1      32.733  17.728  22.256  1.00  0.00    -0.047 Br
ENDBRANCH  22  23
ENDBRANCH  17  22
ENDBRANCH   8  14
ENDBRANCH   4   7
ENDBRANCH   2   3
ENDBRANCH   1   2
BRANCH   1  31
ATOM     31  C   UNL A   1      32.983  32.959  27.163  1.00  0.00     0.118 C 
BRANCH  31  32
ATOM     32  N   UNL A   1      32.594  34.067  28.043  1.00  0.00    -0.352 N 
ATOM     33  C   UNL A   1      33.203  34.698  29.100  1.00  0.00     0.251 C 
ATOM     34  H   UNL A   1      31.707  34.437  27.830  1.00  0.00     0.163 HD
ATOM     35  O   UNL A   1      32.708  35.700  29.625  1.00  0.00    -0.269 OA
BRANCH  33  36
ATOM     36  C   UNL A   1      34.460  34.183  29.643  1.00  0.00     0.039 A 
ATOM     37  C   UNL A   1      35.680  34.607  29.101  1.00  0.00     0.014 A 
ATOM     38  C   UNL A   1      34.427  33.265  30.683  1.00  0.00     0.014 A 
ATOM     39  C   UNL A   1      36.874  34.177  29.674  1.00  0.00     0.010 A 
ATOM     40  C   UNL A   1      35.600  32.939  31.330  1.00  0.00     0.010 A 
ATOM     41  C   UNL A   1      36.835  33.377  30.823  1.00  0.00    -0.014 A 
BRANCH  41  42
ATOM     42  C   UNL A   1      38.046  32.901  31.520  1.00  0.00     0.031 A 
ATOM     43  C   UNL A   1      38.746  31.691  30.968  1.00  0.00     0.074 A 
ATOM     44  C   UNL A   1      38.392  33.435  32.706  1.00  0.00     0.049 A 
ATOM     45  N   UNL A   1      39.600  30.893  31.545  1.00  0.00    -0.248 NA
ATOM     46  C   UNL A   1      38.371  31.287  29.598  1.00  0.00     0.031 C 
ATOM     47  C   UNL A   1      37.749  34.589  33.341  1.00  0.00     0.029 A 
ATOM     48  N   UNL A   1      39.342  33.046  33.611  1.00  0.00    -0.354 N 
ATOM     49  C   UNL A   1      39.823  29.867  30.634  1.00  0.00     0.074 A 
ATOM     50  C   UNL A   1      38.976  30.115  29.490  1.00  0.00     0.031 C 
ATOM     51  C   UNL A   1      38.325  34.813  34.532  1.00  0.00     0.029 A 
ATOM     52  C   UNL A   1      39.334  33.787  34.770  1.00  0.00     0.049 A 
ATOM     53  H   UNL A   1      39.972  32.306  33.448  1.00  0.00     0.167 HD
ATOM     54  C   UNL A   1      40.677  28.824  30.742  1.00  0.00     0.037 A 
ATOM     55  C   UNL A   1      40.041  33.627  35.904  1.00  0.00     0.037 A 
ATOM     56  C   UNL A   1      41.547  28.637  31.871  1.00  0.00     0.049 A 
ATOM     57  C   UNL A   1      41.005  32.473  35.990  1.00  0.00     0.074 A 
ATOM     58  C   UNL A   1      42.513  27.666  32.065  1.00  0.00     0.029 A 
ATOM     59  N   UNL A   1      41.563  29.451  32.996  1.00  0.00    -0.354 N 
ATOM     60  N   UNL A   1      41.243  31.531  35.107  1.00  0.00    -0.248 NA
ATOM     61  C   UNL A   1      41.795  32.359  37.222  1.00  0.00     0.031 C 
ATOM     62  C   UNL A   1      43.087  27.873  33.322  1.00  0.00     0.029 A 
ATOM     63  C   UNL A   1      42.512  28.999  33.893  1.00  0.00     0.049 A 
ATOM     64  H   UNL A   1      40.983  30.236  33.133  1.00  0.00     0.167 HD
ATOM     65  C   UNL A   1      42.227  30.725  35.668  1.00  0.00     0.074 A 
ATOM     66  C   UNL A   1      42.549  31.301  36.958  1.00  0.00     0.031 C 
ATOM     67  C   UNL A   1      42.811  29.608  35.167  1.00  0.00     0.037 A 
BRANCH  54  68
ATOM     68  C   UNL A   1      40.716  27.829  29.615  1.00  0.00     0.058 A 
ATOM     69  C   UNL A   1      39.743  26.824  29.482  1.00  0.00     0.135 A 
ATOM     70  C   UNL A   1      41.726  27.890  28.642  1.00  0.00     0.135 A 
ATOM     71  F   UNL A   1      38.766  26.704  30.395  1.00  0.00    -0.206 F 
ATOM     72  C   UNL A   1      39.787  25.899  28.445  1.00  0.00     0.059 A 
ATOM     73  C   UNL A   1      41.771  26.995  27.576  1.00  0.00     0.059 A 
ATOM     74  F   UNL A   1      42.686  28.824  28.721  1.00  0.00    -0.206 F 
ATOM     75  C   UNL A   1      40.804  25.994  27.495  1.00  0.00     0.060 A 
BRANCH  75  76
ATOM     76  S   UNL A   1      40.832  24.799  26.142  1.00  0.00     0.124 S 
ATOM     77  O   UNL A   1      39.440  24.357  26.115  1.00  0.00    -0.237 OA
ATOM     78  O   UNL A   1      41.258  25.618  25.012  1.00  0.00    -0.237 OA
ATOM     79  O   UNL A   1      41.797  23.801  26.589  1.00  0.00    -0.744 OA
ENDBRANCH  75  76
ENDBRANCH  54  68
BRANCH  55  80
ATOM     80  C   UNL A   1      39.874  34.583  37.031  1.00  0.00     0.058 A 
ATOM     81  C   UNL A   1      39.014  34.285  38.099  1.00  0.00     0.135 A 
ATOM     82  C   UNL A   1      40.580  35.796  37.082  1.00  0.00     0.135 A 
ATOM     83  F   UNL A   1      38.316  33.139  38.096  1.00  0.00    -0.206 F 
ATOM     84  C   UNL A   1      38.844  35.160  39.166  1.00  0.00     0.059 A 
ATOM     85  C   UNL A   1      40.446  36.677  38.152  1.00  0.00     0.059 A 
ATOM     86  F   UNL A   1      41.431  36.122  36.097  1.00  0.00    -0.206 F 
ATOM     87  C   UNL A   1      39.567  36.354  39.185  1.00  0.00     0.060 A 
BRANCH  87  88
ATOM     88  S   UNL A   1      39.374  37.459  40.601  1.00  0.00     0.124 S 
ATOM     89  O   UNL A   1      40.712  38.028  40.715  1.00  0.00    -0.237 OA
ATOM     90  O   UNL A   1      38.331  38.370  40.137  1.00  0.00    -0.237 OA
ATOM     91  O   UNL A   1      38.974  36.558  41.677  1.00  0.00    -0.744 OA
ENDBRANCH  87  88
ENDBRANCH  55  80
BRANCH  67  92
ATOM     92  C   UNL A   1      43.875  28.958  36.003  1.00  0.00     0.058 A 
ATOM     93  C   UNL A   1      45.193  29.437  36.017  1.00  0.00     0.135 A 
ATOM     94  C   UNL A   1      43.552  27.885  36.851  1.00  0.00     0.135 A 
ATOM     95  F   UNL A   1      45.551  30.455  35.219  1.00  0.00    -0.206 F 
ATOM     96  C   UNL A   1      46.163  28.861  36.829  1.00  0.00     0.059 A 
ATOM     97  C   UNL A   1      44.499  27.314  37.692  1.00  0.00     0.059 A 
ATOM     98  F   UNL A   1      42.300  27.399  36.881  1.00  0.00    -0.206 F 
ATOM     99  C   UNL A   1      45.804  27.802  37.667  1.00  0.00     0.060 A 
BRANCH  99 100
ATOM    100  S   UNL A   1      47.063  27.094  38.749  1.00  0.00     0.124 S 
ATOM    101  O   UNL A   1      46.420  27.196  40.054  1.00  0.00    -0.237 OA
ATOM    102  O   UNL A   1      47.207  25.743  38.215  1.00  0.00    -0.237 OA
ATOM    103  O   UNL A   1      48.215  27.967  38.547  1.00  0.00    -0.744 OA
ENDBRANCH  99 100
ENDBRANCH  67  92
ENDBRANCH  41  42
ENDBRANCH  33  36
ENDBRANCH  31  32
ENDBRANCH   1  31
TORSDOF 17
ENDMDL
MODEL 3
REMARK VINA RESULT:     -11.9      6.713     11.370
REMARK SMILES COc1ccc([C@@H]2[NH2+][C@H](C(=O)NCCCNC(=O)c3ccc(-c4c5nc(c(-c6c(F)cc(S(=O)(=O)[O-])cc6F)c6ccc([nH]6)c(-c6c(F)cc(S(=O)(=O)[O-])cc6F)c6nc(c(-c7c(F)cc(S(=O)(=O)[O-])cc7F)c7ccc4[nH]7)C=C6)C=C5)cc3)CS2)cc1Cn1nc(C)c(Br)c1C
REMARK SMILES IDX 14 1 13 2 12 3 10 4 11 5 9 7 7 8 8 9 86 10 85 13 6 14 3 15
REMARK SMILES IDX 4 16 88 17 5 18 87 19 2 20 1 21 89 22 90 23 91 24 96 25
REMARK SMILES IDX 92 26 94 27 97 28 93 29 95 30 15 31 16 32 17 33 18 35 19 36
REMARK SMILES IDX 20 37 84 38 21 39 83 40 22 41 23 42 24 43 77 44 25 45 82 46
REMARK SMILES IDX 76 47 78 48 26 49 81 50 75 51 74 52 27 54 61 55 40 56 60 57
REMARK SMILES IDX 41 58 44 59 59 60 79 61 42 62 43 63 58 65 80 66 45 67 28 68
REMARK SMILES IDX 29 69 38 70 30 71 31 72 37 73 39 74 32 75 33 76 34 77 35 78
REMARK SMILES IDX 36 79 62 80 63 81 72 82 64 83 65 84 71 85 73 86 66 87 67 88
REMARK SMILES IDX 68 89 69 90 70 91 46 92 47 93 56 94 48 95 49 96 55 97 57 98
REMARK SMILES IDX 50 99 51 100 52 101 53 102 54 103
REMARK H PARENT 12 6 8 11 8 12 16 34 78 53 44 64
REMARK Flexibility Score: inf
ROOT
ATOM      1  C   UNL A   1      40.055  23.005  27.386  1.00  0.00     0.042 C 
ENDROOT
BRANCH   1   2
ATOM      2  C   UNL A   1      39.363  22.507  26.133  1.00  0.00     0.118 C 
BRANCH   2   3
ATOM      3  N   UNL A   1      38.280  23.298  25.594  1.00  0.00    -0.351 N 
ATOM      4  C   UNL A   1      36.935  23.099  25.739  1.00  0.00     0.279 C 
ATOM      5  O   UNL A   1      36.222  24.111  25.663  1.00  0.00    -0.268 OA
ATOM      6  H   UNL A   1      38.543  24.079  25.056  1.00  0.00     0.163 HD
BRANCH   4   7
ATOM      7  C   UNL A   1      36.242  21.729  25.989  1.00  0.00     0.283 C 
ATOM      8  C   UNL A   1      33.911  21.010  26.040  1.00  0.00     0.274 C 
ATOM      9  N   UNL A   1      34.963  21.771  26.736  1.00  0.00    -0.321 N 
ATOM     10  S   UNL A   1      34.710  19.852  24.919  1.00  0.00    -0.088 SA
ATOM     11  H   UNL A   1      35.106  21.369  27.663  1.00  0.00     0.348 HD
ATOM     12  H   UNL A   1      34.663  22.743  26.806  1.00  0.00     0.348 HD
ATOM     13  C   UNL A   1      36.133  20.933  24.694  1.00  0.00     0.151 C 
BRANCH   8  14
ATOM     14  C   UNL A   1      32.904  21.971  25.400  1.00  0.00     0.021 A 
ATOM     15  C   UNL A   1      31.139  24.061  24.738  1.00  0.00     0.123 A 
ATOM     16  C   UNL A   1      30.729  23.026  25.590  1.00  0.00     0.047 A 
ATOM     17  C   UNL A   1      32.437  24.100  24.204  1.00  0.00     0.016 A 
ATOM     18  C   UNL A   1      31.604  21.997  25.927  1.00  0.00     0.015 A 
ATOM     19  C   UNL A   1      33.272  23.000  24.497  1.00  0.00     0.020 A 
BRANCH  15  20
ATOM     20  O   UNL A   1      30.238  25.074  24.595  1.00  0.00    -0.496 OA
ATOM     21  C   UNL A   1      29.777  25.617  25.825  1.00  0.00     0.278 C 
ENDBRANCH  15  20
BRANCH  17  22
ATOM     22  C   UNL A   1      32.960  25.261  23.363  1.00  0.00     0.184 C 
BRANCH  22  23
ATOM     23  N   UNL A   1      32.459  26.610  23.706  1.00  0.00    -0.264 N 
ATOM     24  N   UNL A   1      31.698  27.264  22.791  1.00  0.00    -0.177 NA
ATOM     25  C   UNL A   1      32.764  27.427  24.778  1.00  0.00     0.050 A 
ATOM     26  C   UNL A   1      31.452  28.472  23.311  1.00  0.00     0.074 A 
ATOM     27  C   UNL A   1      32.053  28.590  24.570  1.00  0.00     0.061 A 
ATOM     28  C   UNL A   1      33.677  27.103  25.893  1.00  0.00     0.067 C 
ATOM     29  C   UNL A   1      30.645  29.459  22.546  1.00  0.00     0.070 C 
ATOM     30  Br  UNL A   1      31.945  30.081  25.699  1.00  0.00    -0.047 Br
ENDBRANCH  22  23
ENDBRANCH  17  22
ENDBRANCH   8  14
ENDBRANCH   4   7
ENDBRANCH   2   3
ENDBRANCH   1   2
BRANCH   1  31
ATOM     31  C   UNL A   1      41.428  23.629  27.146  1.00  0.00     0.118 C 
BRANCH  31  32
ATOM     32  N   UNL A   1      41.505  24.648  26.094  1.00  0.00    -0.352 N 
ATOM     33  C   UNL A   1      41.411  26.019  26.092  1.00  0.00     0.251 C 
ATOM     34  H   UNL A   1      41.656  24.269  25.198  1.00  0.00     0.163 HD
ATOM     35  O   UNL A   1      41.619  26.679  25.070  1.00  0.00    -0.269 OA
BRANCH  33  36
ATOM     36  C   UNL A   1      41.044  26.736  27.313  1.00  0.00     0.039 A 
ATOM     37  C   UNL A   1      39.984  26.272  28.102  1.00  0.00     0.014 A 
ATOM     38  C   UNL A   1      41.742  27.882  27.666  1.00  0.00     0.014 A 
ATOM     39  C   UNL A   1      39.691  26.912  29.305  1.00  0.00     0.010 A 
ATOM     40  C   UNL A   1      41.538  28.438  28.911  1.00  0.00     0.010 A 
ATOM     41  C   UNL A   1      40.501  27.970  29.735  1.00  0.00    -0.014 A 
BRANCH  41  42
ATOM     42  C   UNL A   1      40.289  28.686  31.009  1.00  0.00     0.031 A 
ATOM     43  C   UNL A   1      39.250  29.772  31.041  1.00  0.00     0.074 A 
ATOM     44  C   UNL A   1      41.128  28.482  32.040  1.00  0.00     0.049 A 
ATOM     45  N   UNL A   1      39.096  30.744  31.896  1.00  0.00    -0.248 NA
ATOM     46  C   UNL A   1      38.302  29.803  29.911  1.00  0.00     0.031 C 
ATOM     47  C   UNL A   1      42.191  27.474  32.088  1.00  0.00     0.029 A 
ATOM     48  N   UNL A   1      41.248  29.146  33.232  1.00  0.00    -0.354 N 
ATOM     49  C   UNL A   1      38.073  31.531  31.381  1.00  0.00     0.074 A 
ATOM     50  C   UNL A   1      37.680  30.954  30.115  1.00  0.00     0.031 C 
ATOM     51  C   UNL A   1      42.853  27.587  33.250  1.00  0.00     0.029 A 
ATOM     52  C   UNL A   1      42.301  28.710  34.001  1.00  0.00     0.049 A 
ATOM     53  H   UNL A   1      40.637  29.866  33.512  1.00  0.00     0.167 HD
ATOM     54  C   UNL A   1      37.503  32.627  31.931  1.00  0.00     0.037 A 
ATOM     55  C   UNL A   1      42.780  29.190  35.163  1.00  0.00     0.037 A 
ATOM     56  C   UNL A   1      37.880  33.144  33.218  1.00  0.00     0.049 A 
ATOM     57  C   UNL A   1      42.112  30.395  35.770  1.00  0.00     0.074 A 
ATOM     58  C   UNL A   1      37.326  34.198  33.921  1.00  0.00     0.029 A 
ATOM     59  N   UNL A   1      38.905  32.631  34.003  1.00  0.00    -0.354 N 
ATOM     60  N   UNL A   1      41.116  31.109  35.299  1.00  0.00    -0.248 NA
ATOM     61  C   UNL A   1      42.630  30.861  37.063  1.00  0.00     0.031 C 
ATOM     62  C   UNL A   1      38.040  34.345  35.114  1.00  0.00     0.029 A 
ATOM     63  C   UNL A   1      39.008  33.354  35.176  1.00  0.00     0.049 A 
ATOM     64  H   UNL A   1      39.473  31.864  33.759  1.00  0.00     0.167 HD
ATOM     65  C   UNL A   1      40.873  32.095  36.248  1.00  0.00     0.074 A 
ATOM     66  C   UNL A   1      41.816  31.874  37.326  1.00  0.00     0.031 C 
ATOM     67  C   UNL A   1      39.957  33.095  36.233  1.00  0.00     0.037 A 
BRANCH  54  68
ATOM     68  C   UNL A   1      36.416  33.318  31.154  1.00  0.00     0.058 A 
ATOM     69  C   UNL A   1      35.069  33.249  31.546  1.00  0.00     0.135 A 
ATOM     70  C   UNL A   1      36.725  34.076  30.013  1.00  0.00     0.135 A 
ATOM     71  F   UNL A   1      34.712  32.521  32.616  1.00  0.00    -0.206 F 
ATOM     72  C   UNL A   1      34.065  33.880  30.820  1.00  0.00     0.059 A 
ATOM     73  C   UNL A   1      35.739  34.744  29.290  1.00  0.00     0.059 A 
ATOM     74  F   UNL A   1      37.993  34.173  29.587  1.00  0.00    -0.206 F 
ATOM     75  C   UNL A   1      34.411  34.628  29.694  1.00  0.00     0.060 A 
BRANCH  75  76
ATOM     76  S   UNL A   1      33.096  35.460  28.777  1.00  0.00     0.124 S 
ATOM     77  O   UNL A   1      32.518  34.350  28.025  1.00  0.00    -0.237 OA
ATOM     78  O   UNL A   1      32.264  35.999  29.849  1.00  0.00    -0.237 OA
ATOM     79  O   UNL A   1      33.810  36.452  27.982  1.00  0.00    -0.744 OA
ENDBRANCH  75  76
ENDBRANCH  54  68
BRANCH  55  80
ATOM     80  C   UNL A   1      43.935  28.527  35.828  1.00  0.00     0.058 A 
ATOM     81  C   UNL A   1      43.730  27.475  36.733  1.00  0.00     0.135 A 
ATOM     82  C   UNL A   1      45.259  28.909  35.562  1.00  0.00     0.135 A 
ATOM     83  F   UNL A   1      42.482  27.075  37.022  1.00  0.00    -0.206 F 
ATOM     84  C   UNL A   1      44.791  26.837  37.364  1.00  0.00     0.059 A 
ATOM     85  C   UNL A   1      46.340  28.269  36.162  1.00  0.00     0.059 A 
ATOM     86  F   UNL A   1      45.514  29.896  34.689  1.00  0.00    -0.206 F 
ATOM     87  C   UNL A   1      46.095  27.239  37.069  1.00  0.00     0.060 A 
BRANCH  87  88
ATOM     88  S   UNL A   1      47.467  26.369  37.859  1.00  0.00     0.124 S 
ATOM     89  O   UNL A   1      46.806  25.169  38.358  1.00  0.00    -0.237 OA
ATOM     90  O   UNL A   1      48.388  26.173  36.743  1.00  0.00    -0.237 OA
ATOM     91  O   UNL A   1      47.921  27.312  38.877  1.00  0.00    -0.744 OA
ENDBRANCH  87  88
ENDBRANCH  55  80
BRANCH  67  92
ATOM     92  C   UNL A   1      39.914  34.003  37.428  1.00  0.00     0.058 A 
ATOM     93  C   UNL A   1      40.609  35.221  37.451  1.00  0.00     0.135 A 
ATOM     94  C   UNL A   1      39.112  33.678  38.535  1.00  0.00     0.135 A 
ATOM     95  F   UNL A   1      41.394  35.571  36.419  1.00  0.00    -0.206 F 
ATOM     96  C   UNL A   1      40.527  36.080  38.540  1.00  0.00     0.059 A 
ATOM     97  C   UNL A   1      38.993  34.536  39.622  1.00  0.00     0.059 A 
ATOM     98  F   UNL A   1      38.418  32.529  38.554  1.00  0.00    -0.206 F 
ATOM     99  C   UNL A   1      39.713  35.730  39.620  1.00  0.00     0.060 A 
BRANCH  99 100
ATOM    100  S   UNL A   1      39.582  36.875  41.008  1.00  0.00     0.124 S 
ATOM    101  O   UNL A   1      40.986  37.118  41.321  1.00  0.00    -0.237 OA
ATOM    102  O   UNL A   1      38.859  37.998  40.418  1.00  0.00    -0.237 OA
ATOM    103  O   UNL A   1      38.838  36.114  42.008  1.00  0.00    -0.744 OA
ENDBRANCH  99 100
ENDBRANCH  67  92
ENDBRANCH  41  42
ENDBRANCH  33  36
ENDBRANCH  31  32
ENDBRANCH   1  31
TORSDOF 17
ENDMDL
