MODEL 1
REMARK VINA RESULT:     -13.5      0.000      0.000
REMARK SMILES O=C(NCCCNC(=O)c1ccc(-c2c3nc(c(-c4c(F)cc(S(=O)(=O)[O-])cc4F)c4ccc([nH]4)c(-c4c(F)cc(S(=O)(=O)[O-])cc4F)c4nc(c(-c5c(F)cc(S(=O)(=O)[O-])cc5F)c5ccc2[nH]5)C=C4)C=C3)cc1)c1ccc(/C=C/c2ccnc(-c3cccc([N+](=O)[O-])c3)[n+]2[O-])cc1
REMARK SMILES IDX 4 1 3 2 1 3 2 4 76 6 77 7 99 8 78 9 98 10 79 11 80 12 81 13
REMARK SMILES IDX 82 14 83 15 96 16 84 17 86 18 97 19 85 20 87 21 88 22 95 23
REMARK SMILES IDX 89 24 91 25 90 26 92 27 93 28 94 29 5 30 6 31 7 32 8 33 9 35
REMARK SMILES IDX 10 36 11 37 75 38 12 39 74 40 13 41 14 42 15 43 68 44 16 45
REMARK SMILES IDX 73 46 67 47 69 48 17 49 72 50 66 51 65 52 18 54 52 55 31 56
REMARK SMILES IDX 51 57 32 58 35 59 50 60 70 61 33 62 34 63 49 65 71 66 36 67
REMARK SMILES IDX 19 68 20 69 29 70 21 71 22 72 28 73 30 74 23 75 24 76 25 77
REMARK SMILES IDX 26 78 27 79 53 80 54 81 63 82 55 83 56 84 62 85 64 86 57 87
REMARK SMILES IDX 58 88 59 89 60 90 61 91 37 92 38 93 47 94 39 95 40 96 46 97
REMARK SMILES IDX 48 98 41 99 42 100 43 101 44 102 45 103
REMARK H PARENT 3 5 7 34 69 53 35 64
REMARK Flexibility Score: inf
ROOT
ATOM      1  C   UNL A   1      38.999  22.323  26.065  1.00  0.00     0.118 C 
ENDROOT
BRANCH   1   2
ATOM      2  N   UNL A   1      38.248  21.163  25.604  1.00  0.00    -0.352 N 
ATOM      3  O   UNL A   1      36.414  19.989  24.991  1.00  0.00    -0.269 OA
ATOM      4  C   UNL A   1      36.933  21.078  25.216  1.00  0.00     0.251 C 
ATOM      5  H   UNL A   1      38.756  20.320  25.564  1.00  0.00     0.163 HD
BRANCH   4   6
ATOM      6  C   UNL A   1      36.136  22.311  25.080  1.00  0.00     0.039 A 
ATOM      7  C   UNL A   1      35.931  22.885  23.824  1.00  0.00     0.014 A 
ATOM      8  C   UNL A   1      35.588  22.898  26.219  1.00  0.00     0.014 A 
ATOM      9  C   UNL A   1      35.262  24.104  23.720  1.00  0.00     0.009 A 
ATOM     10  C   UNL A   1      34.908  24.115  26.107  1.00  0.00     0.009 A 
ATOM     11  C   UNL A   1      34.768  24.750  24.862  1.00  0.00    -0.025 A 
BRANCH  11  12
ATOM     12  C   UNL A   1      34.071  26.046  24.804  1.00  0.00     0.012 C 
ATOM     13  C   UNL A   1      33.261  26.525  25.762  1.00  0.00     0.053 C 
BRANCH  13  14
ATOM     14  C   UNL A   1      32.627  27.850  25.693  1.00  0.00     0.134 A 
ATOM     15  C   UNL A   1      33.010  28.810  26.632  1.00  0.00     0.100 A 
ATOM     16  N   UNL A   1      31.650  28.145  24.729  1.00  0.00    -0.228 N 
ATOM     17  C   UNL A   1      32.431  30.052  26.557  1.00  0.00     0.259 A 
ATOM     18  C   UNL A   1      31.090  29.425  24.748  1.00  0.00     0.333 A 
ATOM     19  O   UNL A   1      31.284  27.271  23.869  1.00  0.00    -0.710 OA
ATOM     20  N   UNL A   1      31.501  30.379  25.645  1.00  0.00    -0.049 NA
BRANCH  18  21
ATOM     21  C   UNL A   1      30.001  29.798  23.843  1.00  0.00     0.076 A 
ATOM     22  C   UNL A   1      29.253  28.811  23.175  1.00  0.00     0.017 A 
ATOM     23  C   UNL A   1      29.711  31.147  23.575  1.00  0.00     0.102 A 
ATOM     24  C   UNL A   1      28.236  29.153  22.279  1.00  0.00     0.008 A 
ATOM     25  C   UNL A   1      28.706  31.487  22.660  1.00  0.00     0.270 A 
ATOM     26  C   UNL A   1      27.961  30.493  22.016  1.00  0.00     0.085 A 
BRANCH  25  27
ATOM     27  N   UNL A   1      28.459  32.900  22.344  1.00  0.00     0.062 N 
ATOM     28  O   UNL A   1      27.741  33.152  21.366  1.00  0.00    -0.258 OA
ATOM     29  O   UNL A   1      29.010  33.753  23.052  1.00  0.00    -0.258 OA
ENDBRANCH  25  27
ENDBRANCH  18  21
ENDBRANCH  13  14
ENDBRANCH  11  12
ENDBRANCH   4   6
ENDBRANCH   1   2
BRANCH   1  30
ATOM     30  C   UNL A   1      40.002  21.981  27.158  1.00  0.00     0.042 C 
BRANCH  30  31
ATOM     31  C   UNL A   1      40.983  23.097  27.493  1.00  0.00     0.118 C 
BRANCH  31  32
ATOM     32  N   UNL A   1      41.367  23.884  26.332  1.00  0.00    -0.352 N 
ATOM     33  C   UNL A   1      41.424  25.242  26.143  1.00  0.00     0.251 C 
ATOM     34  H   UNL A   1      41.632  23.352  25.547  1.00  0.00     0.163 HD
ATOM     35  O   UNL A   1      41.625  25.671  25.008  1.00  0.00    -0.269 OA
BRANCH  33  36
ATOM     36  C   UNL A   1      41.230  26.189  27.265  1.00  0.00     0.039 A 
ATOM     37  C   UNL A   1      40.046  26.111  28.005  1.00  0.00     0.014 A 
ATOM     38  C   UNL A   1      42.168  27.179  27.571  1.00  0.00     0.014 A 
ATOM     39  C   UNL A   1      39.830  26.984  29.074  1.00  0.00     0.010 A 
ATOM     40  C   UNL A   1      41.993  27.989  28.693  1.00  0.00     0.010 A 
ATOM     41  C   UNL A   1      40.817  27.911  29.449  1.00  0.00    -0.014 A 
BRANCH  41  42
ATOM     42  C   UNL A   1      40.617  28.803  30.621  1.00  0.00     0.031 A 
ATOM     43  C   UNL A   1      41.461  28.643  31.860  1.00  0.00     0.074 A 
ATOM     44  C   UNL A   1      39.644  29.734  30.585  1.00  0.00     0.049 A 
ATOM     45  N   UNL A   1      41.430  29.331  32.973  1.00  0.00    -0.248 NA
ATOM     46  C   UNL A   1      42.449  27.553  31.860  1.00  0.00     0.031 C 
ATOM     47  C   UNL A   1      38.709  29.940  29.476  1.00  0.00     0.029 A 
ATOM     48  N   UNL A   1      39.277  30.685  31.505  1.00  0.00    -0.354 N 
ATOM     49  C   UNL A   1      42.377  28.748  33.808  1.00  0.00     0.074 A 
ATOM     50  C   UNL A   1      42.929  27.619  33.093  1.00  0.00     0.031 C 
ATOM     51  C   UNL A   1      37.901  30.972  29.765  1.00  0.00     0.029 A 
ATOM     52  C   UNL A   1      38.241  31.486  31.088  1.00  0.00     0.049 A 
ATOM     53  H   UNL A   1      39.715  30.783  32.380  1.00  0.00     0.167 HD
ATOM     54  C   UNL A   1      42.771  29.134  35.045  1.00  0.00     0.037 A 
ATOM     55  C   UNL A   1      37.639  32.525  31.697  1.00  0.00     0.037 A 
ATOM     56  C   UNL A   1      42.245  30.281  35.739  1.00  0.00     0.049 A 
ATOM     57  C   UNL A   1      38.133  32.970  33.045  1.00  0.00     0.074 A 
ATOM     58  C   UNL A   1      42.626  30.796  36.967  1.00  0.00     0.029 A 
ATOM     59  N   UNL A   1      41.227  31.095  35.265  1.00  0.00    -0.354 N 
ATOM     60  N   UNL A   1      39.083  32.452  33.788  1.00  0.00    -0.248 NA
ATOM     61  C   UNL A   1      37.488  34.153  33.630  1.00  0.00     0.031 C 
ATOM     62  C   UNL A   1      41.817  31.903  37.248  1.00  0.00     0.029 A 
ATOM     63  C   UNL A   1      40.960  32.103  36.178  1.00  0.00     0.049 A 
ATOM     64  H   UNL A   1      40.763  30.975  34.406  1.00  0.00     0.167 HD
ATOM     65  C   UNL A   1      39.163  33.259  34.917  1.00  0.00     0.074 A 
ATOM     66  C   UNL A   1      38.180  34.310  34.750  1.00  0.00     0.031 C 
ATOM     67  C   UNL A   1      39.975  33.139  35.998  1.00  0.00     0.037 A 
BRANCH  54  68
ATOM     68  C   UNL A   1      43.834  28.314  35.725  1.00  0.00     0.058 A 
ATOM     69  C   UNL A   1      43.507  27.247  36.578  1.00  0.00     0.135 A 
ATOM     70  C   UNL A   1      45.195  28.574  35.497  1.00  0.00     0.135 A 
ATOM     71  F   UNL A   1      42.222  26.963  36.844  1.00  0.00    -0.206 F 
ATOM     72  C   UNL A   1      44.490  26.488  37.204  1.00  0.00     0.059 A 
ATOM     73  C   UNL A   1      46.196  27.810  36.092  1.00  0.00     0.059 A 
ATOM     74  F   UNL A   1      45.565  29.581  34.691  1.00  0.00    -0.206 F 
ATOM     75  C   UNL A   1      45.833  26.778  36.956  1.00  0.00     0.060 A 
BRANCH  75  76
ATOM     76  S   UNL A   1      47.097  25.778  37.770  1.00  0.00     0.124 S 
ATOM     77  O   UNL A   1      48.317  26.313  37.175  1.00  0.00    -0.237 OA
ATOM     78  O   UNL A   1      46.888  26.095  39.179  1.00  0.00    -0.237 OA
ATOM     79  O   UNL A   1      46.753  24.413  37.381  1.00  0.00    -0.744 OA
ENDBRANCH  75  76
ENDBRANCH  54  68
BRANCH  55  80
ATOM     80  C   UNL A   1      36.532  33.245  31.014  1.00  0.00     0.058 A 
ATOM     81  C   UNL A   1      36.785  34.075  29.912  1.00  0.00     0.135 A 
ATOM     82  C   UNL A   1      35.202  33.107  31.439  1.00  0.00     0.135 A 
ATOM     83  F   UNL A   1      38.042  34.241  29.472  1.00  0.00    -0.206 F 
ATOM     84  C   UNL A   1      35.762  34.761  29.267  1.00  0.00     0.059 A 
ATOM     85  C   UNL A   1      34.158  33.763  30.794  1.00  0.00     0.059 A 
ATOM     86  F   UNL A   1      34.907  32.308  32.476  1.00  0.00    -0.206 F 
ATOM     87  C   UNL A   1      34.449  34.597  29.715  1.00  0.00     0.060 A 
BRANCH  87  88
ATOM     88  S   UNL A   1      33.121  35.453  28.840  1.00  0.00     0.124 S 
ATOM     89  O   UNL A   1      32.321  35.959  29.949  1.00  0.00    -0.237 OA
ATOM     90  O   UNL A   1      33.854  36.454  28.072  1.00  0.00    -0.237 OA
ATOM     91  O   UNL A   1      32.507  34.392  28.048  1.00  0.00    -0.744 OA
ENDBRANCH  87  88
ENDBRANCH  55  80
BRANCH  67  92
ATOM     92  C   UNL A   1      39.848  34.191  37.064  1.00  0.00     0.058 A 
ATOM     93  C   UNL A   1      40.583  35.386  37.010  1.00  0.00     0.135 A 
ATOM     94  C   UNL A   1      38.981  34.001  38.151  1.00  0.00     0.135 A 
ATOM     95  F   UNL A   1      41.428  35.615  35.993  1.00  0.00    -0.206 F 
ATOM     96  C   UNL A   1      40.498  36.336  38.023  1.00  0.00     0.059 A 
ATOM     97  C   UNL A   1      38.860  34.951  39.160  1.00  0.00     0.059 A 
ATOM     98  F   UNL A   1      38.244  32.883  38.242  1.00  0.00    -0.206 F 
ATOM     99  C   UNL A   1      39.639  36.105  39.099  1.00  0.00     0.060 A 
BRANCH  99 100
ATOM    100  S   UNL A   1      39.544  37.335  40.416  1.00  0.00     0.124 S 
ATOM    101  O   UNL A   1      38.672  38.340  39.816  1.00  0.00    -0.237 OA
ATOM    102  O   UNL A   1      38.967  36.573  41.520  1.00  0.00    -0.237 OA
ATOM    103  O   UNL A   1      40.935  37.739  40.602  1.00  0.00    -0.744 OA
ENDBRANCH  99 100
ENDBRANCH  67  92
ENDBRANCH  41  42
ENDBRANCH  33  36
ENDBRANCH  31  32
ENDBRANCH  30  31
ENDBRANCH   1  30
TORSDOF 17
ENDMDL
MODEL 2
REMARK VINA RESULT:     -13.2      4.925     12.575
REMARK SMILES O=C(NCCCNC(=O)c1ccc(-c2c3nc(c(-c4c(F)cc(S(=O)(=O)[O-])cc4F)c4ccc([nH]4)c(-c4c(F)cc(S(=O)(=O)[O-])cc4F)c4nc(c(-c5c(F)cc(S(=O)(=O)[O-])cc5F)c5ccc2[nH]5)C=C4)C=C3)cc1)c1ccc(/C=C/c2ccnc(-c3cccc([N+](=O)[O-])c3)[n+]2[O-])cc1
REMARK SMILES IDX 4 1 3 2 1 3 2 4 76 6 77 7 99 8 78 9 98 10 79 11 80 12 81 13
REMARK SMILES IDX 82 14 83 15 96 16 84 17 86 18 97 19 85 20 87 21 88 22 95 23
REMARK SMILES IDX 89 24 91 25 90 26 92 27 93 28 94 29 5 30 6 31 7 32 8 33 9 35
REMARK SMILES IDX 10 36 11 37 75 38 12 39 74 40 13 41 14 42 15 43 68 44 16 45
REMARK SMILES IDX 73 46 67 47 69 48 17 49 72 50 66 51 65 52 18 54 52 55 31 56
REMARK SMILES IDX 51 57 32 58 35 59 50 60 70 61 33 62 34 63 49 65 71 66 36 67
REMARK SMILES IDX 19 68 20 69 29 70 21 71 22 72 28 73 30 74 23 75 24 76 25 77
REMARK SMILES IDX 26 78 27 79 53 80 54 81 63 82 55 83 56 84 62 85 64 86 57 87
REMARK SMILES IDX 58 88 59 89 60 90 61 91 37 92 38 93 47 94 39 95 40 96 46 97
REMARK SMILES IDX 48 98 41 99 42 100 43 101 44 102 45 103
REMARK H PARENT 3 5 7 34 69 53 35 64
REMARK Flexibility Score: inf
ROOT
ATOM      1  C   UNL A   1      35.862  33.861  30.171  1.00  0.00     0.118 C 
ENDROOT
BRANCH   1   2
ATOM      2  N   UNL A   1      35.532  34.701  31.316  1.00  0.00    -0.352 N 
ATOM      3  O   UNL A   1      35.523  35.338  33.486  1.00  0.00    -0.269 OA
ATOM      4  C   UNL A   1      36.016  34.646  32.600  1.00  0.00     0.251 C 
ATOM      5  H   UNL A   1      34.869  35.407  31.143  1.00  0.00     0.163 HD
BRANCH   4   6
ATOM      6  C   UNL A   1      37.131  33.735  32.917  1.00  0.00     0.039 A 
ATOM      7  C   UNL A   1      36.904  32.367  33.075  1.00  0.00     0.014 A 
ATOM      8  C   UNL A   1      38.417  34.255  33.057  1.00  0.00     0.014 A 
ATOM      9  C   UNL A   1      37.947  31.533  33.475  1.00  0.00     0.009 A 
ATOM     10  C   UNL A   1      39.462  33.412  33.447  1.00  0.00     0.009 A 
ATOM     11  C   UNL A   1      39.233  32.048  33.694  1.00  0.00    -0.025 A 
BRANCH  11  12
ATOM     12  C   UNL A   1      40.361  31.210  34.134  1.00  0.00     0.012 C 
ATOM     13  C   UNL A   1      40.357  30.432  35.229  1.00  0.00     0.053 C 
BRANCH  13  14
ATOM     14  C   UNL A   1      41.485  29.566  35.604  1.00  0.00     0.134 A 
ATOM     15  C   UNL A   1      42.483  30.104  36.419  1.00  0.00     0.100 A 
ATOM     16  N   UNL A   1      41.576  28.242  35.144  1.00  0.00    -0.228 N 
ATOM     17  C   UNL A   1      43.527  29.291  36.783  1.00  0.00     0.259 A 
ATOM     18  C   UNL A   1      42.691  27.497  35.538  1.00  0.00     0.333 A 
ATOM     19  O   UNL A   1      40.673  27.740  34.389  1.00  0.00    -0.710 OA
ATOM     20  N   UNL A   1      43.647  28.017  36.375  1.00  0.00    -0.049 NA
BRANCH  18  21
ATOM     21  C   UNL A   1      42.921  26.141  35.037  1.00  0.00     0.076 A 
ATOM     22  C   UNL A   1      42.397  25.026  35.716  1.00  0.00     0.017 A 
ATOM     23  C   UNL A   1      43.716  25.914  33.900  1.00  0.00     0.102 A 
ATOM     24  C   UNL A   1      42.641  23.724  35.271  1.00  0.00     0.008 A 
ATOM     25  C   UNL A   1      43.978  24.607  33.469  1.00  0.00     0.270 A 
ATOM     26  C   UNL A   1      43.436  23.509  34.147  1.00  0.00     0.085 A 
BRANCH  25  27
ATOM     27  N   UNL A   1      44.862  24.385  32.317  1.00  0.00     0.062 N 
ATOM     28  O   UNL A   1      44.505  23.551  31.473  1.00  0.00    -0.258 OA
ATOM     29  O   UNL A   1      45.926  25.017  32.278  1.00  0.00    -0.258 OA
ENDBRANCH  25  27
ENDBRANCH  18  21
ENDBRANCH  13  14
ENDBRANCH  11  12
ENDBRANCH   4   6
ENDBRANCH   1   2
BRANCH   1  30
ATOM     30  C   UNL A   1      34.765  32.860  29.837  1.00  0.00     0.042 C 
BRANCH  30  31
ATOM     31  C   UNL A   1      34.620  32.547  28.354  1.00  0.00     0.118 C 
BRANCH  31  32
ATOM     32  N   UNL A   1      33.950  31.281  28.103  1.00  0.00    -0.352 N 
ATOM     33  C   UNL A   1      34.448  30.009  27.971  1.00  0.00     0.251 C 
ATOM     34  H   UNL A   1      32.971  31.347  28.012  1.00  0.00     0.163 HD
ATOM     35  O   UNL A   1      33.690  29.116  27.595  1.00  0.00    -0.269 OA
BRANCH  33  36
ATOM     36  C   UNL A   1      35.869  29.701  28.251  1.00  0.00     0.039 A 
ATOM     37  C   UNL A   1      36.783  29.758  27.195  1.00  0.00     0.014 A 
ATOM     38  C   UNL A   1      36.307  29.311  29.520  1.00  0.00     0.014 A 
ATOM     39  C   UNL A   1      38.133  29.479  27.422  1.00  0.00     0.010 A 
ATOM     40  C   UNL A   1      37.667  29.121  29.765  1.00  0.00     0.010 A 
ATOM     41  C   UNL A   1      38.594  29.189  28.717  1.00  0.00    -0.014 A 
BRANCH  41  42
ATOM     42  C   UNL A   1      40.038  28.949  28.975  1.00  0.00     0.031 A 
ATOM     43  C   UNL A   1      40.676  27.634  28.603  1.00  0.00     0.074 A 
ATOM     44  C   UNL A   1      40.770  29.903  29.582  1.00  0.00     0.049 A 
ATOM     45  N   UNL A   1      41.918  27.250  28.749  1.00  0.00    -0.248 NA
ATOM     46  C   UNL A   1      39.798  26.608  28.018  1.00  0.00     0.031 C 
ATOM     47  C   UNL A   1      40.254  31.189  30.061  1.00  0.00     0.029 A 
ATOM     48  N   UNL A   1      42.103  29.944  29.903  1.00  0.00    -0.354 N 
ATOM     49  C   UNL A   1      41.968  25.938  28.291  1.00  0.00     0.074 A 
ATOM     50  C   UNL A   1      40.621  25.574  27.912  1.00  0.00     0.031 C 
ATOM     51  C   UNL A   1      41.265  31.903  30.581  1.00  0.00     0.029 A 
ATOM     52  C   UNL A   1      42.493  31.120  30.498  1.00  0.00     0.049 A 
ATOM     53  H   UNL A   1      42.722  29.200  29.724  1.00  0.00     0.167 HD
ATOM     54  C   UNL A   1      43.041  25.120  28.172  1.00  0.00     0.037 A 
ATOM     55  C   UNL A   1      43.705  31.527  30.919  1.00  0.00     0.037 A 
ATOM     56  C   UNL A   1      44.387  25.498  28.516  1.00  0.00     0.049 A 
ATOM     57  C   UNL A   1      44.891  30.624  30.723  1.00  0.00     0.074 A 
ATOM     58  C   UNL A   1      45.554  24.767  28.369  1.00  0.00     0.029 A 
ATOM     59  N   UNL A   1      44.750  26.715  29.074  1.00  0.00    -0.354 N 
ATOM     60  N   UNL A   1      44.930  29.414  30.218  1.00  0.00    -0.248 NA
ATOM     61  C   UNL A   1      46.199  31.149  31.135  1.00  0.00     0.031 C 
ATOM     62  C   UNL A   1      46.616  25.530  28.866  1.00  0.00     0.029 A 
ATOM     63  C   UNL A   1      46.119  26.753  29.286  1.00  0.00     0.049 A 
ATOM     64  H   UNL A   1      44.125  27.446  29.288  1.00  0.00     0.167 HD
ATOM     65  C   UNL A   1      46.270  29.041  30.231  1.00  0.00     0.074 A 
ATOM     66  C   UNL A   1      47.009  30.162  30.776  1.00  0.00     0.031 C 
ATOM     67  C   UNL A   1      46.837  27.875  29.833  1.00  0.00     0.037 A 
BRANCH  54  68
ATOM     68  C   UNL A   1      42.804  23.735  27.633  1.00  0.00     0.058 A 
ATOM     69  C   UNL A   1      42.991  23.433  26.274  1.00  0.00     0.135 A 
ATOM     70  C   UNL A   1      42.418  22.690  28.487  1.00  0.00     0.135 A 
ATOM     71  F   UNL A   1      43.345  24.397  25.409  1.00  0.00    -0.206 F 
ATOM     72  C   UNL A   1      42.775  22.152  25.776  1.00  0.00     0.059 A 
ATOM     73  C   UNL A   1      42.222  21.394  28.015  1.00  0.00     0.059 A 
ATOM     74  F   UNL A   1      42.224  22.922  29.794  1.00  0.00    -0.206 F 
ATOM     75  C   UNL A   1      42.389  21.139  26.655  1.00  0.00     0.060 A 
BRANCH  75  76
ATOM     76  S   UNL A   1      42.119  19.480  25.996  1.00  0.00     0.124 S 
ATOM     77  O   UNL A   1      42.944  19.509  24.791  1.00  0.00    -0.237 OA
ATOM     78  O   UNL A   1      42.608  18.629  27.076  1.00  0.00    -0.237 OA
ATOM     79  O   UNL A   1      40.678  19.434  25.769  1.00  0.00    -0.744 OA
ENDBRANCH  75  76
ENDBRANCH  54  68
BRANCH  55  80
ATOM     80  C   UNL A   1      43.865  32.875  31.527  1.00  0.00     0.058 A 
ATOM     81  C   UNL A   1      44.139  33.997  30.729  1.00  0.00     0.135 A 
ATOM     82  C   UNL A   1      43.733  33.071  32.910  1.00  0.00     0.135 A 
ATOM     83  F   UNL A   1      44.277  33.857  29.402  1.00  0.00    -0.206 F 
ATOM     84  C   UNL A   1      44.298  35.262  31.282  1.00  0.00     0.059 A 
ATOM     85  C   UNL A   1      43.863  34.332  33.484  1.00  0.00     0.059 A 
ATOM     86  F   UNL A   1      43.451  32.033  33.712  1.00  0.00    -0.206 F 
ATOM     87  C   UNL A   1      44.157  35.420  32.662  1.00  0.00     0.060 A 
BRANCH  87  88
ATOM     88  S   UNL A   1      44.316  37.076  33.366  1.00  0.00     0.124 S 
ATOM     89  O   UNL A   1      43.001  37.265  33.967  1.00  0.00    -0.237 OA
ATOM     90  O   UNL A   1      45.426  36.908  34.299  1.00  0.00    -0.237 OA
ATOM     91  O   UNL A   1      44.607  37.906  32.202  1.00  0.00    -0.744 OA
ENDBRANCH  87  88
ENDBRANCH  55  80
BRANCH  67  92
ATOM     92  C   UNL A   1      48.333  27.773  29.946  1.00  0.00     0.058 A 
ATOM     93  C   UNL A   1      49.178  28.105  28.875  1.00  0.00     0.135 A 
ATOM     94  C   UNL A   1      48.927  27.339  31.141  1.00  0.00     0.135 A 
ATOM     95  F   UNL A   1      48.659  28.522  27.710  1.00  0.00    -0.206 F 
ATOM     96  C   UNL A   1      50.558  27.964  28.970  1.00  0.00     0.059 A 
ATOM     97  C   UNL A   1      50.308  27.217  31.267  1.00  0.00     0.059 A 
ATOM     98  F   UNL A   1      48.166  27.024  32.201  1.00  0.00    -0.206 F 
ATOM     99  C   UNL A   1      51.113  27.511  30.168  1.00  0.00     0.060 A 
BRANCH  99 100
ATOM    100  S   UNL A   1      52.904  27.317  30.278  1.00  0.00     0.124 S 
ATOM    101  O   UNL A   1      53.290  27.358  28.872  1.00  0.00    -0.237 OA
ATOM    102  O   UNL A   1      53.299  28.472  31.079  1.00  0.00    -0.237 OA
ATOM    103  O   UNL A   1      53.064  26.023  30.938  1.00  0.00    -0.744 OA
ENDBRANCH  99 100
ENDBRANCH  67  92
ENDBRANCH  41  42
ENDBRANCH  33  36
ENDBRANCH  31  32
ENDBRANCH  30  31
ENDBRANCH   1  30
TORSDOF 17
ENDMDL
MODEL 3
REMARK VINA RESULT:     -13.1      4.908     13.233
REMARK SMILES O=C(NCCCNC(=O)c1ccc(-c2c3nc(c(-c4c(F)cc(S(=O)(=O)[O-])cc4F)c4ccc([nH]4)c(-c4c(F)cc(S(=O)(=O)[O-])cc4F)c4nc(c(-c5c(F)cc(S(=O)(=O)[O-])cc5F)c5ccc2[nH]5)C=C4)C=C3)cc1)c1ccc(/C=C/c2ccnc(-c3cccc([N+](=O)[O-])c3)[n+]2[O-])cc1
REMARK SMILES IDX 4 1 3 2 1 3 2 4 76 6 77 7 99 8 78 9 98 10 79 11 80 12 81 13
REMARK SMILES IDX 82 14 83 15 96 16 84 17 86 18 97 19 85 20 87 21 88 22 95 23
REMARK SMILES IDX 89 24 91 25 90 26 92 27 93 28 94 29 5 30 6 31 7 32 8 33 9 35
REMARK SMILES IDX 10 36 11 37 75 38 12 39 74 40 13 41 14 42 15 43 68 44 16 45
REMARK SMILES IDX 73 46 67 47 69 48 17 49 72 50 66 51 65 52 18 54 52 55 31 56
REMARK SMILES IDX 51 57 32 58 35 59 50 60 70 61 33 62 34 63 49 65 71 66 36 67
REMARK SMILES IDX 19 68 20 69 29 70 21 71 22 72 28 73 30 74 23 75 24 76 25 77
REMARK SMILES IDX 26 78 27 79 53 80 54 81 63 82 55 83 56 84 62 85 64 86 57 87
REMARK SMILES IDX 58 88 59 89 60 90 61 91 37 92 38 93 47 94 39 95 40 96 46 97
REMARK SMILES IDX 48 98 41 99 42 100 43 101 44 102 45 103
REMARK H PARENT 3 5 7 34 69 53 35 64
REMARK Flexibility Score: inf
ROOT
ATOM      1  C   UNL A   1      35.685  33.479  31.364  1.00  0.00     0.118 C 
ENDROOT
BRANCH   1   2
ATOM      2  N   UNL A   1      35.396  33.712  32.773  1.00  0.00    -0.352 N 
ATOM      3  O   UNL A   1      35.605  33.430  35.007  1.00  0.00    -0.269 OA
ATOM      4  C   UNL A   1      36.068  33.261  33.882  1.00  0.00     0.251 C 
ATOM      5  H   UNL A   1      34.608  34.273  32.954  1.00  0.00     0.163 HD
BRANCH   4   6
ATOM      6  C   UNL A   1      37.353  32.557  33.717  1.00  0.00     0.039 A 
ATOM      7  C   UNL A   1      37.378  31.213  33.341  1.00  0.00     0.014 A 
ATOM      8  C   UNL A   1      38.542  33.248  33.939  1.00  0.00     0.014 A 
ATOM      9  C   UNL A   1      38.594  30.531  33.288  1.00  0.00     0.009 A 
ATOM     10  C   UNL A   1      39.759  32.562  33.872  1.00  0.00     0.009 A 
ATOM     11  C   UNL A   1      39.797  31.188  33.580  1.00  0.00    -0.025 A 
BRANCH  11  12
ATOM     12  C   UNL A   1      41.103  30.507  33.554  1.00  0.00     0.012 C 
ATOM     13  C   UNL A   1      41.684  29.923  34.614  1.00  0.00     0.053 C 
BRANCH  13  14
ATOM     14  C   UNL A   1      42.964  29.202  34.535  1.00  0.00     0.134 A 
ATOM     15  C   UNL A   1      44.141  29.941  34.666  1.00  0.00     0.100 A 
ATOM     16  N   UNL A   1      43.011  27.817  34.313  1.00  0.00    -0.228 N 
ATOM     17  C   UNL A   1      45.335  29.267  34.608  1.00  0.00     0.259 A 
ATOM     18  C   UNL A   1      44.272  27.219  34.236  1.00  0.00     0.333 A 
ATOM     19  O   UNL A   1      41.940  27.130  34.183  1.00  0.00    -0.710 OA
ATOM     20  N   UNL A   1      45.426  27.942  34.409  1.00  0.00    -0.049 NA
BRANCH  18  21
ATOM     21  C   UNL A   1      44.427  25.798  33.918  1.00  0.00     0.076 A 
ATOM     22  C   UNL A   1      44.253  25.335  32.601  1.00  0.00     0.017 A 
ATOM     23  C   UNL A   1      44.697  24.855  34.925  1.00  0.00     0.102 A 
ATOM     24  C   UNL A   1      44.360  23.976  32.289  1.00  0.00     0.008 A 
ATOM     25  C   UNL A   1      44.781  23.492  34.613  1.00  0.00     0.270 A 
ATOM     26  C   UNL A   1      44.621  23.049  33.295  1.00  0.00     0.085 A 
BRANCH  25  27
ATOM     27  N   UNL A   1      45.001  22.513  35.687  1.00  0.00     0.062 N 
ATOM     28  O   UNL A   1      44.959  21.313  35.385  1.00  0.00    -0.258 OA
ATOM     29  O   UNL A   1      45.179  22.947  36.833  1.00  0.00    -0.258 OA
ENDBRANCH  25  27
ENDBRANCH  18  21
ENDBRANCH  13  14
ENDBRANCH  11  12
ENDBRANCH   4   6
ENDBRANCH   1   2
BRANCH   1  30
ATOM     30  C   UNL A   1      34.715  32.501  30.715  1.00  0.00     0.042 C 
BRANCH  30  31
ATOM     31  C   UNL A   1      34.610  32.620  29.200  1.00  0.00     0.118 C 
BRANCH  31  32
ATOM     32  N   UNL A   1      33.980  31.464  28.582  1.00  0.00    -0.352 N 
ATOM     33  C   UNL A   1      34.512  30.285  28.124  1.00  0.00     0.251 C 
ATOM     34  H   UNL A   1      33.004  31.540  28.473  1.00  0.00     0.163 HD
ATOM     35  O   UNL A   1      33.790  29.521  27.486  1.00  0.00    -0.269 OA
BRANCH  33  36
ATOM     36  C   UNL A   1      35.930  29.929  28.367  1.00  0.00     0.039 A 
ATOM     37  C   UNL A   1      36.835  30.044  27.307  1.00  0.00     0.014 A 
ATOM     38  C   UNL A   1      36.371  29.442  29.600  1.00  0.00     0.014 A 
ATOM     39  C   UNL A   1      38.181  29.722  27.499  1.00  0.00     0.010 A 
ATOM     40  C   UNL A   1      37.729  29.207  29.815  1.00  0.00     0.010 A 
ATOM     41  C   UNL A   1      38.648  29.332  28.765  1.00  0.00    -0.014 A 
BRANCH  41  42
ATOM     42  C   UNL A   1      40.088  29.044  28.989  1.00  0.00     0.031 A 
ATOM     43  C   UNL A   1      40.997  30.091  29.583  1.00  0.00     0.074 A 
ATOM     44  C   UNL A   1      40.590  27.849  28.620  1.00  0.00     0.049 A 
ATOM     45  N   UNL A   1      42.275  30.016  29.852  1.00  0.00    -0.248 NA
ATOM     46  C   UNL A   1      40.399  31.401  29.886  1.00  0.00     0.031 C 
ATOM     47  C   UNL A   1      39.833  26.779  27.966  1.00  0.00     0.029 A 
ATOM     48  N   UNL A   1      41.855  27.331  28.741  1.00  0.00    -0.354 N 
ATOM     49  C   UNL A   1      42.637  31.267  30.340  1.00  0.00     0.074 A 
ATOM     50  C   UNL A   1      41.454  32.098  30.279  1.00  0.00     0.031 C 
ATOM     51  C   UNL A   1      40.638  25.722  27.775  1.00  0.00     0.029 A 
ATOM     52  C   UNL A   1      41.973  26.046  28.268  1.00  0.00     0.049 A 
ATOM     53  H   UNL A   1      42.607  27.832  29.130  1.00  0.00     0.167 HD
ATOM     54  C   UNL A   1      43.834  31.679  30.819  1.00  0.00     0.037 A 
ATOM     55  C   UNL A   1      43.033  25.216  28.245  1.00  0.00     0.037 A 
ATOM     56  C   UNL A   1      45.000  30.838  30.912  1.00  0.00     0.049 A 
ATOM     57  C   UNL A   1      44.336  25.676  28.836  1.00  0.00     0.074 A 
ATOM     58  C   UNL A   1      46.242  31.140  31.444  1.00  0.00     0.029 A 
ATOM     59  N   UNL A   1      45.068  29.527  30.464  1.00  0.00    -0.354 N 
ATOM     60  N   UNL A   1      44.638  26.840  29.361  1.00  0.00    -0.248 NA
ATOM     61  C   UNL A   1      45.438  24.704  28.848  1.00  0.00     0.031 C 
ATOM     62  C   UNL A   1      47.069  30.021  31.291  1.00  0.00     0.029 A 
ATOM     63  C   UNL A   1      46.331  29.009  30.700  1.00  0.00     0.049 A 
ATOM     64  H   UNL A   1      44.326  29.037  30.041  1.00  0.00     0.167 HD
ATOM     65  C   UNL A   1      45.958  26.733  29.787  1.00  0.00     0.074 A 
ATOM     66  C   UNL A   1      46.388  25.385  29.475  1.00  0.00     0.031 C 
ATOM     67  C   UNL A   1      46.744  27.666  30.379  1.00  0.00     0.037 A 
BRANCH  54  68
ATOM     68  C   UNL A   1      43.942  33.104  31.293  1.00  0.00     0.058 A 
ATOM     69  C   UNL A   1      43.659  33.459  32.622  1.00  0.00     0.135 A 
ATOM     70  C   UNL A   1      44.364  34.119  30.421  1.00  0.00     0.135 A 
ATOM     71  F   UNL A   1      43.237  32.531  33.496  1.00  0.00    -0.206 F 
ATOM     72  C   UNL A   1      43.762  34.775  33.062  1.00  0.00     0.059 A 
ATOM     73  C   UNL A   1      44.499  35.439  30.846  1.00  0.00     0.059 A 
ATOM     74  F   UNL A   1      44.647  33.837  29.140  1.00  0.00    -0.206 F 
ATOM     75  C   UNL A   1      44.181  35.759  32.165  1.00  0.00     0.060 A 
BRANCH  75  76
ATOM     76  S   UNL A   1      44.317  37.461  32.752  1.00  0.00     0.124 S 
ATOM     77  O   UNL A   1      45.657  37.463  33.331  1.00  0.00    -0.237 OA
ATOM     78  O   UNL A   1      44.158  38.231  31.522  1.00  0.00    -0.237 OA
ATOM     79  O   UNL A   1      43.219  37.579  33.707  1.00  0.00    -0.744 OA
ENDBRANCH  75  76
ENDBRANCH  54  68
BRANCH  55  80
ATOM     80  C   UNL A   1      42.891  23.847  27.682  1.00  0.00     0.058 A 
ATOM     81  C   UNL A   1      42.624  22.750  28.515  1.00  0.00     0.135 A 
ATOM     82  C   UNL A   1      43.005  23.611  26.304  1.00  0.00     0.135 A 
ATOM     83  F   UNL A   1      42.510  22.927  29.840  1.00  0.00    -0.206 F 
ATOM     84  C   UNL A   1      42.496  21.463  28.005  1.00  0.00     0.059 A 
ATOM     85  C   UNL A   1      42.855  22.336  25.767  1.00  0.00     0.059 A 
ATOM     86  F   UNL A   1      43.239  24.631  25.464  1.00  0.00    -0.206 F 
ATOM     87  C   UNL A   1      42.612  21.265  26.628  1.00  0.00     0.060 A 
BRANCH  87  88
ATOM     88  S   UNL A   1      42.394  19.598  25.970  1.00  0.00     0.124 S 
ATOM     89  O   UNL A   1      43.427  19.553  24.941  1.00  0.00    -0.237 OA
ATOM     90  O   UNL A   1      42.630  18.769  27.148  1.00  0.00    -0.237 OA
ATOM     91  O   UNL A   1      41.018  19.608  25.486  1.00  0.00    -0.744 OA
ENDBRANCH  87  88
ENDBRANCH  55  80
BRANCH  67  92
ATOM     92  C   UNL A   1      48.138  27.244  30.752  1.00  0.00     0.058 A 
ATOM     93  C   UNL A   1      49.213  27.384  29.860  1.00  0.00     0.135 A 
ATOM     94  C   UNL A   1      48.400  26.694  32.016  1.00  0.00     0.135 A 
ATOM     95  F   UNL A   1      49.014  27.901  28.637  1.00  0.00    -0.206 F 
ATOM     96  C   UNL A   1      50.491  26.949  30.192  1.00  0.00     0.059 A 
ATOM     97  C   UNL A   1      49.677  26.278  32.379  1.00  0.00     0.059 A 
ATOM     98  F   UNL A   1      47.411  26.553  32.913  1.00  0.00    -0.206 F 
ATOM     99  C   UNL A   1      50.712  26.389  31.452  1.00  0.00     0.060 A 
BRANCH  99 100
ATOM    100  S   UNL A   1      52.371  25.814  31.870  1.00  0.00     0.124 S 
ATOM    101  O   UNL A   1      52.167  24.372  31.958  1.00  0.00    -0.237 OA
ATOM    102  O   UNL A   1      53.162  26.275  30.733  1.00  0.00    -0.237 OA
ATOM    103  O   UNL A   1      52.653  26.488  33.135  1.00  0.00    -0.744 OA
ENDBRANCH  99 100
ENDBRANCH  67  92
ENDBRANCH  41  42
ENDBRANCH  33  36
ENDBRANCH  31  32
ENDBRANCH  30  31
ENDBRANCH   1  30
TORSDOF 17
ENDMDL
