MODEL 1
REMARK VINA RESULT:     -12.2      0.000      0.000
REMARK SMILES Cc1cc(Cl)ccc1Oc1cc(C)c(N)c(C(=O)NCCCNC(=O)c2ccc(-c3c4nc(c(-c5c(F)cc(S(=O)(=O)[O-])cc5F)c5ccc([nH]5)c(-c5c(F)cc(S(=O)(=O)[O-])cc5F)c5nc(c(-c6c(F)cc(S(=O)(=O)[O-])cc6F)c6ccc3[nH]6)C=C5)C=C4)cc2)c1
REMARK SMILES IDX 21 1 20 2 19 3 17 4 18 5 16 7 10 8 11 9 92 10 12 11 13 12
REMARK SMILES IDX 14 13 9 14 8 15 1 16 2 17 3 18 4 19 7 20 5 21 6 22 15 23
REMARK SMILES IDX 22 26 23 27 24 28 25 30 26 31 27 32 91 33 28 34 90 35 29 36
REMARK SMILES IDX 30 37 31 38 84 39 32 40 89 41 83 42 85 43 33 44 88 45 82 46
REMARK SMILES IDX 81 47 34 49 68 50 47 51 67 52 48 53 51 54 66 55 86 56 49 57
REMARK SMILES IDX 50 58 65 60 87 61 52 62 35 63 36 64 45 65 37 66 38 67 44 68
REMARK SMILES IDX 46 69 39 70 40 71 41 72 42 73 43 74 69 75 70 76 79 77 71 78
REMARK SMILES IDX 72 79 78 80 80 81 73 82 74 83 75 84 76 85 77 86 53 87 54 88
REMARK SMILES IDX 63 89 55 90 56 91 62 92 64 93 57 94 58 95 59 96 60 97 61 98
REMARK H PARENT 19 6 15 24 15 25 23 29 85 48 51 59
REMARK Flexibility Score: inf
ROOT
ATOM      1  C   UNL A   1      33.722  28.727  27.176  1.00  0.00     0.042 C 
ENDROOT
BRANCH   1   2
ATOM      2  C   UNL A   1      33.697  27.814  25.947  1.00  0.00     0.118 C 
BRANCH   2   3
ATOM      3  N   UNL A   1      32.447  27.953  25.220  1.00  0.00    -0.352 N 
ATOM      4  C   UNL A   1      31.534  27.061  24.713  1.00  0.00     0.253 C 
ATOM      5  O   UNL A   1      30.558  27.556  24.141  1.00  0.00    -0.269 OA
ATOM      6  H   UNL A   1      32.201  28.892  25.052  1.00  0.00     0.163 HD
BRANCH   4   7
ATOM      7  C   UNL A   1      31.638  25.570  24.843  1.00  0.00     0.066 A 
ATOM      8  C   UNL A   1      32.620  23.445  24.215  1.00  0.00     0.128 A 
ATOM      9  C   UNL A   1      31.855  22.778  25.162  1.00  0.00     0.052 A 
ATOM     10  C   UNL A   1      32.514  24.823  24.051  1.00  0.00     0.063 A 
ATOM     11  C   UNL A   1      30.888  23.479  25.893  1.00  0.00    -0.024 A 
ATOM     12  C   UNL A   1      29.969  22.704  26.799  1.00  0.00     0.047 C 
ATOM     13  C   UNL A   1      30.762  24.880  25.732  1.00  0.00     0.048 A 
BRANCH   8  14
ATOM     14  O   UNL A   1      33.584  22.790  23.507  1.00  0.00    -0.457 OA
BRANCH  14  15
ATOM     15  C   UNL A   1      34.758  22.372  24.097  1.00  0.00     0.130 A 
ATOM     16  C   UNL A   1      34.142  19.986  24.901  1.00  0.00     0.048 C 
ATOM     17  C   UNL A   1      35.071  21.154  24.729  1.00  0.00    -0.007 A 
ATOM     18  C   UNL A   1      36.365  21.002  25.278  1.00  0.00     0.027 A 
ATOM     19  C   UNL A   1      37.326  22.006  25.172  1.00  0.00     0.041 A 
ATOM     20  C   UNL A   1      35.750  23.368  23.989  1.00  0.00     0.049 A 
ATOM     21  Cl  UNL A   1      38.883  21.776  25.863  1.00  0.00    -0.084 Cl
ATOM     22  C   UNL A   1      37.027  23.189  24.516  1.00  0.00     0.024 A 
ENDBRANCH  14  15
ENDBRANCH   8  14
BRANCH  13  23
ATOM     23  N   UNL A   1      29.877  25.581  26.563  1.00  0.00    -0.398 N 
ATOM     24  H   UNL A   1      29.055  25.145  26.886  1.00  0.00     0.156 HD
ATOM     25  H   UNL A   1      30.078  26.509  26.825  1.00  0.00     0.156 HD
ENDBRANCH  13  23
ENDBRANCH   4   7
ENDBRANCH   2   3
ENDBRANCH   1   2
BRANCH   1  26
ATOM     26  C   UNL A   1      35.119  29.245  27.523  1.00  0.00     0.118 C 
BRANCH  26  27
ATOM     27  N   UNL A   1      35.119  30.019  28.754  1.00  0.00    -0.352 N 
ATOM     28  C   UNL A   1      36.116  30.218  29.675  1.00  0.00     0.251 C 
ATOM     29  H   UNL A   1      34.270  30.472  28.958  1.00  0.00     0.163 HD
ATOM     30  O   UNL A   1      35.830  30.710  30.764  1.00  0.00    -0.269 OA
BRANCH  28  31
ATOM     31  C   UNL A   1      37.519  29.851  29.378  1.00  0.00     0.039 A 
ATOM     32  C   UNL A   1      37.948  29.875  28.046  1.00  0.00     0.014 A 
ATOM     33  C   UNL A   1      38.387  29.410  30.380  1.00  0.00     0.014 A 
ATOM     34  C   UNL A   1      39.254  29.492  27.725  1.00  0.00     0.010 A 
ATOM     35  C   UNL A   1      39.708  29.087  30.067  1.00  0.00     0.010 A 
ATOM     36  C   UNL A   1      40.151  29.111  28.736  1.00  0.00    -0.014 A 
BRANCH  36  37
ATOM     37  C   UNL A   1      41.546  28.718  28.413  1.00  0.00     0.031 A 
ATOM     38  C   UNL A   1      42.640  29.752  28.393  1.00  0.00     0.074 A 
ATOM     39  C   UNL A   1      41.819  27.439  28.087  1.00  0.00     0.049 A 
ATOM     40  N   UNL A   1      43.903  29.615  28.078  1.00  0.00    -0.248 NA
ATOM     41  C   UNL A   1      42.258  31.127  28.750  1.00  0.00     0.031 C 
ATOM     42  C   UNL A   1      40.837  26.355  28.027  1.00  0.00     0.029 A 
ATOM     43  N   UNL A   1      43.000  26.836  27.737  1.00  0.00    -0.354 N 
ATOM     44  C   UNL A   1      44.461  30.884  28.181  1.00  0.00     0.074 A 
ATOM     45  C   UNL A   1      43.390  31.787  28.543  1.00  0.00     0.031 C 
ATOM     46  C   UNL A   1      41.459  25.216  27.681  1.00  0.00     0.029 A 
ATOM     47  C   UNL A   1      42.875  25.494  27.464  1.00  0.00     0.049 A 
ATOM     48  H   UNL A   1      43.857  27.318  27.685  1.00  0.00     0.167 HD
ATOM     49  C   UNL A   1      45.752  31.259  28.010  1.00  0.00     0.037 A 
ATOM     50  C   UNL A   1      43.798  24.590  27.081  1.00  0.00     0.037 A 
ATOM     51  C   UNL A   1      46.818  30.349  27.679  1.00  0.00     0.049 A 
ATOM     52  C   UNL A   1      45.228  25.025  26.919  1.00  0.00     0.074 A 
ATOM     53  C   UNL A   1      48.169  30.620  27.536  1.00  0.00     0.029 A 
ATOM     54  N   UNL A   1      46.657  28.992  27.444  1.00  0.00    -0.354 N 
ATOM     55  N   UNL A   1      45.747  26.221  27.071  1.00  0.00    -0.248 NA
ATOM     56  C   UNL A   1      46.199  23.989  26.543  1.00  0.00     0.031 C 
ATOM     57  C   UNL A   1      48.818  29.433  27.183  1.00  0.00     0.029 A 
ATOM     58  C   UNL A   1      47.879  28.413  27.146  1.00  0.00     0.049 A 
ATOM     59  H   UNL A   1      45.800  28.510  27.482  1.00  0.00     0.167 HD
ATOM     60  C   UNL A   1      47.109  26.075  26.835  1.00  0.00     0.074 A 
ATOM     61  C   UNL A   1      47.334  24.674  26.540  1.00  0.00     0.031 C 
ATOM     62  C   UNL A   1      48.086  27.016  26.862  1.00  0.00     0.037 A 
BRANCH  49  63
ATOM     63  C   UNL A   1      46.080  32.718  28.182  1.00  0.00     0.058 A 
ATOM     64  C   UNL A   1      46.547  33.228  29.404  1.00  0.00     0.135 A 
ATOM     65  C   UNL A   1      45.949  33.613  27.108  1.00  0.00     0.135 A 
ATOM     66  F   UNL A   1      46.678  32.419  30.467  1.00  0.00    -0.206 F 
ATOM     67  C   UNL A   1      46.839  34.579  29.565  1.00  0.00     0.059 A 
ATOM     68  C   UNL A   1      46.261  34.964  27.239  1.00  0.00     0.059 A 
ATOM     69  F   UNL A   1      45.509  33.179  25.915  1.00  0.00    -0.206 F 
ATOM     70  C   UNL A   1      46.688  35.440  28.478  1.00  0.00     0.060 A 
BRANCH  70  71
ATOM     71  S   UNL A   1      47.064  37.191  28.704  1.00  0.00     0.124 S 
ATOM     72  O   UNL A   1      46.882  37.704  27.349  1.00  0.00    -0.237 OA
ATOM     73  O   UNL A   1      46.057  37.606  29.676  1.00  0.00    -0.237 OA
ATOM     74  O   UNL A   1      48.438  37.183  29.194  1.00  0.00    -0.744 OA
ENDBRANCH  70  71
ENDBRANCH  49  63
BRANCH  50  75
ATOM     75  C   UNL A   1      43.398  23.175  26.857  1.00  0.00     0.058 A 
ATOM     76  C   UNL A   1      43.368  22.634  25.564  1.00  0.00     0.135 A 
ATOM     77  C   UNL A   1      43.065  22.333  27.928  1.00  0.00     0.135 A 
ATOM     78  F   UNL A   1      43.674  23.401  24.508  1.00  0.00    -0.206 F 
ATOM     79  C   UNL A   1      43.007  21.309  25.337  1.00  0.00     0.059 A 
ATOM     80  C   UNL A   1      42.723  20.999  27.730  1.00  0.00     0.059 A 
ATOM     81  F   UNL A   1      43.097  22.800  29.186  1.00  0.00    -0.206 F 
ATOM     82  C   UNL A   1      42.689  20.498  26.429  1.00  0.00     0.060 A 
BRANCH  82  83
ATOM     83  S   UNL A   1      42.276  18.766  26.129  1.00  0.00     0.124 S 
ATOM     84  O   UNL A   1      42.493  18.180  27.446  1.00  0.00    -0.237 OA
ATOM     85  O   UNL A   1      40.887  18.852  25.688  1.00  0.00    -0.237 OA
ATOM     86  O   UNL A   1      43.229  18.370  25.095  1.00  0.00    -0.744 OA
ENDBRANCH  82  83
ENDBRANCH  50  75
BRANCH  62  87
ATOM     87  C   UNL A   1      49.492  26.555  26.598  1.00  0.00     0.058 A 
ATOM     88  C   UNL A   1      50.283  25.985  27.608  1.00  0.00     0.135 A 
ATOM     89  C   UNL A   1      50.039  26.647  25.308  1.00  0.00     0.135 A 
ATOM     90  F   UNL A   1      49.808  25.880  28.859  1.00  0.00    -0.206 F 
ATOM     91  C   UNL A   1      51.578  25.546  27.353  1.00  0.00     0.059 A 
ATOM     92  C   UNL A   1      51.323  26.192  25.026  1.00  0.00     0.059 A 
ATOM     93  F   UNL A   1      49.321  27.175  24.305  1.00  0.00    -0.206 F 
ATOM     94  C   UNL A   1      52.089  25.654  26.059  1.00  0.00     0.060 A 
BRANCH  94  95
ATOM     95  S   UNL A   1      53.762  25.056  25.734  1.00  0.00     0.124 S 
ATOM     96  O   UNL A   1      54.218  25.999  24.719  1.00  0.00    -0.237 OA
ATOM     97  O   UNL A   1      54.398  25.175  27.043  1.00  0.00    -0.237 OA
ATOM     98  O   UNL A   1      53.549  23.688  25.270  1.00  0.00    -0.744 OA
ENDBRANCH  94  95
ENDBRANCH  62  87
ENDBRANCH  36  37
ENDBRANCH  28  31
ENDBRANCH  26  27
ENDBRANCH   1  26
TORSDOF 16
ENDMDL
MODEL 2
REMARK VINA RESULT:     -12.2      6.733     12.115
REMARK SMILES Cc1cc(Cl)ccc1Oc1cc(C)c(N)c(C(=O)NCCCNC(=O)c2ccc(-c3c4nc(c(-c5c(F)cc(S(=O)(=O)[O-])cc5F)c5ccc([nH]5)c(-c5c(F)cc(S(=O)(=O)[O-])cc5F)c5nc(c(-c6c(F)cc(S(=O)(=O)[O-])cc6F)c6ccc3[nH]6)C=C5)C=C4)cc2)c1
REMARK SMILES IDX 21 1 20 2 19 3 17 4 18 5 16 7 10 8 11 9 92 10 12 11 13 12
REMARK SMILES IDX 14 13 9 14 8 15 1 16 2 17 3 18 4 19 7 20 5 21 6 22 15 23
REMARK SMILES IDX 22 26 23 27 24 28 25 30 26 31 27 32 91 33 28 34 90 35 29 36
REMARK SMILES IDX 30 37 31 38 84 39 32 40 89 41 83 42 85 43 33 44 88 45 82 46
REMARK SMILES IDX 81 47 34 49 68 50 47 51 67 52 48 53 51 54 66 55 86 56 49 57
REMARK SMILES IDX 50 58 65 60 87 61 52 62 35 63 36 64 45 65 37 66 38 67 44 68
REMARK SMILES IDX 46 69 39 70 40 71 41 72 42 73 43 74 69 75 70 76 79 77 71 78
REMARK SMILES IDX 72 79 78 80 80 81 73 82 74 83 75 84 76 85 77 86 53 87 54 88
REMARK SMILES IDX 63 89 55 90 56 91 62 92 64 93 57 94 58 95 59 96 60 97 61 98
REMARK H PARENT 19 6 15 24 15 25 23 29 85 48 51 59
REMARK Flexibility Score: inf
ROOT
ATOM      1  C   UNL A   1      38.886  22.567  26.403  1.00  0.00     0.042 C 
ENDROOT
BRANCH   1   2
ATOM      2  C   UNL A   1      37.870  23.598  25.906  1.00  0.00     0.118 C 
BRANCH   2   3
ATOM      3  N   UNL A   1      37.391  23.260  24.577  1.00  0.00    -0.352 N 
ATOM      4  C   UNL A   1      36.170  23.340  23.954  1.00  0.00     0.253 C 
ATOM      5  O   UNL A   1      36.137  22.955  22.781  1.00  0.00    -0.269 OA
ATOM      6  H   UNL A   1      38.096  22.893  23.996  1.00  0.00     0.163 HD
BRANCH   4   7
ATOM      7  C   UNL A   1      34.924  23.885  24.588  1.00  0.00     0.066 A 
ATOM      8  C   UNL A   1      33.262  25.629  24.854  1.00  0.00     0.128 A 
ATOM      9  C   UNL A   1      32.543  24.848  25.749  1.00  0.00     0.052 A 
ATOM     10  C   UNL A   1      34.440  25.159  24.281  1.00  0.00     0.063 A 
ATOM     11  C   UNL A   1      33.058  23.614  26.163  1.00  0.00    -0.024 A 
ATOM     12  C   UNL A   1      32.335  22.860  27.248  1.00  0.00     0.047 C 
ATOM     13  C   UNL A   1      34.259  23.125  25.596  1.00  0.00     0.048 A 
BRANCH   8  14
ATOM     14  O   UNL A   1      32.772  26.824  24.417  1.00  0.00    -0.457 OA
BRANCH  14  15
ATOM     15  C   UNL A   1      32.901  27.976  25.164  1.00  0.00     0.130 A 
ATOM     16  C   UNL A   1      30.855  29.363  24.383  1.00  0.00     0.048 C 
ATOM     17  C   UNL A   1      32.096  29.130  25.198  1.00  0.00    -0.007 A 
ATOM     18  C   UNL A   1      32.484  30.187  26.053  1.00  0.00     0.027 A 
ATOM     19  C   UNL A   1      33.606  30.090  26.873  1.00  0.00     0.041 A 
ATOM     20  C   UNL A   1      34.025  27.894  26.012  1.00  0.00     0.049 A 
ATOM     21  Cl  UNL A   1      34.040  31.406  27.890  1.00  0.00    -0.084 Cl
ATOM     22  C   UNL A   1      34.375  28.937  26.865  1.00  0.00     0.024 A 
ENDBRANCH  14  15
ENDBRANCH   8  14
BRANCH  13  23
ATOM     23  N   UNL A   1      34.691  21.834  25.929  1.00  0.00    -0.398 N 
ATOM     24  H   UNL A   1      34.303  21.370  26.707  1.00  0.00     0.156 HD
ATOM     25  H   UNL A   1      35.381  21.389  25.386  1.00  0.00     0.156 HD
ENDBRANCH  13  23
ENDBRANCH   4   7
ENDBRANCH   2   3
ENDBRANCH   1   2
BRANCH   1  26
ATOM     26  C   UNL A   1      40.113  23.192  27.071  1.00  0.00     0.118 C 
BRANCH  26  27
ATOM     27  N   UNL A   1      40.975  23.855  26.106  1.00  0.00    -0.352 N 
ATOM     28  C   UNL A   1      41.374  25.166  26.028  1.00  0.00     0.251 C 
ATOM     29  H   UNL A   1      41.330  23.272  25.398  1.00  0.00     0.163 HD
ATOM     30  O   UNL A   1      41.910  25.563  24.997  1.00  0.00    -0.269 OA
BRANCH  28  31
ATOM     31  C   UNL A   1      41.169  26.098  27.159  1.00  0.00     0.039 A 
ATOM     32  C   UNL A   1      42.042  27.183  27.299  1.00  0.00     0.014 A 
ATOM     33  C   UNL A   1      40.181  25.873  28.122  1.00  0.00     0.014 A 
ATOM     34  C   UNL A   1      41.903  28.057  28.381  1.00  0.00     0.010 A 
ATOM     35  C   UNL A   1      40.005  26.780  29.167  1.00  0.00     0.010 A 
ATOM     36  C   UNL A   1      40.871  27.873  29.315  1.00  0.00    -0.014 A 
BRANCH  36  37
ATOM     37  C   UNL A   1      40.700  28.803  30.460  1.00  0.00     0.031 A 
ATOM     38  C   UNL A   1      41.570  28.670  31.682  1.00  0.00     0.074 A 
ATOM     39  C   UNL A   1      39.729  29.737  30.420  1.00  0.00     0.049 A 
ATOM     40  N   UNL A   1      41.533  29.347  32.802  1.00  0.00    -0.248 NA
ATOM     41  C   UNL A   1      42.600  27.620  31.651  1.00  0.00     0.031 C 
ATOM     42  C   UNL A   1      38.794  29.936  29.311  1.00  0.00     0.029 A 
ATOM     43  N   UNL A   1      39.360  30.686  31.339  1.00  0.00    -0.354 N 
ATOM     44  C   UNL A   1      42.518  28.796  33.613  1.00  0.00     0.074 A 
ATOM     45  C   UNL A   1      43.105  27.698  32.875  1.00  0.00     0.031 C 
ATOM     46  C   UNL A   1      37.972  30.955  29.606  1.00  0.00     0.029 A 
ATOM     47  C   UNL A   1      38.299  31.462  30.935  1.00  0.00     0.049 A 
ATOM     48  H   UNL A   1      39.811  30.801  32.206  1.00  0.00     0.167 HD
ATOM     49  C   UNL A   1      42.912  29.181  34.851  1.00  0.00     0.037 A 
ATOM     50  C   UNL A   1      37.662  32.468  31.565  1.00  0.00     0.037 A 
ATOM     51  C   UNL A   1      42.343  30.294  35.567  1.00  0.00     0.049 A 
ATOM     52  C   UNL A   1      38.130  32.893  32.929  1.00  0.00     0.074 A 
ATOM     53  C   UNL A   1      42.707  30.799  36.804  1.00  0.00     0.029 A 
ATOM     54  N   UNL A   1      41.293  31.076  35.110  1.00  0.00    -0.354 N 
ATOM     55  N   UNL A   1      39.099  32.393  33.660  1.00  0.00    -0.248 NA
ATOM     56  C   UNL A   1      37.428  34.024  33.550  1.00  0.00     0.031 C 
ATOM     57  C   UNL A   1      41.855  31.867  37.108  1.00  0.00     0.029 A 
ATOM     58  C   UNL A   1      40.988  32.053  36.043  1.00  0.00     0.049 A 
ATOM     59  H   UNL A   1      40.831  30.955  34.249  1.00  0.00     0.167 HD
ATOM     60  C   UNL A   1      39.139  33.164  34.816  1.00  0.00     0.074 A 
ATOM     61  C   UNL A   1      38.105  34.170  34.682  1.00  0.00     0.031 C 
ATOM     62  C   UNL A   1      39.959  33.051  35.890  1.00  0.00     0.037 A 
BRANCH  49  63
ATOM     63  C   UNL A   1      44.014  28.394  35.506  1.00  0.00     0.058 A 
ATOM     64  C   UNL A   1      45.367  28.693  35.280  1.00  0.00     0.135 A 
ATOM     65  C   UNL A   1      43.716  27.343  36.388  1.00  0.00     0.135 A 
ATOM     66  F   UNL A   1      45.709  29.679  34.436  1.00  0.00    -0.206 F 
ATOM     67  C   UNL A   1      46.386  27.957  35.878  1.00  0.00     0.059 A 
ATOM     68  C   UNL A   1      44.719  26.610  37.018  1.00  0.00     0.059 A 
ATOM     69  F   UNL A   1      42.439  27.014  36.643  1.00  0.00    -0.206 F 
ATOM     70  C   UNL A   1      46.051  26.914  36.742  1.00  0.00     0.060 A 
BRANCH  70  71
ATOM     71  S   UNL A   1      47.383  25.962  37.504  1.00  0.00     0.124 S 
ATOM     72  O   UNL A   1      48.074  26.995  38.270  1.00  0.00    -0.237 OA
ATOM     73  O   UNL A   1      46.653  24.974  38.291  1.00  0.00    -0.237 OA
ATOM     74  O   UNL A   1      48.117  25.430  36.360  1.00  0.00    -0.744 OA
ENDBRANCH  70  71
ENDBRANCH  49  63
BRANCH  50  75
ATOM     75  C   UNL A   1      36.532  33.163  30.894  1.00  0.00     0.058 A 
ATOM     76  C   UNL A   1      35.213  32.980  31.335  1.00  0.00     0.135 A 
ATOM     77  C   UNL A   1      36.748  34.038  29.819  1.00  0.00     0.135 A 
ATOM     78  F   UNL A   1      34.956  32.150  32.356  1.00  0.00    -0.206 F 
ATOM     79  C   UNL A   1      34.144  33.631  30.725  1.00  0.00     0.059 A 
ATOM     80  C   UNL A   1      35.699  34.718  29.208  1.00  0.00     0.059 A 
ATOM     81  F   UNL A   1      37.994  34.259  29.373  1.00  0.00    -0.206 F 
ATOM     82  C   UNL A   1      34.399  34.501  29.663  1.00  0.00     0.060 A 
BRANCH  82  83
ATOM     83  S   UNL A   1      33.012  35.383  28.915  1.00  0.00     0.124 S 
ATOM     84  O   UNL A   1      32.149  35.605  30.070  1.00  0.00    -0.237 OA
ATOM     85  O   UNL A   1      33.661  36.568  28.364  1.00  0.00    -0.237 OA
ATOM     86  O   UNL A   1      32.510  34.435  27.923  1.00  0.00    -0.744 OA
ENDBRANCH  82  83
ENDBRANCH  50  75
BRANCH  62  87
ATOM     87  C   UNL A   1      39.794  34.061  36.990  1.00  0.00     0.058 A 
ATOM     88  C   UNL A   1      40.327  35.355  36.889  1.00  0.00     0.135 A 
ATOM     89  C   UNL A   1      39.057  33.741  38.143  1.00  0.00     0.135 A 
ATOM     90  F   UNL A   1      41.044  35.708  35.811  1.00  0.00    -0.206 F 
ATOM     91  C   UNL A   1      40.156  36.291  37.905  1.00  0.00     0.059 A 
ATOM     92  C   UNL A   1      38.854  34.669  39.160  1.00  0.00     0.059 A 
ATOM     93  F   UNL A   1      38.518  32.520  38.284  1.00  0.00    -0.206 F 
ATOM     94  C   UNL A   1      39.419  35.937  39.036  1.00  0.00     0.060 A 
BRANCH  94  95
ATOM     95  S   UNL A   1      39.182  37.169  40.337  1.00  0.00     0.124 S 
ATOM     96  O   UNL A   1      38.334  36.443  41.276  1.00  0.00    -0.237 OA
ATOM     97  O   UNL A   1      40.549  37.423  40.781  1.00  0.00    -0.237 OA
ATOM     98  O   UNL A   1      38.540  38.279  39.639  1.00  0.00    -0.744 OA
ENDBRANCH  94  95
ENDBRANCH  62  87
ENDBRANCH  36  37
ENDBRANCH  28  31
ENDBRANCH  26  27
ENDBRANCH   1  26
TORSDOF 16
ENDMDL
MODEL 3
REMARK VINA RESULT:     -12.2      6.842     12.099
REMARK SMILES Cc1cc(Cl)ccc1Oc1cc(C)c(N)c(C(=O)NCCCNC(=O)c2ccc(-c3c4nc(c(-c5c(F)cc(S(=O)(=O)[O-])cc5F)c5ccc([nH]5)c(-c5c(F)cc(S(=O)(=O)[O-])cc5F)c5nc(c(-c6c(F)cc(S(=O)(=O)[O-])cc6F)c6ccc3[nH]6)C=C5)C=C4)cc2)c1
REMARK SMILES IDX 21 1 20 2 19 3 17 4 18 5 16 7 10 8 11 9 92 10 12 11 13 12
REMARK SMILES IDX 14 13 9 14 8 15 1 16 2 17 3 18 4 19 7 20 5 21 6 22 15 23
REMARK SMILES IDX 22 26 23 27 24 28 25 30 26 31 27 32 91 33 28 34 90 35 29 36
REMARK SMILES IDX 30 37 31 38 84 39 32 40 89 41 83 42 85 43 33 44 88 45 82 46
REMARK SMILES IDX 81 47 34 49 68 50 47 51 67 52 48 53 51 54 66 55 86 56 49 57
REMARK SMILES IDX 50 58 65 60 87 61 52 62 35 63 36 64 45 65 37 66 38 67 44 68
REMARK SMILES IDX 46 69 39 70 40 71 41 72 42 73 43 74 69 75 70 76 79 77 71 78
REMARK SMILES IDX 72 79 78 80 80 81 73 82 74 83 75 84 76 85 77 86 53 87 54 88
REMARK SMILES IDX 63 89 55 90 56 91 62 92 64 93 57 94 58 95 59 96 60 97 61 98
REMARK H PARENT 19 6 15 24 15 25 23 29 85 48 51 59
REMARK Flexibility Score: inf
ROOT
ATOM      1  C   UNL A   1      37.735  22.982  25.745  1.00  0.00     0.042 C 
ENDROOT
BRANCH   1   2
ATOM      2  C   UNL A   1      36.244  23.310  25.635  1.00  0.00     0.118 C 
BRANCH   2   3
ATOM      3  N   UNL A   1      35.479  22.607  26.650  1.00  0.00    -0.352 N 
ATOM      4  C   UNL A   1      34.286  21.927  26.646  1.00  0.00     0.253 C 
ATOM      5  O   UNL A   1      33.939  21.439  27.726  1.00  0.00    -0.269 OA
ATOM      6  H   UNL A   1      35.910  22.621  27.536  1.00  0.00     0.163 HD
BRANCH   4   7
ATOM      7  C   UNL A   1      33.427  21.722  25.432  1.00  0.00     0.066 A 
ATOM      8  C   UNL A   1      31.868  22.544  23.769  1.00  0.00     0.128 A 
ATOM      9  C   UNL A   1      31.878  21.321  23.112  1.00  0.00     0.052 A 
ATOM     10  C   UNL A   1      32.628  22.746  24.917  1.00  0.00     0.063 A 
ATOM     11  C   UNL A   1      32.579  20.242  23.664  1.00  0.00    -0.024 A 
ATOM     12  C   UNL A   1      32.447  18.890  23.014  1.00  0.00     0.047 C 
ATOM     13  C   UNL A   1      33.351  20.429  24.836  1.00  0.00     0.048 A 
BRANCH   8  14
ATOM     14  O   UNL A   1      31.212  23.617  23.240  1.00  0.00    -0.457 OA
BRANCH  14  15
ATOM     15  C   UNL A   1      31.757  24.883  23.268  1.00  0.00     0.130 A 
ATOM     16  C   UNL A   1      30.322  26.054  25.081  1.00  0.00     0.048 C 
ATOM     17  C   UNL A   1      31.414  26.001  24.050  1.00  0.00    -0.007 A 
ATOM     18  C   UNL A   1      32.135  27.201  23.850  1.00  0.00     0.027 A 
ATOM     19  C   UNL A   1      33.183  27.280  22.935  1.00  0.00     0.041 A 
ATOM     20  C   UNL A   1      32.830  24.981  22.357  1.00  0.00     0.049 A 
ATOM     21  Cl  UNL A   1      34.025  28.763  22.722  1.00  0.00    -0.084 Cl
ATOM     22  C   UNL A   1      33.543  26.167  22.192  1.00  0.00     0.024 A 
ENDBRANCH  14  15
ENDBRANCH   8  14
BRANCH  13  23
ATOM     23  N   UNL A   1      34.145  19.371  25.301  1.00  0.00    -0.398 N 
ATOM     24  H   UNL A   1      33.844  18.441  25.183  1.00  0.00     0.156 HD
ATOM     25  H   UNL A   1      35.004  19.558  25.744  1.00  0.00     0.156 HD
ENDBRANCH  13  23
ENDBRANCH   4   7
ENDBRANCH   2   3
ENDBRANCH   1   2
BRANCH   1  26
ATOM     26  C   UNL A   1      38.537  24.039  26.506  1.00  0.00     0.118 C 
BRANCH  26  27
ATOM     27  N   UNL A   1      39.943  24.024  26.133  1.00  0.00    -0.352 N 
ATOM     28  C   UNL A   1      40.958  24.884  26.469  1.00  0.00     0.251 C 
ATOM     29  H   UNL A   1      40.208  23.280  25.546  1.00  0.00     0.163 HD
ATOM     30  O   UNL A   1      42.017  24.824  25.851  1.00  0.00    -0.269 OA
BRANCH  28  31
ATOM     31  C   UNL A   1      40.794  25.874  27.557  1.00  0.00     0.039 A 
ATOM     32  C   UNL A   1      41.701  26.937  27.637  1.00  0.00     0.014 A 
ATOM     33  C   UNL A   1      39.812  25.724  28.540  1.00  0.00     0.014 A 
ATOM     34  C   UNL A   1      41.601  27.865  28.677  1.00  0.00     0.010 A 
ATOM     35  C   UNL A   1      39.675  26.685  29.543  1.00  0.00     0.010 A 
ATOM     36  C   UNL A   1      40.576  27.756  29.630  1.00  0.00    -0.014 A 
BRANCH  36  37
ATOM     37  C   UNL A   1      40.447  28.744  30.731  1.00  0.00     0.031 A 
ATOM     38  C   UNL A   1      41.312  28.629  31.959  1.00  0.00     0.074 A 
ATOM     39  C   UNL A   1      39.516  29.715  30.649  1.00  0.00     0.049 A 
ATOM     40  N   UNL A   1      41.306  29.357  33.046  1.00  0.00    -0.248 NA
ATOM     41  C   UNL A   1      42.296  27.537  31.975  1.00  0.00     0.031 C 
ATOM     42  C   UNL A   1      38.588  29.903  29.532  1.00  0.00     0.029 A 
ATOM     43  N   UNL A   1      39.189  30.720  31.524  1.00  0.00    -0.354 N 
ATOM     44  C   UNL A   1      42.269  28.802  33.882  1.00  0.00     0.074 A 
ATOM     45  C   UNL A   1      42.807  27.648  33.194  1.00  0.00     0.031 C 
ATOM     46  C   UNL A   1      37.811  30.969  29.781  1.00  0.00     0.029 A 
ATOM     47  C   UNL A   1      38.162  31.522  31.085  1.00  0.00     0.049 A 
ATOM     48  H   UNL A   1      39.647  30.855  32.385  1.00  0.00     0.167 HD
ATOM     49  C   UNL A   1      42.680  29.226  35.101  1.00  0.00     0.037 A 
ATOM     50  C   UNL A   1      37.568  32.581  31.669  1.00  0.00     0.037 A 
ATOM     51  C   UNL A   1      42.160  30.393  35.766  1.00  0.00     0.049 A 
ATOM     52  C   UNL A   1      38.057  33.047  33.013  1.00  0.00     0.074 A 
ATOM     53  C   UNL A   1      42.548  30.938  36.979  1.00  0.00     0.029 A 
ATOM     54  N   UNL A   1      41.144  31.198  35.274  1.00  0.00    -0.354 N 
ATOM     55  N   UNL A   1      39.005  32.540  33.766  1.00  0.00    -0.248 NA
ATOM     56  C   UNL A   1      37.405  34.233  33.582  1.00  0.00     0.031 C 
ATOM     57  C   UNL A   1      41.743  32.054  37.234  1.00  0.00     0.029 A 
ATOM     58  C   UNL A   1      40.882  32.228  36.161  1.00  0.00     0.049 A 
ATOM     59  H   UNL A   1      40.676  31.058  34.419  1.00  0.00     0.167 HD
ATOM     60  C   UNL A   1      39.080  33.360  34.885  1.00  0.00     0.074 A 
ATOM     61  C   UNL A   1      38.089  34.402  34.705  1.00  0.00     0.031 C 
ATOM     62  C   UNL A   1      39.896  33.261  35.963  1.00  0.00     0.037 A 
BRANCH  49  63
ATOM     63  C   UNL A   1      43.749  28.423  35.792  1.00  0.00     0.058 A 
ATOM     64  C   UNL A   1      45.113  28.685  35.589  1.00  0.00     0.135 A 
ATOM     65  C   UNL A   1      43.408  27.394  36.684  1.00  0.00     0.135 A 
ATOM     66  F   UNL A   1      45.496  29.648  34.736  1.00  0.00    -0.206 F 
ATOM     67  C   UNL A   1      46.101  27.935  36.219  1.00  0.00     0.059 A 
ATOM     68  C   UNL A   1      44.379  26.648  37.346  1.00  0.00     0.059 A 
ATOM     69  F   UNL A   1      42.118  27.101  36.918  1.00  0.00    -0.206 F 
ATOM     70  C   UNL A   1      45.723  26.914  37.092  1.00  0.00     0.060 A 
BRANCH  70  71
ATOM     71  S   UNL A   1      47.016  25.944  37.897  1.00  0.00     0.124 S 
ATOM     72  O   UNL A   1      46.638  26.066  39.302  1.00  0.00    -0.237 OA
ATOM     73  O   UNL A   1      46.831  24.622  37.306  1.00  0.00    -0.237 OA
ATOM     74  O   UNL A   1      48.245  26.631  37.514  1.00  0.00    -0.744 OA
ENDBRANCH  70  71
ENDBRANCH  49  63
BRANCH  50  75
ATOM     75  C   UNL A   1      36.468  33.292  30.967  1.00  0.00     0.058 A 
ATOM     76  C   UNL A   1      35.144  33.189  31.418  1.00  0.00     0.135 A 
ATOM     77  C   UNL A   1      36.719  34.104  29.851  1.00  0.00     0.135 A 
ATOM     78  F   UNL A   1      34.854  32.421  32.478  1.00  0.00    -0.206 F 
ATOM     79  C   UNL A   1      34.103  33.856  30.780  1.00  0.00     0.059 A 
ATOM     80  C   UNL A   1      35.699  34.800  29.209  1.00  0.00     0.059 A 
ATOM     81  F   UNL A   1      37.972  34.249  29.392  1.00  0.00    -0.206 F 
ATOM     82  C   UNL A   1      34.392  34.662  29.676  1.00  0.00     0.060 A 
BRANCH  82  83
ATOM     83  S   UNL A   1      33.042  35.568  28.889  1.00  0.00     0.124 S 
ATOM     84  O   UNL A   1      32.282  36.026  30.046  1.00  0.00    -0.237 OA
ATOM     85  O   UNL A   1      33.756  36.599  28.142  1.00  0.00    -0.237 OA
ATOM     86  O   UNL A   1      32.391  34.550  28.068  1.00  0.00    -0.744 OA
ENDBRANCH  82  83
ENDBRANCH  50  75
BRANCH  62  87
ATOM     87  C   UNL A   1      39.776  34.326  37.017  1.00  0.00     0.058 A 
ATOM     88  C   UNL A   1      39.007  34.135  38.175  1.00  0.00     0.135 A 
ATOM     89  C   UNL A   1      40.473  35.538  36.883  1.00  0.00     0.135 A 
ATOM     90  F   UNL A   1      38.318  32.997  38.347  1.00  0.00    -0.206 F 
ATOM     91  C   UNL A   1      38.914  35.119  39.154  1.00  0.00     0.059 A 
ATOM     92  C   UNL A   1      40.414  36.526  37.861  1.00  0.00     0.059 A 
ATOM     93  F   UNL A   1      41.230  35.767  35.799  1.00  0.00    -0.206 F 
ATOM     94  C   UNL A   1      39.620  36.311  38.987  1.00  0.00     0.060 A 
BRANCH  94  95
ATOM     95  S   UNL A   1      39.513  37.571  40.277  1.00  0.00     0.124 S 
ATOM     96  O   UNL A   1      38.873  36.830  41.358  1.00  0.00    -0.237 OA
ATOM     97  O   UNL A   1      40.913  37.923  40.490  1.00  0.00    -0.237 OA
ATOM     98  O   UNL A   1      38.698  38.615  39.663  1.00  0.00    -0.744 OA
ENDBRANCH  94  95
ENDBRANCH  62  87
ENDBRANCH  36  37
ENDBRANCH  28  31
ENDBRANCH  26  27
ENDBRANCH   1  26
TORSDOF 16
ENDMDL
