MODEL 1
REMARK VINA RESULT:     -12.0      0.000      0.000
REMARK SMILES Cc1nc(CNC(=O)[C@H]2CCO[C@H]2C)sc1C(=O)NCCCNC(=O)c1ccc(-c2c3nc(c(-c4c(F)cc(S(=O)(=O)[O-])cc4F)c4ccc([nH]4)c(-c4c(F)cc(S(=O)(=O)[O-])cc4F)c4nc(c(-c5c(F)cc(S(=O)(=O)[O-])cc5F)c5ccc2[nH]5)C=C4)C=C3)cc1
REMARK SMILES IDX 21 1 20 2 19 3 17 4 18 5 16 7 1 8 2 9 3 10 4 11 15 12 5 13
REMARK SMILES IDX 6 14 7 15 8 17 9 18 10 19 13 20 11 21 12 22 14 23 22 24
REMARK SMILES IDX 23 25 24 26 25 28 26 29 27 30 91 31 28 32 90 33 29 34 30 35
REMARK SMILES IDX 31 36 84 37 32 38 89 39 83 40 85 41 33 42 88 43 82 44 81 45
REMARK SMILES IDX 34 47 68 48 47 49 67 50 48 51 51 52 66 53 86 54 49 55 50 56
REMARK SMILES IDX 65 58 87 59 52 60 35 61 36 62 45 63 37 64 38 65 44 66 46 67
REMARK SMILES IDX 39 68 40 69 41 70 42 71 43 72 69 73 70 74 79 75 71 76 72 77
REMARK SMILES IDX 78 78 80 79 73 80 74 81 75 82 76 83 77 84 53 85 54 86 63 87
REMARK SMILES IDX 55 88 56 89 62 90 64 91 57 92 58 93 59 94 60 95 61 96
REMARK H PARENT 19 6 6 16 23 27 85 46 51 57
REMARK Flexibility Score: inf
ROOT
ATOM      1  C   UNL A   1      37.225  23.734  25.357  1.00  0.00     0.042 C 
ENDROOT
BRANCH   1   2
ATOM      2  C   UNL A   1      36.802  22.267  25.354  1.00  0.00     0.118 C 
BRANCH   2   3
ATOM      3  N   UNL A   1      35.960  21.973  26.491  1.00  0.00    -0.351 N 
ATOM      4  C   UNL A   1      34.607  21.853  26.668  1.00  0.00     0.263 C 
ATOM      5  O   UNL A   1      34.301  21.542  27.826  1.00  0.00    -0.268 OA
ATOM      6  H   UNL A   1      36.471  21.826  27.320  1.00  0.00     0.163 HD
BRANCH   4   7
ATOM      7  C   UNL A   1      33.605  22.019  25.619  1.00  0.00     0.115 A 
ATOM      8  C   UNL A   1      33.125  19.804  24.285  1.00  0.00     0.068 C 
ATOM      9  C   UNL A   1      32.974  21.233  24.658  1.00  0.00     0.061 A 
ATOM     10  N   UNL A   1      32.077  21.912  23.841  1.00  0.00    -0.244 NA
ATOM     11  C   UNL A   1      32.101  23.200  24.070  1.00  0.00     0.113 A 
ATOM     12  S   UNL A   1      33.058  23.668  25.396  1.00  0.00    -0.111 S 
BRANCH  11  13
ATOM     13  C   UNL A   1      31.367  24.210  23.242  1.00  0.00     0.183 C 
BRANCH  13  14
ATOM     14  N   UNL A   1      32.278  24.770  22.256  1.00  0.00    -0.349 N 
ATOM     15  C   UNL A   1      32.932  25.964  22.251  1.00  0.00     0.226 C 
ATOM     16  H   UNL A   1      32.448  24.198  21.472  1.00  0.00     0.163 HD
ATOM     17  O   UNL A   1      33.628  26.241  21.276  1.00  0.00    -0.275 OA
BRANCH  15  18
ATOM     18  C   UNL A   1      32.828  26.878  23.454  1.00  0.00     0.109 C 
ATOM     19  C   UNL A   1      33.738  28.090  23.386  1.00  0.00     0.044 C 
ATOM     20  C   UNL A   1      31.469  27.534  23.669  1.00  0.00     0.127 C 
ATOM     21  C   UNL A   1      33.129  28.998  24.431  1.00  0.00     0.161 C 
ATOM     22  O   UNL A   1      31.735  28.671  24.524  1.00  0.00    -0.378 OA
ATOM     23  C   UNL A   1      30.781  28.066  22.413  1.00  0.00     0.039 C 
ENDBRANCH  15  18
ENDBRANCH  13  14
ENDBRANCH  11  13
ENDBRANCH   4   7
ENDBRANCH   2   3
ENDBRANCH   1   2
BRANCH   1  24
ATOM     24  C   UNL A   1      38.127  24.113  26.526  1.00  0.00     0.118 C 
BRANCH  24  25
ATOM     25  N   UNL A   1      39.531  23.897  26.218  1.00  0.00    -0.352 N 
ATOM     26  C   UNL A   1      40.636  24.635  26.567  1.00  0.00     0.251 C 
ATOM     27  H   UNL A   1      39.719  23.098  25.674  1.00  0.00     0.163 HD
ATOM     28  O   UNL A   1      41.701  24.416  25.995  1.00  0.00    -0.269 OA
BRANCH  26  29
ATOM     29  C   UNL A   1      40.559  25.686  27.610  1.00  0.00     0.039 A 
ATOM     30  C   UNL A   1      39.577  25.579  28.601  1.00  0.00     0.014 A 
ATOM     31  C   UNL A   1      41.398  26.803  27.588  1.00  0.00     0.014 A 
ATOM     32  C   UNL A   1      39.469  26.562  29.590  1.00  0.00     0.010 A 
ATOM     33  C   UNL A   1      41.340  27.743  28.616  1.00  0.00     0.010 A 
ATOM     34  C   UNL A   1      40.367  27.640  29.620  1.00  0.00    -0.014 A 
BRANCH  34  35
ATOM     35  C   UNL A   1      40.295  28.681  30.680  1.00  0.00     0.031 A 
ATOM     36  C   UNL A   1      41.165  28.573  31.904  1.00  0.00     0.074 A 
ATOM     37  C   UNL A   1      39.399  29.681  30.574  1.00  0.00     0.049 A 
ATOM     38  N   UNL A   1      41.175  29.318  32.980  1.00  0.00    -0.248 NA
ATOM     39  C   UNL A   1      42.133  27.465  31.934  1.00  0.00     0.031 C 
ATOM     40  C   UNL A   1      38.469  29.870  29.458  1.00  0.00     0.029 A 
ATOM     41  N   UNL A   1      39.109  30.720  31.424  1.00  0.00    -0.354 N 
ATOM     42  C   UNL A   1      42.130  28.758  33.821  1.00  0.00     0.074 A 
ATOM     43  C   UNL A   1      42.648  27.585  33.149  1.00  0.00     0.031 C 
ATOM     44  C   UNL A   1      37.723  30.963  29.686  1.00  0.00     0.029 A 
ATOM     45  C   UNL A   1      38.094  31.533  30.978  1.00  0.00     0.049 A 
ATOM     46  H   UNL A   1      39.586  30.869  32.273  1.00  0.00     0.167 HD
ATOM     47  C   UNL A   1      42.553  29.192  35.033  1.00  0.00     0.037 A 
ATOM     48  C   UNL A   1      37.517  32.607  31.550  1.00  0.00     0.037 A 
ATOM     49  C   UNL A   1      42.058  30.379  35.681  1.00  0.00     0.049 A 
ATOM     50  C   UNL A   1      38.014  33.082  32.889  1.00  0.00     0.074 A 
ATOM     51  C   UNL A   1      42.461  30.936  36.882  1.00  0.00     0.029 A 
ATOM     52  N   UNL A   1      41.056  31.196  35.178  1.00  0.00    -0.354 N 
ATOM     53  N   UNL A   1      38.953  32.568  33.646  1.00  0.00    -0.248 NA
ATOM     54  C   UNL A   1      37.381  34.285  33.446  1.00  0.00     0.031 C 
ATOM     55  C   UNL A   1      41.679  32.071  37.122  1.00  0.00     0.029 A 
ATOM     56  C   UNL A   1      40.818  32.245  36.050  1.00  0.00     0.049 A 
ATOM     57  H   UNL A   1      40.584  31.051  34.326  1.00  0.00     0.167 HD
ATOM     58  C   UNL A   1      39.039  33.396  34.760  1.00  0.00     0.074 A 
ATOM     59  C   UNL A   1      38.064  34.452  34.570  1.00  0.00     0.031 C 
ATOM     60  C   UNL A   1      39.850  33.293  35.841  1.00  0.00     0.037 A 
BRANCH  47  61
ATOM     61  C   UNL A   1      43.610  28.383  35.734  1.00  0.00     0.058 A 
ATOM     62  C   UNL A   1      44.977  28.603  35.505  1.00  0.00     0.135 A 
ATOM     63  C   UNL A   1      43.253  27.397  36.668  1.00  0.00     0.135 A 
ATOM     64  F   UNL A   1      45.373  29.524  34.612  1.00  0.00    -0.206 F 
ATOM     65  C   UNL A   1      45.954  27.853  36.152  1.00  0.00     0.059 A 
ATOM     66  C   UNL A   1      44.214  26.652  37.347  1.00  0.00     0.059 A 
ATOM     67  F   UNL A   1      41.961  27.145  36.925  1.00  0.00    -0.206 F 
ATOM     68  C   UNL A   1      45.562  26.878  37.070  1.00  0.00     0.060 A 
BRANCH  68  69
ATOM     69  S   UNL A   1      46.842  25.912  37.901  1.00  0.00     0.124 S 
ATOM     70  O   UNL A   1      47.039  24.818  36.955  1.00  0.00    -0.237 OA
ATOM     71  O   UNL A   1      47.940  26.867  38.003  1.00  0.00    -0.237 OA
ATOM     72  O   UNL A   1      46.218  25.541  39.168  1.00  0.00    -0.744 OA
ENDBRANCH  68  69
ENDBRANCH  47  61
BRANCH  48  73
ATOM     73  C   UNL A   1      36.418  33.319  30.847  1.00  0.00     0.058 A 
ATOM     74  C   UNL A   1      35.091  33.209  31.287  1.00  0.00     0.135 A 
ATOM     75  C   UNL A   1      36.673  34.142  29.740  1.00  0.00     0.135 A 
ATOM     76  F   UNL A   1      34.796  32.429  32.339  1.00  0.00    -0.206 F 
ATOM     77  C   UNL A   1      34.053  33.880  30.650  1.00  0.00     0.059 A 
ATOM     78  C   UNL A   1      35.655  34.842  29.099  1.00  0.00     0.059 A 
ATOM     79  F   UNL A   1      37.929  34.294  29.291  1.00  0.00    -0.206 F 
ATOM     80  C   UNL A   1      34.347  34.697  29.556  1.00  0.00     0.060 A 
BRANCH  80  81
ATOM     81  S   UNL A   1      33.000  35.608  28.770  1.00  0.00     0.124 S 
ATOM     82  O   UNL A   1      32.358  34.563  27.984  1.00  0.00    -0.237 OA
ATOM     83  O   UNL A   1      32.247  36.098  29.920  1.00  0.00    -0.237 OA
ATOM     84  O   UNL A   1      33.697  36.638  28.005  1.00  0.00    -0.744 OA
ENDBRANCH  80  81
ENDBRANCH  48  73
BRANCH  60  85
ATOM     85  C   UNL A   1      39.744  34.363  36.890  1.00  0.00     0.058 A 
ATOM     86  C   UNL A   1      38.924  34.207  38.018  1.00  0.00     0.135 A 
ATOM     87  C   UNL A   1      40.517  35.531  36.793  1.00  0.00     0.135 A 
ATOM     88  F   UNL A   1      38.161  33.112  38.154  1.00  0.00    -0.206 F 
ATOM     89  C   UNL A   1      38.861  35.183  39.007  1.00  0.00     0.059 A 
ATOM     90  C   UNL A   1      40.487  36.508  37.783  1.00  0.00     0.059 A 
ATOM     91  F   UNL A   1      41.324  35.722  35.738  1.00  0.00    -0.206 F 
ATOM     92  C   UNL A   1      39.648  36.329  38.882  1.00  0.00     0.060 A 
BRANCH  92  93
ATOM     93  S   UNL A   1      39.590  37.569  40.194  1.00  0.00     0.124 S 
ATOM     94  O   UNL A   1      38.562  38.477  39.694  1.00  0.00    -0.237 OA
ATOM     95  O   UNL A   1      39.223  36.774  41.361  1.00  0.00    -0.237 OA
ATOM     96  O   UNL A   1      40.947  38.106  40.211  1.00  0.00    -0.744 OA
ENDBRANCH  92  93
ENDBRANCH  60  85
ENDBRANCH  34  35
ENDBRANCH  26  29
ENDBRANCH  24  25
ENDBRANCH   1  24
TORSDOF 16
ENDMDL
MODEL 2
REMARK VINA RESULT:     -11.8      5.124     12.166
REMARK SMILES Cc1nc(CNC(=O)[C@H]2CCO[C@H]2C)sc1C(=O)NCCCNC(=O)c1ccc(-c2c3nc(c(-c4c(F)cc(S(=O)(=O)[O-])cc4F)c4ccc([nH]4)c(-c4c(F)cc(S(=O)(=O)[O-])cc4F)c4nc(c(-c5c(F)cc(S(=O)(=O)[O-])cc5F)c5ccc2[nH]5)C=C4)C=C3)cc1
REMARK SMILES IDX 21 1 20 2 19 3 17 4 18 5 16 7 1 8 2 9 3 10 4 11 15 12 5 13
REMARK SMILES IDX 6 14 7 15 8 17 9 18 10 19 13 20 11 21 12 22 14 23 22 24
REMARK SMILES IDX 23 25 24 26 25 28 26 29 27 30 91 31 28 32 90 33 29 34 30 35
REMARK SMILES IDX 31 36 84 37 32 38 89 39 83 40 85 41 33 42 88 43 82 44 81 45
REMARK SMILES IDX 34 47 68 48 47 49 67 50 48 51 51 52 66 53 86 54 49 55 50 56
REMARK SMILES IDX 65 58 87 59 52 60 35 61 36 62 45 63 37 64 38 65 44 66 46 67
REMARK SMILES IDX 39 68 40 69 41 70 42 71 43 72 69 73 70 74 79 75 71 76 72 77
REMARK SMILES IDX 78 78 80 79 73 80 74 81 75 82 76 83 77 84 53 85 54 86 63 87
REMARK SMILES IDX 55 88 56 89 62 90 64 91 57 92 58 93 59 94 60 95 61 96
REMARK H PARENT 19 6 6 16 23 27 85 46 51 57
REMARK Flexibility Score: inf
ROOT
ATOM      1  C   UNL A   1      33.876  33.763  28.560  1.00  0.00     0.042 C 
ENDROOT
BRANCH   1   2
ATOM      2  C   UNL A   1      34.738  34.674  29.431  1.00  0.00     0.118 C 
BRANCH   2   3
ATOM      3  N   UNL A   1      36.132  34.566  29.065  1.00  0.00    -0.351 N 
ATOM      4  C   UNL A   1      37.251  34.099  29.704  1.00  0.00     0.263 C 
ATOM      5  O   UNL A   1      38.264  34.153  28.996  1.00  0.00    -0.268 OA
ATOM      6  H   UNL A   1      36.319  34.901  28.158  1.00  0.00     0.163 HD
BRANCH   4   7
ATOM      7  C   UNL A   1      37.277  33.546  31.055  1.00  0.00     0.115 A 
ATOM      8  C   UNL A   1      35.176  32.064  31.607  1.00  0.00     0.068 C 
ATOM      9  C   UNL A   1      36.484  32.723  31.850  1.00  0.00     0.061 A 
ATOM     10  N   UNL A   1      36.960  32.518  33.141  1.00  0.00    -0.244 NA
ATOM     11  C   UNL A   1      38.012  33.256  33.385  1.00  0.00     0.113 A 
ATOM     12  S   UNL A   1      38.615  34.102  32.039  1.00  0.00    -0.111 S 
BRANCH  11  13
ATOM     13  C   UNL A   1      38.653  33.377  34.734  1.00  0.00     0.183 C 
BRANCH  13  14
ATOM     14  N   UNL A   1      38.258  32.241  35.552  1.00  0.00    -0.349 N 
ATOM     15  C   UNL A   1      38.876  31.042  35.734  1.00  0.00     0.226 C 
ATOM     16  H   UNL A   1      37.417  32.357  36.050  1.00  0.00     0.163 HD
ATOM     17  O   UNL A   1      38.326  30.208  36.453  1.00  0.00    -0.275 OA
BRANCH  15  18
ATOM     18  C   UNL A   1      40.230  30.794  35.102  1.00  0.00     0.109 C 
ATOM     19  C   UNL A   1      40.960  29.589  35.664  1.00  0.00     0.044 C 
ATOM     20  C   UNL A   1      40.212  30.467  33.613  1.00  0.00     0.127 C 
ATOM     21  C   UNL A   1      42.005  29.331  34.601  1.00  0.00     0.161 C 
ATOM     22  O   UNL A   1      41.482  29.821  33.357  1.00  0.00    -0.378 OA
ATOM     23  C   UNL A   1      39.118  29.504  33.156  1.00  0.00     0.039 C 
ENDBRANCH  15  18
ENDBRANCH  13  14
ENDBRANCH  11  13
ENDBRANCH   4   7
ENDBRANCH   2   3
ENDBRANCH   1   2
BRANCH   1  24
ATOM     24  C   UNL A   1      34.664  32.676  27.837  1.00  0.00     0.118 C 
BRANCH  24  25
ATOM     25  N   UNL A   1      33.944  31.413  27.811  1.00  0.00    -0.352 N 
ATOM     26  C   UNL A   1      34.420  30.124  27.800  1.00  0.00     0.251 C 
ATOM     27  H   UNL A   1      32.963  31.494  27.800  1.00  0.00     0.163 HD
ATOM     28  O   UNL A   1      33.648  29.209  27.527  1.00  0.00    -0.269 OA
BRANCH  26  29
ATOM     29  C   UNL A   1      35.841  29.828  28.105  1.00  0.00     0.039 A 
ATOM     30  C   UNL A   1      36.183  29.441  29.406  1.00  0.00     0.014 A 
ATOM     31  C   UNL A   1      36.844  29.986  27.145  1.00  0.00     0.014 A 
ATOM     32  C   UNL A   1      37.517  29.170  29.728  1.00  0.00     0.010 A 
ATOM     33  C   UNL A   1      38.162  29.644  27.446  1.00  0.00     0.010 A 
ATOM     34  C   UNL A   1      38.515  29.244  28.744  1.00  0.00    -0.014 A 
BRANCH  34  35
ATOM     35  C   UNL A   1      39.935  28.929  29.052  1.00  0.00     0.031 A 
ATOM     36  C   UNL A   1      40.830  29.983  29.648  1.00  0.00     0.074 A 
ATOM     37  C   UNL A   1      40.435  27.719  28.732  1.00  0.00     0.049 A 
ATOM     38  N   UNL A   1      42.115  29.936  29.891  1.00  0.00    -0.248 NA
ATOM     39  C   UNL A   1      40.202  31.270  29.989  1.00  0.00     0.031 C 
ATOM     40  C   UNL A   1      39.680  26.628  28.111  1.00  0.00     0.029 A 
ATOM     41  N   UNL A   1      41.702  27.208  28.870  1.00  0.00    -0.354 N 
ATOM     42  C   UNL A   1      42.452  31.188  30.392  1.00  0.00     0.074 A 
ATOM     43  C   UNL A   1      41.246  31.988  30.377  1.00  0.00     0.031 C 
ATOM     44  C   UNL A   1      40.495  25.575  27.932  1.00  0.00     0.029 A 
ATOM     45  C   UNL A   1      41.835  25.925  28.392  1.00  0.00     0.049 A 
ATOM     46  H   UNL A   1      42.445  27.713  29.273  1.00  0.00     0.167 HD
ATOM     47  C   UNL A   1      43.653  31.626  30.843  1.00  0.00     0.037 A 
ATOM     48  C   UNL A   1      42.917  25.126  28.320  1.00  0.00     0.037 A 
ATOM     49  C   UNL A   1      44.841  30.814  30.887  1.00  0.00     0.049 A 
ATOM     50  C   UNL A   1      44.236  25.627  28.843  1.00  0.00     0.074 A 
ATOM     51  C   UNL A   1      46.092  31.146  31.378  1.00  0.00     0.029 A 
ATOM     52  N   UNL A   1      44.925  29.508  30.430  1.00  0.00    -0.354 N 
ATOM     53  N   UNL A   1      44.525  26.798  29.358  1.00  0.00    -0.248 NA
ATOM     54  C   UNL A   1      45.373  24.698  28.782  1.00  0.00     0.031 C 
ATOM     55  C   UNL A   1      46.942  30.050  31.187  1.00  0.00     0.029 A 
ATOM     56  C   UNL A   1      46.209  29.022  30.614  1.00  0.00     0.049 A 
ATOM     57  H   UNL A   1      44.181  29.000  30.031  1.00  0.00     0.167 HD
ATOM     58  C   UNL A   1      45.872  26.739  29.703  1.00  0.00     0.074 A 
ATOM     59  C   UNL A   1      46.335  25.413  29.349  1.00  0.00     0.031 C 
ATOM     60  C   UNL A   1      46.652  27.696  30.263  1.00  0.00     0.037 A 
BRANCH  47  61
ATOM     61  C   UNL A   1      43.738  33.046  31.333  1.00  0.00     0.058 A 
ATOM     62  C   UNL A   1      43.464  33.381  32.669  1.00  0.00     0.135 A 
ATOM     63  C   UNL A   1      44.128  34.079  30.466  1.00  0.00     0.135 A 
ATOM     64  F   UNL A   1      43.072  32.434  33.536  1.00  0.00    -0.206 F 
ATOM     65  C   UNL A   1      43.541  34.695  33.120  1.00  0.00     0.059 A 
ATOM     66  C   UNL A   1      44.238  35.397  30.903  1.00  0.00     0.059 A 
ATOM     67  F   UNL A   1      44.403  33.816  29.179  1.00  0.00    -0.206 F 
ATOM     68  C   UNL A   1      43.927  35.696  32.229  1.00  0.00     0.060 A 
BRANCH  68  69
ATOM     69  S   UNL A   1      44.021  37.396  32.830  1.00  0.00     0.124 S 
ATOM     70  O   UNL A   1      45.358  37.424  33.414  1.00  0.00    -0.237 OA
ATOM     71  O   UNL A   1      43.847  38.172  31.607  1.00  0.00    -0.237 OA
ATOM     72  O   UNL A   1      42.917  37.481  33.784  1.00  0.00    -0.744 OA
ENDBRANCH  68  69
ENDBRANCH  47  61
BRANCH  48  73
ATOM     73  C   UNL A   1      42.791  23.760  27.748  1.00  0.00     0.058 A 
ATOM     74  C   UNL A   1      42.545  22.654  28.573  1.00  0.00     0.135 A 
ATOM     75  C   UNL A   1      42.887  23.537  26.366  1.00  0.00     0.135 A 
ATOM     76  F   UNL A   1      42.451  22.817  29.903  1.00  0.00    -0.206 F 
ATOM     77  C   UNL A   1      42.410  21.372  28.052  1.00  0.00     0.059 A 
ATOM     78  C   UNL A   1      42.732  22.267  25.819  1.00  0.00     0.059 A 
ATOM     79  F   UNL A   1      43.103  24.567  25.532  1.00  0.00    -0.206 F 
ATOM     80  C   UNL A   1      42.503  21.189  26.671  1.00  0.00     0.060 A 
BRANCH  80  81
ATOM     81  S   UNL A   1      42.270  19.529  26.000  1.00  0.00     0.124 S 
ATOM     82  O   UNL A   1      42.697  18.697  27.118  1.00  0.00    -0.237 OA
ATOM     83  O   UNL A   1      40.841  19.515  25.701  1.00  0.00    -0.237 OA
ATOM     84  O   UNL A   1      43.145  19.516  24.831  1.00  0.00    -0.744 OA
ENDBRANCH  80  81
ENDBRANCH  48  73
BRANCH  60  85
ATOM     85  C   UNL A   1      48.081  27.338  30.556  1.00  0.00     0.058 A 
ATOM     86  C   UNL A   1      48.451  26.707  31.753  1.00  0.00     0.135 A 
ATOM     87  C   UNL A   1      49.083  27.578  29.601  1.00  0.00     0.135 A 
ATOM     88  F   UNL A   1      47.531  26.462  32.700  1.00  0.00    -0.206 F 
ATOM     89  C   UNL A   1      49.769  26.341  32.001  1.00  0.00     0.059 A 
ATOM     90  C   UNL A   1      50.403  27.198  29.820  1.00  0.00     0.059 A 
ATOM     91  F   UNL A   1      48.778  28.171  28.436  1.00  0.00    -0.206 F 
ATOM     92  C   UNL A   1      50.738  26.589  31.028  1.00  0.00     0.060 A 
BRANCH  92  93
ATOM     93  S   UNL A   1      52.439  26.070  31.344  1.00  0.00     0.124 S 
ATOM     94  O   UNL A   1      52.902  27.120  32.246  1.00  0.00    -0.237 OA
ATOM     95  O   UNL A   1      52.258  24.752  31.944  1.00  0.00    -0.237 OA
ATOM     96  O   UNL A   1      53.045  26.069  30.016  1.00  0.00    -0.744 OA
ENDBRANCH  92  93
ENDBRANCH  60  85
ENDBRANCH  34  35
ENDBRANCH  26  29
ENDBRANCH  24  25
ENDBRANCH   1  24
TORSDOF 16
ENDMDL
MODEL 3
REMARK VINA RESULT:     -11.8      5.083     12.420
REMARK SMILES Cc1nc(CNC(=O)[C@H]2CCO[C@H]2C)sc1C(=O)NCCCNC(=O)c1ccc(-c2c3nc(c(-c4c(F)cc(S(=O)(=O)[O-])cc4F)c4ccc([nH]4)c(-c4c(F)cc(S(=O)(=O)[O-])cc4F)c4nc(c(-c5c(F)cc(S(=O)(=O)[O-])cc5F)c5ccc2[nH]5)C=C4)C=C3)cc1
REMARK SMILES IDX 21 1 20 2 19 3 17 4 18 5 16 7 1 8 2 9 3 10 4 11 15 12 5 13
REMARK SMILES IDX 6 14 7 15 8 17 9 18 10 19 13 20 11 21 12 22 14 23 22 24
REMARK SMILES IDX 23 25 24 26 25 28 26 29 27 30 91 31 28 32 90 33 29 34 30 35
REMARK SMILES IDX 31 36 84 37 32 38 89 39 83 40 85 41 33 42 88 43 82 44 81 45
REMARK SMILES IDX 34 47 68 48 47 49 67 50 48 51 51 52 66 53 86 54 49 55 50 56
REMARK SMILES IDX 65 58 87 59 52 60 35 61 36 62 45 63 37 64 38 65 44 66 46 67
REMARK SMILES IDX 39 68 40 69 41 70 42 71 43 72 69 73 70 74 79 75 71 76 72 77
REMARK SMILES IDX 78 78 80 79 73 80 74 81 75 82 76 83 77 84 53 85 54 86 63 87
REMARK SMILES IDX 55 88 56 89 62 90 64 91 57 92 58 93 59 94 60 95 61 96
REMARK H PARENT 19 6 6 16 23 27 85 46 51 57
REMARK Flexibility Score: inf
ROOT
ATOM      1  C   UNL A   1      34.927  32.930  29.963  1.00  0.00     0.042 C 
ENDROOT
BRANCH   1   2
ATOM      2  C   UNL A   1      36.168  33.772  30.253  1.00  0.00     0.118 C 
BRANCH   2   3
ATOM      3  N   UNL A   1      36.004  34.523  31.477  1.00  0.00    -0.351 N 
ATOM      4  C   UNL A   1      36.516  34.403  32.742  1.00  0.00     0.263 C 
ATOM      5  O   UNL A   1      36.137  35.307  33.499  1.00  0.00    -0.268 OA
ATOM      6  H   UNL A   1      35.391  35.288  31.381  1.00  0.00     0.163 HD
BRANCH   4   7
ATOM      7  C   UNL A   1      37.444  33.365  33.178  1.00  0.00     0.115 A 
ATOM      8  C   UNL A   1      36.589  30.931  32.668  1.00  0.00     0.068 C 
ATOM      9  C   UNL A   1      37.524  31.974  33.158  1.00  0.00     0.061 A 
ATOM     10  N   UNL A   1      38.658  31.443  33.763  1.00  0.00    -0.244 NA
ATOM     11  C   UNL A   1      39.370  32.372  34.345  1.00  0.00     0.113 A 
ATOM     12  S   UNL A   1      38.837  33.961  34.056  1.00  0.00    -0.111 S 
BRANCH  11  13
ATOM     13  C   UNL A   1      40.558  32.094  35.214  1.00  0.00     0.183 C 
BRANCH  13  14
ATOM     14  N   UNL A   1      40.364  30.821  35.892  1.00  0.00    -0.349 N 
ATOM     15  C   UNL A   1      41.022  29.640  35.734  1.00  0.00     0.226 C 
ATOM     16  H   UNL A   1      39.648  30.813  36.567  1.00  0.00     0.163 HD
ATOM     17  O   UNL A   1      40.651  28.675  36.400  1.00  0.00    -0.275 OA
BRANCH  15  18
ATOM     18  C   UNL A   1      42.211  29.566  34.798  1.00  0.00     0.109 C 
ATOM     19  C   UNL A   1      43.178  28.443  35.122  1.00  0.00     0.044 C 
ATOM     20  C   UNL A   1      41.884  29.270  33.339  1.00  0.00     0.127 C 
ATOM     21  C   UNL A   1      43.970  28.332  33.838  1.00  0.00     0.161 C 
ATOM     22  O   UNL A   1      43.123  28.783  32.771  1.00  0.00    -0.378 OA
ATOM     23  C   UNL A   1      40.826  28.195  33.098  1.00  0.00     0.039 C 
ENDBRANCH  15  18
ENDBRANCH  13  14
ENDBRANCH  11  13
ENDBRANCH   4   7
ENDBRANCH   2   3
ENDBRANCH   1   2
BRANCH   1  24
ATOM     24  C   UNL A   1      34.655  32.724  28.477  1.00  0.00     0.118 C 
BRANCH  24  25
ATOM     25  N   UNL A   1      33.941  31.484  28.224  1.00  0.00    -0.352 N 
ATOM     26  C   UNL A   1      34.423  30.216  28.003  1.00  0.00     0.251 C 
ATOM     27  H   UNL A   1      32.960  31.564  28.209  1.00  0.00     0.163 HD
ATOM     28  O   UNL A   1      33.660  29.360  27.565  1.00  0.00    -0.269 OA
BRANCH  26  29
ATOM     29  C   UNL A   1      35.839  29.874  28.279  1.00  0.00     0.039 A 
ATOM     30  C   UNL A   1      36.783  30.046  27.260  1.00  0.00     0.014 A 
ATOM     31  C   UNL A   1      36.237  29.330  29.503  1.00  0.00     0.014 A 
ATOM     32  C   UNL A   1      38.124  29.719  27.484  1.00  0.00     0.010 A 
ATOM     33  C   UNL A   1      37.584  29.074  29.751  1.00  0.00     0.010 A 
ATOM     34  C   UNL A   1      38.541  29.253  28.741  1.00  0.00    -0.014 A 
BRANCH  34  35
ATOM     35  C   UNL A   1      39.966  28.929  29.015  1.00  0.00     0.031 A 
ATOM     36  C   UNL A   1      40.880  29.976  29.595  1.00  0.00     0.074 A 
ATOM     37  C   UNL A   1      40.453  27.719  28.678  1.00  0.00     0.049 A 
ATOM     38  N   UNL A   1      42.170  29.922  29.809  1.00  0.00    -0.248 NA
ATOM     39  C   UNL A   1      40.267  31.264  29.958  1.00  0.00     0.031 C 
ATOM     40  C   UNL A   1      39.679  26.635  28.068  1.00  0.00     0.029 A 
ATOM     41  N   UNL A   1      41.720  27.201  28.783  1.00  0.00    -0.354 N 
ATOM     42  C   UNL A   1      42.525  31.169  30.308  1.00  0.00     0.074 A 
ATOM     43  C   UNL A   1      41.323  31.975  30.325  1.00  0.00     0.031 C 
ATOM     44  C   UNL A   1      40.484  25.579  27.866  1.00  0.00     0.029 A 
ATOM     45  C   UNL A   1      41.836  25.920  28.296  1.00  0.00     0.049 A 
ATOM     46  H   UNL A   1      42.475  27.701  29.172  1.00  0.00     0.167 HD
ATOM     47  C   UNL A   1      43.738  31.599  30.734  1.00  0.00     0.037 A 
ATOM     48  C   UNL A   1      42.912  25.116  28.195  1.00  0.00     0.037 A 
ATOM     49  C   UNL A   1      44.923  30.782  30.747  1.00  0.00     0.049 A 
ATOM     50  C   UNL A   1      44.246  25.608  28.690  1.00  0.00     0.074 A 
ATOM     51  C   UNL A   1      46.186  31.104  31.210  1.00  0.00     0.029 A 
ATOM     52  N   UNL A   1      44.990  29.477  30.280  1.00  0.00    -0.354 N 
ATOM     53  N   UNL A   1      44.552  26.775  29.205  1.00  0.00    -0.248 NA
ATOM     54  C   UNL A   1      45.376  24.674  28.598  1.00  0.00     0.031 C 
ATOM     55  C   UNL A   1      47.026  30.006  30.994  1.00  0.00     0.029 A 
ATOM     56  C   UNL A   1      46.275  28.984  30.433  1.00  0.00     0.049 A 
ATOM     57  H   UNL A   1      44.234  28.975  29.897  1.00  0.00     0.167 HD
ATOM     58  C   UNL A   1      45.906  26.708  29.518  1.00  0.00     0.074 A 
ATOM     59  C   UNL A   1      46.355  25.382  29.146  1.00  0.00     0.031 C 
ATOM     60  C   UNL A   1      46.703  27.658  30.065  1.00  0.00     0.037 A 
BRANCH  47  61
ATOM     61  C   UNL A   1      43.841  33.016  31.229  1.00  0.00     0.058 A 
ATOM     62  C   UNL A   1      44.048  34.090  30.348  1.00  0.00     0.135 A 
ATOM     63  C   UNL A   1      43.701  33.308  32.595  1.00  0.00     0.135 A 
ATOM     64  F   UNL A   1      44.204  33.865  29.034  1.00  0.00    -0.206 F 
ATOM     65  C   UNL A   1      44.146  35.399  30.808  1.00  0.00     0.059 A 
ATOM     66  C   UNL A   1      43.768  34.615  33.074  1.00  0.00     0.059 A 
ATOM     67  F   UNL A   1      43.501  32.321  33.481  1.00  0.00    -0.206 F 
ATOM     68  C   UNL A   1      44.007  35.652  32.173  1.00  0.00     0.060 A 
BRANCH  68  69
ATOM     69  S   UNL A   1      44.138  37.356  32.753  1.00  0.00     0.124 S 
ATOM     70  O   UNL A   1      43.048  37.417  33.722  1.00  0.00    -0.237 OA
ATOM     71  O   UNL A   1      45.485  37.396  33.311  1.00  0.00    -0.237 OA
ATOM     72  O   UNL A   1      43.943  38.144  31.538  1.00  0.00    -0.744 OA
ENDBRANCH  68  69
ENDBRANCH  47  61
BRANCH  48  73
ATOM     73  C   UNL A   1      42.766  23.754  27.619  1.00  0.00     0.058 A 
ATOM     74  C   UNL A   1      42.966  23.525  26.250  1.00  0.00     0.135 A 
ATOM     75  C   UNL A   1      42.450  22.651  28.427  1.00  0.00     0.135 A 
ATOM     76  F   UNL A   1      43.265  24.551  25.436  1.00  0.00    -0.206 F 
ATOM     77  C   UNL A   1      42.848  22.255  25.699  1.00  0.00     0.059 A 
ATOM     78  C   UNL A   1      42.349  21.367  27.903  1.00  0.00     0.059 A 
ATOM     79  F   UNL A   1      42.267  22.816  29.747  1.00  0.00    -0.206 F 
ATOM     80  C   UNL A   1      42.541  21.180  26.535  1.00  0.00     0.060 A 
BRANCH  80  81
ATOM     81  S   UNL A   1      42.445  19.525  25.818  1.00  0.00     0.124 S 
ATOM     82  O   UNL A   1      41.049  19.465  25.404  1.00  0.00    -0.237 OA
ATOM     83  O   UNL A   1      43.428  19.597  24.742  1.00  0.00    -0.237 OA
ATOM     84  O   UNL A   1      42.812  18.657  26.933  1.00  0.00    -0.744 OA
ENDBRANCH  80  81
ENDBRANCH  48  73
BRANCH  60  85
ATOM     85  C   UNL A   1      48.137  27.292  30.323  1.00  0.00     0.058 A 
ATOM     86  C   UNL A   1      49.133  27.495  29.357  1.00  0.00     0.135 A 
ATOM     87  C   UNL A   1      48.526  26.786  31.574  1.00  0.00     0.135 A 
ATOM     88  F   UNL A   1      48.811  27.970  28.143  1.00  0.00    -0.206 F 
ATOM     89  C   UNL A   1      50.466  27.194  29.616  1.00  0.00     0.059 A 
ATOM     90  C   UNL A   1      49.856  26.500  31.862  1.00  0.00     0.059 A 
ATOM     91  F   UNL A   1      47.611  26.583  32.536  1.00  0.00    -0.206 F 
ATOM     92  C   UNL A   1      50.818  26.698  30.873  1.00  0.00     0.060 A 
BRANCH  92  93
ATOM     93  S   UNL A   1      52.557  26.350  31.212  1.00  0.00     0.124 S 
ATOM     94  O   UNL A   1      52.465  25.104  31.966  1.00  0.00    -0.237 OA
ATOM     95  O   UNL A   1      53.123  26.241  29.871  1.00  0.00    -0.237 OA
ATOM     96  O   UNL A   1      52.993  27.516  31.975  1.00  0.00    -0.744 OA
ENDBRANCH  92  93
ENDBRANCH  60  85
ENDBRANCH  34  35
ENDBRANCH  26  29
ENDBRANCH  24  25
ENDBRANCH   1  24
TORSDOF 16
ENDMDL
