MODEL 1
REMARK VINA RESULT:     -11.4      0.000      0.000
REMARK SMILES CC(C)(O)CC[C@@]1(C(=O)NCCCNC(=O)c2ccc(-c3c4nc(c(-c5c(F)cc(S(=O)(=O)[O-])cc5F)c5ccc([nH]5)c(-c5c(F)cc(S(=O)(=O)[O-])cc5F)c5nc(c(-c6c(F)cc(S(=O)(=O)[O-])cc6F)c6ccc3[nH]6)C=C5)C=C4)cc2)CCc2ccccc21
REMARK SMILES IDX 11 1 10 2 8 3 9 4 7 6 83 7 90 8 84 9 85 10 89 11 86 12 88 13
REMARK SMILES IDX 87 14 6 15 5 16 2 17 1 18 3 19 4 20 12 22 13 23 14 24 15 25
REMARK SMILES IDX 16 27 17 28 18 29 82 30 19 31 81 32 20 33 21 34 22 35 75 36
REMARK SMILES IDX 23 37 80 38 74 39 76 40 24 41 79 42 73 43 72 44 25 46 59 47
REMARK SMILES IDX 38 48 58 49 39 50 42 51 57 52 77 53 40 54 41 55 56 57 78 58
REMARK SMILES IDX 43 59 26 60 27 61 36 62 28 63 29 64 35 65 37 66 30 67 31 68
REMARK SMILES IDX 32 69 33 70 34 71 60 72 61 73 70 74 62 75 63 76 69 77 71 78
REMARK SMILES IDX 64 79 65 80 66 81 67 82 68 83 44 84 45 85 54 86 46 87 47 88
REMARK SMILES IDX 53 89 55 90 48 91 49 92 50 93 51 94 52 95
REMARK H PARENT 10 5 4 21 14 26 76 45 42 56
REMARK Flexibility Score: inf
ROOT
ATOM      1  C   UNL A   1      33.922  24.654  25.255  1.00  0.00     0.117 C 
ENDROOT
BRANCH   1   2
ATOM      2  N   UNL A   1      32.627  24.611  24.516  1.00  0.00    -0.355 N 
ATOM      3  C   UNL A   1      31.748  25.408  23.807  1.00  0.00     0.230 C 
ATOM      4  O   UNL A   1      30.843  24.763  23.250  1.00  0.00    -0.274 OA
ATOM      5  H   UNL A   1      32.275  23.692  24.541  1.00  0.00     0.163 HD
BRANCH   3   6
ATOM      6  C   UNL A   1      31.786  26.971  23.621  1.00  0.00     0.075 C 
ATOM      7  C   UNL A   1      33.206  27.618  23.380  1.00  0.00     0.026 C 
ATOM      8  C   UNL A   1      31.630  27.750  24.976  1.00  0.00    -0.029 A 
ATOM      9  C   UNL A   1      33.079  29.116  23.666  1.00  0.00     0.037 C 
ATOM     10  C   UNL A   1      32.355  28.971  24.951  1.00  0.00    -0.044 A 
ATOM     11  C   UNL A   1      31.275  27.270  26.232  1.00  0.00     0.005 A 
ATOM     12  C   UNL A   1      32.642  29.749  26.066  1.00  0.00     0.004 A 
ATOM     13  C   UNL A   1      31.626  28.011  27.386  1.00  0.00     0.000 A 
ATOM     14  C   UNL A   1      32.290  29.245  27.304  1.00  0.00     0.000 A 
BRANCH   6  15
ATOM     15  C   UNL A   1      30.961  27.375  22.393  1.00  0.00     0.025 C 
BRANCH  15  16
ATOM     16  C   UNL A   1      29.645  28.205  22.668  1.00  0.00     0.036 C 
BRANCH  16  17
ATOM     17  C   UNL A   1      29.473  29.753  22.409  1.00  0.00     0.059 C 
ATOM     18  C   UNL A   1      29.417  30.746  23.579  1.00  0.00     0.042 C 
ATOM     19  C   UNL A   1      28.192  29.961  21.595  1.00  0.00     0.042 C 
BRANCH  17  20
ATOM     20  O   UNL A   1      30.535  30.201  21.609  1.00  0.00    -0.390 OA
ATOM     21  H   UNL A   1      30.372  31.117  21.338  1.00  0.00     0.211 HD
ENDBRANCH  17  20
ENDBRANCH  16  17
ENDBRANCH  15  16
ENDBRANCH   6  15
ENDBRANCH   3   6
ENDBRANCH   1   2
BRANCH   1  22
ATOM     22  C   UNL A   1      35.115  23.666  25.003  1.00  0.00     0.042 C 
BRANCH  22  23
ATOM     23  C   UNL A   1      36.606  24.076  25.120  1.00  0.00     0.118 C 
BRANCH  23  24
ATOM     24  N   UNL A   1      37.607  23.032  25.200  1.00  0.00    -0.352 N 
ATOM     25  C   UNL A   1      38.747  23.003  25.990  1.00  0.00     0.251 C 
ATOM     26  H   UNL A   1      37.460  22.247  24.622  1.00  0.00     0.163 HD
ATOM     27  O   UNL A   1      39.387  21.962  26.067  1.00  0.00    -0.269 OA
BRANCH  25  28
ATOM     28  C   UNL A   1      39.258  24.214  26.707  1.00  0.00     0.039 A 
ATOM     29  C   UNL A   1      38.842  24.403  28.030  1.00  0.00     0.014 A 
ATOM     30  C   UNL A   1      40.046  25.204  26.107  1.00  0.00     0.014 A 
ATOM     31  C   UNL A   1      39.244  25.535  28.758  1.00  0.00     0.010 A 
ATOM     32  C   UNL A   1      40.478  26.325  26.852  1.00  0.00     0.010 A 
ATOM     33  C   UNL A   1      40.085  26.506  28.189  1.00  0.00    -0.014 A 
BRANCH  33  34
ATOM     34  C   UNL A   1      40.544  27.667  29.024  1.00  0.00     0.031 A 
ATOM     35  C   UNL A   1      39.677  28.883  29.247  1.00  0.00     0.074 A 
ATOM     36  C   UNL A   1      41.748  27.618  29.633  1.00  0.00     0.049 A 
ATOM     37  N   UNL A   1      39.865  29.900  30.056  1.00  0.00    -0.248 NA
ATOM     38  C   UNL A   1      38.446  28.978  28.451  1.00  0.00     0.031 C 
ATOM     39  C   UNL A   1      42.721  26.535  29.480  1.00  0.00     0.029 A 
ATOM     40  N   UNL A   1      42.354  28.482  30.516  1.00  0.00    -0.354 N 
ATOM     41  C   UNL A   1      38.777  30.748  29.876  1.00  0.00     0.074 A 
ATOM     42  C   UNL A   1      37.963  30.153  28.835  1.00  0.00     0.031 C 
ATOM     43  C   UNL A   1      43.774  26.773  30.278  1.00  0.00     0.029 A 
ATOM     44  C   UNL A   1      43.571  28.037  30.982  1.00  0.00     0.049 A 
ATOM     45  H   UNL A   1      41.955  29.340  30.791  1.00  0.00     0.167 HD
ATOM     46  C   UNL A   1      38.468  31.901  30.525  1.00  0.00     0.037 A 
ATOM     47  C   UNL A   1      44.425  28.567  31.883  1.00  0.00     0.037 A 
ATOM     48  C   UNL A   1      39.278  32.503  31.558  1.00  0.00     0.049 A 
ATOM     49  C   UNL A   1      44.072  29.852  32.583  1.00  0.00     0.074 A 
ATOM     50  C   UNL A   1      39.014  33.636  32.311  1.00  0.00     0.029 A 
ATOM     51  N   UNL A   1      40.518  32.038  31.972  1.00  0.00    -0.354 N 
ATOM     52  N   UNL A   1      42.993  30.588  32.463  1.00  0.00    -0.248 NA
ATOM     53  C   UNL A   1      45.051  30.373  33.549  1.00  0.00     0.031 C 
ATOM     54  C   UNL A   1      40.118  33.889  33.134  1.00  0.00     0.029 A 
ATOM     55  C   UNL A   1      41.047  32.880  32.941  1.00  0.00     0.049 A 
ATOM     56  H   UNL A   1      40.960  31.227  31.629  1.00  0.00     0.167 HD
ATOM     57  C   UNL A   1      43.154  31.648  33.352  1.00  0.00     0.074 A 
ATOM     58  C   UNL A   1      44.425  31.444  34.017  1.00  0.00     0.031 C 
ATOM     59  C   UNL A   1      42.322  32.693  33.592  1.00  0.00     0.037 A 
BRANCH  46  60
ATOM     60  C   UNL A   1      37.189  32.600  30.129  1.00  0.00     0.058 A 
ATOM     61  C   UNL A   1      37.156  33.555  29.099  1.00  0.00     0.135 A 
ATOM     62  C   UNL A   1      35.976  32.298  30.771  1.00  0.00     0.135 A 
ATOM     63  F   UNL A   1      38.283  33.886  28.448  1.00  0.00    -0.206 F 
ATOM     64  C   UNL A   1      35.983  34.223  28.758  1.00  0.00     0.059 A 
ATOM     65  C   UNL A   1      34.784  32.930  30.425  1.00  0.00     0.059 A 
ATOM     66  F   UNL A   1      35.939  31.384  31.754  1.00  0.00    -0.206 F 
ATOM     67  C   UNL A   1      34.802  33.910  29.433  1.00  0.00     0.060 A 
BRANCH  67  68
ATOM     68  S   UNL A   1      33.298  34.812  29.007  1.00  0.00     0.124 S 
ATOM     69  O   UNL A   1      32.698  33.923  28.016  1.00  0.00    -0.237 OA
ATOM     70  O   UNL A   1      32.606  34.890  30.289  1.00  0.00    -0.237 OA
ATOM     71  O   UNL A   1      33.797  36.081  28.488  1.00  0.00    -0.744 OA
ENDBRANCH  67  68
ENDBRANCH  46  60
BRANCH  47  72
ATOM     72  C   UNL A   1      45.691  27.851  32.206  1.00  0.00     0.058 A 
ATOM     73  C   UNL A   1      45.737  26.879  33.218  1.00  0.00     0.135 A 
ATOM     74  C   UNL A   1      46.872  28.102  31.490  1.00  0.00     0.135 A 
ATOM     75  F   UNL A   1      44.640  26.614  33.944  1.00  0.00    -0.206 F 
ATOM     76  C   UNL A   1      46.905  26.180  33.506  1.00  0.00     0.059 A 
ATOM     77  C   UNL A   1      48.045  27.398  31.742  1.00  0.00     0.059 A 
ATOM     78  F   UNL A   1      46.881  29.017  30.508  1.00  0.00    -0.206 F 
ATOM     79  C   UNL A   1      48.052  26.439  32.754  1.00  0.00     0.060 A 
BRANCH  79  80
ATOM     80  S   UNL A   1      49.538  25.464  33.078  1.00  0.00     0.124 S 
ATOM     81  O   UNL A   1      49.852  24.952  31.750  1.00  0.00    -0.237 OA
ATOM     82  O   UNL A   1      50.453  26.471  33.609  1.00  0.00    -0.237 OA
ATOM     83  O   UNL A   1      49.083  24.471  34.047  1.00  0.00    -0.744 OA
ENDBRANCH  79  80
ENDBRANCH  47  72
BRANCH  59  84
ATOM     84  C   UNL A   1      42.755  33.701  34.626  1.00  0.00     0.058 A 
ATOM     85  C   UNL A   1      42.411  33.565  35.982  1.00  0.00     0.135 A 
ATOM     86  C   UNL A   1      43.540  34.808  34.264  1.00  0.00     0.135 A 
ATOM     87  F   UNL A   1      41.659  32.531  36.388  1.00  0.00    -0.206 F 
ATOM     88  C   UNL A   1      42.795  34.510  36.931  1.00  0.00     0.059 A 
ATOM     89  C   UNL A   1      43.963  35.748  35.201  1.00  0.00     0.059 A 
ATOM     90  F   UNL A   1      43.912  34.985  32.985  1.00  0.00    -0.206 F 
ATOM     91  C   UNL A   1      43.569  35.600  36.529  1.00  0.00     0.060 A 
BRANCH  91  92
ATOM     92  S   UNL A   1      44.063  36.816  37.771  1.00  0.00     0.124 S 
ATOM     93  O   UNL A   1      42.968  36.718  38.730  1.00  0.00    -0.237 OA
ATOM     94  O   UNL A   1      45.350  36.296  38.224  1.00  0.00    -0.237 OA
ATOM     95  O   UNL A   1      44.128  38.065  37.019  1.00  0.00    -0.744 OA
ENDBRANCH  91  92
ENDBRANCH  59  84
ENDBRANCH  33  34
ENDBRANCH  25  28
ENDBRANCH  23  24
ENDBRANCH  22  23
ENDBRANCH   1  22
TORSDOF 17
ENDMDL
MODEL 2
REMARK VINA RESULT:     -11.2      3.460      9.267
REMARK SMILES CC(C)(O)CC[C@@]1(C(=O)NCCCNC(=O)c2ccc(-c3c4nc(c(-c5c(F)cc(S(=O)(=O)[O-])cc5F)c5ccc([nH]5)c(-c5c(F)cc(S(=O)(=O)[O-])cc5F)c5nc(c(-c6c(F)cc(S(=O)(=O)[O-])cc6F)c6ccc3[nH]6)C=C5)C=C4)cc2)CCc2ccccc21
REMARK SMILES IDX 11 1 10 2 8 3 9 4 7 6 83 7 90 8 84 9 85 10 89 11 86 12 88 13
REMARK SMILES IDX 87 14 6 15 5 16 2 17 1 18 3 19 4 20 12 22 13 23 14 24 15 25
REMARK SMILES IDX 16 27 17 28 18 29 82 30 19 31 81 32 20 33 21 34 22 35 75 36
REMARK SMILES IDX 23 37 80 38 74 39 76 40 24 41 79 42 73 43 72 44 25 46 59 47
REMARK SMILES IDX 38 48 58 49 39 50 42 51 57 52 77 53 40 54 41 55 56 57 78 58
REMARK SMILES IDX 43 59 26 60 27 61 36 62 28 63 29 64 35 65 37 66 30 67 31 68
REMARK SMILES IDX 32 69 33 70 34 71 60 72 61 73 70 74 62 75 63 76 69 77 71 78
REMARK SMILES IDX 64 79 65 80 66 81 67 82 68 83 44 84 45 85 54 86 46 87 47 88
REMARK SMILES IDX 53 89 55 90 48 91 49 92 50 93 51 94 52 95
REMARK H PARENT 10 5 4 21 14 26 76 45 42 56
REMARK Flexibility Score: inf
ROOT
ATOM      1  C   UNL A   1      31.949  26.720  26.180  1.00  0.00     0.117 C 
ENDROOT
BRANCH   1   2
ATOM      2  N   UNL A   1      31.320  25.501  26.766  1.00  0.00    -0.355 N 
ATOM      3  C   UNL A   1      31.189  24.139  26.570  1.00  0.00     0.230 C 
ATOM      4  O   UNL A   1      30.639  23.559  27.522  1.00  0.00    -0.274 OA
ATOM      5  H   UNL A   1      30.825  25.755  27.578  1.00  0.00     0.163 HD
BRANCH   3   6
ATOM      6  C   UNL A   1      31.663  23.284  25.336  1.00  0.00     0.075 C 
ATOM      7  C   UNL A   1      31.414  21.727  25.420  1.00  0.00     0.026 C 
ATOM      8  C   UNL A   1      33.218  23.063  25.310  1.00  0.00    -0.029 A 
ATOM      9  C   UNL A   1      32.315  21.064  24.374  1.00  0.00     0.037 C 
ATOM     10  C   UNL A   1      33.546  21.807  24.733  1.00  0.00    -0.044 A 
ATOM     11  C   UNL A   1      34.206  23.664  26.082  1.00  0.00     0.005 A 
ATOM     12  C   UNL A   1      34.793  21.199  24.808  1.00  0.00     0.004 A 
ATOM     13  C   UNL A   1      35.459  23.022  26.233  1.00  0.00     0.000 A 
ATOM     14  C   UNL A   1      35.756  21.810  25.591  1.00  0.00     0.000 A 
BRANCH   6  15
ATOM     15  C   UNL A   1      30.921  23.729  24.070  1.00  0.00     0.025 C 
BRANCH  15  16
ATOM     16  C   UNL A   1      31.554  24.933  23.266  1.00  0.00     0.036 C 
BRANCH  16  17
ATOM     17  C   UNL A   1      32.749  24.814  22.241  1.00  0.00     0.059 C 
ATOM     18  C   UNL A   1      34.197  25.065  22.687  1.00  0.00     0.042 C 
ATOM     19  C   UNL A   1      32.476  25.773  21.077  1.00  0.00     0.042 C 
BRANCH  17  20
ATOM     20  O   UNL A   1      32.759  23.519  21.701  1.00  0.00    -0.390 OA
ATOM     21  H   UNL A   1      33.455  23.454  21.029  1.00  0.00     0.211 HD
ENDBRANCH  17  20
ENDBRANCH  16  17
ENDBRANCH  15  16
ENDBRANCH   6  15
ENDBRANCH   3   6
ENDBRANCH   1   2
BRANCH   1  22
ATOM     22  C   UNL A   1      33.488  27.024  26.218  1.00  0.00     0.042 C 
BRANCH  22  23
ATOM     23  C   UNL A   1      34.089  28.433  25.980  1.00  0.00     0.118 C 
BRANCH  23  24
ATOM     24  N   UNL A   1      33.610  29.536  26.788  1.00  0.00    -0.352 N 
ATOM     25  C   UNL A   1      34.339  30.336  27.656  1.00  0.00     0.251 C 
ATOM     26  H   UNL A   1      32.649  29.743  26.711  1.00  0.00     0.163 HD
ATOM     27  O   UNL A   1      33.811  31.339  28.121  1.00  0.00    -0.269 OA
BRANCH  25  28
ATOM     28  C   UNL A   1      35.728  29.989  28.094  1.00  0.00     0.039 A 
ATOM     29  C   UNL A   1      36.744  30.064  27.134  1.00  0.00     0.014 A 
ATOM     30  C   UNL A   1      36.049  29.510  29.370  1.00  0.00     0.014 A 
ATOM     31  C   UNL A   1      38.066  29.714  27.455  1.00  0.00     0.010 A 
ATOM     32  C   UNL A   1      37.386  29.192  29.701  1.00  0.00     0.010 A 
ATOM     33  C   UNL A   1      38.415  29.291  28.748  1.00  0.00    -0.014 A 
BRANCH  33  34
ATOM     34  C   UNL A   1      39.852  28.991  29.065  1.00  0.00     0.031 A 
ATOM     35  C   UNL A   1      40.487  27.665  28.717  1.00  0.00     0.074 A 
ATOM     36  C   UNL A   1      40.621  29.939  29.640  1.00  0.00     0.049 A 
ATOM     37  N   UNL A   1      41.746  27.304  28.790  1.00  0.00    -0.248 NA
ATOM     38  C   UNL A   1      39.591  26.604  28.238  1.00  0.00     0.031 C 
ATOM     39  C   UNL A   1      40.147  31.252  30.079  1.00  0.00     0.029 A 
ATOM     40  N   UNL A   1      41.966  29.959  29.938  1.00  0.00    -0.354 N 
ATOM     41  C   UNL A   1      41.798  25.982  28.358  1.00  0.00     0.074 A 
ATOM     42  C   UNL A   1      40.431  25.588  28.083  1.00  0.00     0.031 C 
ATOM     43  C   UNL A   1      41.186  31.965  30.540  1.00  0.00     0.029 A 
ATOM     44  C   UNL A   1      42.401  31.157  30.458  1.00  0.00     0.049 A 
ATOM     45  H   UNL A   1      42.561  29.188  29.792  1.00  0.00     0.167 HD
ATOM     46  C   UNL A   1      42.877  25.175  28.184  1.00  0.00     0.037 A 
ATOM     47  C   UNL A   1      43.634  31.574  30.816  1.00  0.00     0.037 A 
ATOM     48  C   UNL A   1      44.241  25.558  28.464  1.00  0.00     0.049 A 
ATOM     49  C   UNL A   1      44.817  30.662  30.630  1.00  0.00     0.074 A 
ATOM     50  C   UNL A   1      45.402  24.828  28.263  1.00  0.00     0.029 A 
ATOM     51  N   UNL A   1      44.632  26.767  29.023  1.00  0.00    -0.354 N 
ATOM     52  N   UNL A   1      44.852  29.448  30.132  1.00  0.00    -0.248 NA
ATOM     53  C   UNL A   1      46.128  31.180  31.045  1.00  0.00     0.031 C 
ATOM     54  C   UNL A   1      46.483  25.568  28.755  1.00  0.00     0.029 A 
ATOM     55  C   UNL A   1      46.007  26.788  29.208  1.00  0.00     0.049 A 
ATOM     56  H   UNL A   1      44.022  27.504  29.255  1.00  0.00     0.167 HD
ATOM     57  C   UNL A   1      46.191  29.066  30.157  1.00  0.00     0.074 A 
ATOM     58  C   UNL A   1      46.934  30.186  30.698  1.00  0.00     0.031 C 
ATOM     59  C   UNL A   1      46.750  27.893  29.765  1.00  0.00     0.037 A 
BRANCH  46  60
ATOM     60  C   UNL A   1      42.625  23.778  27.670  1.00  0.00     0.058 A 
ATOM     61  C   UNL A   1      42.502  22.680  28.538  1.00  0.00     0.135 A 
ATOM     62  C   UNL A   1      42.481  23.534  26.293  1.00  0.00     0.135 A 
ATOM     63  F   UNL A   1      42.629  22.850  29.865  1.00  0.00    -0.206 F 
ATOM     64  C   UNL A   1      42.303  21.388  28.060  1.00  0.00     0.059 A 
ATOM     65  C   UNL A   1      42.249  22.254  25.795  1.00  0.00     0.059 A 
ATOM     66  F   UNL A   1      42.574  24.543  25.414  1.00  0.00    -0.206 F 
ATOM     67  C   UNL A   1      42.186  21.183  26.685  1.00  0.00     0.060 A 
BRANCH  67  68
ATOM     68  S   UNL A   1      41.967  19.497  26.078  1.00  0.00     0.124 S 
ATOM     69  O   UNL A   1      42.455  18.716  27.212  1.00  0.00    -0.237 OA
ATOM     70  O   UNL A   1      40.530  19.435  25.838  1.00  0.00    -0.237 OA
ATOM     71  O   UNL A   1      42.803  19.453  24.883  1.00  0.00    -0.744 OA
ENDBRANCH  67  68
ENDBRANCH  46  60
BRANCH  47  72
ATOM     72  C   UNL A   1      43.817  32.952  31.355  1.00  0.00     0.058 A 
ATOM     73  C   UNL A   1      44.066  34.037  30.500  1.00  0.00     0.135 A 
ATOM     74  C   UNL A   1      43.718  33.214  32.730  1.00  0.00     0.135 A 
ATOM     75  F   UNL A   1      44.187  33.837  29.179  1.00  0.00    -0.206 F 
ATOM     76  C   UNL A   1      44.206  35.333  30.988  1.00  0.00     0.059 A 
ATOM     77  C   UNL A   1      43.827  34.505  33.238  1.00  0.00     0.059 A 
ATOM     78  F   UNL A   1      43.474  32.213  33.590  1.00  0.00    -0.206 F 
ATOM     79  C   UNL A   1      44.073  35.558  32.359  1.00  0.00     0.060 A 
BRANCH  79  80
ATOM     80  S   UNL A   1      44.169  37.255  32.971  1.00  0.00     0.124 S 
ATOM     81  O   UNL A   1      45.479  37.266  33.610  1.00  0.00    -0.237 OA
ATOM     82  O   UNL A   1      44.051  38.029  31.739  1.00  0.00    -0.237 OA
ATOM     83  O   UNL A   1      43.024  37.351  33.873  1.00  0.00    -0.744 OA
ENDBRANCH  79  80
ENDBRANCH  47  72
BRANCH  59  84
ATOM     84  C   UNL A   1      48.246  27.758  29.901  1.00  0.00     0.058 A 
ATOM     85  C   UNL A   1      48.839  27.217  31.054  1.00  0.00     0.135 A 
ATOM     86  C   UNL A   1      49.099  28.158  28.859  1.00  0.00     0.135 A 
ATOM     87  F   UNL A   1      48.076  26.821  32.085  1.00  0.00    -0.206 F 
ATOM     88  C   UNL A   1      50.222  27.114  31.185  1.00  0.00     0.059 A 
ATOM     89  C   UNL A   1      50.484  28.035  28.955  1.00  0.00     0.059 A 
ATOM     90  F   UNL A   1      48.591  28.671  27.727  1.00  0.00    -0.206 F 
ATOM     91  C   UNL A   1      51.036  27.530  30.130  1.00  0.00     0.060 A 
BRANCH  91  92
ATOM     92  S   UNL A   1      52.828  27.388  30.312  1.00  0.00     0.124 S 
ATOM     93  O   UNL A   1      53.241  27.103  28.941  1.00  0.00    -0.237 OA
ATOM     94  O   UNL A   1      53.196  28.705  30.823  1.00  0.00    -0.237 OA
ATOM     95  O   UNL A   1      52.989  26.288  31.257  1.00  0.00    -0.744 OA
ENDBRANCH  91  92
ENDBRANCH  59  84
ENDBRANCH  33  34
ENDBRANCH  25  28
ENDBRANCH  23  24
ENDBRANCH  22  23
ENDBRANCH   1  22
TORSDOF 17
ENDMDL
MODEL 3
REMARK VINA RESULT:     -11.2      1.153      2.354
REMARK SMILES CC(C)(O)CC[C@@]1(C(=O)NCCCNC(=O)c2ccc(-c3c4nc(c(-c5c(F)cc(S(=O)(=O)[O-])cc5F)c5ccc([nH]5)c(-c5c(F)cc(S(=O)(=O)[O-])cc5F)c5nc(c(-c6c(F)cc(S(=O)(=O)[O-])cc6F)c6ccc3[nH]6)C=C5)C=C4)cc2)CCc2ccccc21
REMARK SMILES IDX 11 1 10 2 8 3 9 4 7 6 83 7 90 8 84 9 85 10 89 11 86 12 88 13
REMARK SMILES IDX 87 14 6 15 5 16 2 17 1 18 3 19 4 20 12 22 13 23 14 24 15 25
REMARK SMILES IDX 16 27 17 28 18 29 82 30 19 31 81 32 20 33 21 34 22 35 75 36
REMARK SMILES IDX 23 37 80 38 74 39 76 40 24 41 79 42 73 43 72 44 25 46 59 47
REMARK SMILES IDX 38 48 58 49 39 50 42 51 57 52 77 53 40 54 41 55 56 57 78 58
REMARK SMILES IDX 43 59 26 60 27 61 36 62 28 63 29 64 35 65 37 66 30 67 31 68
REMARK SMILES IDX 32 69 33 70 34 71 60 72 61 73 70 74 62 75 63 76 69 77 71 78
REMARK SMILES IDX 64 79 65 80 66 81 67 82 68 83 44 84 45 85 54 86 46 87 47 88
REMARK SMILES IDX 53 89 55 90 48 91 49 92 50 93 51 94 52 95
REMARK H PARENT 10 5 4 21 14 26 76 45 42 56
REMARK Flexibility Score: inf
ROOT
ATOM      1  C   UNL A   1      34.405  23.215  23.981  1.00  0.00     0.117 C 
ENDROOT
BRANCH   1   2
ATOM      2  N   UNL A   1      34.136  24.245  22.936  1.00  0.00    -0.355 N 
ATOM      3  C   UNL A   1      33.312  25.315  22.645  1.00  0.00     0.230 C 
ATOM      4  O   UNL A   1      33.664  25.942  21.631  1.00  0.00    -0.274 OA
ATOM      5  H   UNL A   1      34.771  24.120  22.193  1.00  0.00     0.163 HD
BRANCH   3   6
ATOM      6  C   UNL A   1      32.048  25.812  23.440  1.00  0.00     0.075 C 
ATOM      7  C   UNL A   1      31.319  27.095  22.877  1.00  0.00     0.026 C 
ATOM      8  C   UNL A   1      32.420  26.571  24.765  1.00  0.00    -0.029 A 
ATOM      9  C   UNL A   1      30.436  27.648  23.998  1.00  0.00     0.037 C 
ATOM     10  C   UNL A   1      31.469  27.583  25.059  1.00  0.00    -0.044 A 
ATOM     11  C   UNL A   1      33.652  26.678  25.400  1.00  0.00     0.005 A 
ATOM     12  C   UNL A   1      31.648  28.597  25.993  1.00  0.00     0.004 A 
ATOM     13  C   UNL A   1      33.882  27.748  26.299  1.00  0.00     0.000 A 
ATOM     14  C   UNL A   1      32.886  28.690  26.604  1.00  0.00     0.000 A 
BRANCH   6  15
ATOM     15  C   UNL A   1      30.967  24.723  23.447  1.00  0.00     0.025 C 
BRANCH  15  16
ATOM     16  C   UNL A   1      31.132  23.571  24.515  1.00  0.00     0.036 C 
BRANCH  16  17
ATOM     17  C   UNL A   1      30.638  23.640  26.013  1.00  0.00     0.059 C 
ATOM     18  C   UNL A   1      29.716  24.773  26.487  1.00  0.00     0.042 C 
ATOM     19  C   UNL A   1      31.872  23.668  26.921  1.00  0.00     0.042 C 
BRANCH  17  20
ATOM     20  O   UNL A   1      29.941  22.460  26.317  1.00  0.00    -0.390 OA
ATOM     21  H   UNL A   1      30.221  21.755  25.713  1.00  0.00     0.211 HD
ENDBRANCH  17  20
ENDBRANCH  16  17
ENDBRANCH  15  16
ENDBRANCH   6  15
ENDBRANCH   3   6
ENDBRANCH   1   2
BRANCH   1  22
ATOM     22  C   UNL A   1      35.226  23.481  25.292  1.00  0.00     0.042 C 
BRANCH  22  23
ATOM     23  C   UNL A   1      36.687  23.999  25.297  1.00  0.00     0.118 C 
BRANCH  23  24
ATOM     24  N   UNL A   1      37.765  23.033  25.237  1.00  0.00    -0.352 N 
ATOM     25  C   UNL A   1      38.957  23.041  25.947  1.00  0.00     0.251 C 
ATOM     26  H   UNL A   1      37.635  22.279  24.616  1.00  0.00     0.163 HD
ATOM     27  O   UNL A   1      39.676  22.050  25.907  1.00  0.00    -0.269 OA
BRANCH  25  28
ATOM     28  C   UNL A   1      39.428  24.239  26.712  1.00  0.00     0.039 A 
ATOM     29  C   UNL A   1      38.966  24.386  28.025  1.00  0.00     0.014 A 
ATOM     30  C   UNL A   1      40.223  25.254  26.165  1.00  0.00     0.014 A 
ATOM     31  C   UNL A   1      39.329  25.504  28.795  1.00  0.00     0.010 A 
ATOM     32  C   UNL A   1      40.615  26.359  26.953  1.00  0.00     0.010 A 
ATOM     33  C   UNL A   1      40.175  26.500  28.281  1.00  0.00    -0.014 A 
BRANCH  33  34
ATOM     34  C   UNL A   1      40.591  27.644  29.161  1.00  0.00     0.031 A 
ATOM     35  C   UNL A   1      39.709  28.851  29.372  1.00  0.00     0.074 A 
ATOM     36  C   UNL A   1      41.766  27.585  29.822  1.00  0.00     0.049 A 
ATOM     37  N   UNL A   1      39.856  29.850  30.210  1.00  0.00    -0.248 NA
ATOM     38  C   UNL A   1      38.515  28.959  28.524  1.00  0.00     0.031 C 
ATOM     39  C   UNL A   1      42.750  26.510  29.689  1.00  0.00     0.029 A 
ATOM     40  N   UNL A   1      42.329  28.432  30.751  1.00  0.00    -0.354 N 
ATOM     41  C   UNL A   1      38.773  30.699  30.000  1.00  0.00     0.074 A 
ATOM     42  C   UNL A   1      38.009  30.124  28.911  1.00  0.00     0.031 C 
ATOM     43  C   UNL A   1      43.765  26.733  30.539  1.00  0.00     0.029 A 
ATOM     44  C   UNL A   1      43.525  27.981  31.261  1.00  0.00     0.049 A 
ATOM     45  H   UNL A   1      41.913  29.282  31.026  1.00  0.00     0.167 HD
ATOM     46  C   UNL A   1      38.429  31.835  30.661  1.00  0.00     0.037 A 
ATOM     47  C   UNL A   1      44.335  28.494  32.211  1.00  0.00     0.037 A 
ATOM     48  C   UNL A   1      39.190  32.417  31.742  1.00  0.00     0.049 A 
ATOM     49  C   UNL A   1      43.945  29.761  32.923  1.00  0.00     0.074 A 
ATOM     50  C   UNL A   1      38.887  33.532  32.507  1.00  0.00     0.029 A 
ATOM     51  N   UNL A   1      40.412  31.947  32.201  1.00  0.00    -0.354 N 
ATOM     52  N   UNL A   1      42.869  30.496  32.771  1.00  0.00    -0.248 NA
ATOM     53  C   UNL A   1      44.877  30.264  33.943  1.00  0.00     0.031 C 
ATOM     54  C   UNL A   1      39.952  33.771  33.384  1.00  0.00     0.029 A 
ATOM     55  C   UNL A   1      40.893  32.770  33.211  1.00  0.00     0.049 A 
ATOM     56  H   UNL A   1      40.873  31.146  31.860  1.00  0.00     0.167 HD
ATOM     57  C   UNL A   1      42.985  31.537  33.689  1.00  0.00     0.074 A 
ATOM     58  C   UNL A   1      44.226  31.323  34.406  1.00  0.00     0.031 C 
ATOM     59  C   UNL A   1      42.138  32.573  33.914  1.00  0.00     0.037 A 
BRANCH  46  60
ATOM     60  C   UNL A   1      37.167  32.539  30.223  1.00  0.00     0.058 A 
ATOM     61  C   UNL A   1      37.177  33.525  29.222  1.00  0.00     0.135 A 
ATOM     62  C   UNL A   1      35.925  32.208  30.794  1.00  0.00     0.135 A 
ATOM     63  F   UNL A   1      38.332  33.883  28.639  1.00  0.00    -0.206 F 
ATOM     64  C   UNL A   1      36.017  34.196  28.844  1.00  0.00     0.059 A 
ATOM     65  C   UNL A   1      34.747  32.844  30.408  1.00  0.00     0.059 A 
ATOM     66  F   UNL A   1      35.847  31.264  31.745  1.00  0.00    -0.206 F 
ATOM     67  C   UNL A   1      34.807  33.854  29.449  1.00  0.00     0.060 A 
BRANCH  67  68
ATOM     68  S   UNL A   1      33.319  34.760  28.976  1.00  0.00     0.124 S 
ATOM     69  O   UNL A   1      32.643  34.897  30.263  1.00  0.00    -0.237 OA
ATOM     70  O   UNL A   1      33.867  35.990  28.415  1.00  0.00    -0.237 OA
ATOM     71  O   UNL A   1      32.669  33.872  28.019  1.00  0.00    -0.744 OA
ENDBRANCH  67  68
ENDBRANCH  46  60
BRANCH  47  72
ATOM     72  C   UNL A   1      45.589  27.775  32.575  1.00  0.00     0.058 A 
ATOM     73  C   UNL A   1      45.607  26.825  33.608  1.00  0.00     0.135 A 
ATOM     74  C   UNL A   1      46.786  28.003  31.878  1.00  0.00     0.135 A 
ATOM     75  F   UNL A   1      44.493  26.584  34.316  1.00  0.00    -0.206 F 
ATOM     76  C   UNL A   1      46.763  26.124  33.935  1.00  0.00     0.059 A 
ATOM     77  C   UNL A   1      47.948  27.295  32.169  1.00  0.00     0.059 A 
ATOM     78  F   UNL A   1      46.822  28.896  30.877  1.00  0.00    -0.206 F 
ATOM     79  C   UNL A   1      47.927  26.358  33.201  1.00  0.00     0.060 A 
BRANCH  79  80
ATOM     80  S   UNL A   1      49.399  25.379  33.575  1.00  0.00     0.124 S 
ATOM     81  O   UNL A   1      50.003  26.154  34.653  1.00  0.00    -0.237 OA
ATOM     82  O   UNL A   1      48.820  24.095  33.957  1.00  0.00    -0.237 OA
ATOM     83  O   UNL A   1      50.131  25.376  32.311  1.00  0.00    -0.744 OA
ENDBRANCH  79  80
ENDBRANCH  47  72
BRANCH  59  84
ATOM     84  C   UNL A   1      42.520  33.559  34.989  1.00  0.00     0.058 A 
ATOM     85  C   UNL A   1      43.229  34.736  34.696  1.00  0.00     0.135 A 
ATOM     86  C   UNL A   1      42.159  33.336  36.328  1.00  0.00     0.135 A 
ATOM     87  F   UNL A   1      43.606  35.003  33.436  1.00  0.00    -0.206 F 
ATOM     88  C   UNL A   1      43.599  35.634  35.695  1.00  0.00     0.059 A 
ATOM     89  C   UNL A   1      42.490  34.235  37.339  1.00  0.00     0.059 A 
ATOM     90  F   UNL A   1      41.470  32.234  36.669  1.00  0.00    -0.206 F 
ATOM     91  C   UNL A   1      43.228  35.373  37.014  1.00  0.00     0.060 A 
BRANCH  91  92
ATOM     92  S   UNL A   1      43.711  36.547  38.299  1.00  0.00     0.124 S 
ATOM     93  O   UNL A   1      45.131  36.726  38.015  1.00  0.00    -0.237 OA
ATOM     94  O   UNL A   1      42.857  37.696  38.011  1.00  0.00    -0.237 OA
ATOM     95  O   UNL A   1      43.404  35.841  39.539  1.00  0.00    -0.744 OA
ENDBRANCH  91  92
ENDBRANCH  59  84
ENDBRANCH  33  34
ENDBRANCH  25  28
ENDBRANCH  23  24
ENDBRANCH  22  23
ENDBRANCH   1  22
TORSDOF 17
ENDMDL
