MODEL 1
REMARK VINA RESULT:     -11.9      0.000      0.000
REMARK SMILES CCOc1cc(/C=C2/SC(=S)N([C@H](CC)C(=O)NCCCNC(=O)c3ccc(-c4c5nc(c(-c6c(F)cc(S(=O)(=O)[O-])cc6F)c6ccc([nH]6)c(-c6c(F)cc(S(=O)(=O)[O-])cc6F)c6nc(c(-c7c(F)cc(S(=O)(=O)[O-])cc7F)c7ccc4[nH]7)C=C6)C=C5)cc3)C2=O)ccc1O
REMARK SMILES IDX 19 1 18 2 16 3 17 4 13 6 12 7 7 8 8 9 9 10 91 11 10 12 92 13
REMARK SMILES IDX 11 14 6 15 4 16 5 17 95 18 94 19 93 20 3 21 2 22 1 23 96 24
REMARK SMILES IDX 14 26 15 27 20 28 21 29 22 30 23 31 24 33 25 34 26 35 90 36
REMARK SMILES IDX 27 37 89 38 28 39 29 40 30 41 83 42 31 43 88 44 82 45 84 46
REMARK SMILES IDX 32 47 87 48 81 49 80 50 33 52 67 53 46 54 66 55 47 56 50 57
REMARK SMILES IDX 65 58 85 59 48 60 49 61 64 63 86 64 51 65 34 66 35 67 44 68
REMARK SMILES IDX 36 69 37 70 43 71 45 72 38 73 39 74 40 75 41 76 42 77 68 78
REMARK SMILES IDX 69 79 78 80 70 81 71 82 77 83 79 84 72 85 73 86 74 87 75 88
REMARK SMILES IDX 76 89 52 90 53 91 62 92 54 93 55 94 61 95 63 96 56 97 57 98
REMARK SMILES IDX 58 99 59 100 60 101
REMARK H PARENT 18 5 96 25 22 32 84 51 50 62
REMARK Flexibility Score: inf
ROOT
ATOM      1  C   UNL A   1      34.725  28.937  26.465  1.00  0.00     0.117 C 
ENDROOT
BRANCH   1   2
ATOM      2  N   UNL A   1      33.622  29.553  25.770  1.00  0.00    -0.354 N 
ATOM      3  C   UNL A   1      32.433  29.005  25.396  1.00  0.00     0.243 C 
ATOM      4  O   UNL A   1      31.572  29.791  24.989  1.00  0.00    -0.273 OA
ATOM      5  H   UNL A   1      33.744  30.501  25.534  1.00  0.00     0.163 HD
BRANCH   3   6
ATOM      6  C   UNL A   1      32.128  27.487  25.524  1.00  0.00     0.181 C 
BRANCH   6   7
ATOM      7  N   UNL A   1      32.369  26.761  24.244  1.00  0.00    -0.280 N 
ATOM      8  C   UNL A   1      33.572  23.737  22.688  1.00  0.00     0.029 C 
ATOM      9  C   UNL A   1      33.363  25.026  22.981  1.00  0.00     0.081 C 
ATOM     10  S   UNL A   1      32.969  26.191  21.793  1.00  0.00    -0.054 SA
ATOM     11  C   UNL A   1      33.199  25.641  24.328  1.00  0.00     0.266 C 
ATOM     12  C   UNL A   1      31.944  27.042  22.958  1.00  0.00     0.149 C 
ATOM     13  O   UNL A   1      33.710  25.188  25.338  1.00  0.00    -0.268 OA
ATOM     14  S   UNL A   1      30.628  27.882  22.374  1.00  0.00    -0.052 S 
BRANCH   8  15
ATOM     15  C   UNL A   1      33.560  22.676  23.690  1.00  0.00    -0.020 A 
ATOM     16  C   UNL A   1      34.735  21.313  25.329  1.00  0.00     0.161 A 
ATOM     17  C   UNL A   1      34.738  22.304  24.339  1.00  0.00     0.058 A 
ATOM     18  C   UNL A   1      33.518  20.706  25.656  1.00  0.00     0.157 A 
ATOM     19  C   UNL A   1      32.344  21.039  24.982  1.00  0.00     0.051 A 
ATOM     20  C   UNL A   1      32.363  22.021  23.997  1.00  0.00     0.012 A 
BRANCH  16  21
ATOM     21  O   UNL A   1      35.982  21.094  25.838  1.00  0.00    -0.490 OA
BRANCH  21  22
ATOM     22  C   UNL A   1      37.102  20.904  24.986  1.00  0.00     0.226 C 
ATOM     23  C   UNL A   1      38.278  21.714  25.505  1.00  0.00     0.049 C 
ENDBRANCH  21  22
ENDBRANCH  16  21
BRANCH  18  24
ATOM     24  O   UNL A   1      33.367  19.793  26.658  1.00  0.00    -0.504 OA
ATOM     25  H   UNL A   1      32.685  19.901  27.292  1.00  0.00     0.293 HD
ENDBRANCH  18  24
ENDBRANCH   8  15
ENDBRANCH   6   7
BRANCH   6  26
ATOM     26  C   UNL A   1      30.881  27.157  26.362  1.00  0.00     0.032 C 
ATOM     27  C   UNL A   1      30.228  25.848  25.922  1.00  0.00     0.006 C 
ENDBRANCH   6  26
ENDBRANCH   3   6
ENDBRANCH   1   2
BRANCH   1  28
ATOM     28  C   UNL A   1      34.851  29.331  27.922  1.00  0.00     0.042 C 
BRANCH  28  29
ATOM     29  C   UNL A   1      35.300  30.765  28.138  1.00  0.00     0.118 C 
BRANCH  29  30
ATOM     30  N   UNL A   1      35.431  31.113  29.547  1.00  0.00    -0.352 N 
ATOM     31  C   UNL A   1      36.432  30.866  30.457  1.00  0.00     0.251 C 
ATOM     32  H   UNL A   1      34.665  31.614  29.913  1.00  0.00     0.163 HD
ATOM     33  O   UNL A   1      36.225  31.096  31.646  1.00  0.00    -0.269 OA
BRANCH  31  34
ATOM     34  C   UNL A   1      37.735  30.308  30.030  1.00  0.00     0.039 A 
ATOM     35  C   UNL A   1      38.130  30.438  28.695  1.00  0.00     0.014 A 
ATOM     36  C   UNL A   1      38.559  29.631  30.928  1.00  0.00     0.014 A 
ATOM     37  C   UNL A   1      39.381  29.964  28.288  1.00  0.00     0.010 A 
ATOM     38  C   UNL A   1      39.846  29.267  30.553  1.00  0.00     0.010 A 
ATOM     39  C   UNL A   1      40.271  29.416  29.225  1.00  0.00    -0.014 A 
BRANCH  39  40
ATOM     40  C   UNL A   1      41.638  28.966  28.854  1.00  0.00     0.031 A 
ATOM     41  C   UNL A   1      42.772  29.960  28.828  1.00  0.00     0.074 A 
ATOM     42  C   UNL A   1      41.841  27.700  28.443  1.00  0.00     0.049 A 
ATOM     43  N   UNL A   1      43.994  29.811  28.388  1.00  0.00    -0.248 NA
ATOM     44  C   UNL A   1      42.474  31.315  29.320  1.00  0.00     0.031 C 
ATOM     45  C   UNL A   1      40.816  26.656  28.365  1.00  0.00     0.029 A 
ATOM     46  N   UNL A   1      42.981  27.077  27.998  1.00  0.00    -0.354 N 
ATOM     47  C   UNL A   1      44.593  31.060  28.507  1.00  0.00     0.074 A 
ATOM     48  C   UNL A   1      43.587  31.965  29.013  1.00  0.00     0.031 C 
ATOM     49  C   UNL A   1      41.379  25.518  27.932  1.00  0.00     0.029 A 
ATOM     50  C   UNL A   1      42.793  25.757  27.661  1.00  0.00     0.049 A 
ATOM     51  H   UNL A   1      43.850  27.531  27.927  1.00  0.00     0.167 HD
ATOM     52  C   UNL A   1      45.874  31.416  28.242  1.00  0.00     0.037 A 
ATOM     53  C   UNL A   1      43.661  24.844  27.185  1.00  0.00     0.037 A 
ATOM     54  C   UNL A   1      46.887  30.497  27.800  1.00  0.00     0.049 A 
ATOM     55  C   UNL A   1      45.090  25.245  26.952  1.00  0.00     0.074 A 
ATOM     56  C   UNL A   1      48.232  30.735  27.581  1.00  0.00     0.029 A 
ATOM     57  N   UNL A   1      46.668  29.155  27.523  1.00  0.00    -0.354 N 
ATOM     58  N   UNL A   1      45.653  26.419  27.113  1.00  0.00    -0.248 NA
ATOM     59  C   UNL A   1      46.005  24.198  26.476  1.00  0.00     0.031 C 
ATOM     60  C   UNL A   1      48.822  29.541  27.149  1.00  0.00     0.029 A 
ATOM     61  C   UNL A   1      47.851  28.553  27.129  1.00  0.00     0.049 A 
ATOM     62  H   UNL A   1      45.799  28.698  27.595  1.00  0.00     0.167 HD
ATOM     63  C   UNL A   1      46.991  26.248  26.781  1.00  0.00     0.074 A 
ATOM     64  C   UNL A   1      47.155  24.855  26.416  1.00  0.00     0.031 C 
ATOM     65  C   UNL A   1      47.993  27.162  26.778  1.00  0.00     0.037 A 
BRANCH  52  66
ATOM     66  C   UNL A   1      46.240  32.862  28.437  1.00  0.00     0.058 A 
ATOM     67  C   UNL A   1      46.678  33.351  29.679  1.00  0.00     0.135 A 
ATOM     68  C   UNL A   1      46.134  33.774  27.375  1.00  0.00     0.135 A 
ATOM     69  F   UNL A   1      46.781  32.524  30.731  1.00  0.00    -0.206 F 
ATOM     70  C   UNL A   1      46.948  34.701  29.876  1.00  0.00     0.059 A 
ATOM     71  C   UNL A   1      46.427  35.125  27.542  1.00  0.00     0.059 A 
ATOM     72  F   UNL A   1      45.724  33.361  26.166  1.00  0.00    -0.206 F 
ATOM     73  C   UNL A   1      46.809  35.583  28.802  1.00  0.00     0.060 A 
BRANCH  73  74
ATOM     74  S   UNL A   1      47.127  37.338  29.077  1.00  0.00     0.124 S 
ATOM     75  O   UNL A   1      47.841  37.305  30.350  1.00  0.00    -0.237 OA
ATOM     76  O   UNL A   1      47.928  37.702  27.913  1.00  0.00    -0.237 OA
ATOM     77  O   UNL A   1      45.790  37.920  29.122  1.00  0.00    -0.744 OA
ENDBRANCH  73  74
ENDBRANCH  52  66
BRANCH  53  78
ATOM     78  C   UNL A   1      43.205  23.451  26.945  1.00  0.00     0.058 A 
ATOM     79  C   UNL A   1      43.008  22.983  25.638  1.00  0.00     0.135 A 
ATOM     80  C   UNL A   1      43.006  22.550  28.002  1.00  0.00     0.135 A 
ATOM     81  F   UNL A   1      43.182  23.810  24.596  1.00  0.00    -0.206 F 
ATOM     82  C   UNL A   1      42.625  21.670  25.384  1.00  0.00     0.059 A 
ATOM     83  C   UNL A   1      42.641  21.227  27.772  1.00  0.00     0.059 A 
ATOM     84  F   UNL A   1      43.201  22.947  29.269  1.00  0.00    -0.206 F 
ATOM     85  C   UNL A   1      42.448  20.798  26.459  1.00  0.00     0.060 A 
BRANCH  85  86
ATOM     86  S   UNL A   1      42.026  19.075  26.116  1.00  0.00     0.124 S 
ATOM     87  O   UNL A   1      42.827  18.809  24.926  1.00  0.00    -0.237 OA
ATOM     88  O   UNL A   1      42.456  18.402  27.337  1.00  0.00    -0.237 OA
ATOM     89  O   UNL A   1      40.582  19.119  25.910  1.00  0.00    -0.744 OA
ENDBRANCH  85  86
ENDBRANCH  53  78
BRANCH  65  90
ATOM     90  C   UNL A   1      49.361  26.678  26.394  1.00  0.00     0.058 A 
ATOM     91  C   UNL A   1      49.862  26.849  25.095  1.00  0.00     0.135 A 
ATOM     92  C   UNL A   1      50.200  26.087  27.353  1.00  0.00     0.135 A 
ATOM     93  F   UNL A   1      49.096  27.404  24.143  1.00  0.00    -0.206 F 
ATOM     94  C   UNL A   1      51.146  26.435  24.754  1.00  0.00     0.059 A 
ATOM     95  C   UNL A   1      51.492  25.683  27.039  1.00  0.00     0.059 A 
ATOM     96  F   UNL A   1      49.767  25.910  28.611  1.00  0.00    -0.206 F 
ATOM     97  C   UNL A   1      51.953  25.853  25.734  1.00  0.00     0.060 A 
BRANCH  97  98
ATOM     98  S   UNL A   1      53.631  25.355  25.291  1.00  0.00     0.124 S 
ATOM     99  O   UNL A   1      54.428  26.163  26.208  1.00  0.00    -0.237 OA
ATOM    100  O   UNL A   1      53.616  23.920  25.559  1.00  0.00    -0.237 OA
ATOM    101  O   UNL A   1      53.731  25.721  23.880  1.00  0.00    -0.744 OA
ENDBRANCH  97  98
ENDBRANCH  65  90
ENDBRANCH  39  40
ENDBRANCH  31  34
ENDBRANCH  29  30
ENDBRANCH  28  29
ENDBRANCH   1  28
TORSDOF 19
ENDMDL
MODEL 2
REMARK VINA RESULT:     -11.5      6.173     11.824
REMARK SMILES CCOc1cc(/C=C2/SC(=S)N([C@H](CC)C(=O)NCCCNC(=O)c3ccc(-c4c5nc(c(-c6c(F)cc(S(=O)(=O)[O-])cc6F)c6ccc([nH]6)c(-c6c(F)cc(S(=O)(=O)[O-])cc6F)c6nc(c(-c7c(F)cc(S(=O)(=O)[O-])cc7F)c7ccc4[nH]7)C=C6)C=C5)cc3)C2=O)ccc1O
REMARK SMILES IDX 19 1 18 2 16 3 17 4 13 6 12 7 7 8 8 9 9 10 91 11 10 12 92 13
REMARK SMILES IDX 11 14 6 15 4 16 5 17 95 18 94 19 93 20 3 21 2 22 1 23 96 24
REMARK SMILES IDX 14 26 15 27 20 28 21 29 22 30 23 31 24 33 25 34 26 35 90 36
REMARK SMILES IDX 27 37 89 38 28 39 29 40 30 41 83 42 31 43 88 44 82 45 84 46
REMARK SMILES IDX 32 47 87 48 81 49 80 50 33 52 67 53 46 54 66 55 47 56 50 57
REMARK SMILES IDX 65 58 85 59 48 60 49 61 64 63 86 64 51 65 34 66 35 67 44 68
REMARK SMILES IDX 36 69 37 70 43 71 45 72 38 73 39 74 40 75 41 76 42 77 68 78
REMARK SMILES IDX 69 79 78 80 70 81 71 82 77 83 79 84 72 85 73 86 74 87 75 88
REMARK SMILES IDX 76 89 52 90 53 91 62 92 54 93 55 94 61 95 63 96 56 97 57 98
REMARK SMILES IDX 58 99 59 100 60 101
REMARK H PARENT 18 5 96 25 22 32 84 51 50 62
REMARK Flexibility Score: inf
ROOT
ATOM      1  C   UNL A   1      36.943  23.642  26.642  1.00  0.00     0.117 C 
ENDROOT
BRANCH   1   2
ATOM      2  N   UNL A   1      36.442  22.341  26.273  1.00  0.00    -0.354 N 
ATOM      3  C   UNL A   1      35.565  22.010  25.286  1.00  0.00     0.243 C 
ATOM      4  O   UNL A   1      35.447  20.804  25.042  1.00  0.00    -0.273 OA
ATOM      5  H   UNL A   1      36.781  21.588  26.809  1.00  0.00     0.163 HD
BRANCH   3   6
ATOM      6  C   UNL A   1      34.792  23.070  24.456  1.00  0.00     0.181 C 
BRANCH   6   7
ATOM      7  N   UNL A   1      33.355  23.145  24.847  1.00  0.00    -0.280 N 
ATOM      8  C   UNL A   1      30.704  25.212  26.154  1.00  0.00     0.029 C 
ATOM      9  C   UNL A   1      31.542  24.190  25.949  1.00  0.00     0.081 C 
ATOM     10  S   UNL A   1      31.003  22.578  25.761  1.00  0.00    -0.054 SA
ATOM     11  C   UNL A   1      32.994  24.250  25.620  1.00  0.00     0.266 C 
ATOM     12  C   UNL A   1      32.313  22.266  24.613  1.00  0.00     0.149 C 
ATOM     13  O   UNL A   1      33.722  25.163  25.971  1.00  0.00    -0.268 OA
ATOM     14  S   UNL A   1      32.053  21.133  23.419  1.00  0.00    -0.052 S 
BRANCH   8  15
ATOM     15  C   UNL A   1      31.085  26.609  25.968  1.00  0.00    -0.020 A 
ATOM     16  C   UNL A   1      31.123  28.618  24.593  1.00  0.00     0.161 A 
ATOM     17  C   UNL A   1      30.798  27.266  24.771  1.00  0.00     0.058 A 
ATOM     18  C   UNL A   1      31.742  29.295  25.648  1.00  0.00     0.157 A 
ATOM     19  C   UNL A   1      32.073  28.635  26.832  1.00  0.00     0.051 A 
ATOM     20  C   UNL A   1      31.748  27.293  26.993  1.00  0.00     0.012 A 
BRANCH  16  21
ATOM     21  O   UNL A   1      30.765  29.072  23.358  1.00  0.00    -0.490 OA
BRANCH  21  22
ATOM     22  C   UNL A   1      29.472  29.606  23.115  1.00  0.00     0.226 C 
ATOM     23  C   UNL A   1      29.374  30.067  21.672  1.00  0.00     0.049 C 
ENDBRANCH  21  22
ENDBRANCH  16  21
BRANCH  18  24
ATOM     24  O   UNL A   1      32.032  30.628  25.633  1.00  0.00    -0.504 OA
ATOM     25  H   UNL A   1      32.193  31.083  26.437  1.00  0.00     0.293 HD
ENDBRANCH  18  24
ENDBRANCH   8  15
ENDBRANCH   6   7
BRANCH   6  26
ATOM     26  C   UNL A   1      35.178  23.116  22.966  1.00  0.00     0.032 C 
ATOM     27  C   UNL A   1      36.688  23.009  22.764  1.00  0.00     0.006 C 
ENDBRANCH   6  26
ENDBRANCH   3   6
ENDBRANCH   1   2
BRANCH   1  28
ATOM     28  C   UNL A   1      38.259  24.017  25.994  1.00  0.00     0.042 C 
BRANCH  28  29
ATOM     29  C   UNL A   1      39.481  23.604  26.796  1.00  0.00     0.118 C 
BRANCH  29  30
ATOM     30  N   UNL A   1      40.733  23.859  26.094  1.00  0.00    -0.352 N 
ATOM     31  C   UNL A   1      41.669  24.856  26.234  1.00  0.00     0.251 C 
ATOM     32  H   UNL A   1      40.946  23.199  25.394  1.00  0.00     0.163 HD
ATOM     33  O   UNL A   1      42.554  24.965  25.389  1.00  0.00    -0.269 OA
BRANCH  31  34
ATOM     34  C   UNL A   1      41.610  25.809  27.366  1.00  0.00     0.039 A 
ATOM     35  C   UNL A   1      42.369  26.982  27.312  1.00  0.00     0.014 A 
ATOM     36  C   UNL A   1      40.837  25.542  28.495  1.00  0.00     0.014 A 
ATOM     37  C   UNL A   1      42.283  27.918  28.348  1.00  0.00     0.010 A 
ATOM     38  C   UNL A   1      40.660  26.520  29.466  1.00  0.00     0.010 A 
ATOM     39  C   UNL A   1      41.391  27.716  29.413  1.00  0.00    -0.014 A 
BRANCH  39  40
ATOM     40  C   UNL A   1      41.211  28.716  30.498  1.00  0.00     0.031 A 
ATOM     41  C   UNL A   1      42.106  28.674  31.711  1.00  0.00     0.074 A 
ATOM     42  C   UNL A   1      40.187  29.589  30.445  1.00  0.00     0.049 A 
ATOM     43  N   UNL A   1      42.019  29.349  32.828  1.00  0.00    -0.248 NA
ATOM     44  C   UNL A   1      43.219  27.712  31.678  1.00  0.00     0.031 C 
ATOM     45  C   UNL A   1      39.213  29.692  29.355  1.00  0.00     0.029 A 
ATOM     46  N   UNL A   1      39.784  30.550  31.339  1.00  0.00    -0.354 N 
ATOM     47  C   UNL A   1      43.033  28.860  33.644  1.00  0.00     0.074 A 
ATOM     48  C   UNL A   1      43.690  27.800  32.913  1.00  0.00     0.031 C 
ATOM     49  C   UNL A   1      38.348  30.681  29.630  1.00  0.00     0.029 A 
ATOM     50  C   UNL A   1      38.676  31.254  30.931  1.00  0.00     0.049 A 
ATOM     51  H   UNL A   1      40.245  30.718  32.192  1.00  0.00     0.167 HD
ATOM     52  C   UNL A   1      43.401  29.273  34.881  1.00  0.00     0.037 A 
ATOM     53  C   UNL A   1      38.000  32.248  31.538  1.00  0.00     0.037 A 
ATOM     54  C   UNL A   1      42.785  30.370  35.577  1.00  0.00     0.049 A 
ATOM     55  C   UNL A   1      38.459  32.730  32.885  1.00  0.00     0.074 A 
ATOM     56  C   UNL A   1      43.132  30.923  36.796  1.00  0.00     0.029 A 
ATOM     57  N   UNL A   1      41.700  31.094  35.104  1.00  0.00    -0.354 N 
ATOM     58  N   UNL A   1      39.449  32.288  33.624  1.00  0.00    -0.248 NA
ATOM     59  C   UNL A   1      37.714  33.847  33.481  1.00  0.00     0.031 C 
ATOM     60  C   UNL A   1      42.242  31.968  37.072  1.00  0.00     0.029 A 
ATOM     61  C   UNL A   1      41.360  32.084  36.009  1.00  0.00     0.049 A 
ATOM     62  H   UNL A   1      41.239  30.928  34.250  1.00  0.00     0.167 HD
ATOM     63  C   UNL A   1      39.460  33.086  34.761  1.00  0.00     0.074 A 
ATOM     64  C   UNL A   1      38.382  34.043  34.610  1.00  0.00     0.031 C 
ATOM     65  C   UNL A   1      40.288  33.031  35.834  1.00  0.00     0.037 A 
BRANCH  52  66
ATOM     66  C   UNL A   1      44.529  28.532  35.546  1.00  0.00     0.058 A 
ATOM     67  C   UNL A   1      45.870  28.901  35.351  1.00  0.00     0.135 A 
ATOM     68  C   UNL A   1      44.267  27.429  36.375  1.00  0.00     0.135 A 
ATOM     69  F   UNL A   1      46.176  29.938  34.556  1.00  0.00    -0.206 F 
ATOM     70  C   UNL A   1      46.914  28.172  35.911  1.00  0.00     0.059 A 
ATOM     71  C   UNL A   1      45.296  26.702  36.968  1.00  0.00     0.059 A 
ATOM     72  F   UNL A   1      43.004  27.034  36.599  1.00  0.00    -0.206 F 
ATOM     73  C   UNL A   1      46.617  27.067  36.709  1.00  0.00     0.060 A 
BRANCH  73  74
ATOM     74  S   UNL A   1      47.980  26.106  37.400  1.00  0.00     0.124 S 
ATOM     75  O   UNL A   1      48.177  26.770  38.686  1.00  0.00    -0.237 OA
ATOM     76  O   UNL A   1      47.419  24.760  37.464  1.00  0.00    -0.237 OA
ATOM     77  O   UNL A   1      49.051  26.291  36.426  1.00  0.00    -0.744 OA
ENDBRANCH  73  74
ENDBRANCH  52  66
BRANCH  53  78
ATOM     78  C   UNL A   1      36.846  32.881  30.848  1.00  0.00     0.058 A 
ATOM     79  C   UNL A   1      35.534  32.600  31.254  1.00  0.00     0.135 A 
ATOM     80  C   UNL A   1      37.029  33.808  29.812  1.00  0.00     0.135 A 
ATOM     81  F   UNL A   1      35.312  31.716  32.239  1.00  0.00    -0.206 F 
ATOM     82  C   UNL A   1      34.439  33.214  30.655  1.00  0.00     0.059 A 
ATOM     83  C   UNL A   1      35.950  34.449  29.209  1.00  0.00     0.059 A 
ATOM     84  F   UNL A   1      38.267  34.123  29.401  1.00  0.00    -0.206 F 
ATOM     85  C   UNL A   1      34.658  34.141  29.635  1.00  0.00     0.060 A 
BRANCH  85  86
ATOM     86  S   UNL A   1      33.234  34.989  28.916  1.00  0.00     0.124 S 
ATOM     87  O   UNL A   1      32.390  35.191  30.089  1.00  0.00    -0.237 OA
ATOM     88  O   UNL A   1      33.842  36.191  28.353  1.00  0.00    -0.237 OA
ATOM     89  O   UNL A   1      32.735  34.032  27.935  1.00  0.00    -0.744 OA
ENDBRANCH  85  86
ENDBRANCH  53  78
BRANCH  65  90
ATOM     90  C   UNL A   1      40.077  34.052  36.915  1.00  0.00     0.058 A 
ATOM     91  C   UNL A   1      40.718  35.299  36.882  1.00  0.00     0.135 A 
ATOM     92  C   UNL A   1      39.182  33.797  37.967  1.00  0.00     0.135 A 
ATOM     93  F   UNL A   1      41.587  35.586  35.900  1.00  0.00    -0.206 F 
ATOM     94  C   UNL A   1      40.490  36.256  37.865  1.00  0.00     0.059 A 
ATOM     95  C   UNL A   1      38.924  34.747  38.949  1.00  0.00     0.059 A 
ATOM     96  F   UNL A   1      38.539  32.621  38.037  1.00  0.00    -0.206 F 
ATOM     97  C   UNL A   1      39.591  35.971  38.894  1.00  0.00     0.060 A 
BRANCH  97  98
ATOM     98  S   UNL A   1      39.272  37.235  40.143  1.00  0.00     0.124 S 
ATOM     99  O   UNL A   1      38.574  36.465  41.168  1.00  0.00    -0.237 OA
ATOM    100  O   UNL A   1      40.617  37.681  40.491  1.00  0.00    -0.237 OA
ATOM    101  O   UNL A   1      38.458  38.216  39.430  1.00  0.00    -0.744 OA
ENDBRANCH  97  98
ENDBRANCH  65  90
ENDBRANCH  39  40
ENDBRANCH  31  34
ENDBRANCH  29  30
ENDBRANCH  28  29
ENDBRANCH   1  28
TORSDOF 19
ENDMDL
MODEL 3
REMARK VINA RESULT:     -10.8      6.323     11.359
REMARK SMILES CCOc1cc(/C=C2/SC(=S)N([C@H](CC)C(=O)NCCCNC(=O)c3ccc(-c4c5nc(c(-c6c(F)cc(S(=O)(=O)[O-])cc6F)c6ccc([nH]6)c(-c6c(F)cc(S(=O)(=O)[O-])cc6F)c6nc(c(-c7c(F)cc(S(=O)(=O)[O-])cc7F)c7ccc4[nH]7)C=C6)C=C5)cc3)C2=O)ccc1O
REMARK SMILES IDX 19 1 18 2 16 3 17 4 13 6 12 7 7 8 8 9 9 10 91 11 10 12 92 13
REMARK SMILES IDX 11 14 6 15 4 16 5 17 95 18 94 19 93 20 3 21 2 22 1 23 96 24
REMARK SMILES IDX 14 26 15 27 20 28 21 29 22 30 23 31 24 33 25 34 26 35 90 36
REMARK SMILES IDX 27 37 89 38 28 39 29 40 30 41 83 42 31 43 88 44 82 45 84 46
REMARK SMILES IDX 32 47 87 48 81 49 80 50 33 52 67 53 46 54 66 55 47 56 50 57
REMARK SMILES IDX 65 58 85 59 48 60 49 61 64 63 86 64 51 65 34 66 35 67 44 68
REMARK SMILES IDX 36 69 37 70 43 71 45 72 38 73 39 74 40 75 41 76 42 77 68 78
REMARK SMILES IDX 69 79 78 80 70 81 71 82 77 83 79 84 72 85 73 86 74 87 75 88
REMARK SMILES IDX 76 89 52 90 53 91 62 92 54 93 55 94 61 95 63 96 56 97 57 98
REMARK SMILES IDX 58 99 59 100 60 101
REMARK H PARENT 18 5 96 25 22 32 84 51 50 62
REMARK Flexibility Score: inf
ROOT
ATOM      1  C   UNL A   1      36.820  23.956  26.618  1.00  0.00     0.117 C 
ENDROOT
BRANCH   1   2
ATOM      2  N   UNL A   1      36.345  22.600  26.499  1.00  0.00    -0.354 N 
ATOM      3  C   UNL A   1      35.478  22.074  25.591  1.00  0.00     0.243 C 
ATOM      4  O   UNL A   1      35.383  20.842  25.576  1.00  0.00    -0.273 OA
ATOM      5  H   UNL A   1      36.695  21.967  27.166  1.00  0.00     0.163 HD
BRANCH   3   6
ATOM      6  C   UNL A   1      34.690  22.945  24.576  1.00  0.00     0.181 C 
BRANCH   6   7
ATOM      7  N   UNL A   1      33.248  23.059  24.940  1.00  0.00    -0.280 N 
ATOM      8  C   UNL A   1      30.398  25.245  25.271  1.00  0.00     0.029 C 
ATOM      9  C   UNL A   1      31.332  24.319  25.518  1.00  0.00     0.081 C 
ATOM     10  S   UNL A   1      30.952  22.754  26.091  1.00  0.00    -0.054 SA
ATOM     11  C   UNL A   1      32.775  24.356  25.148  1.00  0.00     0.266 C 
ATOM     12  C   UNL A   1      32.298  22.079  25.161  1.00  0.00     0.149 C 
ATOM     13  O   UNL A   1      33.409  25.390  25.028  1.00  0.00    -0.268 OA
ATOM     14  S   UNL A   1      32.160  20.512  24.611  1.00  0.00    -0.052 S 
BRANCH   8  15
ATOM     15  C   UNL A   1      30.646  26.437  24.467  1.00  0.00    -0.020 A 
ATOM     16  C   UNL A   1      31.369  28.756  24.304  1.00  0.00     0.161 A 
ATOM     17  C   UNL A   1      31.091  27.615  25.069  1.00  0.00     0.058 A 
ATOM     18  C   UNL A   1      31.191  28.686  22.919  1.00  0.00     0.157 A 
ATOM     19  C   UNL A   1      30.704  27.527  22.314  1.00  0.00     0.051 A 
ATOM     20  C   UNL A   1      30.428  26.404  23.085  1.00  0.00     0.012 A 
BRANCH  16  21
ATOM     21  O   UNL A   1      31.788  29.800  25.077  1.00  0.00    -0.490 OA
BRANCH  21  22
ATOM     22  C   UNL A   1      32.959  29.703  25.875  1.00  0.00     0.226 C 
ATOM     23  C   UNL A   1      32.766  30.491  27.158  1.00  0.00     0.049 C 
ENDBRANCH  21  22
ENDBRANCH  16  21
BRANCH  18  24
ATOM     24  O   UNL A   1      31.507  29.695  22.058  1.00  0.00    -0.504 OA
ATOM     25  H   UNL A   1      31.282  29.626  21.150  1.00  0.00     0.293 HD
ENDBRANCH  18  24
ENDBRANCH   8  15
ENDBRANCH   6   7
BRANCH   6  26
ATOM     26  C   UNL A   1      35.087  22.726  23.105  1.00  0.00     0.032 C 
ATOM     27  C   UNL A   1      36.586  22.915  22.885  1.00  0.00     0.006 C 
ENDBRANCH   6  26
ENDBRANCH   3   6
ENDBRANCH   1   2
BRANCH   1  28
ATOM     28  C   UNL A   1      38.166  24.212  25.972  1.00  0.00     0.042 C 
BRANCH  28  29
ATOM     29  C   UNL A   1      39.331  23.562  26.695  1.00  0.00     0.118 C 
BRANCH  29  30
ATOM     30  N   UNL A   1      40.623  23.901  26.110  1.00  0.00    -0.352 N 
ATOM     31  C   UNL A   1      41.480  24.950  26.343  1.00  0.00     0.251 C 
ATOM     32  H   UNL A   1      40.936  23.266  25.426  1.00  0.00     0.163 HD
ATOM     33  O   UNL A   1      42.428  25.124  25.581  1.00  0.00    -0.269 OA
BRANCH  31  34
ATOM     34  C   UNL A   1      41.265  25.881  27.475  1.00  0.00     0.039 A 
ATOM     35  C   UNL A   1      40.278  25.588  28.422  1.00  0.00     0.014 A 
ATOM     36  C   UNL A   1      42.004  27.057  27.594  1.00  0.00     0.014 A 
ATOM     37  C   UNL A   1      40.099  26.428  29.526  1.00  0.00     0.010 A 
ATOM     38  C   UNL A   1      41.908  27.826  28.746  1.00  0.00     0.010 A 
ATOM     39  C   UNL A   1      40.945  27.531  29.722  1.00  0.00    -0.014 A 
BRANCH  39  40
ATOM     40  C   UNL A   1      40.840  28.409  30.916  1.00  0.00     0.031 A 
ATOM     41  C   UNL A   1      39.800  29.500  30.955  1.00  0.00     0.074 A 
ATOM     42  C   UNL A   1      41.738  28.297  31.914  1.00  0.00     0.049 A 
ATOM     43  N   UNL A   1      39.643  30.464  31.825  1.00  0.00    -0.248 NA
ATOM     44  C   UNL A   1      38.839  29.537  29.841  1.00  0.00     0.031 C 
ATOM     45  C   UNL A   1      42.830  27.322  31.970  1.00  0.00     0.029 A 
ATOM     46  N   UNL A   1      41.883  29.022  33.071  1.00  0.00    -0.354 N 
ATOM     47  C   UNL A   1      38.599  31.244  31.339  1.00  0.00     0.074 A 
ATOM     48  C   UNL A   1      38.195  30.670  30.075  1.00  0.00     0.031 C 
ATOM     49  C   UNL A   1      43.511  27.489  33.114  1.00  0.00     0.029 A 
ATOM     50  C   UNL A   1      42.934  28.606  33.855  1.00  0.00     0.049 A 
ATOM     51  H   UNL A   1      41.291  29.768  33.317  1.00  0.00     0.167 HD
ATOM     52  C   UNL A   1      38.013  32.326  31.906  1.00  0.00     0.037 A 
ATOM     53  C   UNL A   1      43.383  29.075  35.035  1.00  0.00     0.037 A 
ATOM     54  C   UNL A   1      38.377  32.854  33.193  1.00  0.00     0.049 A 
ATOM     55  C   UNL A   1      42.684  30.241  35.674  1.00  0.00     0.074 A 
ATOM     56  C   UNL A   1      37.795  33.894  33.895  1.00  0.00     0.029 A 
ATOM     57  N   UNL A   1      39.412  32.369  33.980  1.00  0.00    -0.354 N 
ATOM     58  N   UNL A   1      41.668  30.939  35.224  1.00  0.00    -0.248 NA
ATOM     59  C   UNL A   1      43.185  30.681  36.982  1.00  0.00     0.031 C 
ATOM     60  C   UNL A   1      38.494  34.053  35.098  1.00  0.00     0.029 A 
ATOM     61  C   UNL A   1      39.490  33.092  35.158  1.00  0.00     0.049 A 
ATOM     62  H   UNL A   1      40.004  31.622  33.736  1.00  0.00     0.167 HD
ATOM     63  C   UNL A   1      41.395  31.887  36.202  1.00  0.00     0.074 A 
ATOM     64  C   UNL A   1      42.348  31.668  37.272  1.00  0.00     0.031 C 
ATOM     65  C   UNL A   1      40.442  32.852  36.213  1.00  0.00     0.037 A 
BRANCH  52  66
ATOM     66  C   UNL A   1      36.912  32.997  31.130  1.00  0.00     0.058 A 
ATOM     67  C   UNL A   1      35.559  32.788  31.441  1.00  0.00     0.135 A 
ATOM     68  C   UNL A   1      37.213  33.846  30.052  1.00  0.00     0.135 A 
ATOM     69  F   UNL A   1      35.216  31.975  32.452  1.00  0.00    -0.206 F 
ATOM     70  C   UNL A   1      34.541  33.354  30.680  1.00  0.00     0.059 A 
ATOM     71  C   UNL A   1      36.211  34.444  29.294  1.00  0.00     0.059 A 
ATOM     72  F   UNL A   1      38.489  34.083  29.713  1.00  0.00    -0.206 F 
ATOM     73  C   UNL A   1      34.878  34.172  29.600  1.00  0.00     0.060 A 
BRANCH  73  74
ATOM     74  S   UNL A   1      33.551  34.871  28.596  1.00  0.00     0.124 S 
ATOM     75  O   UNL A   1      34.273  35.879  27.825  1.00  0.00    -0.237 OA
ATOM     76  O   UNL A   1      33.082  33.714  27.839  1.00  0.00    -0.237 OA
ATOM     77  O   UNL A   1      32.615  35.389  29.587  1.00  0.00    -0.744 OA
ENDBRANCH  73  74
ENDBRANCH  52  66
BRANCH  53  78
ATOM     78  C   UNL A   1      44.527  28.404  35.705  1.00  0.00     0.058 A 
ATOM     79  C   UNL A   1      44.306  27.354  36.607  1.00  0.00     0.135 A 
ATOM     80  C   UNL A   1      45.854  28.760  35.424  1.00  0.00     0.135 A 
ATOM     81  F   UNL A   1      43.052  26.982  36.909  1.00  0.00    -0.206 F 
ATOM     82  C   UNL A   1      45.361  26.679  37.213  1.00  0.00     0.059 A 
ATOM     83  C   UNL A   1      46.927  28.088  36.004  1.00  0.00     0.059 A 
ATOM     84  F   UNL A   1      46.117  29.747  34.553  1.00  0.00    -0.206 F 
ATOM     85  C   UNL A   1      46.669  27.051  36.900  1.00  0.00     0.060 A 
BRANCH  85  86
ATOM     86  S   UNL A   1      48.032  26.119  37.633  1.00  0.00     0.124 S 
ATOM     87  O   UNL A   1      49.177  26.957  37.291  1.00  0.00    -0.237 OA
ATOM     88  O   UNL A   1      47.663  26.089  39.044  1.00  0.00    -0.237 OA
ATOM     89  O   UNL A   1      47.963  24.832  36.948  1.00  0.00    -0.744 OA
ENDBRANCH  85  86
ENDBRANCH  53  78
BRANCH  65  90
ATOM     90  C   UNL A   1      40.365  33.725  37.432  1.00  0.00     0.058 A 
ATOM     91  C   UNL A   1      41.164  34.870  37.566  1.00  0.00     0.135 A 
ATOM     92  C   UNL A   1      39.440  33.442  38.450  1.00  0.00     0.135 A 
ATOM     93  F   UNL A   1      42.067  35.178  36.622  1.00  0.00    -0.206 F 
ATOM     94  C   UNL A   1      41.061  35.698  38.679  1.00  0.00     0.059 A 
ATOM     95  C   UNL A   1      39.307  34.267  39.561  1.00  0.00     0.059 A 
ATOM     96  F   UNL A   1      38.648  32.362  38.362  1.00  0.00    -0.206 F 
ATOM     97  C   UNL A   1      40.129  35.388  39.671  1.00  0.00     0.060 A 
BRANCH  97  98
ATOM     98  S   UNL A   1      39.976  36.491  41.092  1.00  0.00     0.124 S 
ATOM     99  O   UNL A   1      41.106  37.391  40.887  1.00  0.00    -0.237 OA
ATOM    100  O   UNL A   1      38.654  37.077  40.896  1.00  0.00    -0.237 OA
ATOM    101  O   UNL A   1      40.091  35.588  42.234  1.00  0.00    -0.744 OA
ENDBRANCH  97  98
ENDBRANCH  65  90
ENDBRANCH  39  40
ENDBRANCH  31  34
ENDBRANCH  29  30
ENDBRANCH  28  29
ENDBRANCH   1  28
TORSDOF 19
ENDMDL
