MODEL 1
REMARK VINA RESULT:     -11.3      0.000      0.000
REMARK SMILES CC[C@H]1CCC[C@@H]([C@@H](Cc2ccccc2)C(=O)NCCCNC(=O)c2ccc(-c3c4nc(c(-c5c(F)cc(S(=O)(=O)[O-])cc5F)c5ccc([nH]5)c(-c5c(F)cc(S(=O)(=O)[O-])cc5F)c5nc(c(-c6c(F)cc(S(=O)(=O)[O-])cc6F)c6ccc3[nH]6)C=C5)C=C4)cc2)C1
REMARK SMILES IDX 20 1 19 2 18 3 16 4 17 5 8 7 7 8 3 9 4 10 91 11 5 12 6 13
REMARK SMILES IDX 2 14 1 15 9 16 10 17 11 18 15 19 12 20 14 21 13 22 21 23
REMARK SMILES IDX 22 24 23 25 24 27 25 28 26 29 90 30 27 31 89 32 28 33 29 34
REMARK SMILES IDX 30 35 83 36 31 37 88 38 82 39 84 40 32 41 87 42 81 43 80 44
REMARK SMILES IDX 33 46 67 47 46 48 66 49 47 50 50 51 65 52 85 53 48 54 49 55
REMARK SMILES IDX 64 57 86 58 51 59 34 60 35 61 44 62 36 63 37 64 43 65 45 66
REMARK SMILES IDX 38 67 39 68 40 69 41 70 42 71 68 72 69 73 78 74 70 75 71 76
REMARK SMILES IDX 77 77 79 78 72 79 73 80 74 81 75 82 76 83 52 84 53 85 62 86
REMARK SMILES IDX 54 87 55 88 61 89 63 90 56 91 57 92 58 93 59 94 60 95
REMARK H PARENT 18 6 22 26 84 45 50 56
REMARK Flexibility Score: inf
ROOT
ATOM      1  C   UNL A   1      33.686  28.442  25.600  1.00  0.00     0.042 C 
ENDROOT
BRANCH   1   2
ATOM      2  C   UNL A   1      33.748  26.999  25.165  1.00  0.00     0.117 C 
BRANCH   2   3
ATOM      3  N   UNL A   1      33.918  26.806  23.745  1.00  0.00    -0.356 N 
ATOM      4  C   UNL A   1      33.660  25.697  23.007  1.00  0.00     0.223 C 
ATOM      5  O   UNL A   1      33.560  25.844  21.784  1.00  0.00    -0.275 OA
ATOM      6  H   UNL A   1      34.265  27.582  23.247  1.00  0.00     0.163 HD
BRANCH   4   7
ATOM      7  C   UNL A   1      33.513  24.302  23.626  1.00  0.00     0.086 C 
BRANCH   7   8
ATOM      8  C   UNL A   1      32.066  23.711  23.619  1.00  0.00     0.002 C 
ATOM      9  C   UNL A   1      31.762  22.527  25.948  1.00  0.00    -0.011 C 
ATOM     10  C   UNL A   1      30.782  23.648  26.328  1.00  0.00     0.003 C 
ATOM     11  C   UNL A   1      31.882  22.394  24.415  1.00  0.00     0.008 C 
ATOM     12  C   UNL A   1      31.042  24.956  25.597  1.00  0.00     0.001 C 
ATOM     13  C   UNL A   1      31.009  24.736  24.090  1.00  0.00     0.004 C 
BRANCH   9  14
ATOM     14  C   UNL A   1      33.151  22.554  26.622  1.00  0.00     0.000 C 
ATOM     15  C   UNL A   1      33.870  21.220  26.722  1.00  0.00     0.004 C 
ENDBRANCH   9  14
ENDBRANCH   7   8
BRANCH   7  16
ATOM     16  C   UNL A   1      34.695  23.367  23.245  1.00  0.00     0.049 C 
BRANCH  16  17
ATOM     17  C   UNL A   1      35.801  23.132  24.247  1.00  0.00    -0.047 A 
ATOM     18  C   UNL A   1      36.060  24.072  25.257  1.00  0.00     0.004 A 
ATOM     19  C   UNL A   1      36.615  21.994  24.171  1.00  0.00     0.004 A 
ATOM     20  C   UNL A   1      37.175  23.935  26.091  1.00  0.00     0.000 A 
ATOM     21  C   UNL A   1      37.712  21.843  25.023  1.00  0.00     0.000 A 
ATOM     22  C   UNL A   1      38.009  22.827  25.963  1.00  0.00     0.000 A 
ENDBRANCH  16  17
ENDBRANCH   7  16
ENDBRANCH   4   7
ENDBRANCH   2   3
ENDBRANCH   1   2
BRANCH   1  23
ATOM     23  C   UNL A   1      33.535  28.576  27.105  1.00  0.00     0.118 C 
BRANCH  23  24
ATOM     24  N   UNL A   1      33.575  29.970  27.565  1.00  0.00    -0.352 N 
ATOM     25  C   UNL A   1      34.544  30.661  28.249  1.00  0.00     0.251 C 
ATOM     26  H   UNL A   1      32.771  30.497  27.347  1.00  0.00     0.163 HD
ATOM     27  O   UNL A   1      34.284  31.749  28.754  1.00  0.00    -0.269 OA
BRANCH  25  28
ATOM     28  C   UNL A   1      35.890  30.075  28.374  1.00  0.00     0.039 A 
ATOM     29  C   UNL A   1      36.787  30.142  27.307  1.00  0.00     0.014 A 
ATOM     30  C   UNL A   1      36.273  29.496  29.582  1.00  0.00     0.014 A 
ATOM     31  C   UNL A   1      38.103  29.716  27.496  1.00  0.00     0.010 A 
ATOM     32  C   UNL A   1      37.606  29.218  29.812  1.00  0.00     0.010 A 
ATOM     33  C   UNL A   1      38.535  29.306  28.768  1.00  0.00    -0.014 A 
BRANCH  33  34
ATOM     34  C   UNL A   1      39.944  28.942  29.052  1.00  0.00     0.031 A 
ATOM     35  C   UNL A   1      40.873  29.983  29.622  1.00  0.00     0.074 A 
ATOM     36  C   UNL A   1      40.409  27.731  28.688  1.00  0.00     0.049 A 
ATOM     37  N   UNL A   1      42.168  29.931  29.793  1.00  0.00    -0.248 NA
ATOM     38  C   UNL A   1      40.274  31.277  29.996  1.00  0.00     0.031 C 
ATOM     39  C   UNL A   1      39.619  26.672  28.053  1.00  0.00     0.029 A 
ATOM     40  N   UNL A   1      41.665  27.191  28.784  1.00  0.00    -0.354 N 
ATOM     41  C   UNL A   1      42.535  31.190  30.254  1.00  0.00     0.074 A 
ATOM     42  C   UNL A   1      41.344  32.006  30.268  1.00  0.00     0.031 C 
ATOM     43  C   UNL A   1      40.400  25.599  27.850  1.00  0.00     0.029 A 
ATOM     44  C   UNL A   1      41.755  25.908  28.295  1.00  0.00     0.049 A 
ATOM     45  H   UNL A   1      42.431  27.675  29.168  1.00  0.00     0.167 HD
ATOM     46  C   UNL A   1      43.753  31.615  30.666  1.00  0.00     0.037 A 
ATOM     47  C   UNL A   1      42.813  25.080  28.211  1.00  0.00     0.037 A 
ATOM     48  C   UNL A   1      44.916  30.772  30.706  1.00  0.00     0.049 A 
ATOM     49  C   UNL A   1      44.145  25.559  28.718  1.00  0.00     0.074 A 
ATOM     50  C   UNL A   1      46.178  31.068  31.184  1.00  0.00     0.029 A 
ATOM     51  N   UNL A   1      44.952  29.458  30.259  1.00  0.00    -0.354 N 
ATOM     52  N   UNL A   1      44.464  26.729  29.219  1.00  0.00    -0.248 NA
ATOM     53  C   UNL A   1      45.261  24.606  28.658  1.00  0.00     0.031 C 
ATOM     54  C   UNL A   1      46.989  29.945  30.992  1.00  0.00     0.029 A 
ATOM     55  C   UNL A   1      46.220  28.934  30.437  1.00  0.00     0.049 A 
ATOM     56  H   UNL A   1      44.189  28.972  29.872  1.00  0.00     0.167 HD
ATOM     57  C   UNL A   1      45.810  26.646  29.556  1.00  0.00     0.074 A 
ATOM     58  C   UNL A   1      46.240  25.304  29.216  1.00  0.00     0.031 C 
ATOM     59  C   UNL A   1      46.617  27.591  30.097  1.00  0.00     0.037 A 
BRANCH  46  60
ATOM     60  C   UNL A   1      43.875  33.043  31.125  1.00  0.00     0.058 A 
ATOM     61  C   UNL A   1      44.004  34.104  30.213  1.00  0.00     0.135 A 
ATOM     62  C   UNL A   1      43.841  33.360  32.492  1.00  0.00     0.135 A 
ATOM     63  F   UNL A   1      44.061  33.858  28.894  1.00  0.00    -0.206 F 
ATOM     64  C   UNL A   1      44.132  35.421  30.639  1.00  0.00     0.059 A 
ATOM     65  C   UNL A   1      43.935  34.676  32.941  1.00  0.00     0.059 A 
ATOM     66  F   UNL A   1      43.721  32.388  33.410  1.00  0.00    -0.206 F 
ATOM     67  C   UNL A   1      44.097  35.697  32.005  1.00  0.00     0.060 A 
BRANCH  67  68
ATOM     68  S   UNL A   1      44.257  37.414  32.540  1.00  0.00     0.124 S 
ATOM     69  O   UNL A   1      44.170  38.124  31.268  1.00  0.00    -0.237 OA
ATOM     70  O   UNL A   1      43.112  37.570  33.432  1.00  0.00    -0.237 OA
ATOM     71  O   UNL A   1      45.564  37.448  33.190  1.00  0.00    -0.744 OA
ENDBRANCH  67  68
ENDBRANCH  46  60
BRANCH  47  72
ATOM     72  C   UNL A   1      42.645  23.709  27.659  1.00  0.00     0.058 A 
ATOM     73  C   UNL A   1      42.423  22.616  28.511  1.00  0.00     0.135 A 
ATOM     74  C   UNL A   1      42.677  23.464  26.278  1.00  0.00     0.135 A 
ATOM     75  F   UNL A   1      42.386  22.799  29.839  1.00  0.00    -0.206 F 
ATOM     76  C   UNL A   1      42.260  21.326  28.016  1.00  0.00     0.059 A 
ATOM     77  C   UNL A   1      42.490  22.186  25.758  1.00  0.00     0.059 A 
ATOM     78  F   UNL A   1      42.863  24.478  25.419  1.00  0.00    -0.206 F 
ATOM     79  C   UNL A   1      42.292  21.122  26.635  1.00  0.00     0.060 A 
BRANCH  79  80
ATOM     80  S   UNL A   1      42.030  19.451  26.002  1.00  0.00     0.124 S 
ATOM     81  O   UNL A   1      42.471  18.637  27.128  1.00  0.00    -0.237 OA
ATOM     82  O   UNL A   1      40.595  19.447  25.733  1.00  0.00    -0.237 OA
ATOM     83  O   UNL A   1      42.881  19.405  24.817  1.00  0.00    -0.744 OA
ENDBRANCH  79  80
ENDBRANCH  47  72
BRANCH  59  84
ATOM     84  C   UNL A   1      48.038  27.198  30.386  1.00  0.00     0.058 A 
ATOM     85  C   UNL A   1      49.074  27.460  29.477  1.00  0.00     0.135 A 
ATOM     86  C   UNL A   1      48.374  26.606  31.615  1.00  0.00     0.135 A 
ATOM     87  F   UNL A   1      48.803  28.018  28.286  1.00  0.00    -0.206 F 
ATOM     88  C   UNL A   1      50.393  27.128  29.767  1.00  0.00     0.059 A 
ATOM     89  C   UNL A   1      49.689  26.293  31.937  1.00  0.00     0.059 A 
ATOM     90  F   UNL A   1      47.419  26.347  32.524  1.00  0.00    -0.206 F 
ATOM     91  C   UNL A   1      50.690  26.547  31.001  1.00  0.00     0.060 A 
BRANCH  91  92
ATOM     92  S   UNL A   1      52.411  26.156  31.379  1.00  0.00     0.124 S 
ATOM     93  O   UNL A   1      53.011  26.158  30.049  1.00  0.00    -0.237 OA
ATOM     94  O   UNL A   1      52.797  27.260  32.252  1.00  0.00    -0.237 OA
ATOM     95  O   UNL A   1      52.328  24.851  32.029  1.00  0.00    -0.744 OA
ENDBRANCH  91  92
ENDBRANCH  59  84
ENDBRANCH  33  34
ENDBRANCH  25  28
ENDBRANCH  23  24
ENDBRANCH   1  23
TORSDOF 17
ENDMDL
MODEL 2
REMARK VINA RESULT:     -11.1      2.944      9.262
REMARK SMILES CC[C@H]1CCC[C@@H]([C@@H](Cc2ccccc2)C(=O)NCCCNC(=O)c2ccc(-c3c4nc(c(-c5c(F)cc(S(=O)(=O)[O-])cc5F)c5ccc([nH]5)c(-c5c(F)cc(S(=O)(=O)[O-])cc5F)c5nc(c(-c6c(F)cc(S(=O)(=O)[O-])cc6F)c6ccc3[nH]6)C=C5)C=C4)cc2)C1
REMARK SMILES IDX 20 1 19 2 18 3 16 4 17 5 8 7 7 8 3 9 4 10 91 11 5 12 6 13
REMARK SMILES IDX 2 14 1 15 9 16 10 17 11 18 15 19 12 20 14 21 13 22 21 23
REMARK SMILES IDX 22 24 23 25 24 27 25 28 26 29 90 30 27 31 89 32 28 33 29 34
REMARK SMILES IDX 30 35 83 36 31 37 88 38 82 39 84 40 32 41 87 42 81 43 80 44
REMARK SMILES IDX 33 46 67 47 46 48 66 49 47 50 50 51 65 52 85 53 48 54 49 55
REMARK SMILES IDX 64 57 86 58 51 59 34 60 35 61 44 62 36 63 37 64 43 65 45 66
REMARK SMILES IDX 38 67 39 68 40 69 41 70 42 71 68 72 69 73 78 74 70 75 71 76
REMARK SMILES IDX 77 77 79 78 72 79 73 80 74 81 75 82 76 83 52 84 53 85 62 86
REMARK SMILES IDX 54 87 55 88 61 89 63 90 56 91 57 92 58 93 59 94 60 95
REMARK H PARENT 18 6 22 26 84 45 50 56
REMARK Flexibility Score: inf
ROOT
ATOM      1  C   UNL A   1      35.624  23.376  26.013  1.00  0.00     0.042 C 
ENDROOT
BRANCH   1   2
ATOM      2  C   UNL A   1      34.483  24.322  25.732  1.00  0.00     0.117 C 
BRANCH   2   3
ATOM      3  N   UNL A   1      33.341  24.159  26.598  1.00  0.00    -0.356 N 
ATOM      4  C   UNL A   1      32.092  24.670  26.454  1.00  0.00     0.223 C 
ATOM      5  O   UNL A   1      31.189  24.150  27.117  1.00  0.00    -0.275 OA
ATOM      6  H   UNL A   1      33.486  23.604  27.398  1.00  0.00     0.163 HD
BRANCH   4   7
ATOM      7  C   UNL A   1      31.780  25.855  25.531  1.00  0.00     0.086 C 
BRANCH   7   8
ATOM      8  C   UNL A   1      30.999  25.504  24.224  1.00  0.00     0.002 C 
ATOM      9  C   UNL A   1      31.712  27.314  22.453  1.00  0.00    -0.011 C 
ATOM     10  C   UNL A   1      32.482  26.209  21.715  1.00  0.00     0.003 C 
ATOM     11  C   UNL A   1      30.601  26.715  23.342  1.00  0.00     0.008 C 
ATOM     12  C   UNL A   1      32.939  25.076  22.621  1.00  0.00     0.001 C 
ATOM     13  C   UNL A   1      31.747  24.470  23.351  1.00  0.00     0.004 C 
BRANCH   9  14
ATOM     14  C   UNL A   1      32.552  28.355  23.226  1.00  0.00     0.000 C 
ATOM     15  C   UNL A   1      33.990  28.526  22.767  1.00  0.00     0.004 C 
ENDBRANCH   9  14
ENDBRANCH   7   8
BRANCH   7  16
ATOM     16  C   UNL A   1      31.354  27.119  26.330  1.00  0.00     0.049 C 
BRANCH  16  17
ATOM     17  C   UNL A   1      32.371  28.206  26.587  1.00  0.00    -0.047 A 
ATOM     18  C   UNL A   1      33.745  27.919  26.558  1.00  0.00     0.004 A 
ATOM     19  C   UNL A   1      31.970  29.513  26.894  1.00  0.00     0.004 A 
ATOM     20  C   UNL A   1      34.685  28.882  26.942  1.00  0.00     0.000 A 
ATOM     21  C   UNL A   1      32.911  30.483  27.251  1.00  0.00     0.000 A 
ATOM     22  C   UNL A   1      34.265  30.159  27.304  1.00  0.00     0.000 A 
ENDBRANCH  16  17
ENDBRANCH   7  16
ENDBRANCH   4   7
ENDBRANCH   2   3
ENDBRANCH   1   2
BRANCH   1  23
ATOM     23  C   UNL A   1      36.828  23.659  25.132  1.00  0.00     0.118 C 
BRANCH  23  24
ATOM     24  N   UNL A   1      37.967  22.778  25.414  1.00  0.00    -0.352 N 
ATOM     25  C   UNL A   1      39.174  23.038  26.014  1.00  0.00     0.251 C 
ATOM     26  H   UNL A   1      37.845  21.844  25.125  1.00  0.00     0.163 HD
ATOM     27  O   UNL A   1      40.090  22.223  25.936  1.00  0.00    -0.269 OA
BRANCH  25  28
ATOM     28  C   UNL A   1      39.357  24.307  26.740  1.00  0.00     0.039 A 
ATOM     29  C   UNL A   1      38.884  24.444  28.046  1.00  0.00     0.014 A 
ATOM     30  C   UNL A   1      40.045  25.352  26.126  1.00  0.00     0.014 A 
ATOM     31  C   UNL A   1      39.197  25.597  28.767  1.00  0.00     0.010 A 
ATOM     32  C   UNL A   1      40.481  26.419  26.886  1.00  0.00     0.010 A 
ATOM     33  C   UNL A   1      40.048  26.566  28.210  1.00  0.00    -0.014 A 
BRANCH  33  34
ATOM     34  C   UNL A   1      40.498  27.760  28.966  1.00  0.00     0.031 A 
ATOM     35  C   UNL A   1      41.839  27.733  29.654  1.00  0.00     0.074 A 
ATOM     36  C   UNL A   1      39.661  28.803  29.131  1.00  0.00     0.049 A 
ATOM     37  N   UNL A   1      42.354  28.592  30.494  1.00  0.00    -0.248 NA
ATOM     38  C   UNL A   1      42.689  26.553  29.411  1.00  0.00     0.031 C 
ATOM     39  C   UNL A   1      38.307  28.903  28.577  1.00  0.00     0.029 A 
ATOM     40  N   UNL A   1      39.818  29.973  29.827  1.00  0.00    -0.354 N 
ATOM     41  C   UNL A   1      43.561  28.038  30.902  1.00  0.00     0.074 A 
ATOM     42  C   UNL A   1      43.670  26.740  30.279  1.00  0.00     0.031 C 
ATOM     43  C   UNL A   1      37.774  30.085  28.925  1.00  0.00     0.029 A 
ATOM     44  C   UNL A   1      38.725  30.805  29.764  1.00  0.00     0.049 A 
ATOM     45  H   UNL A   1      40.638  30.197  30.324  1.00  0.00     0.167 HD
ATOM     46  C   UNL A   1      44.513  28.581  31.697  1.00  0.00     0.037 A 
ATOM     47  C   UNL A   1      38.514  32.010  30.328  1.00  0.00     0.037 A 
ATOM     48  C   UNL A   1      44.419  29.900  32.259  1.00  0.00     0.049 A 
ATOM     49  C   UNL A   1      39.605  32.613  31.169  1.00  0.00     0.074 A 
ATOM     50  C   UNL A   1      45.357  30.587  33.007  1.00  0.00     0.029 A 
ATOM     51  N   UNL A   1      43.320  30.738  32.123  1.00  0.00    -0.354 N 
ATOM     52  N   UNL A   1      40.773  32.108  31.489  1.00  0.00    -0.248 NA
ATOM     53  C   UNL A   1      39.357  33.952  31.719  1.00  0.00     0.031 C 
ATOM     54  C   UNL A   1      44.811  31.827  33.355  1.00  0.00     0.029 A 
ATOM     55  C   UNL A   1      43.551  31.931  32.785  1.00  0.00     0.049 A 
ATOM     56  H   UNL A   1      42.498  30.516  31.629  1.00  0.00     0.167 HD
ATOM     57  C   UNL A   1      41.409  33.077  32.258  1.00  0.00     0.074 A 
ATOM     58  C   UNL A   1      40.501  34.203  32.340  1.00  0.00     0.031 C 
ATOM     59  C   UNL A   1      42.631  33.039  32.842  1.00  0.00     0.037 A 
BRANCH  46  60
ATOM     60  C   UNL A   1      45.740  27.757  31.981  1.00  0.00     0.058 A 
ATOM     61  C   UNL A   1      46.880  27.824  31.163  1.00  0.00     0.135 A 
ATOM     62  C   UNL A   1      45.785  26.904  33.095  1.00  0.00     0.135 A 
ATOM     63  F   UNL A   1      46.886  28.608  30.073  1.00  0.00    -0.206 F 
ATOM     64  C   UNL A   1      48.006  27.049  31.418  1.00  0.00     0.059 A 
ATOM     65  C   UNL A   1      46.915  26.143  33.388  1.00  0.00     0.059 A 
ATOM     66  F   UNL A   1      44.724  26.797  33.910  1.00  0.00    -0.206 F 
ATOM     67  C   UNL A   1      48.014  26.211  32.533  1.00  0.00     0.060 A 
BRANCH  67  68
ATOM     68  S   UNL A   1      49.488  25.219  32.853  1.00  0.00     0.124 S 
ATOM     69  O   UNL A   1      49.884  24.841  31.499  1.00  0.00    -0.237 OA
ATOM     70  O   UNL A   1      50.365  26.171  33.527  1.00  0.00    -0.237 OA
ATOM     71  O   UNL A   1      48.990  24.129  33.687  1.00  0.00    -0.744 OA
ENDBRANCH  67  68
ENDBRANCH  46  60
BRANCH  47  72
ATOM     72  C   UNL A   1      37.239  32.734  30.083  1.00  0.00     0.058 A 
ATOM     73  C   UNL A   1      36.111  32.490  30.881  1.00  0.00     0.135 A 
ATOM     74  C   UNL A   1      37.123  33.697  29.069  1.00  0.00     0.135 A 
ATOM     75  F   UNL A   1      36.170  31.577  31.863  1.00  0.00    -0.206 F 
ATOM     76  C   UNL A   1      34.909  33.159  30.672  1.00  0.00     0.059 A 
ATOM     77  C   UNL A   1      35.939  34.398  28.856  1.00  0.00     0.059 A 
ATOM     78  F   UNL A   1      38.179  33.985  28.291  1.00  0.00    -0.206 F 
ATOM     79  C   UNL A   1      34.834  34.114  29.657  1.00  0.00     0.060 A 
BRANCH  79  80
ATOM     80  S   UNL A   1      33.283  35.011  29.425  1.00  0.00     0.124 S 
ATOM     81  O   UNL A   1      32.727  34.988  30.772  1.00  0.00    -0.237 OA
ATOM     82  O   UNL A   1      33.749  36.309  28.948  1.00  0.00    -0.237 OA
ATOM     83  O   UNL A   1      32.576  34.205  28.434  1.00  0.00    -0.744 OA
ENDBRANCH  79  80
ENDBRANCH  47  72
BRANCH  59  84
ATOM     84  C   UNL A   1      43.072  34.263  33.594  1.00  0.00     0.058 A 
ATOM     85  C   UNL A   1      43.738  35.319  32.956  1.00  0.00     0.135 A 
ATOM     86  C   UNL A   1      42.767  34.404  34.959  1.00  0.00     0.135 A 
ATOM     87  F   UNL A   1      44.057  35.230  31.655  1.00  0.00    -0.206 F 
ATOM     88  C   UNL A   1      44.109  36.466  33.650  1.00  0.00     0.059 A 
ATOM     89  C   UNL A   1      43.103  35.553  35.664  1.00  0.00     0.059 A 
ATOM     90  F   UNL A   1      42.118  33.425  35.611  1.00  0.00    -0.206 F 
ATOM     91  C   UNL A   1      43.784  36.574  35.004  1.00  0.00     0.060 A 
BRANCH  91  92
ATOM     92  S   UNL A   1      44.238  38.083  35.883  1.00  0.00     0.124 S 
ATOM     93  O   UNL A   1      43.759  39.112  34.966  1.00  0.00    -0.237 OA
ATOM     94  O   UNL A   1      43.497  37.951  37.133  1.00  0.00    -0.237 OA
ATOM     95  O   UNL A   1      45.690  37.980  36.007  1.00  0.00    -0.744 OA
ENDBRANCH  91  92
ENDBRANCH  59  84
ENDBRANCH  33  34
ENDBRANCH  25  28
ENDBRANCH  23  24
ENDBRANCH   1  23
TORSDOF 17
ENDMDL
MODEL 3
REMARK VINA RESULT:     -11.0      2.650      3.425
REMARK SMILES CC[C@H]1CCC[C@@H]([C@@H](Cc2ccccc2)C(=O)NCCCNC(=O)c2ccc(-c3c4nc(c(-c5c(F)cc(S(=O)(=O)[O-])cc5F)c5ccc([nH]5)c(-c5c(F)cc(S(=O)(=O)[O-])cc5F)c5nc(c(-c6c(F)cc(S(=O)(=O)[O-])cc6F)c6ccc3[nH]6)C=C5)C=C4)cc2)C1
REMARK SMILES IDX 20 1 19 2 18 3 16 4 17 5 8 7 7 8 3 9 4 10 91 11 5 12 6 13
REMARK SMILES IDX 2 14 1 15 9 16 10 17 11 18 15 19 12 20 14 21 13 22 21 23
REMARK SMILES IDX 22 24 23 25 24 27 25 28 26 29 90 30 27 31 89 32 28 33 29 34
REMARK SMILES IDX 30 35 83 36 31 37 88 38 82 39 84 40 32 41 87 42 81 43 80 44
REMARK SMILES IDX 33 46 67 47 46 48 66 49 47 50 50 51 65 52 85 53 48 54 49 55
REMARK SMILES IDX 64 57 86 58 51 59 34 60 35 61 44 62 36 63 37 64 43 65 45 66
REMARK SMILES IDX 38 67 39 68 40 69 41 70 42 71 68 72 69 73 78 74 70 75 71 76
REMARK SMILES IDX 77 77 79 78 72 79 73 80 74 81 75 82 76 83 52 84 53 85 62 86
REMARK SMILES IDX 54 87 55 88 61 89 63 90 56 91 57 92 58 93 59 94 60 95
REMARK H PARENT 18 6 22 26 84 45 50 56
REMARK Flexibility Score: inf
ROOT
ATOM      1  C   UNL A   1      33.234  27.582  26.119  1.00  0.00     0.042 C 
ENDROOT
BRANCH   1   2
ATOM      2  C   UNL A   1      33.534  26.270  25.438  1.00  0.00     0.117 C 
BRANCH   2   3
ATOM      3  N   UNL A   1      33.813  26.376  24.026  1.00  0.00    -0.356 N 
ATOM      4  C   UNL A   1      33.863  25.386  23.099  1.00  0.00     0.223 C 
ATOM      5  O   UNL A   1      33.791  25.721  21.912  1.00  0.00    -0.275 OA
ATOM      6  H   UNL A   1      33.990  27.285  23.692  1.00  0.00     0.163 HD
BRANCH   4   7
ATOM      7  C   UNL A   1      34.022  23.906  23.470  1.00  0.00     0.086 C 
BRANCH   7   8
ATOM      8  C   UNL A   1      32.786  23.000  23.167  1.00  0.00     0.002 C 
ATOM      9  C   UNL A   1      32.531  21.413  25.250  1.00  0.00    -0.011 C 
ATOM     10  C   UNL A   1      31.260  22.194  25.619  1.00  0.00     0.003 C 
ATOM     11  C   UNL A   1      32.856  21.565  23.748  1.00  0.00     0.008 C 
ATOM     12  C   UNL A   1      31.258  23.628  25.112  1.00  0.00     0.001 C 
ATOM     13  C   UNL A   1      31.454  23.654  23.602  1.00  0.00     0.004 C 
BRANCH   9  14
ATOM     14  C   UNL A   1      33.780  21.657  26.124  1.00  0.00     0.000 C 
ATOM     15  C   UNL A   1      33.689  22.807  27.112  1.00  0.00     0.004 C 
ENDBRANCH   9  14
ENDBRANCH   7   8
BRANCH   7  16
ATOM     16  C   UNL A   1      35.437  23.367  23.121  1.00  0.00     0.049 C 
BRANCH  16  17
ATOM     17  C   UNL A   1      36.397  23.036  24.240  1.00  0.00    -0.047 A 
ATOM     18  C   UNL A   1      36.690  23.985  25.232  1.00  0.00     0.004 A 
ATOM     19  C   UNL A   1      37.042  21.793  24.296  1.00  0.00     0.004 A 
ATOM     20  C   UNL A   1      37.687  23.741  26.182  1.00  0.00     0.000 A 
ATOM     21  C   UNL A   1      38.018  21.539  25.262  1.00  0.00     0.000 A 
ATOM     22  C   UNL A   1      38.362  22.523  26.186  1.00  0.00     0.000 A 
ENDBRANCH  16  17
ENDBRANCH   7  16
ENDBRANCH   4   7
ENDBRANCH   2   3
ENDBRANCH   1   2
BRANCH   1  23
ATOM     23  C   UNL A   1      34.052  28.723  25.540  1.00  0.00     0.118 C 
BRANCH  23  24
ATOM     24  N   UNL A   1      33.791  30.009  26.198  1.00  0.00    -0.352 N 
ATOM     25  C   UNL A   1      34.372  30.585  27.300  1.00  0.00     0.251 C 
ATOM     26  H   UNL A   1      33.080  30.547  25.780  1.00  0.00     0.163 HD
ATOM     27  O   UNL A   1      33.845  31.556  27.838  1.00  0.00    -0.269 OA
BRANCH  25  28
ATOM     28  C   UNL A   1      35.624  30.019  27.831  1.00  0.00     0.039 A 
ATOM     29  C   UNL A   1      36.823  30.191  27.137  1.00  0.00     0.014 A 
ATOM     30  C   UNL A   1      35.607  29.350  29.053  1.00  0.00     0.014 A 
ATOM     31  C   UNL A   1      38.018  29.778  27.728  1.00  0.00     0.010 A 
ATOM     32  C   UNL A   1      36.797  29.081  29.699  1.00  0.00     0.010 A 
ATOM     33  C   UNL A   1      38.017  29.274  29.039  1.00  0.00    -0.014 A 
BRANCH  33  34
ATOM     34  C   UNL A   1      39.265  28.917  29.756  1.00  0.00     0.031 A 
ATOM     35  C   UNL A   1      39.677  29.719  30.964  1.00  0.00     0.074 A 
ATOM     36  C   UNL A   1      40.076  27.965  29.254  1.00  0.00     0.049 A 
ATOM     37  N   UNL A   1      40.797  29.686  31.635  1.00  0.00    -0.248 NA
ATOM     38  C   UNL A   1      38.723  30.736  31.444  1.00  0.00     0.031 C 
ATOM     39  C   UNL A   1      39.818  27.178  28.044  1.00  0.00     0.029 A 
ATOM     40  N   UNL A   1      41.292  27.506  29.691  1.00  0.00    -0.354 N 
ATOM     41  C   UNL A   1      40.695  30.696  32.585  1.00  0.00     0.074 A 
ATOM     42  C   UNL A   1      39.439  31.372  32.357  1.00  0.00     0.031 C 
ATOM     43  C   UNL A   1      40.826  26.312  27.857  1.00  0.00     0.029 A 
ATOM     44  C   UNL A   1      41.824  26.512  28.902  1.00  0.00     0.049 A 
ATOM     45  H   UNL A   1      41.742  27.855  30.493  1.00  0.00     0.167 HD
ATOM     46  C   UNL A   1      41.555  31.008  33.582  1.00  0.00     0.037 A 
ATOM     47  C   UNL A   1      42.988  25.845  29.010  1.00  0.00     0.037 A 
ATOM     48  C   UNL A   1      42.772  30.286  33.834  1.00  0.00     0.049 A 
ATOM     49  C   UNL A   1      43.906  26.176  30.153  1.00  0.00     0.074 A 
ATOM     50  C   UNL A   1      43.676  30.456  34.866  1.00  0.00     0.029 A 
ATOM     51  N   UNL A   1      43.246  29.244  33.049  1.00  0.00    -0.354 N 
ATOM     52  N   UNL A   1      43.763  27.087  31.087  1.00  0.00    -0.248 NA
ATOM     53  C   UNL A   1      45.139  25.387  30.266  1.00  0.00     0.031 C 
ATOM     54  C   UNL A   1      44.719  29.541  34.683  1.00  0.00     0.029 A 
ATOM     55  C   UNL A   1      44.440  28.770  33.565  1.00  0.00     0.049 A 
ATOM     56  H   UNL A   1      42.800  28.895  32.244  1.00  0.00     0.167 HD
ATOM     57  C   UNL A   1      44.875  26.965  31.912  1.00  0.00     0.074 A 
ATOM     58  C   UNL A   1      45.673  25.881  31.375  1.00  0.00     0.031 C 
ATOM     59  C   UNL A   1      45.208  27.682  33.014  1.00  0.00     0.037 A 
BRANCH  46  60
ATOM     60  C   UNL A   1      41.195  32.161  34.480  1.00  0.00     0.058 A 
ATOM     61  C   UNL A   1      40.439  31.978  35.649  1.00  0.00     0.135 A 
ATOM     62  C   UNL A   1      41.629  33.462  34.180  1.00  0.00     0.135 A 
ATOM     63  F   UNL A   1      39.981  30.759  35.975  1.00  0.00    -0.206 F 
ATOM     64  C   UNL A   1      40.093  33.047  36.469  1.00  0.00     0.059 A 
ATOM     65  C   UNL A   1      41.322  34.543  35.004  1.00  0.00     0.059 A 
ATOM     66  F   UNL A   1      42.353  33.697  33.075  1.00  0.00    -0.206 F 
ATOM     67  C   UNL A   1      40.540  34.326  36.138  1.00  0.00     0.060 A 
BRANCH  67  68
ATOM     68  S   UNL A   1      40.090  35.701  37.218  1.00  0.00     0.124 S 
ATOM     69  O   UNL A   1      41.338  35.923  37.942  1.00  0.00    -0.237 OA
ATOM     70  O   UNL A   1      39.718  36.740  36.263  1.00  0.00    -0.237 OA
ATOM     71  O   UNL A   1      38.991  35.162  38.014  1.00  0.00    -0.744 OA
ENDBRANCH  67  68
ENDBRANCH  46  60
BRANCH  47  72
ATOM     72  C   UNL A   1      43.328  24.777  28.032  1.00  0.00     0.058 A 
ATOM     73  C   UNL A   1      44.154  25.049  26.931  1.00  0.00     0.135 A 
ATOM     74  C   UNL A   1      42.859  23.464  28.186  1.00  0.00     0.135 A 
ATOM     75  F   UNL A   1      44.626  26.290  26.739  1.00  0.00    -0.206 F 
ATOM     76  C   UNL A   1      44.487  24.064  26.007  1.00  0.00     0.059 A 
ATOM     77  C   UNL A   1      43.199  22.455  27.289  1.00  0.00     0.059 A 
ATOM     78  F   UNL A   1      42.084  23.144  29.235  1.00  0.00    -0.206 F 
ATOM     79  C   UNL A   1      44.006  22.767  26.196  1.00  0.00     0.060 A 
BRANCH  79  80
ATOM     80  S   UNL A   1      44.484  21.486  25.016  1.00  0.00     0.124 S 
ATOM     81  O   UNL A   1      45.856  21.210  25.423  1.00  0.00    -0.237 OA
ATOM     82  O   UNL A   1      43.511  20.435  25.296  1.00  0.00    -0.237 OA
ATOM     83  O   UNL A   1      44.328  22.146  23.724  1.00  0.00    -0.744 OA
ENDBRANCH  79  80
ENDBRANCH  47  72
BRANCH  59  84
ATOM     84  C   UNL A   1      46.471  27.297  33.730  1.00  0.00     0.058 A 
ATOM     85  C   UNL A   1      46.480  26.310  34.726  1.00  0.00     0.135 A 
ATOM     86  C   UNL A   1      47.696  27.882  33.369  1.00  0.00     0.135 A 
ATOM     87  F   UNL A   1      45.334  25.726  35.111  1.00  0.00    -0.206 F 
ATOM     88  C   UNL A   1      47.660  25.931  35.359  1.00  0.00     0.059 A 
ATOM     89  C   UNL A   1      48.890  27.497  33.968  1.00  0.00     0.059 A 
ATOM     90  F   UNL A   1      47.741  28.822  32.411  1.00  0.00    -0.206 F 
ATOM     91  C   UNL A   1      48.860  26.529  34.970  1.00  0.00     0.060 A 
BRANCH  91  92
ATOM     92  S   UNL A   1      50.387  26.001  35.772  1.00  0.00     0.124 S 
ATOM     93  O   UNL A   1      51.185  27.222  35.717  1.00  0.00    -0.237 OA
ATOM     94  O   UNL A   1      49.923  25.605  37.098  1.00  0.00    -0.237 OA
ATOM     95  O   UNL A   1      50.855  24.907  34.926  1.00  0.00    -0.744 OA
ENDBRANCH  91  92
ENDBRANCH  59  84
ENDBRANCH  33  34
ENDBRANCH  25  28
ENDBRANCH  23  24
ENDBRANCH   1  23
TORSDOF 17
ENDMDL
