MODEL 1
REMARK VINA RESULT:     -14.1      0.000      0.000
REMARK SMILES COc1cc(S(=O)(=O)Nc2cccc(C(=O)NCCCNC(=O)c3ccc(-c4c5nc(c(-c6c(F)cc(S(=O)(=O)[O-])cc6F)c6ccc([nH]6)c(-c6c(F)cc(S(=O)(=O)[O-])cc6F)c6nc(c(-c7c(F)cc(S(=O)(=O)[O-])cc7F)c7ccc4[nH]7)C=C6)C=C5)cc3)c2)c(OC)cc1C
REMARK SMILES IDX 18 1 17 2 15 3 16 4 14 6 10 7 11 8 90 9 12 10 13 11 9 12
REMARK SMILES IDX 6 14 7 15 8 16 5 17 3 18 4 19 95 20 94 21 96 22 91 23 2 24
REMARK SMILES IDX 1 25 92 26 93 27 19 28 20 29 21 30 22 31 23 33 24 34 25 35
REMARK SMILES IDX 89 36 26 37 88 38 27 39 28 40 29 41 82 42 30 43 87 44 81 45
REMARK SMILES IDX 83 46 31 47 86 48 80 49 79 50 32 52 66 53 45 54 65 55 46 56
REMARK SMILES IDX 49 57 64 58 84 59 47 60 48 61 63 63 85 64 50 65 33 66 34 67
REMARK SMILES IDX 43 68 35 69 36 70 42 71 44 72 37 73 38 74 39 75 40 76 41 77
REMARK SMILES IDX 67 78 68 79 77 80 69 81 70 82 76 83 78 84 71 85 72 86 73 87
REMARK SMILES IDX 74 88 75 89 51 90 52 91 61 92 53 93 54 94 60 95 62 96 55 97
REMARK SMILES IDX 56 98 57 99 58 100 59 101
REMARK H PARENT 17 5 9 13 21 32 83 51 49 62
REMARK Flexibility Score: inf
ROOT
ATOM      1  C   UNL A   1      36.862  21.404  25.354  1.00  0.00     0.118 C 
ENDROOT
BRANCH   1   2
ATOM      2  N   UNL A   1      35.885  21.563  26.422  1.00  0.00    -0.352 N 
ATOM      3  C   UNL A   1      34.520  21.412  26.422  1.00  0.00     0.251 C 
ATOM      4  O   UNL A   1      33.913  21.429  27.491  1.00  0.00    -0.269 OA
ATOM      5  H   UNL A   1      36.268  21.823  27.291  1.00  0.00     0.163 HD
BRANCH   3   6
ATOM      6  C   UNL A   1      33.753  21.142  25.180  1.00  0.00     0.041 A 
ATOM      7  C   UNL A   1      32.702  22.097  23.205  1.00  0.00     0.050 A 
ATOM      8  C   UNL A   1      32.260  20.832  22.825  1.00  0.00     0.027 A 
ATOM      9  C   UNL A   1      33.510  22.233  24.339  1.00  0.00     0.040 A 
ATOM     10  C   UNL A   1      32.546  19.728  23.630  1.00  0.00     0.003 A 
ATOM     11  C   UNL A   1      33.283  19.883  24.807  1.00  0.00     0.014 A 
BRANCH   7  12
ATOM     12  N   UNL A   1      32.364  23.299  22.524  1.00  0.00    -0.279 N 
ATOM     13  H   UNL A   1      31.534  23.303  21.995  1.00  0.00     0.180 HD
BRANCH  12  14
ATOM     14  S   UNL A   1      33.268  24.702  22.552  1.00  0.00     0.265 S 
ATOM     15  O   UNL A   1      33.037  25.397  21.298  1.00  0.00    -0.201 OA
ATOM     16  O   UNL A   1      34.612  24.291  22.910  1.00  0.00    -0.201 OA
BRANCH  14  17
ATOM     17  C   UNL A   1      32.730  25.808  23.838  1.00  0.00     0.133 A 
ATOM     18  C   UNL A   1      31.221  26.012  25.735  1.00  0.00     0.123 A 
ATOM     19  C   UNL A   1      31.669  25.312  24.619  1.00  0.00     0.073 A 
ATOM     20  C   UNL A   1      31.910  27.142  26.172  1.00  0.00    -0.005 A 
ATOM     21  C   UNL A   1      32.911  27.673  25.344  1.00  0.00     0.055 A 
ATOM     22  C   UNL A   1      31.602  27.830  27.470  1.00  0.00     0.048 C 
ATOM     23  C   UNL A   1      33.295  27.048  24.144  1.00  0.00     0.139 A 
BRANCH  18  24
ATOM     24  O   UNL A   1      30.131  25.502  26.385  1.00  0.00    -0.496 OA
ATOM     25  C   UNL A   1      30.226  24.082  26.536  1.00  0.00     0.278 C 
ENDBRANCH  18  24
BRANCH  23  26
ATOM     26  O   UNL A   1      34.141  27.638  23.253  1.00  0.00    -0.495 OA
ATOM     27  C   UNL A   1      33.704  28.840  22.620  1.00  0.00     0.278 C 
ENDBRANCH  23  26
ENDBRANCH  14  17
ENDBRANCH  12  14
ENDBRANCH   7  12
ENDBRANCH   3   6
ENDBRANCH   1   2
BRANCH   1  28
ATOM     28  C   UNL A   1      37.411  22.736  24.857  1.00  0.00     0.042 C 
BRANCH  28  29
ATOM     29  C   UNL A   1      37.951  23.617  25.974  1.00  0.00     0.118 C 
BRANCH  29  30
ATOM     30  N   UNL A   1      39.338  23.290  26.301  1.00  0.00    -0.352 N 
ATOM     31  C   UNL A   1      40.285  24.103  26.900  1.00  0.00     0.251 C 
ATOM     32  H   UNL A   1      39.635  22.381  26.066  1.00  0.00     0.163 HD
ATOM     33  O   UNL A   1      41.424  23.739  27.109  1.00  0.00    -0.269 OA
BRANCH  31  34
ATOM     34  C   UNL A   1      39.817  25.433  27.329  1.00  0.00     0.039 A 
ATOM     35  C   UNL A   1      40.254  26.544  26.603  1.00  0.00     0.014 A 
ATOM     36  C   UNL A   1      39.240  25.561  28.589  1.00  0.00     0.014 A 
ATOM     37  C   UNL A   1      40.269  27.790  27.221  1.00  0.00     0.010 A 
ATOM     38  C   UNL A   1      39.343  26.780  29.230  1.00  0.00     0.010 A 
ATOM     39  C   UNL A   1      39.900  27.882  28.563  1.00  0.00    -0.014 A 
BRANCH  39  40
ATOM     40  C   UNL A   1      40.098  29.081  29.374  1.00  0.00     0.031 A 
ATOM     41  C   UNL A   1      39.054  30.132  29.377  1.00  0.00     0.074 A 
ATOM     42  C   UNL A   1      41.185  29.192  30.167  1.00  0.00     0.049 A 
ATOM     43  N   UNL A   1      39.192  31.317  29.863  1.00  0.00    -0.248 NA
ATOM     44  C   UNL A   1      37.752  29.914  28.761  1.00  0.00     0.031 C 
ATOM     45  C   UNL A   1      41.405  30.158  31.239  1.00  0.00     0.029 A 
ATOM     46  N   UNL A   1      42.432  28.580  29.990  1.00  0.00    -0.354 N 
ATOM     47  C   UNL A   1      37.964  31.945  29.827  1.00  0.00     0.074 A 
ATOM     48  C   UNL A   1      37.108  31.031  29.108  1.00  0.00     0.031 C 
ATOM     49  C   UNL A   1      42.725  30.296  31.430  1.00  0.00     0.029 A 
ATOM     50  C   UNL A   1      43.396  29.531  30.395  1.00  0.00     0.049 A 
ATOM     51  H   UNL A   1      42.602  27.671  29.651  1.00  0.00     0.167 HD
ATOM     52  C   UNL A   1      37.800  33.129  30.486  1.00  0.00     0.037 A 
ATOM     53  C   UNL A   1      44.270  30.050  29.482  1.00  0.00     0.037 A 
ATOM     54  C   UNL A   1      39.090  33.661  30.928  1.00  0.00     0.049 A 
ATOM     55  C   UNL A   1      44.086  31.530  29.208  1.00  0.00     0.074 A 
ATOM     56  C   UNL A   1      39.816  33.611  32.107  1.00  0.00     0.029 A 
ATOM     57  N   UNL A   1      39.970  34.113  29.959  1.00  0.00    -0.354 N 
ATOM     58  N   UNL A   1      43.173  32.278  29.767  1.00  0.00    -0.248 NA
ATOM     59  C   UNL A   1      44.884  32.270  28.228  1.00  0.00     0.031 C 
ATOM     60  C   UNL A   1      41.170  33.947  31.806  1.00  0.00     0.029 A 
ATOM     61  C   UNL A   1      41.257  34.218  30.453  1.00  0.00     0.049 A 
ATOM     62  H   UNL A   1      39.712  34.332  29.035  1.00  0.00     0.167 HD
ATOM     63  C   UNL A   1      43.216  33.530  29.218  1.00  0.00     0.074 A 
ATOM     64  C   UNL A   1      44.316  33.486  28.273  1.00  0.00     0.031 C 
ATOM     65  C   UNL A   1      42.335  34.522  29.530  1.00  0.00     0.037 A 
BRANCH  52  66
ATOM     66  C   UNL A   1      36.458  33.703  30.900  1.00  0.00     0.058 A 
ATOM     67  C   UNL A   1      35.548  34.166  29.923  1.00  0.00     0.135 A 
ATOM     68  C   UNL A   1      36.030  33.899  32.228  1.00  0.00     0.135 A 
ATOM     69  F   UNL A   1      35.772  33.976  28.615  1.00  0.00    -0.206 F 
ATOM     70  C   UNL A   1      34.374  34.859  30.239  1.00  0.00     0.059 A 
ATOM     71  C   UNL A   1      34.896  34.643  32.571  1.00  0.00     0.059 A 
ATOM     72  F   UNL A   1      36.653  33.322  33.261  1.00  0.00    -0.206 F 
ATOM     73  C   UNL A   1      34.075  35.129  31.567  1.00  0.00     0.060 A 
BRANCH  73  74
ATOM     74  S   UNL A   1      32.610  36.101  31.963  1.00  0.00     0.124 S 
ATOM     75  O   UNL A   1      32.242  36.647  30.661  1.00  0.00    -0.237 OA
ATOM     76  O   UNL A   1      31.712  35.088  32.506  1.00  0.00    -0.237 OA
ATOM     77  O   UNL A   1      33.102  37.081  32.927  1.00  0.00    -0.744 OA
ENDBRANCH  73  74
ENDBRANCH  52  66
BRANCH  53  78
ATOM     78  C   UNL A   1      44.750  29.026  28.513  1.00  0.00     0.058 A 
ATOM     79  C   UNL A   1      44.157  29.020  27.233  1.00  0.00     0.135 A 
ATOM     80  C   UNL A   1      45.998  28.406  28.648  1.00  0.00     0.135 A 
ATOM     81  F   UNL A   1      42.949  29.581  27.050  1.00  0.00    -0.206 F 
ATOM     82  C   UNL A   1      44.848  28.591  26.107  1.00  0.00     0.059 A 
ATOM     83  C   UNL A   1      46.705  27.955  27.531  1.00  0.00     0.059 A 
ATOM     84  F   UNL A   1      46.608  28.368  29.843  1.00  0.00    -0.206 F 
ATOM     85  C   UNL A   1      46.150  28.126  26.261  1.00  0.00     0.060 A 
BRANCH  85  86
ATOM     86  S   UNL A   1      47.154  27.942  24.766  1.00  0.00     0.124 S 
ATOM     87  O   UNL A   1      48.503  28.141  25.280  1.00  0.00    -0.237 OA
ATOM     88  O   UNL A   1      46.835  26.575  24.355  1.00  0.00    -0.237 OA
ATOM     89  O   UNL A   1      46.648  28.993  23.891  1.00  0.00    -0.744 OA
ENDBRANCH  85  86
ENDBRANCH  53  78
BRANCH  65  90
ATOM     90  C   UNL A   1      42.459  35.891  28.947  1.00  0.00     0.058 A 
ATOM     91  C   UNL A   1      41.908  36.196  27.693  1.00  0.00     0.135 A 
ATOM     92  C   UNL A   1      43.228  36.891  29.570  1.00  0.00     0.135 A 
ATOM     93  F   UNL A   1      41.181  35.283  27.028  1.00  0.00    -0.206 F 
ATOM     94  C   UNL A   1      42.091  37.439  27.093  1.00  0.00     0.059 A 
ATOM     95  C   UNL A   1      43.454  38.127  28.974  1.00  0.00     0.059 A 
ATOM     96  F   UNL A   1      43.759  36.692  30.785  1.00  0.00    -0.206 F 
ATOM     97  C   UNL A   1      42.867  38.399  27.741  1.00  0.00     0.060 A 
BRANCH  97  98
ATOM     98  S   UNL A   1      43.132  40.002  26.959  1.00  0.00     0.124 S 
ATOM     99  O   UNL A   1      44.295  39.760  26.109  1.00  0.00    -0.237 OA
ATOM    100  O   UNL A   1      41.867  40.193  26.258  1.00  0.00    -0.237 OA
ATOM    101  O   UNL A   1      43.367  40.890  28.093  1.00  0.00    -0.744 OA
ENDBRANCH  97  98
ENDBRANCH  65  90
ENDBRANCH  39  40
ENDBRANCH  31  34
ENDBRANCH  29  30
ENDBRANCH  28  29
ENDBRANCH   1  28
TORSDOF 18
ENDMDL
MODEL 2
REMARK VINA RESULT:     -13.9      1.134      2.002
REMARK SMILES COc1cc(S(=O)(=O)Nc2cccc(C(=O)NCCCNC(=O)c3ccc(-c4c5nc(c(-c6c(F)cc(S(=O)(=O)[O-])cc6F)c6ccc([nH]6)c(-c6c(F)cc(S(=O)(=O)[O-])cc6F)c6nc(c(-c7c(F)cc(S(=O)(=O)[O-])cc7F)c7ccc4[nH]7)C=C6)C=C5)cc3)c2)c(OC)cc1C
REMARK SMILES IDX 18 1 17 2 15 3 16 4 14 6 10 7 11 8 90 9 12 10 13 11 9 12
REMARK SMILES IDX 6 14 7 15 8 16 5 17 3 18 4 19 95 20 94 21 96 22 91 23 2 24
REMARK SMILES IDX 1 25 92 26 93 27 19 28 20 29 21 30 22 31 23 33 24 34 25 35
REMARK SMILES IDX 89 36 26 37 88 38 27 39 28 40 29 41 82 42 30 43 87 44 81 45
REMARK SMILES IDX 83 46 31 47 86 48 80 49 79 50 32 52 66 53 45 54 65 55 46 56
REMARK SMILES IDX 49 57 64 58 84 59 47 60 48 61 63 63 85 64 50 65 33 66 34 67
REMARK SMILES IDX 43 68 35 69 36 70 42 71 44 72 37 73 38 74 39 75 40 76 41 77
REMARK SMILES IDX 67 78 68 79 77 80 69 81 70 82 76 83 78 84 71 85 72 86 73 87
REMARK SMILES IDX 74 88 75 89 51 90 52 91 61 92 53 93 54 94 60 95 62 96 55 97
REMARK SMILES IDX 56 98 57 99 58 100 59 101
REMARK H PARENT 17 5 9 13 21 32 83 51 49 62
REMARK Flexibility Score: inf
ROOT
ATOM      1  C   UNL A   1      36.351  22.149  24.666  1.00  0.00     0.118 C 
ENDROOT
BRANCH   1   2
ATOM      2  N   UNL A   1      35.663  20.867  24.621  1.00  0.00    -0.352 N 
ATOM      3  C   UNL A   1      34.423  20.495  25.077  1.00  0.00     0.251 C 
ATOM      4  O   UNL A   1      33.976  19.390  24.773  1.00  0.00    -0.269 OA
ATOM      5  H   UNL A   1      36.174  20.144  24.190  1.00  0.00     0.163 HD
BRANCH   3   6
ATOM      6  C   UNL A   1      33.559  21.414  25.860  1.00  0.00     0.041 A 
ATOM      7  C   UNL A   1      31.710  22.993  25.797  1.00  0.00     0.050 A 
ATOM      8  C   UNL A   1      31.866  23.235  27.161  1.00  0.00     0.027 A 
ATOM      9  C   UNL A   1      32.507  22.028  25.172  1.00  0.00     0.040 A 
ATOM     10  C   UNL A   1      32.878  22.582  27.867  1.00  0.00     0.003 A 
ATOM     11  C   UNL A   1      33.726  21.681  27.218  1.00  0.00     0.014 A 
BRANCH   7  12
ATOM     12  N   UNL A   1      30.794  23.691  24.964  1.00  0.00    -0.279 N 
ATOM     13  H   UNL A   1      30.453  23.220  24.169  1.00  0.00     0.180 HD
BRANCH  12  14
ATOM     14  S   UNL A   1      30.252  25.248  25.230  1.00  0.00     0.265 S 
ATOM     15  O   UNL A   1      29.522  25.249  26.485  1.00  0.00    -0.201 OA
ATOM     16  O   UNL A   1      29.581  25.640  24.005  1.00  0.00    -0.201 OA
BRANCH  14  17
ATOM     17  C   UNL A   1      31.601  26.389  25.441  1.00  0.00     0.133 A 
ATOM     18  C   UNL A   1      32.342  28.326  26.714  1.00  0.00     0.123 A 
ATOM     19  C   UNL A   1      31.341  27.427  26.355  1.00  0.00     0.073 A 
ATOM     20  C   UNL A   1      33.649  28.124  26.276  1.00  0.00    -0.005 A 
ATOM     21  C   UNL A   1      33.880  27.139  25.303  1.00  0.00     0.055 A 
ATOM     22  C   UNL A   1      34.808  28.936  26.776  1.00  0.00     0.048 C 
ATOM     23  C   UNL A   1      32.855  26.300  24.833  1.00  0.00     0.139 A 
BRANCH  18  24
ATOM     24  O   UNL A   1      31.979  29.353  27.542  1.00  0.00    -0.496 OA
ATOM     25  C   UNL A   1      31.762  30.565  26.812  1.00  0.00     0.278 C 
ENDBRANCH  18  24
BRANCH  23  26
ATOM     26  O   UNL A   1      33.028  25.459  23.774  1.00  0.00    -0.495 OA
ATOM     27  C   UNL A   1      34.313  24.861  23.605  1.00  0.00     0.278 C 
ENDBRANCH  23  26
ENDBRANCH  14  17
ENDBRANCH  12  14
ENDBRANCH   7  12
ENDBRANCH   3   6
ENDBRANCH   1   2
BRANCH   1  28
ATOM     28  C   UNL A   1      37.194  22.320  25.925  1.00  0.00     0.042 C 
BRANCH  28  29
ATOM     29  C   UNL A   1      38.079  23.558  25.891  1.00  0.00     0.118 C 
BRANCH  29  30
ATOM     30  N   UNL A   1      39.464  23.245  26.239  1.00  0.00    -0.352 N 
ATOM     31  C   UNL A   1      40.399  24.073  26.834  1.00  0.00     0.251 C 
ATOM     32  H   UNL A   1      39.768  22.333  26.024  1.00  0.00     0.163 HD
ATOM     33  O   UNL A   1      41.539  23.719  27.062  1.00  0.00    -0.269 OA
BRANCH  31  34
ATOM     34  C   UNL A   1      39.920  25.407  27.234  1.00  0.00     0.039 A 
ATOM     35  C   UNL A   1      40.394  26.512  26.522  1.00  0.00     0.014 A 
ATOM     36  C   UNL A   1      39.287  25.546  28.466  1.00  0.00     0.014 A 
ATOM     37  C   UNL A   1      40.388  27.762  27.133  1.00  0.00     0.010 A 
ATOM     38  C   UNL A   1      39.368  26.768  29.104  1.00  0.00     0.010 A 
ATOM     39  C   UNL A   1      39.960  27.864  28.457  1.00  0.00    -0.014 A 
BRANCH  39  40
ATOM     40  C   UNL A   1      40.127  29.066  29.269  1.00  0.00     0.031 A 
ATOM     41  C   UNL A   1      39.084  30.117  29.229  1.00  0.00     0.074 A 
ATOM     42  C   UNL A   1      41.183  29.181  30.102  1.00  0.00     0.049 A 
ATOM     43  N   UNL A   1      39.203  31.305  29.713  1.00  0.00    -0.248 NA
ATOM     44  C   UNL A   1      37.806  29.897  28.565  1.00  0.00     0.031 C 
ATOM     45  C   UNL A   1      41.363  30.152  31.177  1.00  0.00     0.029 A 
ATOM     46  N   UNL A   1      42.437  28.569  29.974  1.00  0.00    -0.354 N 
ATOM     47  C   UNL A   1      37.978  31.932  29.629  1.00  0.00     0.074 A 
ATOM     48  C   UNL A   1      37.150  31.014  28.883  1.00  0.00     0.031 C 
ATOM     49  C   UNL A   1      42.675  30.291  31.417  1.00  0.00     0.029 A 
ATOM     50  C   UNL A   1      43.385  29.521  30.410  1.00  0.00     0.049 A 
ATOM     51  H   UNL A   1      42.619  27.658  29.645  1.00  0.00     0.167 HD
ATOM     52  C   UNL A   1      37.789  33.119  30.276  1.00  0.00     0.037 A 
ATOM     53  C   UNL A   1      44.293  30.037  29.528  1.00  0.00     0.037 A 
ATOM     54  C   UNL A   1      39.062  33.654  30.764  1.00  0.00     0.049 A 
ATOM     55  C   UNL A   1      44.118  31.515  29.241  1.00  0.00     0.074 A 
ATOM     56  C   UNL A   1      39.743  33.609  31.969  1.00  0.00     0.029 A 
ATOM     57  N   UNL A   1      39.978  34.101  29.826  1.00  0.00    -0.354 N 
ATOM     58  N   UNL A   1      43.185  32.266  29.762  1.00  0.00    -0.248 NA
ATOM     59  C   UNL A   1      44.953  32.251  28.288  1.00  0.00     0.031 C 
ATOM     60  C   UNL A   1      41.108  33.943  31.717  1.00  0.00     0.029 A 
ATOM     61  C   UNL A   1      41.245  34.208  30.367  1.00  0.00     0.049 A 
ATOM     62  H   UNL A   1      39.754  34.316  28.892  1.00  0.00     0.167 HD
ATOM     63  C   UNL A   1      43.249  33.515  29.209  1.00  0.00     0.074 A 
ATOM     64  C   UNL A   1      44.383  33.467  28.306  1.00  0.00     0.031 C 
ATOM     65  C   UNL A   1      42.357  34.509  29.483  1.00  0.00     0.037 A 
BRANCH  52  66
ATOM     66  C   UNL A   1      36.433  33.695  30.637  1.00  0.00     0.058 A 
ATOM     67  C   UNL A   1      35.576  34.189  29.627  1.00  0.00     0.135 A 
ATOM     68  C   UNL A   1      35.940  33.862  31.946  1.00  0.00     0.135 A 
ATOM     69  F   UNL A   1      35.864  34.029  28.328  1.00  0.00    -0.206 F 
ATOM     70  C   UNL A   1      34.394  34.885  29.902  1.00  0.00     0.059 A 
ATOM     71  C   UNL A   1      34.797  34.608  32.251  1.00  0.00     0.059 A 
ATOM     72  F   UNL A   1      36.507  33.254  32.994  1.00  0.00    -0.206 F 
ATOM     73  C   UNL A   1      34.031  35.125  31.219  1.00  0.00     0.060 A 
BRANCH  73  74
ATOM     74  S   UNL A   1      32.556  36.100  31.567  1.00  0.00     0.124 S 
ATOM     75  O   UNL A   1      32.042  36.369  30.227  1.00  0.00    -0.237 OA
ATOM     76  O   UNL A   1      31.767  35.179  32.378  1.00  0.00    -0.237 OA
ATOM     77  O   UNL A   1      33.076  37.267  32.274  1.00  0.00    -0.744 OA
ENDBRANCH  73  74
ENDBRANCH  52  66
BRANCH  53  78
ATOM     78  C   UNL A   1      44.808  29.008  28.582  1.00  0.00     0.058 A 
ATOM     79  C   UNL A   1      44.294  29.024  27.269  1.00  0.00     0.135 A 
ATOM     80  C   UNL A   1      46.032  28.360  28.789  1.00  0.00     0.135 A 
ATOM     81  F   UNL A   1      43.113  29.613  27.017  1.00  0.00    -0.206 F 
ATOM     82  C   UNL A   1      45.044  28.586  26.184  1.00  0.00     0.059 A 
ATOM     83  C   UNL A   1      46.796  27.900  27.713  1.00  0.00     0.059 A 
ATOM     84  F   UNL A   1      46.566  28.301  30.018  1.00  0.00    -0.206 F 
ATOM     85  C   UNL A   1      46.323  28.091  26.413  1.00  0.00     0.060 A 
BRANCH  85  86
ATOM     86  S   UNL A   1      47.413  27.894  24.982  1.00  0.00     0.124 S 
ATOM     87  O   UNL A   1      48.676  28.418  25.487  1.00  0.00    -0.237 OA
ATOM     88  O   UNL A   1      47.374  26.447  24.770  1.00  0.00    -0.237 OA
ATOM     89  O   UNL A   1      46.761  28.695  23.952  1.00  0.00    -0.744 OA
ENDBRANCH  85  86
ENDBRANCH  53  78
BRANCH  65  90
ATOM     90  C   UNL A   1      42.502  35.875  28.899  1.00  0.00     0.058 A 
ATOM     91  C   UNL A   1      43.168  36.893  29.598  1.00  0.00     0.135 A 
ATOM     92  C   UNL A   1      41.881  36.228  27.688  1.00  0.00     0.135 A 
ATOM     93  F   UNL A   1      43.766  36.635  30.772  1.00  0.00    -0.206 F 
ATOM     94  C   UNL A   1      43.235  38.196  29.110  1.00  0.00     0.059 A 
ATOM     95  C   UNL A   1      41.903  37.530  27.199  1.00  0.00     0.059 A 
ATOM     96  F   UNL A   1      41.254  35.306  26.941  1.00  0.00    -0.206 F 
ATOM     97  C   UNL A   1      42.598  38.506  27.909  1.00  0.00     0.060 A 
BRANCH  97  98
ATOM     98  S   UNL A   1      42.655  40.196  27.284  1.00  0.00     0.124 S 
ATOM     99  O   UNL A   1      43.366  40.050  26.017  1.00  0.00    -0.237 OA
ATOM    100  O   UNL A   1      41.234  40.511  27.177  1.00  0.00    -0.237 OA
ATOM    101  O   UNL A   1      43.385  40.911  28.326  1.00  0.00    -0.744 OA
ENDBRANCH  97  98
ENDBRANCH  65  90
ENDBRANCH  39  40
ENDBRANCH  31  34
ENDBRANCH  29  30
ENDBRANCH  28  29
ENDBRANCH   1  28
TORSDOF 18
ENDMDL
MODEL 3
REMARK VINA RESULT:     -13.8      1.058      1.906
REMARK SMILES COc1cc(S(=O)(=O)Nc2cccc(C(=O)NCCCNC(=O)c3ccc(-c4c5nc(c(-c6c(F)cc(S(=O)(=O)[O-])cc6F)c6ccc([nH]6)c(-c6c(F)cc(S(=O)(=O)[O-])cc6F)c6nc(c(-c7c(F)cc(S(=O)(=O)[O-])cc7F)c7ccc4[nH]7)C=C6)C=C5)cc3)c2)c(OC)cc1C
REMARK SMILES IDX 18 1 17 2 15 3 16 4 14 6 10 7 11 8 90 9 12 10 13 11 9 12
REMARK SMILES IDX 6 14 7 15 8 16 5 17 3 18 4 19 95 20 94 21 96 22 91 23 2 24
REMARK SMILES IDX 1 25 92 26 93 27 19 28 20 29 21 30 22 31 23 33 24 34 25 35
REMARK SMILES IDX 89 36 26 37 88 38 27 39 28 40 29 41 82 42 30 43 87 44 81 45
REMARK SMILES IDX 83 46 31 47 86 48 80 49 79 50 32 52 66 53 45 54 65 55 46 56
REMARK SMILES IDX 49 57 64 58 84 59 47 60 48 61 63 63 85 64 50 65 33 66 34 67
REMARK SMILES IDX 43 68 35 69 36 70 42 71 44 72 37 73 38 74 39 75 40 76 41 77
REMARK SMILES IDX 67 78 68 79 77 80 69 81 70 82 76 83 78 84 71 85 72 86 73 87
REMARK SMILES IDX 74 88 75 89 51 90 52 91 61 92 53 93 54 94 60 95 62 96 55 97
REMARK SMILES IDX 56 98 57 99 58 100 59 101
REMARK H PARENT 17 5 9 13 21 32 83 51 49 62
REMARK Flexibility Score: inf
ROOT
ATOM      1  C   UNL A   1      36.576  21.784  24.639  1.00  0.00     0.118 C 
ENDROOT
BRANCH   1   2
ATOM      2  N   UNL A   1      35.884  20.507  24.751  1.00  0.00    -0.352 N 
ATOM      3  C   UNL A   1      34.546  20.214  24.839  1.00  0.00     0.251 C 
ATOM      4  O   UNL A   1      34.180  19.044  24.752  1.00  0.00    -0.269 OA
ATOM      5  H   UNL A   1      36.478  19.722  24.766  1.00  0.00     0.163 HD
BRANCH   3   6
ATOM      6  C   UNL A   1      33.510  21.271  24.953  1.00  0.00     0.041 A 
ATOM      7  C   UNL A   1      32.509  23.239  23.932  1.00  0.00     0.050 A 
ATOM      8  C   UNL A   1      31.651  23.372  25.021  1.00  0.00     0.027 A 
ATOM      9  C   UNL A   1      33.381  22.146  23.869  1.00  0.00     0.040 A 
ATOM     10  C   UNL A   1      31.736  22.469  26.083  1.00  0.00     0.003 A 
ATOM     11  C   UNL A   1      32.667  21.427  26.052  1.00  0.00     0.014 A 
BRANCH   7  12
ATOM     12  N   UNL A   1      32.588  24.171  22.860  1.00  0.00    -0.279 N 
ATOM     13  H   UNL A   1      32.059  23.979  22.052  1.00  0.00     0.180 HD
BRANCH  12  14
ATOM     14  S   UNL A   1      33.509  25.563  22.868  1.00  0.00     0.265 S 
ATOM     15  O   UNL A   1      33.564  26.059  21.504  1.00  0.00    -0.201 OA
ATOM     16  O   UNL A   1      34.735  25.214  23.558  1.00  0.00    -0.201 OA
BRANCH  14  17
ATOM     17  C   UNL A   1      32.749  26.852  23.832  1.00  0.00     0.133 A 
ATOM     18  C   UNL A   1      33.225  28.750  25.278  1.00  0.00     0.123 A 
ATOM     19  C   UNL A   1      33.658  27.632  24.571  1.00  0.00     0.073 A 
ATOM     20  C   UNL A   1      31.908  29.188  25.149  1.00  0.00    -0.005 A 
ATOM     21  C   UNL A   1      30.994  28.360  24.480  1.00  0.00     0.055 A 
ATOM     22  C   UNL A   1      31.425  30.487  25.725  1.00  0.00     0.048 C 
ATOM     23  C   UNL A   1      31.387  27.160  23.863  1.00  0.00     0.139 A 
BRANCH  18  24
ATOM     24  O   UNL A   1      34.160  29.399  26.037  1.00  0.00    -0.496 OA
ATOM     25  C   UNL A   1      34.338  28.766  27.308  1.00  0.00     0.278 C 
ENDBRANCH  18  24
BRANCH  23  26
ATOM     26  O   UNL A   1      30.487  26.269  23.359  1.00  0.00    -0.495 OA
ATOM     27  C   UNL A   1      29.136  26.366  23.808  1.00  0.00     0.278 C 
ENDBRANCH  23  26
ENDBRANCH  14  17
ENDBRANCH  12  14
ENDBRANCH   7  12
ENDBRANCH   3   6
ENDBRANCH   1   2
BRANCH   1  28
ATOM     28  C   UNL A   1      37.029  22.328  25.988  1.00  0.00     0.042 C 
BRANCH  28  29
ATOM     29  C   UNL A   1      37.979  23.511  25.871  1.00  0.00     0.118 C 
BRANCH  29  30
ATOM     30  N   UNL A   1      39.342  23.153  26.259  1.00  0.00    -0.352 N 
ATOM     31  C   UNL A   1      40.300  23.961  26.846  1.00  0.00     0.251 C 
ATOM     32  H   UNL A   1      39.612  22.222  26.081  1.00  0.00     0.163 HD
ATOM     33  O   UNL A   1      41.418  23.569  27.111  1.00  0.00    -0.269 OA
BRANCH  31  34
ATOM     34  C   UNL A   1      39.869  25.328  27.190  1.00  0.00     0.039 A 
ATOM     35  C   UNL A   1      40.430  26.389  26.476  1.00  0.00     0.014 A 
ATOM     36  C   UNL A   1      39.187  25.529  28.387  1.00  0.00     0.014 A 
ATOM     37  C   UNL A   1      40.457  27.654  27.055  1.00  0.00     0.010 A 
ATOM     38  C   UNL A   1      39.299  26.762  28.999  1.00  0.00     0.010 A 
ATOM     39  C   UNL A   1      39.974  27.811  28.354  1.00  0.00    -0.014 A 
BRANCH  39  40
ATOM     40  C   UNL A   1      40.163  29.024  29.144  1.00  0.00     0.031 A 
ATOM     41  C   UNL A   1      39.128  30.084  29.101  1.00  0.00     0.074 A 
ATOM     42  C   UNL A   1      41.231  29.144  29.961  1.00  0.00     0.049 A 
ATOM     43  N   UNL A   1      39.264  31.278  29.564  1.00  0.00    -0.248 NA
ATOM     44  C   UNL A   1      37.839  29.864  28.458  1.00  0.00     0.031 C 
ATOM     45  C   UNL A   1      41.434  30.130  31.017  1.00  0.00     0.029 A 
ATOM     46  N   UNL A   1      42.477  28.518  29.826  1.00  0.00    -0.354 N 
ATOM     47  C   UNL A   1      38.043  31.914  29.486  1.00  0.00     0.074 A 
ATOM     48  C   UNL A   1      37.197  30.992  28.767  1.00  0.00     0.031 C 
ATOM     49  C   UNL A   1      42.750  30.262  31.237  1.00  0.00     0.029 A 
ATOM     50  C   UNL A   1      43.440  29.469  30.234  1.00  0.00     0.049 A 
ATOM     51  H   UNL A   1      42.647  27.601  29.510  1.00  0.00     0.167 HD
ATOM     52  C   UNL A   1      37.873  33.114  30.116  1.00  0.00     0.037 A 
ATOM     53  C   UNL A   1      44.339  29.962  29.331  1.00  0.00     0.037 A 
ATOM     54  C   UNL A   1      39.158  33.645  30.578  1.00  0.00     0.049 A 
ATOM     55  C   UNL A   1      44.174  31.437  29.022  1.00  0.00     0.074 A 
ATOM     56  C   UNL A   1      39.855  33.614  31.775  1.00  0.00     0.029 A 
ATOM     57  N   UNL A   1      40.064  34.069  29.621  1.00  0.00    -0.354 N 
ATOM     58  N   UNL A   1      43.255  32.204  29.543  1.00  0.00    -0.248 NA
ATOM     59  C   UNL A   1      45.001  32.150  28.046  1.00  0.00     0.031 C 
ATOM     60  C   UNL A   1      41.219  33.932  31.499  1.00  0.00     0.029 A 
ATOM     61  C   UNL A   1      41.339  34.174  30.142  1.00  0.00     0.049 A 
ATOM     62  H   UNL A   1      39.829  34.270  28.686  1.00  0.00     0.167 HD
ATOM     63  C   UNL A   1      43.321  33.444  28.969  1.00  0.00     0.074 A 
ATOM     64  C   UNL A   1      44.443  33.372  28.051  1.00  0.00     0.031 C 
ATOM     65  C   UNL A   1      42.442  34.450  29.239  1.00  0.00     0.037 A 
BRANCH  52  66
ATOM     66  C   UNL A   1      36.527  33.707  30.486  1.00  0.00     0.058 A 
ATOM     67  C   UNL A   1      35.601  34.058  29.478  1.00  0.00     0.135 A 
ATOM     68  C   UNL A   1      36.109  34.027  31.793  1.00  0.00     0.135 A 
ATOM     69  F   UNL A   1      35.816  33.743  28.193  1.00  0.00    -0.206 F 
ATOM     70  C   UNL A   1      34.420  34.763  29.736  1.00  0.00     0.059 A 
ATOM     71  C   UNL A   1      34.967  34.786  32.072  1.00  0.00     0.059 A 
ATOM     72  F   UNL A   1      36.750  33.564  32.871  1.00  0.00    -0.206 F 
ATOM     73  C   UNL A   1      34.130  35.159  31.034  1.00  0.00     0.060 A 
BRANCH  73  74
ATOM     74  S   UNL A   1      32.655  36.145  31.349  1.00  0.00     0.124 S 
ATOM     75  O   UNL A   1      33.215  37.358  31.937  1.00  0.00    -0.237 OA
ATOM     76  O   UNL A   1      32.094  36.287  30.010  1.00  0.00    -0.237 OA
ATOM     77  O   UNL A   1      31.879  35.315  32.266  1.00  0.00    -0.744 OA
ENDBRANCH  73  74
ENDBRANCH  52  66
BRANCH  53  78
ATOM     78  C   UNL A   1      44.833  28.914  28.395  1.00  0.00     0.058 A 
ATOM     79  C   UNL A   1      44.233  28.853  27.120  1.00  0.00     0.135 A 
ATOM     80  C   UNL A   1      46.093  28.323  28.545  1.00  0.00     0.135 A 
ATOM     81  F   UNL A   1      43.014  29.384  26.925  1.00  0.00    -0.206 F 
ATOM     82  C   UNL A   1      44.926  28.397  26.006  1.00  0.00     0.059 A 
ATOM     83  C   UNL A   1      46.803  27.846  27.440  1.00  0.00     0.059 A 
ATOM     84  F   UNL A   1      46.710  28.338  29.736  1.00  0.00    -0.206 F 
ATOM     85  C   UNL A   1      46.238  27.962  26.168  1.00  0.00     0.060 A 
BRANCH  85  86
ATOM     86  S   UNL A   1      47.237  27.745  24.675  1.00  0.00     0.124 S 
ATOM     87  O   UNL A   1      46.740  28.815  23.818  1.00  0.00    -0.237 OA
ATOM     88  O   UNL A   1      48.593  27.932  25.190  1.00  0.00    -0.237 OA
ATOM     89  O   UNL A   1      46.912  26.389  24.248  1.00  0.00    -0.744 OA
ENDBRANCH  85  86
ENDBRANCH  53  78
BRANCH  65  90
ATOM     90  C   UNL A   1      42.591  35.805  28.631  1.00  0.00     0.058 A 
ATOM     91  C   UNL A   1      43.087  36.884  29.379  1.00  0.00     0.135 A 
ATOM     92  C   UNL A   1      42.134  36.083  27.330  1.00  0.00     0.135 A 
ATOM     93  F   UNL A   1      43.520  36.697  30.636  1.00  0.00    -0.206 F 
ATOM     94  C   UNL A   1      43.147  38.173  28.857  1.00  0.00     0.059 A 
ATOM     95  C   UNL A   1      42.151  37.369  26.800  1.00  0.00     0.059 A 
ATOM     96  F   UNL A   1      41.678  35.102  26.536  1.00  0.00    -0.206 F 
ATOM     97  C   UNL A   1      42.676  38.407  27.566  1.00  0.00     0.060 A 
BRANCH  97  98
ATOM     98  S   UNL A   1      42.725  40.079  26.892  1.00  0.00     0.124 S 
ATOM     99  O   UNL A   1      41.377  40.254  26.360  1.00  0.00    -0.237 OA
ATOM    100  O   UNL A   1      43.039  40.860  28.084  1.00  0.00    -0.237 OA
ATOM    101  O   UNL A   1      43.782  40.002  25.890  1.00  0.00    -0.744 OA
ENDBRANCH  97  98
ENDBRANCH  65  90
ENDBRANCH  39  40
ENDBRANCH  31  34
ENDBRANCH  29  30
ENDBRANCH  28  29
ENDBRANCH   1  28
TORSDOF 18
ENDMDL
