MODEL 1
REMARK VINA RESULT:     -10.9      0.000      0.000
REMARK SMILES CC(C)[C@@H](Nc1cc(Cl)c(Cl)cc1[N+](=O)[O-])C(=O)NCCCNC(=O)c1ccc(-c2c3nc(c(-c4c(F)cc(S(=O)(=O)[O-])cc4F)c4ccc([nH]4)c(-c4c(F)cc(S(=O)(=O)[O-])cc4F)c4nc(c(-c5c(F)cc(S(=O)(=O)[O-])cc5F)c5ccc2[nH]5)C=C4)C=C3)cc1
REMARK SMILES IDX 21 1 20 2 19 3 17 4 18 5 4 7 2 8 1 9 3 10 5 11 6 13 7 14
REMARK SMILES IDX 13 15 8 16 12 17 9 18 10 19 11 20 14 21 15 22 16 23 22 24
REMARK SMILES IDX 23 25 24 26 25 28 26 29 27 30 91 31 28 32 90 33 29 34 30 35
REMARK SMILES IDX 31 36 84 37 32 38 89 39 83 40 85 41 33 42 88 43 82 44 81 45
REMARK SMILES IDX 34 47 68 48 47 49 67 50 48 51 51 52 66 53 86 54 49 55 50 56
REMARK SMILES IDX 65 58 87 59 52 60 35 61 36 62 45 63 37 64 38 65 44 66 46 67
REMARK SMILES IDX 39 68 40 69 41 70 42 71 43 72 69 73 70 74 79 75 71 76 72 77
REMARK SMILES IDX 78 78 80 79 73 80 74 81 75 82 76 83 77 84 53 85 54 86 63 87
REMARK SMILES IDX 55 88 56 89 62 90 64 91 57 92 58 93 59 94 60 95 61 96
REMARK H PARENT 19 6 5 12 23 27 85 46 51 57
REMARK Flexibility Score: inf
ROOT
ATOM      1  C   UNL A   1      34.152  28.169  25.738  1.00  0.00     0.042 C 
ENDROOT
BRANCH   1   2
ATOM      2  C   UNL A   1      33.152  28.355  24.618  1.00  0.00     0.117 C 
BRANCH   2   3
ATOM      3  N   UNL A   1      33.544  27.663  23.405  1.00  0.00    -0.354 N 
ATOM      4  C   UNL A   1      33.340  26.361  23.046  1.00  0.00     0.242 C 
ATOM      5  O   UNL A   1      33.693  26.016  21.914  1.00  0.00    -0.273 OA
ATOM      6  H   UNL A   1      34.027  28.211  22.745  1.00  0.00     0.163 HD
BRANCH   4   7
ATOM      7  C   UNL A   1      32.689  25.347  24.020  1.00  0.00     0.171 C 
BRANCH   7   8
ATOM      8  C   UNL A   1      31.146  25.582  24.075  1.00  0.00     0.015 C 
ATOM      9  C   UNL A   1      30.345  24.510  23.329  1.00  0.00     0.010 C 
ATOM     10  C   UNL A   1      30.628  25.659  25.520  1.00  0.00     0.010 C 
ENDBRANCH   7   8
BRANCH   7  11
ATOM     11  N   UNL A   1      33.017  23.927  23.710  1.00  0.00    -0.368 N 
ATOM     12  H   UNL A   1      32.487  23.505  22.995  1.00  0.00     0.161 HD
BRANCH  11  13
ATOM     13  C   UNL A   1      33.981  23.127  24.310  1.00  0.00     0.115 A 
ATOM     14  C   UNL A   1      35.192  23.674  24.766  1.00  0.00     0.055 A 
ATOM     15  C   UNL A   1      33.878  21.711  24.321  1.00  0.00     0.293 A 
ATOM     16  C   UNL A   1      36.289  22.870  25.105  1.00  0.00     0.062 A 
ATOM     17  C   UNL A   1      34.975  20.897  24.658  1.00  0.00     0.110 A 
ATOM     18  Cl  UNL A   1      37.756  23.659  25.564  1.00  0.00    -0.083 Cl
ATOM     19  C   UNL A   1      36.187  21.480  25.026  1.00  0.00     0.066 A 
ATOM     20  Cl  UNL A   1      37.520  20.429  25.345  1.00  0.00    -0.082 Cl
BRANCH  15  21
ATOM     21  N   UNL A   1      32.642  21.034  23.890  1.00  0.00     0.065 N 
ATOM     22  O   UNL A   1      32.052  20.332  24.723  1.00  0.00    -0.258 OA
ATOM     23  O   UNL A   1      32.251  21.210  22.726  1.00  0.00    -0.258 OA
ENDBRANCH  15  21
ENDBRANCH  11  13
ENDBRANCH   7  11
ENDBRANCH   4   7
ENDBRANCH   2   3
ENDBRANCH   1   2
BRANCH   1  24
ATOM     24  C   UNL A   1      33.542  28.403  27.109  1.00  0.00     0.118 C 
BRANCH  24  25
ATOM     25  N   UNL A   1      33.486  29.818  27.459  1.00  0.00    -0.352 N 
ATOM     26  C   UNL A   1      34.424  30.599  28.088  1.00  0.00     0.251 C 
ATOM     27  H   UNL A   1      32.656  30.282  27.206  1.00  0.00     0.163 HD
ATOM     28  O   UNL A   1      34.115  31.717  28.494  1.00  0.00    -0.269 OA
BRANCH  26  29
ATOM     29  C   UNL A   1      35.790  30.079  28.287  1.00  0.00     0.039 A 
ATOM     30  C   UNL A   1      36.711  30.159  27.242  1.00  0.00     0.014 A 
ATOM     31  C   UNL A   1      36.164  29.532  29.517  1.00  0.00     0.014 A 
ATOM     32  C   UNL A   1      38.030  29.754  27.458  1.00  0.00     0.010 A 
ATOM     33  C   UNL A   1      37.496  29.236  29.764  1.00  0.00     0.010 A 
ATOM     34  C   UNL A   1      38.441  29.330  28.733  1.00  0.00    -0.014 A 
BRANCH  34  35
ATOM     35  C   UNL A   1      39.853  28.970  29.011  1.00  0.00     0.031 A 
ATOM     36  C   UNL A   1      40.792  29.996  29.584  1.00  0.00     0.074 A 
ATOM     37  C   UNL A   1      40.304  27.746  28.674  1.00  0.00     0.049 A 
ATOM     38  N   UNL A   1      42.071  29.895  29.835  1.00  0.00    -0.248 NA
ATOM     39  C   UNL A   1      40.228  31.324  29.876  1.00  0.00     0.031 C 
ATOM     40  C   UNL A   1      39.503  26.690  28.049  1.00  0.00     0.029 A 
ATOM     41  N   UNL A   1      41.550  27.186  28.798  1.00  0.00    -0.354 N 
ATOM     42  C   UNL A   1      42.466  31.146  30.296  1.00  0.00     0.074 A 
ATOM     43  C   UNL A   1      41.306  32.007  30.227  1.00  0.00     0.031 C 
ATOM     44  C   UNL A   1      40.269  25.604  27.871  1.00  0.00     0.029 A 
ATOM     45  C   UNL A   1      41.625  25.897  28.327  1.00  0.00     0.049 A 
ATOM     46  H   UNL A   1      42.318  27.662  29.188  1.00  0.00     0.167 HD
ATOM     47  C   UNL A   1      43.678  31.533  30.760  1.00  0.00     0.037 A 
ATOM     48  C   UNL A   1      42.669  25.048  28.262  1.00  0.00     0.037 A 
ATOM     49  C   UNL A   1      44.818  30.658  30.844  1.00  0.00     0.049 A 
ATOM     50  C   UNL A   1      44.002  25.492  28.795  1.00  0.00     0.074 A 
ATOM     51  C   UNL A   1      46.069  30.926  31.368  1.00  0.00     0.029 A 
ATOM     52  N   UNL A   1      44.847  29.349  30.384  1.00  0.00    -0.354 N 
ATOM     53  N   UNL A   1      44.340  26.652  29.308  1.00  0.00    -0.248 NA
ATOM     54  C   UNL A   1      45.095  24.513  28.751  1.00  0.00     0.031 C 
ATOM     55  C   UNL A   1      46.873  29.798  31.171  1.00  0.00     0.029 A 
ATOM     56  C   UNL A   1      46.106  28.805  30.584  1.00  0.00     0.049 A 
ATOM     57  H   UNL A   1      44.086  28.877  29.976  1.00  0.00     0.167 HD
ATOM     58  C   UNL A   1      45.677  26.536  29.668  1.00  0.00     0.074 A 
ATOM     59  C   UNL A   1      46.082  25.186  29.327  1.00  0.00     0.031 C 
ATOM     60  C   UNL A   1      46.494  27.460  30.232  1.00  0.00     0.037 A 
BRANCH  47  61
ATOM     61  C   UNL A   1      43.827  32.966  31.199  1.00  0.00     0.058 A 
ATOM     62  C   UNL A   1      44.253  33.973  30.317  1.00  0.00     0.135 A 
ATOM     63  C   UNL A   1      43.535  33.339  32.521  1.00  0.00     0.135 A 
ATOM     64  F   UNL A   1      44.560  33.673  29.045  1.00  0.00    -0.206 F 
ATOM     65  C   UNL A   1      44.431  35.286  30.741  1.00  0.00     0.059 A 
ATOM     66  C   UNL A   1      43.672  34.653  32.958  1.00  0.00     0.059 A 
ATOM     67  F   UNL A   1      43.121  32.420  33.408  1.00  0.00    -0.206 F 
ATOM     68  C   UNL A   1      44.141  35.616  32.065  1.00  0.00     0.060 A 
BRANCH  68  69
ATOM     69  S   UNL A   1      44.396  37.319  32.605  1.00  0.00     0.124 S 
ATOM     70  O   UNL A   1      43.324  37.477  33.583  1.00  0.00    -0.237 OA
ATOM     71  O   UNL A   1      45.749  37.275  33.149  1.00  0.00    -0.237 OA
ATOM     72  O   UNL A   1      44.242  38.092  31.376  1.00  0.00    -0.744 OA
ENDBRANCH  68  69
ENDBRANCH  47  61
BRANCH  48  73
ATOM     73  C   UNL A   1      42.473  23.688  27.694  1.00  0.00     0.058 A 
ATOM     74  C   UNL A   1      42.550  23.463  26.312  1.00  0.00     0.135 A 
ATOM     75  C   UNL A   1      42.262  22.577  28.527  1.00  0.00     0.135 A 
ATOM     76  F   UNL A   1      42.744  24.493  25.475  1.00  0.00    -0.206 F 
ATOM     77  C   UNL A   1      42.422  22.187  25.774  1.00  0.00     0.059 A 
ATOM     78  C   UNL A   1      42.157  21.289  28.015  1.00  0.00     0.059 A 
ATOM     79  F   UNL A   1      42.200  22.737  29.858  1.00  0.00    -0.206 F 
ATOM     80  C   UNL A   1      42.235  21.103  26.635  1.00  0.00     0.060 A 
BRANCH  80  81
ATOM     81  S   UNL A   1      42.153  19.442  25.931  1.00  0.00     0.124 S 
ATOM     82  O   UNL A   1      43.013  19.575  24.761  1.00  0.00    -0.237 OA
ATOM     83  O   UNL A   1      42.677  18.624  27.020  1.00  0.00    -0.237 OA
ATOM     84  O   UNL A   1      40.731  19.265  25.653  1.00  0.00    -0.744 OA
ENDBRANCH  80  81
ENDBRANCH  48  73
BRANCH  60  85
ATOM     85  C   UNL A   1      47.906  27.039  30.541  1.00  0.00     0.058 A 
ATOM     86  C   UNL A   1      48.966  27.295  29.656  1.00  0.00     0.135 A 
ATOM     87  C   UNL A   1      48.209  26.418  31.763  1.00  0.00     0.135 A 
ATOM     88  F   UNL A   1      48.731  27.881  28.471  1.00  0.00    -0.206 F 
ATOM     89  C   UNL A   1      50.271  26.926  29.962  1.00  0.00     0.059 A 
ATOM     90  C   UNL A   1      49.512  26.069  32.103  1.00  0.00     0.059 A 
ATOM     91  F   UNL A   1      47.235  26.161  32.651  1.00  0.00    -0.206 F 
ATOM     92  C   UNL A   1      50.535  26.315  31.190  1.00  0.00     0.060 A 
BRANCH  92  93
ATOM     93  S   UNL A   1      52.239  25.870  31.586  1.00  0.00     0.124 S 
ATOM     94  O   UNL A   1      52.089  24.481  32.006  1.00  0.00    -0.237 OA
ATOM     95  O   UNL A   1      52.919  26.077  30.311  1.00  0.00    -0.237 OA
ATOM     96  O   UNL A   1      52.600  26.811  32.642  1.00  0.00    -0.744 OA
ENDBRANCH  92  93
ENDBRANCH  60  85
ENDBRANCH  34  35
ENDBRANCH  26  29
ENDBRANCH  24  25
ENDBRANCH   1  24
TORSDOF 17
ENDMDL
MODEL 2
REMARK VINA RESULT:     -10.7      3.467      4.727
REMARK SMILES CC(C)[C@@H](Nc1cc(Cl)c(Cl)cc1[N+](=O)[O-])C(=O)NCCCNC(=O)c1ccc(-c2c3nc(c(-c4c(F)cc(S(=O)(=O)[O-])cc4F)c4ccc([nH]4)c(-c4c(F)cc(S(=O)(=O)[O-])cc4F)c4nc(c(-c5c(F)cc(S(=O)(=O)[O-])cc5F)c5ccc2[nH]5)C=C4)C=C3)cc1
REMARK SMILES IDX 21 1 20 2 19 3 17 4 18 5 4 7 2 8 1 9 3 10 5 11 6 13 7 14
REMARK SMILES IDX 13 15 8 16 12 17 9 18 10 19 11 20 14 21 15 22 16 23 22 24
REMARK SMILES IDX 23 25 24 26 25 28 26 29 27 30 91 31 28 32 90 33 29 34 30 35
REMARK SMILES IDX 31 36 84 37 32 38 89 39 83 40 85 41 33 42 88 43 82 44 81 45
REMARK SMILES IDX 34 47 68 48 47 49 67 50 48 51 51 52 66 53 86 54 49 55 50 56
REMARK SMILES IDX 65 58 87 59 52 60 35 61 36 62 45 63 37 64 38 65 44 66 46 67
REMARK SMILES IDX 39 68 40 69 41 70 42 71 43 72 69 73 70 74 79 75 71 76 72 77
REMARK SMILES IDX 78 78 80 79 73 80 74 81 75 82 76 83 77 84 53 85 54 86 63 87
REMARK SMILES IDX 55 88 56 89 62 90 64 91 57 92 58 93 59 94 60 95 61 96
REMARK H PARENT 19 6 5 12 23 27 85 46 51 57
REMARK Flexibility Score: inf
ROOT
ATOM      1  C   UNL A   1      34.480  29.773  27.126  1.00  0.00     0.042 C 
ENDROOT
BRANCH   1   2
ATOM      2  C   UNL A   1      33.931  28.584  26.369  1.00  0.00     0.117 C 
BRANCH   2   3
ATOM      3  N   UNL A   1      32.639  28.156  26.871  1.00  0.00    -0.354 N 
ATOM      4  C   UNL A   1      31.903  27.055  26.537  1.00  0.00     0.242 C 
ATOM      5  O   UNL A   1      30.860  26.850  27.166  1.00  0.00    -0.273 OA
ATOM      6  H   UNL A   1      32.235  28.743  27.550  1.00  0.00     0.163 HD
BRANCH   4   7
ATOM      7  C   UNL A   1      32.353  26.092  25.409  1.00  0.00     0.171 C 
BRANCH   7   8
ATOM      8  C   UNL A   1      32.397  24.628  25.951  1.00  0.00     0.015 C 
ATOM      9  C   UNL A   1      31.623  23.637  25.075  1.00  0.00     0.010 C 
ATOM     10  C   UNL A   1      33.839  24.117  26.105  1.00  0.00     0.010 C 
ENDBRANCH   7   8
BRANCH   7  11
ATOM     11  N   UNL A   1      31.530  26.195  24.171  1.00  0.00    -0.368 N 
ATOM     12  H   UNL A   1      31.465  25.378  23.625  1.00  0.00     0.161 HD
BRANCH  11  13
ATOM     13  C   UNL A   1      30.845  27.306  23.696  1.00  0.00     0.115 A 
ATOM     14  C   UNL A   1      29.452  27.413  23.846  1.00  0.00     0.055 A 
ATOM     15  C   UNL A   1      31.474  28.282  22.880  1.00  0.00     0.293 A 
ATOM     16  C   UNL A   1      28.699  28.360  23.136  1.00  0.00     0.062 A 
ATOM     17  C   UNL A   1      30.726  29.234  22.164  1.00  0.00     0.110 A 
ATOM     18  Cl  UNL A   1      26.983  28.336  23.332  1.00  0.00    -0.083 Cl
ATOM     19  C   UNL A   1      29.337  29.254  22.275  1.00  0.00     0.066 A 
ATOM     20  Cl  UNL A   1      28.470  30.391  21.306  1.00  0.00    -0.082 Cl
BRANCH  15  21
ATOM     21  N   UNL A   1      32.934  28.278  22.679  1.00  0.00     0.065 N 
ATOM     22  O   UNL A   1      33.438  27.272  22.160  1.00  0.00    -0.258 OA
ATOM     23  O   UNL A   1      33.578  29.280  23.026  1.00  0.00    -0.258 OA
ENDBRANCH  15  21
ENDBRANCH  11  13
ENDBRANCH   7  11
ENDBRANCH   4   7
ENDBRANCH   2   3
ENDBRANCH   1   2
BRANCH   1  24
ATOM     24  C   UNL A   1      35.541  29.379  28.140  1.00  0.00     0.118 C 
BRANCH  24  25
ATOM     25  N   UNL A   1      35.448  30.154  29.372  1.00  0.00    -0.352 N 
ATOM     26  C   UNL A   1      36.427  30.461  30.285  1.00  0.00     0.251 C 
ATOM     27  H   UNL A   1      34.555  30.511  29.579  1.00  0.00     0.163 HD
ATOM     28  O   UNL A   1      36.117  30.941  31.373  1.00  0.00    -0.269 OA
BRANCH  26  29
ATOM     29  C   UNL A   1      37.840  30.195  29.955  1.00  0.00     0.039 A 
ATOM     30  C   UNL A   1      38.689  29.688  30.938  1.00  0.00     0.014 A 
ATOM     31  C   UNL A   1      38.317  30.429  28.662  1.00  0.00     0.014 A 
ATOM     32  C   UNL A   1      40.000  29.348  30.603  1.00  0.00     0.010 A 
ATOM     33  C   UNL A   1      39.582  29.987  28.304  1.00  0.00     0.010 A 
ATOM     34  C   UNL A   1      40.443  29.455  29.273  1.00  0.00    -0.014 A 
BRANCH  34  35
ATOM     35  C   UNL A   1      41.805  29.026  28.874  1.00  0.00     0.031 A 
ATOM     36  C   UNL A   1      42.926  30.028  28.830  1.00  0.00     0.074 A 
ATOM     37  C   UNL A   1      42.010  27.756  28.476  1.00  0.00     0.049 A 
ATOM     38  N   UNL A   1      44.166  29.863  28.447  1.00  0.00    -0.248 NA
ATOM     39  C   UNL A   1      42.603  31.407  29.233  1.00  0.00     0.031 C 
ATOM     40  C   UNL A   1      40.984  26.712  28.410  1.00  0.00     0.029 A 
ATOM     41  N   UNL A   1      43.149  27.127  28.039  1.00  0.00    -0.354 N 
ATOM     42  C   UNL A   1      44.762  31.115  28.545  1.00  0.00     0.074 A 
ATOM     43  C   UNL A   1      43.732  32.042  28.960  1.00  0.00     0.031 C 
ATOM     44  C   UNL A   1      41.544  25.569  27.988  1.00  0.00     0.029 A 
ATOM     45  C   UNL A   1      42.958  25.806  27.711  1.00  0.00     0.049 A 
ATOM     46  H   UNL A   1      44.020  27.579  27.969  1.00  0.00     0.167 HD
ATOM     47  C   UNL A   1      46.055  31.456  28.335  1.00  0.00     0.037 A 
ATOM     48  C   UNL A   1      43.822  24.890  27.232  1.00  0.00     0.037 A 
ATOM     49  C   UNL A   1      47.075  30.518  27.943  1.00  0.00     0.049 A 
ATOM     50  C   UNL A   1      45.256  25.284  27.019  1.00  0.00     0.074 A 
ATOM     51  C   UNL A   1      48.429  30.741  27.777  1.00  0.00     0.029 A 
ATOM     52  N   UNL A   1      46.850  29.180  27.648  1.00  0.00    -0.354 N 
ATOM     53  N   UNL A   1      45.826  26.453  27.199  1.00  0.00    -0.248 NA
ATOM     54  C   UNL A   1      46.170  24.236  26.547  1.00  0.00     0.031 C 
ATOM     55  C   UNL A   1      49.013  29.553  27.325  1.00  0.00     0.029 A 
ATOM     56  C   UNL A   1      48.036  28.573  27.270  1.00  0.00     0.049 A 
ATOM     57  H   UNL A   1      45.976  28.731  27.699  1.00  0.00     0.167 HD
ATOM     58  C   UNL A   1      47.167  26.277  26.884  1.00  0.00     0.074 A 
ATOM     59  C   UNL A   1      47.328  24.883  26.517  1.00  0.00     0.031 C 
ATOM     60  C   UNL A   1      48.176  27.184  26.901  1.00  0.00     0.037 A 
BRANCH  47  61
ATOM     61  C   UNL A   1      46.430  32.903  28.515  1.00  0.00     0.058 A 
ATOM     62  C   UNL A   1      46.394  33.819  27.450  1.00  0.00     0.135 A 
ATOM     63  C   UNL A   1      46.827  33.384  29.774  1.00  0.00     0.135 A 
ATOM     64  F   UNL A   1      46.035  33.414  26.221  1.00  0.00    -0.206 F 
ATOM     65  C   UNL A   1      46.783  35.144  27.614  1.00  0.00     0.059 A 
ATOM     66  C   UNL A   1      47.187  34.714  29.969  1.00  0.00     0.059 A 
ATOM     67  F   UNL A   1      46.879  32.556  30.829  1.00  0.00    -0.206 F 
ATOM     68  C   UNL A   1      47.182  35.582  28.877  1.00  0.00     0.060 A 
BRANCH  68  69
ATOM     69  S   UNL A   1      47.704  37.299  29.070  1.00  0.00     0.124 S 
ATOM     70  O   UNL A   1      46.764  37.776  30.080  1.00  0.00    -0.237 OA
ATOM     71  O   UNL A   1      49.088  37.157  29.509  1.00  0.00    -0.237 OA
ATOM     72  O   UNL A   1      47.527  37.860  27.734  1.00  0.00    -0.744 OA
ENDBRANCH  68  69
ENDBRANCH  47  61
BRANCH  48  73
ATOM     73  C   UNL A   1      43.347  23.509  26.955  1.00  0.00     0.058 A 
ATOM     74  C   UNL A   1      43.182  23.051  25.640  1.00  0.00     0.135 A 
ATOM     75  C   UNL A   1      43.102  22.602  27.999  1.00  0.00     0.135 A 
ATOM     76  F   UNL A   1      43.398  23.881  24.609  1.00  0.00    -0.206 F 
ATOM     77  C   UNL A   1      42.789  21.744  25.368  1.00  0.00     0.059 A 
ATOM     78  C   UNL A   1      42.733  21.285  27.752  1.00  0.00     0.059 A 
ATOM     79  F   UNL A   1      43.264  22.986  29.275  1.00  0.00    -0.206 F 
ATOM     80  C   UNL A   1      42.576  20.865  26.431  1.00  0.00     0.060 A 
BRANCH  80  81
ATOM     81  S   UNL A   1      42.147  19.150  26.064  1.00  0.00     0.124 S 
ATOM     82  O   UNL A   1      42.563  18.473  27.286  1.00  0.00    -0.237 OA
ATOM     83  O   UNL A   1      40.708  19.237  25.839  1.00  0.00    -0.237 OA
ATOM     84  O   UNL A   1      42.942  18.852  24.875  1.00  0.00    -0.744 OA
ENDBRANCH  80  81
ENDBRANCH  48  73
BRANCH  60  85
ATOM     85  C   UNL A   1      49.552  26.696  26.533  1.00  0.00     0.058 A 
ATOM     86  C   UNL A   1      50.423  26.150  27.489  1.00  0.00     0.135 A 
ATOM     87  C   UNL A   1      49.982  26.728  25.197  1.00  0.00     0.135 A 
ATOM     88  F   UNL A   1      50.065  26.100  28.782  1.00  0.00    -0.206 F 
ATOM     89  C   UNL A   1      51.682  25.676  27.136  1.00  0.00     0.059 A 
ATOM     90  C   UNL A   1      51.224  26.232  24.816  1.00  0.00     0.059 A 
ATOM     91  F   UNL A   1      49.183  27.230  24.241  1.00  0.00    -0.206 F 
ATOM     92  C   UNL A   1      52.074  25.719  25.796  1.00  0.00     0.060 A 
BRANCH  92  93
ATOM     93  S   UNL A   1      53.698  25.074  25.348  1.00  0.00     0.124 S 
ATOM     94  O   UNL A   1      54.539  25.640  26.398  1.00  0.00    -0.237 OA
ATOM     95  O   UNL A   1      53.489  23.630  25.412  1.00  0.00    -0.237 OA
ATOM     96  O   UNL A   1      53.920  25.610  24.008  1.00  0.00    -0.744 OA
ENDBRANCH  92  93
ENDBRANCH  60  85
ENDBRANCH  34  35
ENDBRANCH  26  29
ENDBRANCH  24  25
ENDBRANCH   1  24
TORSDOF 17
ENDMDL
MODEL 3
REMARK VINA RESULT:     -10.7      2.680      3.395
REMARK SMILES CC(C)[C@@H](Nc1cc(Cl)c(Cl)cc1[N+](=O)[O-])C(=O)NCCCNC(=O)c1ccc(-c2c3nc(c(-c4c(F)cc(S(=O)(=O)[O-])cc4F)c4ccc([nH]4)c(-c4c(F)cc(S(=O)(=O)[O-])cc4F)c4nc(c(-c5c(F)cc(S(=O)(=O)[O-])cc5F)c5ccc2[nH]5)C=C4)C=C3)cc1
REMARK SMILES IDX 21 1 20 2 19 3 17 4 18 5 4 7 2 8 1 9 3 10 5 11 6 13 7 14
REMARK SMILES IDX 13 15 8 16 12 17 9 18 10 19 11 20 14 21 15 22 16 23 22 24
REMARK SMILES IDX 23 25 24 26 25 28 26 29 27 30 91 31 28 32 90 33 29 34 30 35
REMARK SMILES IDX 31 36 84 37 32 38 89 39 83 40 85 41 33 42 88 43 82 44 81 45
REMARK SMILES IDX 34 47 68 48 47 49 67 50 48 51 51 52 66 53 86 54 49 55 50 56
REMARK SMILES IDX 65 58 87 59 52 60 35 61 36 62 45 63 37 64 38 65 44 66 46 67
REMARK SMILES IDX 39 68 40 69 41 70 42 71 43 72 69 73 70 74 79 75 71 76 72 77
REMARK SMILES IDX 78 78 80 79 73 80 74 81 75 82 76 83 77 84 53 85 54 86 63 87
REMARK SMILES IDX 55 88 56 89 62 90 64 91 57 92 58 93 59 94 60 95 61 96
REMARK H PARENT 19 6 5 12 23 27 85 46 51 57
REMARK Flexibility Score: inf
ROOT
ATOM      1  C   UNL A   1      34.779  28.950  27.163  1.00  0.00     0.042 C 
ENDROOT
BRANCH   1   2
ATOM      2  C   UNL A   1      33.643  29.351  26.247  1.00  0.00     0.117 C 
BRANCH   2   3
ATOM      3  N   UNL A   1      33.929  29.068  24.853  1.00  0.00    -0.354 N 
ATOM      4  C   UNL A   1      33.580  27.983  24.101  1.00  0.00     0.242 C 
ATOM      5  O   UNL A   1      33.865  28.002  22.899  1.00  0.00    -0.273 OA
ATOM      6  H   UNL A   1      34.450  29.758  24.381  1.00  0.00     0.163 HD
BRANCH   4   7
ATOM      7  C   UNL A   1      32.851  26.766  24.726  1.00  0.00     0.171 C 
BRANCH   7   8
ATOM      8  C   UNL A   1      31.318  27.054  24.810  1.00  0.00     0.015 C 
ATOM      9  C   UNL A   1      30.547  26.586  23.571  1.00  0.00     0.010 C 
ATOM     10  C   UNL A   1      30.681  26.410  26.052  1.00  0.00     0.010 C 
ENDBRANCH   7   8
BRANCH   7  11
ATOM     11  N   UNL A   1      33.130  25.480  24.028  1.00  0.00    -0.368 N 
ATOM     12  H   UNL A   1      32.775  25.396  23.114  1.00  0.00     0.161 HD
BRANCH  11  13
ATOM     13  C   UNL A   1      33.833  24.384  24.514  1.00  0.00     0.115 A 
ATOM     14  C   UNL A   1      35.140  24.526  25.010  1.00  0.00     0.055 A 
ATOM     15  C   UNL A   1      33.351  23.058  24.361  1.00  0.00     0.293 A 
ATOM     16  C   UNL A   1      35.974  23.421  25.234  1.00  0.00     0.062 A 
ATOM     17  C   UNL A   1      34.182  21.944  24.582  1.00  0.00     0.110 A 
ATOM     18  Cl  UNL A   1      37.592  23.726  25.757  1.00  0.00    -0.083 Cl
ATOM     19  C   UNL A   1      35.500  22.130  24.995  1.00  0.00     0.066 A 
ATOM     20  Cl  UNL A   1      36.494  20.728  25.166  1.00  0.00    -0.082 Cl
BRANCH  15  21
ATOM     21  N   UNL A   1      31.984  22.796  23.876  1.00  0.00     0.065 N 
ATOM     22  O   UNL A   1      31.042  23.203  24.570  1.00  0.00    -0.258 OA
ATOM     23  O   UNL A   1      31.848  22.196  22.799  1.00  0.00    -0.258 OA
ENDBRANCH  15  21
ENDBRANCH  11  13
ENDBRANCH   7  11
ENDBRANCH   4   7
ENDBRANCH   2   3
ENDBRANCH   1   2
BRANCH   1  24
ATOM     24  C   UNL A   1      35.551  30.145  27.691  1.00  0.00     0.118 C 
BRANCH  24  25
ATOM     25  N   UNL A   1      35.396  30.315  29.132  1.00  0.00    -0.352 N 
ATOM     26  C   UNL A   1      36.303  30.095  30.139  1.00  0.00     0.251 C 
ATOM     27  H   UNL A   1      34.513  30.636  29.425  1.00  0.00     0.163 HD
ATOM     28  O   UNL A   1      35.925  30.085  31.308  1.00  0.00    -0.269 OA
BRANCH  26  29
ATOM     29  C   UNL A   1      37.719  29.857  29.804  1.00  0.00     0.039 A 
ATOM     30  C   UNL A   1      38.605  29.473  30.811  1.00  0.00     0.014 A 
ATOM     31  C   UNL A   1      38.164  29.992  28.486  1.00  0.00     0.014 A 
ATOM     32  C   UNL A   1      39.924  29.156  30.479  1.00  0.00     0.010 A 
ATOM     33  C   UNL A   1      39.439  29.570  28.142  1.00  0.00     0.010 A 
ATOM     34  C   UNL A   1      40.338  29.161  29.136  1.00  0.00    -0.014 A 
BRANCH  34  35
ATOM     35  C   UNL A   1      41.710  28.751  28.748  1.00  0.00     0.031 A 
ATOM     36  C   UNL A   1      42.810  29.774  28.684  1.00  0.00     0.074 A 
ATOM     37  C   UNL A   1      41.941  27.477  28.377  1.00  0.00     0.049 A 
ATOM     38  N   UNL A   1      44.054  29.627  28.307  1.00  0.00    -0.248 NA
ATOM     39  C   UNL A   1      42.459  31.154  29.058  1.00  0.00     0.031 C 
ATOM     40  C   UNL A   1      40.936  26.412  28.332  1.00  0.00     0.029 A 
ATOM     41  N   UNL A   1      43.093  26.863  27.955  1.00  0.00    -0.354 N 
ATOM     42  C   UNL A   1      44.624  30.892  28.380  1.00  0.00     0.074 A 
ATOM     43  C   UNL A   1      43.575  31.807  28.774  1.00  0.00     0.031 C 
ATOM     44  C   UNL A   1      41.521  25.272  27.934  1.00  0.00     0.029 A 
ATOM     45  C   UNL A   1      42.929  25.531  27.654  1.00  0.00     0.049 A 
ATOM     46  H   UNL A   1      43.955  27.331  27.877  1.00  0.00     0.167 HD
ATOM     47  C   UNL A   1      45.911  31.255  28.164  1.00  0.00     0.037 A 
ATOM     48  C   UNL A   1      43.813  24.623  27.197  1.00  0.00     0.037 A 
ATOM     49  C   UNL A   1      46.950  30.330  27.794  1.00  0.00     0.049 A 
ATOM     50  C   UNL A   1      45.239  25.042  26.977  1.00  0.00     0.074 A 
ATOM     51  C   UNL A   1      48.300  30.577  27.625  1.00  0.00     0.029 A 
ATOM     52  N   UNL A   1      46.752  28.982  27.526  1.00  0.00    -0.354 N 
ATOM     53  N   UNL A   1      45.785  26.226  27.133  1.00  0.00    -0.248 NA
ATOM     54  C   UNL A   1      46.175  24.003  26.529  1.00  0.00     0.031 C 
ATOM     55  C   UNL A   1      48.909  29.391  27.198  1.00  0.00     0.029 A 
ATOM     56  C   UNL A   1      47.951  28.391  27.163  1.00  0.00     0.049 A 
ATOM     57  H   UNL A   1      45.888  28.516  27.586  1.00  0.00     0.167 HD
ATOM     58  C   UNL A   1      47.130  26.070  26.824  1.00  0.00     0.074 A 
ATOM     59  C   UNL A   1      47.319  24.673  26.487  1.00  0.00     0.031 C 
ATOM     60  C   UNL A   1      48.120  26.998  26.823  1.00  0.00     0.037 A 
BRANCH  47  61
ATOM     61  C   UNL A   1      46.256  32.713  28.314  1.00  0.00     0.058 A 
ATOM     62  C   UNL A   1      46.139  33.618  27.247  1.00  0.00     0.135 A 
ATOM     63  C   UNL A   1      46.705  33.214  29.547  1.00  0.00     0.135 A 
ATOM     64  F   UNL A   1      45.728  33.194  26.041  1.00  0.00    -0.206 F 
ATOM     65  C   UNL A   1      46.501  34.955  27.380  1.00  0.00     0.059 A 
ATOM     66  C   UNL A   1      47.039  34.555  29.714  1.00  0.00     0.059 A 
ATOM     67  F   UNL A   1      46.834  32.396  30.604  1.00  0.00    -0.206 F 
ATOM     68  C   UNL A   1      46.954  35.413  28.618  1.00  0.00     0.060 A 
BRANCH  68  69
ATOM     69  S   UNL A   1      47.439  37.145  28.771  1.00  0.00     0.124 S 
ATOM     70  O   UNL A   1      46.902  37.481  30.086  1.00  0.00    -0.237 OA
ATOM     71  O   UNL A   1      48.894  37.070  28.681  1.00  0.00    -0.237 OA
ATOM     72  O   UNL A   1      46.776  37.785  27.640  1.00  0.00    -0.744 OA
ENDBRANCH  68  69
ENDBRANCH  47  61
BRANCH  48  73
ATOM     73  C   UNL A   1      43.366  23.227  26.948  1.00  0.00     0.058 A 
ATOM     74  C   UNL A   1      43.243  22.729  25.643  1.00  0.00     0.135 A 
ATOM     75  C   UNL A   1      43.108  22.347  28.011  1.00  0.00     0.135 A 
ATOM     76  F   UNL A   1      43.472  23.532  24.594  1.00  0.00    -0.206 F 
ATOM     77  C   UNL A   1      42.877  21.409  25.399  1.00  0.00     0.059 A 
ATOM     78  C   UNL A   1      42.767  21.017  27.793  1.00  0.00     0.059 A 
ATOM     79  F   UNL A   1      43.231  22.770  29.279  1.00  0.00    -0.206 F 
ATOM     80  C   UNL A   1      42.650  20.557  26.482  1.00  0.00     0.060 A 
BRANCH  80  81
ATOM     81  S   UNL A   1      42.257  18.825  26.154  1.00  0.00     0.124 S 
ATOM     82  O   UNL A   1      40.848  18.906  25.788  1.00  0.00    -0.237 OA
ATOM     83  O   UNL A   1      43.181  18.503  25.070  1.00  0.00    -0.237 OA
ATOM     84  O   UNL A   1      42.544  18.169  27.426  1.00  0.00    -0.744 OA
ENDBRANCH  80  81
ENDBRANCH  48  73
BRANCH  60  85
ATOM     85  C   UNL A   1      49.506  26.530  26.468  1.00  0.00     0.058 A 
ATOM     86  C   UNL A   1      50.366  25.967  27.425  1.00  0.00     0.135 A 
ATOM     87  C   UNL A   1      49.959  26.599  25.141  1.00  0.00     0.135 A 
ATOM     88  F   UNL A   1      49.985  25.882  28.710  1.00  0.00    -0.206 F 
ATOM     89  C   UNL A   1      51.635  25.513  27.082  1.00  0.00     0.059 A 
ATOM     90  C   UNL A   1      51.212  26.122  24.770  1.00  0.00     0.059 A 
ATOM     91  F   UNL A   1      49.173  27.118  24.183  1.00  0.00    -0.206 F 
ATOM     92  C   UNL A   1      52.049  25.593  25.751  1.00  0.00     0.060 A 
BRANCH  92  93
ATOM     93  S   UNL A   1      53.686  24.971  25.316  1.00  0.00     0.124 S 
ATOM     94  O   UNL A   1      54.441  25.256  26.532  1.00  0.00    -0.237 OA
ATOM     95  O   UNL A   1      53.424  23.560  25.049  1.00  0.00    -0.237 OA
ATOM     96  O   UNL A   1      54.053  25.767  24.148  1.00  0.00    -0.744 OA
ENDBRANCH  92  93
ENDBRANCH  60  85
ENDBRANCH  34  35
ENDBRANCH  26  29
ENDBRANCH  24  25
ENDBRANCH   1  24
TORSDOF 17
ENDMDL
