MODEL 1
REMARK VINA RESULT:     -14.5      0.000      0.000
REMARK SMILES Cc1ccccc1C(=O)Nc1cc(NC(=O)c2ccccc2C)cc(C(=O)NCCCNC(=O)c2ccc(-c3c4nc(c(-c5c(F)cc(S(=O)(=O)[O-])cc5F)c5ccc([nH]5)c(-c5c(F)cc(S(=O)(=O)[O-])cc5F)c5nc(c(-c6c(F)cc(S(=O)(=O)[O-])cc6F)c6ccc3[nH]6)C=C5)C=C4)cc2)c1
REMARK SMILES IDX 30 1 29 2 28 3 26 4 27 5 25 7 11 8 12 9 101 10 13 11 24 12
REMARK SMILES IDX 10 13 8 14 9 15 7 17 1 18 2 19 3 20 4 21 6 22 5 23 14 24
REMARK SMILES IDX 15 25 16 27 17 28 18 29 22 30 19 31 21 32 23 33 20 34 31 35
REMARK SMILES IDX 32 36 33 37 34 39 35 40 36 41 100 42 37 43 99 44 38 45 39 46
REMARK SMILES IDX 40 47 93 48 41 49 98 50 92 51 94 52 42 53 97 54 91 55 90 56
REMARK SMILES IDX 43 58 77 59 56 60 76 61 57 62 60 63 75 64 95 65 58 66 59 67
REMARK SMILES IDX 74 69 96 70 61 71 44 72 45 73 54 74 46 75 47 76 53 77 55 78
REMARK SMILES IDX 48 79 49 80 50 81 51 82 52 83 78 84 79 85 88 86 80 87 81 88
REMARK SMILES IDX 87 89 89 90 82 91 83 92 84 93 85 94 86 95 62 96 63 97 72 98
REMARK SMILES IDX 64 99 65 100 71 101 73 102 66 103 67 104 68 105 69 106
REMARK SMILES IDX 70 107
REMARK H PARENT 28 6 10 16 14 26 32 38 94 57 60 68
REMARK Flexibility Score: inf
ROOT
ATOM      1  C   UNL A   1      33.112  29.661  26.628  1.00  0.00     0.042 C 
ENDROOT
BRANCH   1   2
ATOM      2  C   UNL A   1      33.105  29.319  25.138  1.00  0.00     0.118 C 
BRANCH   2   3
ATOM      3  N   UNL A   1      31.854  29.703  24.497  1.00  0.00    -0.352 N 
ATOM      4  C   UNL A   1      30.849  28.980  23.906  1.00  0.00     0.251 C 
ATOM      5  O   UNL A   1      29.843  29.590  23.538  1.00  0.00    -0.269 OA
ATOM      6  H   UNL A   1      31.698  30.675  24.487  1.00  0.00     0.163 HD
BRANCH   4   7
ATOM      7  C   UNL A   1      30.877  27.499  23.710  1.00  0.00     0.043 A 
ATOM      8  C   UNL A   1      30.376  25.319  24.661  1.00  0.00     0.044 A 
ATOM      9  C   UNL A   1      30.892  24.685  23.528  1.00  0.00     0.052 A 
ATOM     10  C   UNL A   1      30.285  26.714  24.707  1.00  0.00     0.040 A 
ATOM     11  C   UNL A   1      31.425  25.451  22.496  1.00  0.00     0.044 A 
ATOM     12  C   UNL A   1      31.447  26.843  22.620  1.00  0.00     0.040 A 
BRANCH   8  13
ATOM     13  N   UNL A   1      30.029  24.631  25.832  1.00  0.00    -0.322 N 
ATOM     14  C   UNL A   1      30.828  23.945  26.722  1.00  0.00     0.255 C 
ATOM     15  O   UNL A   1      30.304  23.292  27.626  1.00  0.00    -0.269 OA
ATOM     16  H   UNL A   1      29.070  24.639  26.054  1.00  0.00     0.170 HD
BRANCH  14  17
ATOM     17  C   UNL A   1      32.316  24.008  26.667  1.00  0.00     0.043 A 
ATOM     18  C   UNL A   1      32.758  21.633  27.587  1.00  0.00     0.045 C 
ATOM     19  C   UNL A   1      33.191  22.985  27.091  1.00  0.00    -0.038 A 
ATOM     20  C   UNL A   1      34.578  23.223  27.044  1.00  0.00     0.004 A 
ATOM     21  C   UNL A   1      35.089  24.401  26.499  1.00  0.00     0.000 A 
ATOM     22  C   UNL A   1      32.845  25.172  26.083  1.00  0.00     0.014 A 
ATOM     23  C   UNL A   1      34.223  25.364  25.993  1.00  0.00     0.001 A 
ENDBRANCH  14  17
ENDBRANCH   8  13
BRANCH  11  24
ATOM     24  N   UNL A   1      32.021  24.922  21.338  1.00  0.00    -0.322 N 
ATOM     25  C   UNL A   1      32.907  23.889  21.158  1.00  0.00     0.255 C 
ATOM     26  H   UNL A   1      31.756  25.376  20.506  1.00  0.00     0.170 HD
ATOM     27  O   UNL A   1      33.508  23.773  20.091  1.00  0.00    -0.269 OA
BRANCH  25  28
ATOM     28  C   UNL A   1      33.095  22.847  22.190  1.00  0.00     0.043 A 
ATOM     29  C   UNL A   1      32.077  21.886  22.288  1.00  0.00     0.014 A 
ATOM     30  C   UNL A   1      34.174  22.839  23.097  1.00  0.00    -0.038 A 
ATOM     31  C   UNL A   1      32.156  20.874  23.241  1.00  0.00     0.001 A 
ATOM     32  C   UNL A   1      34.250  21.790  24.028  1.00  0.00     0.004 A 
ATOM     33  C   UNL A   1      35.255  23.884  23.124  1.00  0.00     0.045 C 
ATOM     34  C   UNL A   1      33.250  20.818  24.099  1.00  0.00     0.000 A 
ENDBRANCH  25  28
ENDBRANCH  11  24
ENDBRANCH   4   7
ENDBRANCH   2   3
ENDBRANCH   1   2
BRANCH   1  35
ATOM     35  C   UNL A   1      34.453  29.427  27.300  1.00  0.00     0.118 C 
BRANCH  35  36
ATOM     36  N   UNL A   1      35.121  30.674  27.645  1.00  0.00    -0.352 N 
ATOM     37  C   UNL A   1      36.364  30.832  28.245  1.00  0.00     0.251 C 
ATOM     38  H   UNL A   1      34.636  31.503  27.428  1.00  0.00     0.163 HD
ATOM     39  O   UNL A   1      36.781  31.892  28.626  1.00  0.00    -0.269 OA
BRANCH  37  40
ATOM     40  C   UNL A   1      37.203  29.614  28.280  1.00  0.00     0.039 A 
ATOM     41  C   UNL A   1      37.314  28.973  29.519  1.00  0.00     0.014 A 
ATOM     42  C   UNL A   1      38.095  29.364  27.242  1.00  0.00     0.014 A 
ATOM     43  C   UNL A   1      38.440  28.203  29.783  1.00  0.00     0.010 A 
ATOM     44  C   UNL A   1      39.248  28.662  27.533  1.00  0.00     0.010 A 
ATOM     45  C   UNL A   1      39.443  28.130  28.820  1.00  0.00    -0.014 A 
BRANCH  45  46
ATOM     46  C   UNL A   1      40.768  27.585  29.085  1.00  0.00     0.031 A 
ATOM     47  C   UNL A   1      41.061  26.175  28.740  1.00  0.00     0.074 A 
ATOM     48  C   UNL A   1      41.747  28.381  29.570  1.00  0.00     0.049 A 
ATOM     49  N   UNL A   1      42.114  25.538  29.124  1.00  0.00    -0.248 NA
ATOM     50  C   UNL A   1      40.126  25.330  27.995  1.00  0.00     0.031 C 
ATOM     51  C   UNL A   1      43.184  28.130  29.536  1.00  0.00     0.029 A 
ATOM     52  N   UNL A   1      41.611  29.496  30.404  1.00  0.00    -0.354 N 
ATOM     53  C   UNL A   1      42.150  24.347  28.443  1.00  0.00     0.074 A 
ATOM     54  C   UNL A   1      40.834  24.202  27.879  1.00  0.00     0.031 C 
ATOM     55  C   UNL A   1      43.785  28.881  30.470  1.00  0.00     0.029 A 
ATOM     56  C   UNL A   1      42.739  29.519  31.250  1.00  0.00     0.049 A 
ATOM     57  H   UNL A   1      40.868  30.142  30.401  1.00  0.00     0.167 HD
ATOM     58  C   UNL A   1      43.343  23.703  28.315  1.00  0.00     0.037 A 
ATOM     59  C   UNL A   1      42.615  29.406  32.606  1.00  0.00     0.037 A 
ATOM     60  C   UNL A   1      44.309  24.212  29.289  1.00  0.00     0.049 A 
ATOM     61  C   UNL A   1      43.289  28.187  33.195  1.00  0.00     0.074 A 
ATOM     62  C   UNL A   1      45.424  25.026  29.200  1.00  0.00     0.029 A 
ATOM     63  N   UNL A   1      44.021  24.087  30.647  1.00  0.00    -0.354 N 
ATOM     64  N   UNL A   1      43.726  27.181  32.487  1.00  0.00    -0.248 NA
ATOM     65  C   UNL A   1      43.509  27.991  34.626  1.00  0.00     0.031 C 
ATOM     66  C   UNL A   1      45.724  25.494  30.511  1.00  0.00     0.029 A 
ATOM     67  C   UNL A   1      44.828  24.919  31.398  1.00  0.00     0.049 A 
ATOM     68  H   UNL A   1      43.334  23.489  31.020  1.00  0.00     0.167 HD
ATOM     69  C   UNL A   1      44.215  26.207  33.317  1.00  0.00     0.074 A 
ATOM     70  C   UNL A   1      44.092  26.779  34.646  1.00  0.00     0.031 C 
ATOM     71  C   UNL A   1      44.657  25.004  32.844  1.00  0.00     0.037 A 
BRANCH  58  72
ATOM     72  C   UNL A   1      43.706  22.764  27.175  1.00  0.00     0.058 A 
ATOM     73  C   UNL A   1      43.051  21.517  27.042  1.00  0.00     0.135 A 
ATOM     74  C   UNL A   1      44.783  22.949  26.276  1.00  0.00     0.135 A 
ATOM     75  F   UNL A   1      42.020  21.190  27.835  1.00  0.00    -0.206 F 
ATOM     76  C   UNL A   1      43.448  20.537  26.121  1.00  0.00     0.059 A 
ATOM     77  C   UNL A   1      45.165  22.008  25.319  1.00  0.00     0.059 A 
ATOM     78  F   UNL A   1      45.582  24.020  26.319  1.00  0.00    -0.206 F 
ATOM     79  C   UNL A   1      44.513  20.790  25.265  1.00  0.00     0.060 A 
BRANCH  79  80
ATOM     80  S   UNL A   1      45.069  19.520  24.113  1.00  0.00     0.124 S 
ATOM     81  O   UNL A   1      44.528  20.008  22.848  1.00  0.00    -0.237 OA
ATOM     82  O   UNL A   1      46.519  19.580  24.252  1.00  0.00    -0.237 OA
ATOM     83  O   UNL A   1      44.447  18.301  24.625  1.00  0.00    -0.744 OA
ENDBRANCH  79  80
ENDBRANCH  58  72
BRANCH  59  84
ATOM     84  C   UNL A   1      41.396  30.076  33.135  1.00  0.00     0.058 A 
ATOM     85  C   UNL A   1      41.464  31.469  33.328  1.00  0.00     0.135 A 
ATOM     86  C   UNL A   1      40.125  29.502  32.980  1.00  0.00     0.135 A 
ATOM     87  F   UNL A   1      42.655  32.064  33.505  1.00  0.00    -0.206 F 
ATOM     88  C   UNL A   1      40.346  32.281  33.183  1.00  0.00     0.059 A 
ATOM     89  C   UNL A   1      38.987  30.300  32.837  1.00  0.00     0.059 A 
ATOM     90  F   UNL A   1      39.999  28.178  32.802  1.00  0.00    -0.206 F 
ATOM     91  C   UNL A   1      39.127  31.689  32.859  1.00  0.00     0.060 A 
BRANCH  91  92
ATOM     92  S   UNL A   1      37.805  32.772  32.265  1.00  0.00     0.124 S 
ATOM     93  O   UNL A   1      38.341  33.236  30.990  1.00  0.00    -0.237 OA
ATOM     94  O   UNL A   1      36.679  31.841  32.173  1.00  0.00    -0.237 OA
ATOM     95  O   UNL A   1      37.702  33.781  33.312  1.00  0.00    -0.744 OA
ENDBRANCH  91  92
ENDBRANCH  59  84
BRANCH  71  96
ATOM     96  C   UNL A   1      45.027  23.813  33.699  1.00  0.00     0.058 A 
ATOM     97  C   UNL A   1      44.126  22.804  34.078  1.00  0.00     0.135 A 
ATOM     98  C   UNL A   1      46.379  23.586  34.050  1.00  0.00     0.135 A 
ATOM     99  F   UNL A   1      42.837  22.847  33.709  1.00  0.00    -0.206 F 
ATOM    100  C   UNL A   1      44.520  21.684  34.815  1.00  0.00     0.059 A 
ATOM    101  C   UNL A   1      46.804  22.450  34.737  1.00  0.00     0.059 A 
ATOM    102  F   UNL A   1      47.341  24.464  33.726  1.00  0.00    -0.206 F 
ATOM    103  C   UNL A   1      45.861  21.515  35.142  1.00  0.00     0.060 A 
BRANCH 103 104
ATOM    104  S   UNL A   1      46.396  20.048  36.043  1.00  0.00     0.124 S 
ATOM    105  O   UNL A   1      45.655  20.188  37.293  1.00  0.00    -0.237 OA
ATOM    106  O   UNL A   1      45.964  18.955  35.176  1.00  0.00    -0.237 OA
ATOM    107  O   UNL A   1      47.840  20.227  36.139  1.00  0.00    -0.744 OA
ENDBRANCH 103 104
ENDBRANCH  71  96
ENDBRANCH  45  46
ENDBRANCH  37  40
ENDBRANCH  35  36
ENDBRANCH   1  35
TORSDOF 17
ENDMDL
MODEL 2
REMARK VINA RESULT:     -14.2      1.486      2.122
REMARK SMILES Cc1ccccc1C(=O)Nc1cc(NC(=O)c2ccccc2C)cc(C(=O)NCCCNC(=O)c2ccc(-c3c4nc(c(-c5c(F)cc(S(=O)(=O)[O-])cc5F)c5ccc([nH]5)c(-c5c(F)cc(S(=O)(=O)[O-])cc5F)c5nc(c(-c6c(F)cc(S(=O)(=O)[O-])cc6F)c6ccc3[nH]6)C=C5)C=C4)cc2)c1
REMARK SMILES IDX 30 1 29 2 28 3 26 4 27 5 25 7 11 8 12 9 101 10 13 11 24 12
REMARK SMILES IDX 10 13 8 14 9 15 7 17 1 18 2 19 3 20 4 21 6 22 5 23 14 24
REMARK SMILES IDX 15 25 16 27 17 28 18 29 22 30 19 31 21 32 23 33 20 34 31 35
REMARK SMILES IDX 32 36 33 37 34 39 35 40 36 41 100 42 37 43 99 44 38 45 39 46
REMARK SMILES IDX 40 47 93 48 41 49 98 50 92 51 94 52 42 53 97 54 91 55 90 56
REMARK SMILES IDX 43 58 77 59 56 60 76 61 57 62 60 63 75 64 95 65 58 66 59 67
REMARK SMILES IDX 74 69 96 70 61 71 44 72 45 73 54 74 46 75 47 76 53 77 55 78
REMARK SMILES IDX 48 79 49 80 50 81 51 82 52 83 78 84 79 85 88 86 80 87 81 88
REMARK SMILES IDX 87 89 89 90 82 91 83 92 84 93 85 94 86 95 62 96 63 97 72 98
REMARK SMILES IDX 64 99 65 100 71 101 73 102 66 103 67 104 68 105 69 106
REMARK SMILES IDX 70 107
REMARK H PARENT 28 6 10 16 14 26 32 38 94 57 60 68
REMARK Flexibility Score: inf
ROOT
ATOM      1  C   UNL A   1      32.284  30.142  26.471  1.00  0.00     0.042 C 
ENDROOT
BRANCH   1   2
ATOM      2  C   UNL A   1      32.411  29.519  25.081  1.00  0.00     0.118 C 
BRANCH   2   3
ATOM      3  N   UNL A   1      31.218  29.739  24.274  1.00  0.00    -0.352 N 
ATOM      4  C   UNL A   1      30.377  28.889  23.602  1.00  0.00     0.251 C 
ATOM      5  O   UNL A   1      29.368  29.372  23.084  1.00  0.00    -0.269 OA
ATOM      6  H   UNL A   1      30.965  30.688  24.194  1.00  0.00     0.163 HD
BRANCH   4   7
ATOM      7  C   UNL A   1      30.582  27.414  23.488  1.00  0.00     0.043 A 
ATOM      8  C   UNL A   1      30.329  25.243  24.552  1.00  0.00     0.044 A 
ATOM      9  C   UNL A   1      30.932  24.616  23.459  1.00  0.00     0.052 A 
ATOM     10  C   UNL A   1      30.074  26.619  24.521  1.00  0.00     0.040 A 
ATOM     11  C   UNL A   1      31.386  25.383  22.392  1.00  0.00     0.044 A 
ATOM     12  C   UNL A   1      31.241  26.773  22.439  1.00  0.00     0.040 A 
BRANCH   8  13
ATOM     13  N   UNL A   1      30.049  24.582  25.756  1.00  0.00    -0.322 N 
ATOM     14  C   UNL A   1      30.906  23.973  26.648  1.00  0.00     0.255 C 
ATOM     15  O   UNL A   1      30.441  23.327  27.588  1.00  0.00    -0.269 OA
ATOM     16  H   UNL A   1      29.097  24.549  26.004  1.00  0.00     0.170 HD
BRANCH  14  17
ATOM     17  C   UNL A   1      32.387  24.110  26.549  1.00  0.00     0.043 A 
ATOM     18  C   UNL A   1      32.977  21.794  27.535  1.00  0.00     0.045 C 
ATOM     19  C   UNL A   1      33.325  23.149  26.982  1.00  0.00    -0.038 A 
ATOM     20  C   UNL A   1      34.696  23.457  26.889  1.00  0.00     0.004 A 
ATOM     21  C   UNL A   1      35.129  24.640  26.292  1.00  0.00     0.000 A 
ATOM     22  C   UNL A   1      32.838  25.280  25.913  1.00  0.00     0.014 A 
ATOM     23  C   UNL A   1      34.201  25.539  25.778  1.00  0.00     0.001 A 
ENDBRANCH  14  17
ENDBRANCH   8  13
BRANCH  11  24
ATOM     24  N   UNL A   1      32.056  24.868  21.269  1.00  0.00    -0.322 N 
ATOM     25  C   UNL A   1      32.959  23.843  21.136  1.00  0.00     0.255 C 
ATOM     26  H   UNL A   1      31.840  25.327  20.425  1.00  0.00     0.170 HD
ATOM     27  O   UNL A   1      33.627  23.741  20.107  1.00  0.00    -0.269 OA
BRANCH  25  28
ATOM     28  C   UNL A   1      33.091  22.795  22.169  1.00  0.00     0.043 A 
ATOM     29  C   UNL A   1      32.022  21.891  22.270  1.00  0.00     0.014 A 
ATOM     30  C   UNL A   1      34.169  22.729  23.076  1.00  0.00    -0.038 A 
ATOM     31  C   UNL A   1      32.047  20.878  23.224  1.00  0.00     0.001 A 
ATOM     32  C   UNL A   1      34.188  21.679  24.009  1.00  0.00     0.004 A 
ATOM     33  C   UNL A   1      35.304  23.714  23.101  1.00  0.00     0.045 C 
ATOM     34  C   UNL A   1      33.136  20.763  24.082  1.00  0.00     0.000 A 
ENDBRANCH  25  28
ENDBRANCH  11  24
ENDBRANCH   4   7
ENDBRANCH   2   3
ENDBRANCH   1   2
BRANCH   1  35
ATOM     35  C   UNL A   1      33.506  29.931  27.347  1.00  0.00     0.118 C 
BRANCH  35  36
ATOM     36  N   UNL A   1      33.973  31.174  27.947  1.00  0.00    -0.352 N 
ATOM     37  C   UNL A   1      35.106  31.364  28.728  1.00  0.00     0.251 C 
ATOM     38  H   UNL A   1      33.422  31.973  27.779  1.00  0.00     0.163 HD
ATOM     39  O   UNL A   1      35.343  32.391  29.303  1.00  0.00    -0.269 OA
BRANCH  37  40
ATOM     40  C   UNL A   1      36.074  30.245  28.713  1.00  0.00     0.039 A 
ATOM     41  C   UNL A   1      36.323  29.624  29.941  1.00  0.00     0.014 A 
ATOM     42  C   UNL A   1      36.929  30.092  27.626  1.00  0.00     0.014 A 
ATOM     43  C   UNL A   1      37.540  28.983  30.140  1.00  0.00     0.010 A 
ATOM     44  C   UNL A   1      38.167  29.522  27.850  1.00  0.00     0.010 A 
ATOM     45  C   UNL A   1      38.489  29.018  29.122  1.00  0.00    -0.014 A 
BRANCH  45  46
ATOM     46  C   UNL A   1      39.879  28.622  29.312  1.00  0.00     0.031 A 
ATOM     47  C   UNL A   1      40.301  27.246  28.962  1.00  0.00     0.074 A 
ATOM     48  C   UNL A   1      40.793  29.525  29.730  1.00  0.00     0.049 A 
ATOM     49  N   UNL A   1      41.438  26.732  29.287  1.00  0.00    -0.248 NA
ATOM     50  C   UNL A   1      39.420  26.295  28.282  1.00  0.00     0.031 C 
ATOM     51  C   UNL A   1      42.245  29.429  29.612  1.00  0.00     0.029 A 
ATOM     52  N   UNL A   1      40.587  30.632  30.561  1.00  0.00    -0.354 N 
ATOM     53  C   UNL A   1      41.562  25.541  28.615  1.00  0.00     0.074 A 
ATOM     54  C   UNL A   1      40.238  25.248  28.133  1.00  0.00     0.031 C 
ATOM     55  C   UNL A   1      42.814  30.254  30.501  1.00  0.00     0.029 A 
ATOM     56  C   UNL A   1      41.754  30.788  31.337  1.00  0.00     0.049 A 
ATOM     57  H   UNL A   1      39.780  31.194  30.597  1.00  0.00     0.167 HD
ATOM     58  C   UNL A   1      42.807  25.027  28.421  1.00  0.00     0.037 A 
ATOM     59  C   UNL A   1      41.723  30.683  32.699  1.00  0.00     0.037 A 
ATOM     60  C   UNL A   1      43.769  25.651  29.331  1.00  0.00     0.049 A 
ATOM     61  C   UNL A   1      42.558  29.552  33.257  1.00  0.00     0.074 A 
ATOM     62  C   UNL A   1      44.782  26.578  29.169  1.00  0.00     0.029 A 
ATOM     63  N   UNL A   1      43.576  25.517  30.705  1.00  0.00    -0.354 N 
ATOM     64  N   UNL A   1      43.058  28.588  32.533  1.00  0.00    -0.248 NA
ATOM     65  C   UNL A   1      42.882  29.403  34.674  1.00  0.00     0.031 C 
ATOM     66  C   UNL A   1      45.107  27.095  30.454  1.00  0.00     0.029 A 
ATOM     67  C   UNL A   1      44.332  26.441  31.399  1.00  0.00     0.049 A 
ATOM     68  H   UNL A   1      42.981  24.854  31.124  1.00  0.00     0.167 HD
ATOM     69  C   UNL A   1      43.697  27.685  33.340  1.00  0.00     0.074 A 
ATOM     70  C   UNL A   1      43.592  28.260  34.670  1.00  0.00     0.031 C 
ATOM     71  C   UNL A   1      44.239  26.530  32.852  1.00  0.00     0.037 A 
BRANCH  58  72
ATOM     72  C   UNL A   1      43.202  24.115  27.269  1.00  0.00     0.058 A 
ATOM     73  C   UNL A   1      42.920  22.730  27.328  1.00  0.00     0.135 A 
ATOM     74  C   UNL A   1      43.989  24.498  26.158  1.00  0.00     0.135 A 
ATOM     75  F   UNL A   1      42.197  22.214  28.332  1.00  0.00    -0.206 F 
ATOM     76  C   UNL A   1      43.401  21.810  26.385  1.00  0.00     0.059 A 
ATOM     77  C   UNL A   1      44.436  23.608  25.181  1.00  0.00     0.059 A 
ATOM     78  F   UNL A   1      44.438  25.746  25.988  1.00  0.00    -0.206 F 
ATOM     79  C   UNL A   1      44.165  22.259  25.315  1.00  0.00     0.060 A 
BRANCH  79  80
ATOM     80  S   UNL A   1      44.833  21.082  24.124  1.00  0.00     0.124 S 
ATOM     81  O   UNL A   1      44.469  21.703  22.854  1.00  0.00    -0.237 OA
ATOM     82  O   UNL A   1      46.255  21.077  24.448  1.00  0.00    -0.237 OA
ATOM     83  O   UNL A   1      44.122  19.844  24.436  1.00  0.00    -0.744 OA
ENDBRANCH  79  80
ENDBRANCH  58  72
BRANCH  59  84
ATOM     84  C   UNL A   1      40.471  31.226  33.295  1.00  0.00     0.058 A 
ATOM     85  C   UNL A   1      39.509  30.293  33.724  1.00  0.00     0.135 A 
ATOM     86  C   UNL A   1      40.433  32.508  33.863  1.00  0.00     0.135 A 
ATOM     87  F   UNL A   1      39.488  29.059  33.194  1.00  0.00    -0.206 F 
ATOM     88  C   UNL A   1      38.673  30.552  34.802  1.00  0.00     0.059 A 
ATOM     89  C   UNL A   1      39.595  32.792  34.944  1.00  0.00     0.059 A 
ATOM     90  F   UNL A   1      41.319  33.442  33.485  1.00  0.00    -0.206 F 
ATOM     91  C   UNL A   1      38.781  31.778  35.454  1.00  0.00     0.060 A 
BRANCH  91  92
ATOM     92  S   UNL A   1      38.004  31.931  37.081  1.00  0.00     0.124 S 
ATOM     93  O   UNL A   1      37.560  30.566  37.336  1.00  0.00    -0.237 OA
ATOM     94  O   UNL A   1      39.126  32.391  37.902  1.00  0.00    -0.237 OA
ATOM     95  O   UNL A   1      36.947  32.910  36.858  1.00  0.00    -0.744 OA
ENDBRANCH  91  92
ENDBRANCH  59  84
BRANCH  71  96
ATOM     96  C   UNL A   1      44.785  25.398  33.693  1.00  0.00     0.058 A 
ATOM     97  C   UNL A   1      46.147  25.064  33.776  1.00  0.00     0.135 A 
ATOM     98  C   UNL A   1      43.929  24.688  34.568  1.00  0.00     0.135 A 
ATOM     99  F   UNL A   1      47.074  25.739  33.080  1.00  0.00    -0.206 F 
ATOM    100  C   UNL A   1      46.621  24.051  34.614  1.00  0.00     0.059 A 
ATOM    101  C   UNL A   1      44.387  23.713  35.451  1.00  0.00     0.059 A 
ATOM    102  F   UNL A   1      42.609  24.930  34.600  1.00  0.00    -0.206 F 
ATOM    103  C   UNL A   1      45.734  23.379  35.448  1.00  0.00     0.060 A 
BRANCH 103 104
ATOM    104  S   UNL A   1      46.337  22.109  36.576  1.00  0.00     0.124 S 
ATOM    105  O   UNL A   1      47.782  22.247  36.424  1.00  0.00    -0.237 OA
ATOM    106  O   UNL A   1      45.798  22.533  37.866  1.00  0.00    -0.237 OA
ATOM    107  O   UNL A   1      45.757  20.884  36.037  1.00  0.00    -0.744 OA
ENDBRANCH 103 104
ENDBRANCH  71  96
ENDBRANCH  45  46
ENDBRANCH  37  40
ENDBRANCH  35  36
ENDBRANCH   1  35
TORSDOF 17
ENDMDL
MODEL 3
REMARK VINA RESULT:     -13.2      1.288      2.502
REMARK SMILES Cc1ccccc1C(=O)Nc1cc(NC(=O)c2ccccc2C)cc(C(=O)NCCCNC(=O)c2ccc(-c3c4nc(c(-c5c(F)cc(S(=O)(=O)[O-])cc5F)c5ccc([nH]5)c(-c5c(F)cc(S(=O)(=O)[O-])cc5F)c5nc(c(-c6c(F)cc(S(=O)(=O)[O-])cc6F)c6ccc3[nH]6)C=C5)C=C4)cc2)c1
REMARK SMILES IDX 30 1 29 2 28 3 26 4 27 5 25 7 11 8 12 9 101 10 13 11 24 12
REMARK SMILES IDX 10 13 8 14 9 15 7 17 1 18 2 19 3 20 4 21 6 22 5 23 14 24
REMARK SMILES IDX 15 25 16 27 17 28 18 29 22 30 19 31 21 32 23 33 20 34 31 35
REMARK SMILES IDX 32 36 33 37 34 39 35 40 36 41 100 42 37 43 99 44 38 45 39 46
REMARK SMILES IDX 40 47 93 48 41 49 98 50 92 51 94 52 42 53 97 54 91 55 90 56
REMARK SMILES IDX 43 58 77 59 56 60 76 61 57 62 60 63 75 64 95 65 58 66 59 67
REMARK SMILES IDX 74 69 96 70 61 71 44 72 45 73 54 74 46 75 47 76 53 77 55 78
REMARK SMILES IDX 48 79 49 80 50 81 51 82 52 83 78 84 79 85 88 86 80 87 81 88
REMARK SMILES IDX 87 89 89 90 82 91 83 92 84 93 85 94 86 95 62 96 63 97 72 98
REMARK SMILES IDX 64 99 65 100 71 101 73 102 66 103 67 104 68 105 69 106
REMARK SMILES IDX 70 107
REMARK H PARENT 28 6 10 16 14 26 32 38 94 57 60 68
REMARK Flexibility Score: inf
ROOT
ATOM      1  C   UNL A   1      35.054  29.351  26.758  1.00  0.00     0.042 C 
ENDROOT
BRANCH   1   2
ATOM      2  C   UNL A   1      33.938  28.348  26.467  1.00  0.00     0.118 C 
BRANCH   2   3
ATOM      3  N   UNL A   1      32.953  28.300  27.540  1.00  0.00    -0.352 N 
ATOM      4  C   UNL A   1      31.740  27.671  27.666  1.00  0.00     0.251 C 
ATOM      5  O   UNL A   1      31.173  27.734  28.758  1.00  0.00    -0.269 OA
ATOM      6  H   UNL A   1      33.209  28.824  28.334  1.00  0.00     0.163 HD
BRANCH   4   7
ATOM      7  C   UNL A   1      31.079  26.887  26.579  1.00  0.00     0.043 A 
ATOM      8  C   UNL A   1      30.391  24.692  25.796  1.00  0.00     0.044 A 
ATOM      9  C   UNL A   1      29.900  25.248  24.612  1.00  0.00     0.052 A 
ATOM     10  C   UNL A   1      30.890  25.519  26.808  1.00  0.00     0.040 A 
ATOM     11  C   UNL A   1      30.020  26.617  24.395  1.00  0.00     0.044 A 
ATOM     12  C   UNL A   1      30.644  27.409  25.362  1.00  0.00     0.040 A 
BRANCH   8  13
ATOM     13  N   UNL A   1      30.515  23.311  25.999  1.00  0.00    -0.322 N 
ATOM     14  C   UNL A   1      31.474  22.434  25.538  1.00  0.00     0.255 C 
ATOM     15  O   UNL A   1      31.327  21.225  25.722  1.00  0.00    -0.269 OA
ATOM     16  H   UNL A   1      29.812  22.905  26.556  1.00  0.00     0.170 HD
BRANCH  14  17
ATOM     17  C   UNL A   1      32.721  22.899  24.867  1.00  0.00     0.043 A 
ATOM     18  C   UNL A   1      32.115  22.080  22.491  1.00  0.00     0.045 C 
ATOM     19  C   UNL A   1      33.032  22.709  23.503  1.00  0.00    -0.038 A 
ATOM     20  C   UNL A   1      34.286  23.142  23.033  1.00  0.00     0.004 A 
ATOM     21  C   UNL A   1      35.167  23.835  23.862  1.00  0.00     0.000 A 
ATOM     22  C   UNL A   1      33.601  23.634  25.681  1.00  0.00     0.014 A 
ATOM     23  C   UNL A   1      34.813  24.106  25.179  1.00  0.00     0.001 A 
ENDBRANCH  14  17
ENDBRANCH   8  13
BRANCH  11  24
ATOM     24  N   UNL A   1      29.615  27.275  23.221  1.00  0.00    -0.322 N 
ATOM     25  C   UNL A   1      30.297  28.083  22.346  1.00  0.00     0.255 C 
ATOM     26  H   UNL A   1      28.670  27.131  22.984  1.00  0.00     0.170 HD
ATOM     27  O   UNL A   1      29.680  28.774  21.536  1.00  0.00    -0.269 OA
BRANCH  25  28
ATOM     28  C   UNL A   1      31.774  28.081  22.288  1.00  0.00     0.043 A 
ATOM     29  C   UNL A   1      32.410  29.251  22.733  1.00  0.00     0.014 A 
ATOM     30  C   UNL A   1      32.529  27.023  21.742  1.00  0.00    -0.038 A 
ATOM     31  C   UNL A   1      33.798  29.351  22.703  1.00  0.00     0.001 A 
ATOM     32  C   UNL A   1      33.929  27.133  21.751  1.00  0.00     0.004 A 
ATOM     33  C   UNL A   1      31.924  25.778  21.155  1.00  0.00     0.045 C 
ATOM     34  C   UNL A   1      34.557  28.286  22.226  1.00  0.00     0.000 A 
ENDBRANCH  25  28
ENDBRANCH  11  24
ENDBRANCH   4   7
ENDBRANCH   2   3
ENDBRANCH   1   2
BRANCH   1  35
ATOM     35  C   UNL A   1      34.912  30.046  28.100  1.00  0.00     0.118 C 
BRANCH  35  36
ATOM     36  N   UNL A   1      35.710  31.263  28.176  1.00  0.00    -0.352 N 
ATOM     37  C   UNL A   1      37.060  31.374  28.484  1.00  0.00     0.251 C 
ATOM     38  H   UNL A   1      35.237  32.107  27.988  1.00  0.00     0.163 HD
ATOM     39  O   UNL A   1      37.609  32.426  28.666  1.00  0.00    -0.269 OA
BRANCH  37  40
ATOM     40  C   UNL A   1      37.816  30.102  28.458  1.00  0.00     0.039 A 
ATOM     41  C   UNL A   1      37.895  29.402  29.667  1.00  0.00     0.014 A 
ATOM     42  C   UNL A   1      38.679  29.838  27.400  1.00  0.00     0.014 A 
ATOM     43  C   UNL A   1      38.969  28.549  29.885  1.00  0.00     0.010 A 
ATOM     44  C   UNL A   1      39.786  29.049  27.648  1.00  0.00     0.010 A 
ATOM     45  C   UNL A   1      39.956  28.451  28.908  1.00  0.00    -0.014 A 
BRANCH  45  46
ATOM     46  C   UNL A   1      41.244  27.808  29.135  1.00  0.00     0.031 A 
ATOM     47  C   UNL A   1      41.410  26.372  28.814  1.00  0.00     0.074 A 
ATOM     48  C   UNL A   1      42.301  28.534  29.560  1.00  0.00     0.049 A 
ATOM     49  N   UNL A   1      42.425  25.662  29.172  1.00  0.00    -0.248 NA
ATOM     50  C   UNL A   1      40.381  25.588  28.129  1.00  0.00     0.031 C 
ATOM     51  C   UNL A   1      43.712  28.168  29.475  1.00  0.00     0.029 A 
ATOM     52  N   UNL A   1      42.288  29.674  30.369  1.00  0.00    -0.354 N 
ATOM     53  C   UNL A   1      42.338  24.456  28.521  1.00  0.00     0.074 A 
ATOM     54  C   UNL A   1      40.993  24.404  28.014  1.00  0.00     0.031 C 
ATOM     55  C   UNL A   1      44.408  28.890  30.365  1.00  0.00     0.029 A 
ATOM     56  C   UNL A   1      43.449  29.626  31.169  1.00  0.00     0.049 A 
ATOM     57  H   UNL A   1      41.599  30.377  30.379  1.00  0.00     0.167 HD
ATOM     58  C   UNL A   1      43.470  23.716  28.362  1.00  0.00     0.037 A 
ATOM     59  C   UNL A   1      43.373  29.554  32.531  1.00  0.00     0.037 A 
ATOM     60  C   UNL A   1      44.513  24.169  29.284  1.00  0.00     0.049 A 
ATOM     61  C   UNL A   1      43.973  28.299  33.124  1.00  0.00     0.074 A 
ATOM     62  C   UNL A   1      45.684  24.889  29.131  1.00  0.00     0.029 A 
ATOM     63  N   UNL A   1      44.273  24.098  30.655  1.00  0.00    -0.354 N 
ATOM     64  N   UNL A   1      44.299  27.246  32.425  1.00  0.00    -0.248 NA
ATOM     65  C   UNL A   1      44.236  28.118  34.550  1.00  0.00     0.031 C 
ATOM     66  C   UNL A   1      46.074  25.360  30.416  1.00  0.00     0.029 A 
ATOM     67  C   UNL A   1      45.173  24.879  31.352  1.00  0.00     0.049 A 
ATOM     68  H   UNL A   1      43.557  23.564  31.071  1.00  0.00     0.167 HD
ATOM     69  C   UNL A   1      44.744  26.255  33.261  1.00  0.00     0.074 A 
ATOM     70  C   UNL A   1      44.722  26.864  34.578  1.00  0.00     0.031 C 
ATOM     71  C   UNL A   1      45.070  25.010  32.801  1.00  0.00     0.037 A 
BRANCH  58  72
ATOM     72  C   UNL A   1      43.710  22.726  27.233  1.00  0.00     0.058 A 
ATOM     73  C   UNL A   1      42.966  21.525  27.167  1.00  0.00     0.135 A 
ATOM     74  C   UNL A   1      44.752  22.812  26.279  1.00  0.00     0.135 A 
ATOM     75  F   UNL A   1      41.955  21.292  28.018  1.00  0.00    -0.206 F 
ATOM     76  C   UNL A   1      43.248  20.497  26.256  1.00  0.00     0.059 A 
ATOM     77  C   UNL A   1      45.020  21.824  25.332  1.00  0.00     0.059 A 
ATOM     78  F   UNL A   1      45.623  23.826  26.253  1.00  0.00    -0.206 F 
ATOM     79  C   UNL A   1      44.284  20.653  25.344  1.00  0.00     0.060 A 
BRANCH  79  80
ATOM     80  S   UNL A   1      44.692  19.320  24.203  1.00  0.00     0.124 S 
ATOM     81  O   UNL A   1      44.376  19.924  22.912  1.00  0.00    -0.237 OA
ATOM     82  O   UNL A   1      46.108  19.095  24.473  1.00  0.00    -0.237 OA
ATOM     83  O   UNL A   1      43.804  18.236  24.616  1.00  0.00    -0.744 OA
ENDBRANCH  79  80
ENDBRANCH  58  72
BRANCH  59  84
ATOM     84  C   UNL A   1      42.233  30.331  33.091  1.00  0.00     0.058 A 
ATOM     85  C   UNL A   1      42.382  31.729  33.154  1.00  0.00     0.135 A 
ATOM     86  C   UNL A   1      40.929  29.815  33.086  1.00  0.00     0.135 A 
ATOM     87  F   UNL A   1      43.609  32.273  33.184  1.00  0.00    -0.206 F 
ATOM     88  C   UNL A   1      41.295  32.585  33.023  1.00  0.00     0.059 A 
ATOM     89  C   UNL A   1      39.822  30.657  32.961  1.00  0.00     0.059 A 
ATOM     90  F   UNL A   1      40.727  28.489  33.038  1.00  0.00    -0.206 F 
ATOM     91  C   UNL A   1      40.027  32.033  32.848  1.00  0.00     0.060 A 
BRANCH  91  92
ATOM     92  S   UNL A   1      38.713  33.131  32.263  1.00  0.00     0.124 S 
ATOM     93  O   UNL A   1      37.636  32.191  31.976  1.00  0.00    -0.237 OA
ATOM     94  O   UNL A   1      38.504  33.990  33.430  1.00  0.00    -0.237 OA
ATOM     95  O   UNL A   1      39.311  33.782  31.104  1.00  0.00    -0.744 OA
ENDBRANCH  91  92
ENDBRANCH  59  84
BRANCH  71  96
ATOM     96  C   UNL A   1      45.381  23.812  33.671  1.00  0.00     0.058 A 
ATOM     97  C   UNL A   1      44.434  22.843  34.045  1.00  0.00     0.135 A 
ATOM     98  C   UNL A   1      46.717  23.534  34.043  1.00  0.00     0.135 A 
ATOM     99  F   UNL A   1      43.154  22.934  33.657  1.00  0.00    -0.206 F 
ATOM    100  C   UNL A   1      44.774  21.715  34.797  1.00  0.00     0.059 A 
ATOM    101  C   UNL A   1      47.087  22.389  34.745  1.00  0.00     0.059 A 
ATOM    102  F   UNL A   1      47.718  24.371  33.726  1.00  0.00    -0.206 F 
ATOM    103  C   UNL A   1      46.102  21.496  35.145  1.00  0.00     0.060 A 
BRANCH 103 104
ATOM    104  S   UNL A   1      46.565  20.017  36.065  1.00  0.00     0.124 S 
ATOM    105  O   UNL A   1      46.479  18.991  35.031  1.00  0.00    -0.237 OA
ATOM    106  O   UNL A   1      47.914  20.328  36.530  1.00  0.00    -0.237 OA
ATOM    107  O   UNL A   1      45.552  19.948  37.112  1.00  0.00    -0.744 OA
ENDBRANCH 103 104
ENDBRANCH  71  96
ENDBRANCH  45  46
ENDBRANCH  37  40
ENDBRANCH  35  36
ENDBRANCH   1  35
TORSDOF 17
ENDMDL
