MODEL 1
REMARK VINA RESULT:     -11.5      0.000      0.000
REMARK SMILES O=C(NCCCNC(=O)[C@@H](NC(=O)c1ccncc1Cl)C1CC1)c1ccc(-c2c3nc(c(-c4c(F)cc(S(=O)(=O)[O-])cc4F)c4ccc([nH]4)c(-c4c(F)cc(S(=O)(=O)[O-])cc4F)c4nc(c(-c5c(F)cc(S(=O)(=O)[O-])cc5F)c5ccc2[nH]5)C=C4)C=C3)cc1
REMARK SMILES IDX 4 1 3 2 1 3 2 4 24 6 25 7 89 8 26 9 88 10 27 11 28 12 29 13
REMARK SMILES IDX 82 14 30 15 87 16 81 17 83 18 31 19 86 20 80 21 79 22 32 24
REMARK SMILES IDX 66 25 45 26 65 27 46 28 49 29 64 30 84 31 47 32 48 33 63 35
REMARK SMILES IDX 85 36 50 37 33 38 34 39 43 40 35 41 36 42 42 43 44 44 37 45
REMARK SMILES IDX 38 46 39 47 40 48 41 49 67 50 68 51 77 52 69 53 70 54 76 55
REMARK SMILES IDX 78 56 71 57 72 58 73 59 74 60 75 61 51 62 52 63 61 64 53 65
REMARK SMILES IDX 54 66 60 67 62 68 55 69 56 70 57 71 58 72 59 73 5 74 6 75
REMARK SMILES IDX 7 76 8 77 9 79 10 80 11 81 12 82 13 84 14 85 15 86 19 87
REMARK SMILES IDX 16 88 18 89 20 90 17 91 21 92 22 93 23 94
REMARK H PARENT 3 5 83 23 49 34 7 78 11 83
REMARK Flexibility Score: inf
ROOT
ATOM      1  C   UNL A   1      39.899  23.438  27.130  1.00  0.00     0.118 C 
ENDROOT
BRANCH   1   2
ATOM      2  N   UNL A   1      40.637  24.149  26.088  1.00  0.00    -0.352 N 
ATOM      3  O   UNL A   1      41.415  25.950  24.972  1.00  0.00    -0.269 OA
ATOM      4  C   UNL A   1      40.951  25.487  26.010  1.00  0.00     0.251 C 
ATOM      5  H   UNL A   1      40.954  23.595  25.340  1.00  0.00     0.163 HD
BRANCH   4   6
ATOM      6  C   UNL A   1      40.697  26.352  27.180  1.00  0.00     0.039 A 
ATOM      7  C   UNL A   1      41.415  27.538  27.324  1.00  0.00     0.014 A 
ATOM      8  C   UNL A   1      39.776  25.960  28.154  1.00  0.00     0.014 A 
ATOM      9  C   UNL A   1      41.364  28.225  28.524  1.00  0.00     0.010 A 
ATOM     10  C   UNL A   1      39.625  26.735  29.309  1.00  0.00     0.010 A 
ATOM     11  C   UNL A   1      40.443  27.855  29.518  1.00  0.00    -0.014 A 
BRANCH  11  12
ATOM     12  C   UNL A   1      40.320  28.728  30.712  1.00  0.00     0.031 A 
ATOM     13  C   UNL A   1      41.253  28.603  31.883  1.00  0.00     0.074 A 
ATOM     14  C   UNL A   1      39.387  29.702  30.679  1.00  0.00     0.049 A 
ATOM     15  N   UNL A   1      41.308  29.336  32.965  1.00  0.00    -0.248 NA
ATOM     16  C   UNL A   1      42.243  27.515  31.846  1.00  0.00     0.031 C 
ATOM     17  C   UNL A   1      38.415  29.896  29.597  1.00  0.00     0.029 A 
ATOM     18  N   UNL A   1      39.123  30.728  31.546  1.00  0.00    -0.354 N 
ATOM     19  C   UNL A   1      42.327  28.797  33.743  1.00  0.00     0.074 A 
ATOM     20  C   UNL A   1      42.842  27.653  33.022  1.00  0.00     0.031 C 
ATOM     21  C   UNL A   1      37.712  31.012  29.829  1.00  0.00     0.029 A 
ATOM     22  C   UNL A   1      38.124  31.567  31.111  1.00  0.00     0.049 A 
ATOM     23  H   UNL A   1      39.602  30.853  32.396  1.00  0.00     0.167 HD
ATOM     24  C   UNL A   1      42.791  29.229  34.941  1.00  0.00     0.037 A 
ATOM     25  C   UNL A   1      37.580  32.653  31.688  1.00  0.00     0.037 A 
ATOM     26  C   UNL A   1      42.270  30.377  35.641  1.00  0.00     0.049 A 
ATOM     27  C   UNL A   1      38.114  33.104  33.014  1.00  0.00     0.074 A 
ATOM     28  C   UNL A   1      42.668  30.896  36.861  1.00  0.00     0.029 A 
ATOM     29  N   UNL A   1      41.241  31.189  35.182  1.00  0.00    -0.354 N 
ATOM     30  N   UNL A   1      39.080  32.581  33.731  1.00  0.00    -0.248 NA
ATOM     31  C   UNL A   1      37.486  34.287  33.611  1.00  0.00     0.031 C 
ATOM     32  C   UNL A   1      41.858  31.999  37.156  1.00  0.00     0.029 A 
ATOM     33  C   UNL A   1      40.985  32.197  36.098  1.00  0.00     0.049 A 
ATOM     34  H   UNL A   1      40.763  31.066  34.331  1.00  0.00     0.167 HD
ATOM     35  C   UNL A   1      39.179  33.375  34.866  1.00  0.00     0.074 A 
ATOM     36  C   UNL A   1      38.198  34.432  34.721  1.00  0.00     0.031 C 
ATOM     37  C   UNL A   1      39.998  33.235  35.938  1.00  0.00     0.037 A 
BRANCH  24  38
ATOM     38  C   UNL A   1      43.915  28.457  35.579  1.00  0.00     0.058 A 
ATOM     39  C   UNL A   1      45.260  28.758  35.308  1.00  0.00     0.135 A 
ATOM     40  C   UNL A   1      43.649  27.447  36.518  1.00  0.00     0.135 A 
ATOM     41  F   UNL A   1      45.574  29.703  34.408  1.00  0.00    -0.206 F 
ATOM     42  C   UNL A   1      46.300  28.073  35.933  1.00  0.00     0.059 A 
ATOM     43  C   UNL A   1      44.672  26.766  37.172  1.00  0.00     0.059 A 
ATOM     44  F   UNL A   1      42.382  27.117  36.814  1.00  0.00    -0.206 F 
ATOM     45  C   UNL A   1      45.995  27.081  36.866  1.00  0.00     0.060 A 
BRANCH  45  46
ATOM     46  S   UNL A   1      47.356  26.217  37.682  1.00  0.00     0.124 S 
ATOM     47  O   UNL A   1      48.364  26.196  36.626  1.00  0.00    -0.237 OA
ATOM     48  O   UNL A   1      47.644  27.089  38.816  1.00  0.00    -0.237 OA
ATOM     49  O   UNL A   1      46.780  24.920  38.023  1.00  0.00    -0.744 OA
ENDBRANCH  45  46
ENDBRANCH  24  38
BRANCH  25  50
ATOM     50  C   UNL A   1      36.452  33.355  31.022  1.00  0.00     0.058 A 
ATOM     51  C   UNL A   1      35.146  33.285  31.527  1.00  0.00     0.135 A 
ATOM     52  C   UNL A   1      36.669  34.132  29.872  1.00  0.00     0.135 A 
ATOM     53  F   UNL A   1      34.888  32.558  32.624  1.00  0.00    -0.206 F 
ATOM     54  C   UNL A   1      34.090  33.942  30.903  1.00  0.00     0.059 A 
ATOM     55  C   UNL A   1      35.637  34.824  29.251  1.00  0.00     0.059 A 
ATOM     56  F   UNL A   1      37.906  34.251  29.364  1.00  0.00    -0.206 F 
ATOM     57  C   UNL A   1      34.347  34.709  29.764  1.00  0.00     0.060 A 
BRANCH  57  58
ATOM     58  S   UNL A   1      32.980  35.588  28.978  1.00  0.00     0.124 S 
ATOM     59  O   UNL A   1      32.195  36.000  30.136  1.00  0.00    -0.237 OA
ATOM     60  O   UNL A   1      33.670  36.654  28.260  1.00  0.00    -0.237 OA
ATOM     61  O   UNL A   1      32.370  34.567  28.132  1.00  0.00    -0.744 OA
ENDBRANCH  57  58
ENDBRANCH  25  50
BRANCH  37  62
ATOM     62  C   UNL A   1      39.868  34.266  37.022  1.00  0.00     0.058 A 
ATOM     63  C   UNL A   1      39.101  34.027  38.174  1.00  0.00     0.135 A 
ATOM     64  C   UNL A   1      40.520  35.503  36.910  1.00  0.00     0.135 A 
ATOM     65  F   UNL A   1      38.451  32.862  38.324  1.00  0.00    -0.206 F 
ATOM     66  C   UNL A   1      38.951  34.996  39.159  1.00  0.00     0.059 A 
ATOM     67  C   UNL A   1      40.408  36.477  37.897  1.00  0.00     0.059 A 
ATOM     68  F   UNL A   1      41.273  35.777  35.833  1.00  0.00    -0.206 F 
ATOM     69  C   UNL A   1      39.605  36.221  39.009  1.00  0.00     0.060 A 
BRANCH  69  70
ATOM     70  S   UNL A   1      39.403  37.472  40.294  1.00  0.00     0.124 S 
ATOM     71  O   UNL A   1      38.718  36.714  41.336  1.00  0.00    -0.237 OA
ATOM     72  O   UNL A   1      40.782  37.848  40.586  1.00  0.00    -0.237 OA
ATOM     73  O   UNL A   1      38.604  38.503  39.639  1.00  0.00    -0.744 OA
ENDBRANCH  69  70
ENDBRANCH  37  62
ENDBRANCH  11  12
ENDBRANCH   4   6
ENDBRANCH   1   2
BRANCH   1  74
ATOM     74  C   UNL A   1      40.367  22.008  27.288  1.00  0.00     0.042 C 
BRANCH  74  75
ATOM     75  C   UNL A   1      41.571  21.899  28.198  1.00  0.00     0.117 C 
BRANCH  75  76
ATOM     76  N   UNL A   1      41.977  23.180  28.756  1.00  0.00    -0.354 N 
ATOM     77  C   UNL A   1      43.167  23.845  28.590  1.00  0.00     0.242 C 
ATOM     78  H   UNL A   1      41.311  23.628  29.327  1.00  0.00     0.163 HD
ATOM     79  O   UNL A   1      43.292  24.964  29.092  1.00  0.00    -0.273 OA
BRANCH  77  80
ATOM     80  C   UNL A   1      44.309  23.183  27.758  1.00  0.00     0.174 C 
BRANCH  80  81
ATOM     81  N   UNL A   1      43.847  23.288  26.363  1.00  0.00    -0.340 N 
ATOM     82  C   UNL A   1      43.611  22.493  25.288  1.00  0.00     0.253 C 
ATOM     83  H   UNL A   1      43.647  24.227  26.141  1.00  0.00     0.164 HD
ATOM     84  O   UNL A   1      43.071  22.973  24.295  1.00  0.00    -0.269 OA
BRANCH  82  85
ATOM     85  C   UNL A   1      44.075  21.116  25.204  1.00  0.00     0.061 A 
ATOM     86  C   UNL A   1      43.221  20.120  25.683  1.00  0.00     0.035 A 
ATOM     87  C   UNL A   1      45.380  20.808  24.845  1.00  0.00     0.072 A 
ATOM     88  C   UNL A   1      43.672  18.815  25.671  1.00  0.00     0.112 A 
ATOM     89  C   UNL A   1      45.728  19.466  24.856  1.00  0.00     0.132 A 
ATOM     90  Cl  UNL A   1      46.540  21.990  24.381  1.00  0.00    -0.082 Cl
ATOM     91  N   UNL A   1      44.898  18.462  25.235  1.00  0.00    -0.263 NA
ENDBRANCH  82  85
ENDBRANCH  80  81
BRANCH  80  92
ATOM     92  C   UNL A   1      45.644  23.746  28.187  1.00  0.00     0.021 C 
ATOM     93  C   UNL A   1      46.659  24.035  27.096  1.00  0.00     0.006 C 
ATOM     94  C   UNL A   1      46.154  25.144  27.959  1.00  0.00     0.006 C 
ENDBRANCH  80  92
ENDBRANCH  77  80
ENDBRANCH  75  76
ENDBRANCH  74  75
ENDBRANCH   1  74
TORSDOF 16
ENDMDL
MODEL 2
REMARK VINA RESULT:     -11.5      3.898      6.202
REMARK SMILES O=C(NCCCNC(=O)[C@@H](NC(=O)c1ccncc1Cl)C1CC1)c1ccc(-c2c3nc(c(-c4c(F)cc(S(=O)(=O)[O-])cc4F)c4ccc([nH]4)c(-c4c(F)cc(S(=O)(=O)[O-])cc4F)c4nc(c(-c5c(F)cc(S(=O)(=O)[O-])cc5F)c5ccc2[nH]5)C=C4)C=C3)cc1
REMARK SMILES IDX 4 1 3 2 1 3 2 4 24 6 25 7 89 8 26 9 88 10 27 11 28 12 29 13
REMARK SMILES IDX 82 14 30 15 87 16 81 17 83 18 31 19 86 20 80 21 79 22 32 24
REMARK SMILES IDX 66 25 45 26 65 27 46 28 49 29 64 30 84 31 47 32 48 33 63 35
REMARK SMILES IDX 85 36 50 37 33 38 34 39 43 40 35 41 36 42 42 43 44 44 37 45
REMARK SMILES IDX 38 46 39 47 40 48 41 49 67 50 68 51 77 52 69 53 70 54 76 55
REMARK SMILES IDX 78 56 71 57 72 58 73 59 74 60 75 61 51 62 52 63 61 64 53 65
REMARK SMILES IDX 54 66 60 67 62 68 55 69 56 70 57 71 58 72 59 73 5 74 6 75
REMARK SMILES IDX 7 76 8 77 9 79 10 80 11 81 12 82 13 84 14 85 15 86 19 87
REMARK SMILES IDX 16 88 18 89 20 90 17 91 21 92 22 93 23 94
REMARK H PARENT 3 5 83 23 49 34 7 78 11 83
REMARK Flexibility Score: inf
ROOT
ATOM      1  C   UNL A   1      38.211  24.347  26.430  1.00  0.00     0.118 C 
ENDROOT
BRANCH   1   2
ATOM      2  N   UNL A   1      39.605  24.368  25.994  1.00  0.00    -0.352 N 
ATOM      3  O   UNL A   1      41.690  25.207  25.783  1.00  0.00    -0.269 OA
ATOM      4  C   UNL A   1      40.622  25.207  26.389  1.00  0.00     0.251 C 
ATOM      5  H   UNL A   1      39.851  23.689  25.326  1.00  0.00     0.163 HD
BRANCH   4   6
ATOM      6  C   UNL A   1      40.399  26.117  27.530  1.00  0.00     0.039 A 
ATOM      7  C   UNL A   1      41.067  27.339  27.574  1.00  0.00     0.014 A 
ATOM      8  C   UNL A   1      39.557  25.733  28.577  1.00  0.00     0.014 A 
ATOM      9  C   UNL A   1      41.056  28.082  28.741  1.00  0.00     0.010 A 
ATOM     10  C   UNL A   1      39.440  26.557  29.702  1.00  0.00     0.010 A 
ATOM     11  C   UNL A   1      40.215  27.721  29.807  1.00  0.00    -0.014 A 
BRANCH  11  12
ATOM     12  C   UNL A   1      40.123  28.646  30.964  1.00  0.00     0.031 A 
ATOM     13  C   UNL A   1      41.051  28.535  32.141  1.00  0.00     0.074 A 
ATOM     14  C   UNL A   1      39.225  29.650  30.891  1.00  0.00     0.049 A 
ATOM     15  N   UNL A   1      41.132  29.309  33.193  1.00  0.00    -0.248 NA
ATOM     16  C   UNL A   1      42.002  27.412  32.150  1.00  0.00     0.031 C 
ATOM     17  C   UNL A   1      38.260  29.834  29.800  1.00  0.00     0.029 A 
ATOM     18  N   UNL A   1      38.997  30.719  31.715  1.00  0.00    -0.354 N 
ATOM     19  C   UNL A   1      42.130  28.767  33.993  1.00  0.00     0.074 A 
ATOM     20  C   UNL A   1      42.605  27.577  33.320  1.00  0.00     0.031 C 
ATOM     21  C   UNL A   1      37.597  30.983  29.985  1.00  0.00     0.029 A 
ATOM     22  C   UNL A   1      38.029  31.574  31.244  1.00  0.00     0.049 A 
ATOM     23  H   UNL A   1      39.480  30.862  32.559  1.00  0.00     0.167 HD
ATOM     24  C   UNL A   1      42.609  29.230  35.173  1.00  0.00     0.037 A 
ATOM     25  C   UNL A   1      37.523  32.701  31.776  1.00  0.00     0.037 A 
ATOM     26  C   UNL A   1      42.129  30.424  35.826  1.00  0.00     0.049 A 
ATOM     27  C   UNL A   1      38.073  33.187  33.083  1.00  0.00     0.074 A 
ATOM     28  C   UNL A   1      42.545  30.978  37.024  1.00  0.00     0.029 A 
ATOM     29  N   UNL A   1      41.130  31.252  35.332  1.00  0.00    -0.354 N 
ATOM     30  N   UNL A   1      39.020  32.660  33.822  1.00  0.00    -0.248 NA
ATOM     31  C   UNL A   1      37.487  34.415  33.631  1.00  0.00     0.031 C 
ATOM     32  C   UNL A   1      41.774  32.120  37.272  1.00  0.00     0.029 A 
ATOM     33  C   UNL A   1      40.910  32.305  36.206  1.00  0.00     0.049 A 
ATOM     34  H   UNL A   1      40.648  31.112  34.486  1.00  0.00     0.167 HD
ATOM     35  C   UNL A   1      39.146  33.495  34.924  1.00  0.00     0.074 A 
ATOM     36  C   UNL A   1      38.204  34.580  34.735  1.00  0.00     0.031 C 
ATOM     37  C   UNL A   1      39.960  33.370  36.002  1.00  0.00     0.037 A 
BRANCH  24  38
ATOM     38  C   UNL A   1      43.706  28.446  35.844  1.00  0.00     0.058 A 
ATOM     39  C   UNL A   1      43.422  27.380  36.713  1.00  0.00     0.135 A 
ATOM     40  C   UNL A   1      45.055  28.721  35.568  1.00  0.00     0.135 A 
ATOM     41  F   UNL A   1      42.151  27.082  37.024  1.00  0.00    -0.206 F 
ATOM     42  C   UNL A   1      44.437  26.626  37.298  1.00  0.00     0.059 A 
ATOM     43  C   UNL A   1      46.085  27.966  36.123  1.00  0.00     0.059 A 
ATOM     44  F   UNL A   1      45.385  29.728  34.746  1.00  0.00    -0.206 F 
ATOM     45  C   UNL A   1      45.765  26.925  36.994  1.00  0.00     0.060 A 
BRANCH  45  46
ATOM     46  S   UNL A   1      47.069  25.926  37.746  1.00  0.00     0.124 S 
ATOM     47  O   UNL A   1      48.128  26.029  36.747  1.00  0.00    -0.237 OA
ATOM     48  O   UNL A   1      47.313  26.626  39.003  1.00  0.00    -0.237 OA
ATOM     49  O   UNL A   1      46.456  24.608  37.876  1.00  0.00    -0.744 OA
ENDBRANCH  45  46
ENDBRANCH  24  38
BRANCH  25  50
ATOM     50  C   UNL A   1      36.421  33.415  31.080  1.00  0.00     0.058 A 
ATOM     51  C   UNL A   1      36.644  34.122  29.891  1.00  0.00     0.135 A 
ATOM     52  C   UNL A   1      35.111  33.382  31.587  1.00  0.00     0.135 A 
ATOM     53  F   UNL A   1      37.877  34.182  29.365  1.00  0.00    -0.206 F 
ATOM     54  C   UNL A   1      35.612  34.790  29.238  1.00  0.00     0.059 A 
ATOM     55  C   UNL A   1      34.059  34.013  30.936  1.00  0.00     0.059 A 
ATOM     56  F   UNL A   1      34.841  32.697  32.709  1.00  0.00    -0.206 F 
ATOM     57  C   UNL A   1      34.322  34.730  29.770  1.00  0.00     0.060 A 
BRANCH  57  58
ATOM     58  S   UNL A   1      32.981  35.569  28.902  1.00  0.00     0.124 S 
ATOM     59  O   UNL A   1      33.711  36.577  28.144  1.00  0.00    -0.237 OA
ATOM     60  O   UNL A   1      32.390  34.485  28.124  1.00  0.00    -0.237 OA
ATOM     61  O   UNL A   1      32.147  36.076  29.988  1.00  0.00    -0.744 OA
ENDBRANCH  57  58
ENDBRANCH  25  50
BRANCH  37  62
ATOM     62  C   UNL A   1      39.866  34.448  37.044  1.00  0.00     0.058 A 
ATOM     63  C   UNL A   1      39.010  34.327  38.150  1.00  0.00     0.135 A 
ATOM     64  C   UNL A   1      40.644  35.611  36.936  1.00  0.00     0.135 A 
ATOM     65  F   UNL A   1      38.239  33.238  38.293  1.00  0.00    -0.206 F 
ATOM     66  C   UNL A   1      38.897  35.343  39.093  1.00  0.00     0.059 A 
ATOM     67  C   UNL A   1      40.569  36.627  37.884  1.00  0.00     0.059 A 
ATOM     68  F   UNL A   1      41.485  35.770  35.903  1.00  0.00    -0.206 F 
ATOM     69  C   UNL A   1      39.677  36.491  38.948  1.00  0.00     0.060 A 
BRANCH  69  70
ATOM     70  S   UNL A   1      39.522  37.803  40.178  1.00  0.00     0.124 S 
ATOM     71  O   UNL A   1      38.368  38.542  39.674  1.00  0.00    -0.237 OA
ATOM     72  O   UNL A   1      39.306  37.053  41.411  1.00  0.00    -0.237 OA
ATOM     73  O   UNL A   1      40.801  38.501  40.091  1.00  0.00    -0.744 OA
ENDBRANCH  69  70
ENDBRANCH  37  62
ENDBRANCH  11  12
ENDBRANCH   4   6
ENDBRANCH   1   2
BRANCH   1  74
ATOM     74  C   UNL A   1      37.381  23.353  25.648  1.00  0.00     0.042 C 
BRANCH  74  75
ATOM     75  C   UNL A   1      36.018  23.903  25.289  1.00  0.00     0.117 C 
BRANCH  75  76
ATOM     76  N   UNL A   1      35.508  23.375  24.033  1.00  0.00    -0.354 N 
ATOM     77  C   UNL A   1      34.438  23.815  23.292  1.00  0.00     0.242 C 
ATOM     78  H   UNL A   1      35.994  22.600  23.667  1.00  0.00     0.163 HD
ATOM     79  O   UNL A   1      34.208  23.273  22.209  1.00  0.00    -0.273 OA
BRANCH  77  80
ATOM     80  C   UNL A   1      33.566  24.993  23.826  1.00  0.00     0.174 C 
BRANCH  80  81
ATOM     81  N   UNL A   1      33.714  26.044  22.803  1.00  0.00    -0.340 N 
ATOM     82  C   UNL A   1      33.637  27.394  22.687  1.00  0.00     0.253 C 
ATOM     83  H   UNL A   1      33.939  25.641  21.933  1.00  0.00     0.164 HD
ATOM     84  O   UNL A   1      33.982  27.926  21.636  1.00  0.00    -0.269 OA
BRANCH  82  85
ATOM     85  C   UNL A   1      33.050  28.245  23.713  1.00  0.00     0.061 A 
ATOM     86  C   UNL A   1      33.806  28.479  24.864  1.00  0.00     0.035 A 
ATOM     87  C   UNL A   1      31.725  28.654  23.649  1.00  0.00     0.072 A 
ATOM     88  C   UNL A   1      33.238  29.230  25.873  1.00  0.00     0.112 A 
ATOM     89  C   UNL A   1      31.256  29.413  24.710  1.00  0.00     0.132 A 
ATOM     90  Cl  UNL A   1      30.681  28.284  22.333  1.00  0.00    -0.082 Cl
ATOM     91  N   UNL A   1      31.989  29.732  25.807  1.00  0.00    -0.263 NA
ENDBRANCH  82  85
ENDBRANCH  80  81
BRANCH  80  92
ATOM     92  C   UNL A   1      32.205  24.478  24.230  1.00  0.00     0.021 C 
ATOM     93  C   UNL A   1      31.449  25.263  25.285  1.00  0.00     0.006 C 
ATOM     94  C   UNL A   1      30.870  25.100  23.918  1.00  0.00     0.006 C 
ENDBRANCH  80  92
ENDBRANCH  77  80
ENDBRANCH  75  76
ENDBRANCH  74  75
ENDBRANCH   1  74
TORSDOF 16
ENDMDL
MODEL 3
REMARK VINA RESULT:     -11.4      3.579      5.689
REMARK SMILES O=C(NCCCNC(=O)[C@@H](NC(=O)c1ccncc1Cl)C1CC1)c1ccc(-c2c3nc(c(-c4c(F)cc(S(=O)(=O)[O-])cc4F)c4ccc([nH]4)c(-c4c(F)cc(S(=O)(=O)[O-])cc4F)c4nc(c(-c5c(F)cc(S(=O)(=O)[O-])cc5F)c5ccc2[nH]5)C=C4)C=C3)cc1
REMARK SMILES IDX 4 1 3 2 1 3 2 4 24 6 25 7 89 8 26 9 88 10 27 11 28 12 29 13
REMARK SMILES IDX 82 14 30 15 87 16 81 17 83 18 31 19 86 20 80 21 79 22 32 24
REMARK SMILES IDX 66 25 45 26 65 27 46 28 49 29 64 30 84 31 47 32 48 33 63 35
REMARK SMILES IDX 85 36 50 37 33 38 34 39 43 40 35 41 36 42 42 43 44 44 37 45
REMARK SMILES IDX 38 46 39 47 40 48 41 49 67 50 68 51 77 52 69 53 70 54 76 55
REMARK SMILES IDX 78 56 71 57 72 58 73 59 74 60 75 61 51 62 52 63 61 64 53 65
REMARK SMILES IDX 54 66 60 67 62 68 55 69 56 70 57 71 58 72 59 73 5 74 6 75
REMARK SMILES IDX 7 76 8 77 9 79 10 80 11 81 12 82 13 84 14 85 15 86 19 87
REMARK SMILES IDX 16 88 18 89 20 90 17 91 21 92 22 93 23 94
REMARK H PARENT 3 5 83 23 49 34 7 78 11 83
REMARK Flexibility Score: inf
ROOT
ATOM      1  C   UNL A   1      39.682  23.595  27.002  1.00  0.00     0.118 C 
ENDROOT
BRANCH   1   2
ATOM      2  N   UNL A   1      40.605  24.233  26.066  1.00  0.00    -0.352 N 
ATOM      3  O   UNL A   1      41.708  25.950  25.100  1.00  0.00    -0.269 OA
ATOM      4  C   UNL A   1      41.085  25.523  26.069  1.00  0.00     0.251 C 
ATOM      5  H   UNL A   1      40.929  23.662  25.333  1.00  0.00     0.163 HD
BRANCH   4   6
ATOM      6  C   UNL A   1      40.817  26.385  27.237  1.00  0.00     0.039 A 
ATOM      7  C   UNL A   1      41.515  27.583  27.380  1.00  0.00     0.014 A 
ATOM      8  C   UNL A   1      39.904  25.979  28.212  1.00  0.00     0.014 A 
ATOM      9  C   UNL A   1      41.453  28.271  28.579  1.00  0.00     0.010 A 
ATOM     10  C   UNL A   1      39.741  26.752  29.367  1.00  0.00     0.010 A 
ATOM     11  C   UNL A   1      40.539  27.886  29.574  1.00  0.00    -0.014 A 
BRANCH  11  12
ATOM     12  C   UNL A   1      40.403  28.759  30.767  1.00  0.00     0.031 A 
ATOM     13  C   UNL A   1      41.320  28.630  31.950  1.00  0.00     0.074 A 
ATOM     14  C   UNL A   1      39.472  29.734  30.723  1.00  0.00     0.049 A 
ATOM     15  N   UNL A   1      41.362  29.363  33.034  1.00  0.00    -0.248 NA
ATOM     16  C   UNL A   1      42.308  27.541  31.925  1.00  0.00     0.031 C 
ATOM     17  C   UNL A   1      38.513  29.931  29.629  1.00  0.00     0.029 A 
ATOM     18  N   UNL A   1      39.198  30.760  31.587  1.00  0.00    -0.354 N 
ATOM     19  C   UNL A   1      42.370  28.821  33.824  1.00  0.00     0.074 A 
ATOM     20  C   UNL A   1      42.893  27.677  33.109  1.00  0.00     0.031 C 
ATOM     21  C   UNL A   1      37.810  31.048  29.852  1.00  0.00     0.029 A 
ATOM     22  C   UNL A   1      38.206  31.601  31.140  1.00  0.00     0.049 A 
ATOM     23  H   UNL A   1      39.666  30.883  32.444  1.00  0.00     0.167 HD
ATOM     24  C   UNL A   1      42.819  29.250  35.028  1.00  0.00     0.037 A 
ATOM     25  C   UNL A   1      37.656  32.687  31.712  1.00  0.00     0.037 A 
ATOM     26  C   UNL A   1      42.291  30.399  35.723  1.00  0.00     0.049 A 
ATOM     27  C   UNL A   1      38.174  33.136  33.044  1.00  0.00     0.074 A 
ATOM     28  C   UNL A   1      42.674  30.917  36.949  1.00  0.00     0.029 A 
ATOM     29  N   UNL A   1      41.269  31.213  35.251  1.00  0.00    -0.354 N 
ATOM     30  N   UNL A   1      39.130  32.611  33.773  1.00  0.00    -0.248 NA
ATOM     31  C   UNL A   1      37.540  34.320  33.635  1.00  0.00     0.031 C 
ATOM     32  C   UNL A   1      41.862  32.021  37.234  1.00  0.00     0.029 A 
ATOM     33  C   UNL A   1      41.003  32.221  36.165  1.00  0.00     0.049 A 
ATOM     34  H   UNL A   1      40.802  31.092  34.394  1.00  0.00     0.167 HD
ATOM     35  C   UNL A   1      39.215  33.403  34.910  1.00  0.00     0.074 A 
ATOM     36  C   UNL A   1      38.238  34.462  34.754  1.00  0.00     0.031 C 
ATOM     37  C   UNL A   1      40.020  33.261  35.993  1.00  0.00     0.037 A 
BRANCH  24  38
ATOM     38  C   UNL A   1      43.933  28.476  35.680  1.00  0.00     0.058 A 
ATOM     39  C   UNL A   1      43.674  27.413  36.559  1.00  0.00     0.135 A 
ATOM     40  C   UNL A   1      45.276  28.759  35.377  1.00  0.00     0.135 A 
ATOM     41  F   UNL A   1      42.412  27.108  36.898  1.00  0.00    -0.206 F 
ATOM     42  C   UNL A   1      44.705  26.668  37.127  1.00  0.00     0.059 A 
ATOM     43  C   UNL A   1      46.322  28.013  35.914  1.00  0.00     0.059 A 
ATOM     44  F   UNL A   1      45.582  29.765  34.543  1.00  0.00    -0.206 F 
ATOM     45  C   UNL A   1      46.026  26.975  36.795  1.00  0.00     0.060 A 
BRANCH  45  46
ATOM     46  S   UNL A   1      47.351  25.987  37.525  1.00  0.00     0.124 S 
ATOM     47  O   UNL A   1      47.640  26.740  38.741  1.00  0.00    -0.237 OA
ATOM     48  O   UNL A   1      46.704  24.693  37.720  1.00  0.00    -0.237 OA
ATOM     49  O   UNL A   1      48.396  26.014  36.507  1.00  0.00    -0.744 OA
ENDBRANCH  45  46
ENDBRANCH  24  38
BRANCH  25  50
ATOM     50  C   UNL A   1      36.538  33.392  31.031  1.00  0.00     0.058 A 
ATOM     51  C   UNL A   1      36.757  34.183  29.896  1.00  0.00     0.135 A 
ATOM     52  C   UNL A   1      35.220  33.264  31.498  1.00  0.00     0.135 A 
ATOM     53  F   UNL A   1      37.998  34.335  29.410  1.00  0.00    -0.206 F 
ATOM     54  C   UNL A   1      35.710  34.843  29.258  1.00  0.00     0.059 A 
ATOM     55  C   UNL A   1      34.154  33.886  30.859  1.00  0.00     0.059 A 
ATOM     56  F   UNL A   1      34.955  32.496  32.566  1.00  0.00    -0.206 F 
ATOM     57  C   UNL A   1      34.412  34.688  29.749  1.00  0.00     0.060 A 
BRANCH  57  58
ATOM     58  S   UNL A   1      33.053  35.517  28.898  1.00  0.00     0.124 S 
ATOM     59  O   UNL A   1      32.280  36.034  30.021  1.00  0.00    -0.237 OA
ATOM     60  O   UNL A   1      33.754  36.512  28.092  1.00  0.00    -0.237 OA
ATOM     61  O   UNL A   1      32.426  34.439  28.141  1.00  0.00    -0.744 OA
ENDBRANCH  57  58
ENDBRANCH  25  50
BRANCH  37  62
ATOM     62  C   UNL A   1      39.878  34.291  37.076  1.00  0.00     0.058 A 
ATOM     63  C   UNL A   1      40.591  35.500  37.039  1.00  0.00     0.135 A 
ATOM     64  C   UNL A   1      39.017  34.067  38.162  1.00  0.00     0.135 A 
ATOM     65  F   UNL A   1      41.433  35.757  36.026  1.00  0.00    -0.206 F 
ATOM     66  C   UNL A   1      40.486  36.435  38.063  1.00  0.00     0.059 A 
ATOM     67  C   UNL A   1      38.875  35.001  39.183  1.00  0.00     0.059 A 
ATOM     68  F   UNL A   1      38.306  32.931  38.240  1.00  0.00    -0.206 F 
ATOM     69  C   UNL A   1      39.629  36.174  39.133  1.00  0.00     0.060 A 
BRANCH  69  70
ATOM     70  S   UNL A   1      39.502  37.395  40.457  1.00  0.00     0.124 S 
ATOM     71  O   UNL A   1      40.902  37.752  40.660  1.00  0.00    -0.237 OA
ATOM     72  O   UNL A   1      38.665  38.426  39.853  1.00  0.00    -0.237 OA
ATOM     73  O   UNL A   1      38.879  36.648  41.546  1.00  0.00    -0.744 OA
ENDBRANCH  69  70
ENDBRANCH  37  62
ENDBRANCH  11  12
ENDBRANCH   4   6
ENDBRANCH   1   2
BRANCH   1  74
ATOM     74  C   UNL A   1      38.887  22.484  26.354  1.00  0.00     0.042 C 
BRANCH  74  75
ATOM     75  C   UNL A   1      37.580  22.981  25.773  1.00  0.00     0.117 C 
BRANCH  75  76
ATOM     76  N   UNL A   1      37.520  22.853  24.325  1.00  0.00    -0.354 N 
ATOM     77  C   UNL A   1      36.432  23.001  23.499  1.00  0.00     0.242 C 
ATOM     78  H   UNL A   1      38.370  22.630  23.880  1.00  0.00     0.163 HD
ATOM     79  O   UNL A   1      36.602  22.921  22.280  1.00  0.00    -0.273 OA
BRANCH  77  80
ATOM     80  C   UNL A   1      35.029  23.286  24.118  1.00  0.00     0.174 C 
BRANCH  80  81
ATOM     81  N   UNL A   1      34.403  24.230  23.175  1.00  0.00    -0.340 N 
ATOM     82  C   UNL A   1      33.546  25.282  23.179  1.00  0.00     0.253 C 
ATOM     83  H   UNL A   1      34.699  24.036  22.255  1.00  0.00     0.164 HD
ATOM     84  O   UNL A   1      33.374  25.919  22.143  1.00  0.00    -0.269 OA
BRANCH  82  85
ATOM     85  C   UNL A   1      32.722  25.628  24.328  1.00  0.00     0.061 A 
ATOM     86  C   UNL A   1      33.337  26.315  25.377  1.00  0.00     0.035 A 
ATOM     87  C   UNL A   1      31.432  25.136  24.473  1.00  0.00     0.072 A 
ATOM     88  C   UNL A   1      32.586  26.593  26.501  1.00  0.00     0.112 A 
ATOM     89  C   UNL A   1      30.761  25.483  25.635  1.00  0.00     0.132 A 
ATOM     90  Cl  UNL A   1      30.651  24.160  23.291  1.00  0.00    -0.082 Cl
ATOM     91  N   UNL A   1      31.298  26.221  26.640  1.00  0.00    -0.263 NA
ENDBRANCH  82  85
ENDBRANCH  80  81
BRANCH  80  92
ATOM     92  C   UNL A   1      34.359  21.983  24.484  1.00  0.00     0.021 C 
ATOM     93  C   UNL A   1      33.238  22.040  25.505  1.00  0.00     0.006 C 
ATOM     94  C   UNL A   1      32.964  21.547  24.123  1.00  0.00     0.006 C 
ENDBRANCH  80  92
ENDBRANCH  77  80
ENDBRANCH  75  76
ENDBRANCH  74  75
ENDBRANCH   1  74
TORSDOF 16
ENDMDL
