MODEL 1
REMARK VINA RESULT:     -13.6      0.000      0.000
REMARK SMILES Cc1ccc(NC(=O)C[NH+]2CCN(c3ccc(C(=O)NCCCNC(=O)c4ccc(-c5c6nc(c(-c7c(F)cc(S(=O)(=O)[O-])cc7F)c7ccc([nH]7)c(-c7c(F)cc(S(=O)(=O)[O-])cc7F)c7nc(c(-c8c(F)cc(S(=O)(=O)[O-])cc8F)c8ccc5[nH]8)C=C7)C=C6)cc4)cc3NS(C)(=O)=O)CC2)cc1
REMARK SMILES IDX 21 1 20 2 18 3 19 4 17 6 14 7 15 8 94 9 16 10 93 11 13 12
REMARK SMILES IDX 10 13 11 14 101 15 12 17 100 18 9 19 7 20 6 21 8 23 5 24
REMARK SMILES IDX 1 25 2 26 3 27 103 28 4 29 102 30 95 31 96 33 97 34 98 35
REMARK SMILES IDX 99 36 22 37 23 38 24 39 25 40 26 42 27 43 28 44 92 45 29 46
REMARK SMILES IDX 91 47 30 48 31 49 32 50 85 51 33 52 90 53 84 54 86 55 34 56
REMARK SMILES IDX 89 57 83 58 82 59 35 61 69 62 48 63 68 64 49 65 52 66 67 67
REMARK SMILES IDX 87 68 50 69 51 70 66 72 88 73 53 74 36 75 37 76 46 77 38 78
REMARK SMILES IDX 39 79 45 80 47 81 40 82 41 83 42 84 43 85 44 86 70 87 71 88
REMARK SMILES IDX 80 89 72 90 73 91 79 92 81 93 74 94 75 95 76 96 77 97 78 98
REMARK SMILES IDX 54 99 55 100 64 101 56 102 57 103 63 104 65 105 58 106
REMARK SMILES IDX 59 107 60 108 61 109 62 110
REMARK H PARENT 20 5 10 16 6 22 95 32 24 41 86 60 52 71
REMARK Flexibility Score: inf
ROOT
ATOM      1  C   UNL A   1      31.196  30.897  26.405  1.00  0.00     0.118 C 
ENDROOT
BRANCH   1   2
ATOM      2  N   UNL A   1      30.608  30.958  25.073  1.00  0.00    -0.352 N 
ATOM      3  C   UNL A   1      30.457  30.013  24.092  1.00  0.00     0.251 C 
ATOM      4  O   UNL A   1      29.992  30.381  23.011  1.00  0.00    -0.269 OA
ATOM      5  H   UNL A   1      30.254  31.844  24.833  1.00  0.00     0.163 HD
BRANCH   3   6
ATOM      6  C   UNL A   1      30.804  28.570  24.266  1.00  0.00     0.042 A 
ATOM      7  C   UNL A   1      31.508  25.834  24.413  1.00  0.00     0.062 A 
ATOM      8  C   UNL A   1      31.323  26.607  25.567  1.00  0.00     0.029 A 
ATOM      9  C   UNL A   1      31.292  26.440  23.137  1.00  0.00     0.073 A 
ATOM     10  C   UNL A   1      31.018  27.953  25.490  1.00  0.00     0.016 A 
ATOM     11  C   UNL A   1      30.956  27.800  23.097  1.00  0.00     0.042 A 
BRANCH   7  12
ATOM     12  N   UNL A   1      32.049  24.539  24.623  1.00  0.00    -0.359 N 
ATOM     13  N   UNL A   1      32.890  22.103  26.008  1.00  0.00    -0.324 N 
ATOM     14  C   UNL A   1      33.409  23.386  26.499  1.00  0.00     0.284 C 
ATOM     15  C   UNL A   1      31.445  22.337  25.773  1.00  0.00     0.284 C 
ATOM     16  H   UNL A   1      33.065  21.364  26.690  1.00  0.00     0.348 HD
ATOM     17  C   UNL A   1      33.186  24.595  25.583  1.00  0.00     0.178 C 
ATOM     18  C   UNL A   1      31.071  23.433  24.734  1.00  0.00     0.178 C 
BRANCH  13  19
ATOM     19  C   UNL A   1      33.565  21.627  24.768  1.00  0.00     0.364 C 
BRANCH  19  20
ATOM     20  C   UNL A   1      34.909  20.907  25.026  1.00  0.00     0.279 C 
ATOM     21  N   UNL A   1      35.077  19.544  24.998  1.00  0.00    -0.321 N 
ATOM     22  H   UNL A   1      35.993  19.249  25.206  1.00  0.00     0.170 HD
ATOM     23  O   UNL A   1      35.936  21.571  25.230  1.00  0.00    -0.268 OA
BRANCH  21  24
ATOM     24  C   UNL A   1      34.189  18.494  24.729  1.00  0.00     0.041 A 
ATOM     25  C   UNL A   1      32.542  14.646  25.389  1.00  0.00     0.044 C 
ATOM     26  C   UNL A   1      32.849  16.050  24.944  1.00  0.00    -0.051 A 
ATOM     27  C   UNL A   1      33.766  16.289  23.920  1.00  0.00     0.005 A 
ATOM     28  C   UNL A   1      32.412  17.140  25.689  1.00  0.00     0.005 A 
ATOM     29  C   UNL A   1      34.424  17.513  23.784  1.00  0.00     0.026 A 
ATOM     30  C   UNL A   1      33.073  18.369  25.568  1.00  0.00     0.026 A 
ENDBRANCH  21  24
ENDBRANCH  19  20
ENDBRANCH  13  19
ENDBRANCH   7  12
BRANCH   9  31
ATOM     31  N   UNL A   1      31.477  25.649  21.945  1.00  0.00    -0.282 N 
ATOM     32  H   UNL A   1      30.656  25.273  21.552  1.00  0.00     0.180 HD
BRANCH  31  33
ATOM     33  S   UNL A   1      32.904  25.280  21.136  1.00  0.00     0.229 S 
ATOM     34  C   UNL A   1      33.211  23.564  21.538  1.00  0.00     0.183 C 
ATOM     35  O   UNL A   1      32.565  25.297  19.732  1.00  0.00    -0.207 OA
ATOM     36  O   UNL A   1      34.030  26.048  21.625  1.00  0.00    -0.207 OA
ENDBRANCH  31  33
ENDBRANCH   9  31
ENDBRANCH   3   6
ENDBRANCH   1   2
BRANCH   1  37
ATOM     37  C   UNL A   1      32.274  31.968  26.549  1.00  0.00     0.042 C 
BRANCH  37  38
ATOM     38  C   UNL A   1      33.323  31.593  27.569  1.00  0.00     0.118 C 
BRANCH  38  39
ATOM     39  N   UNL A   1      33.453  30.147  27.680  1.00  0.00    -0.352 N 
ATOM     40  C   UNL A   1      34.628  29.420  27.594  1.00  0.00     0.251 C 
ATOM     41  H   UNL A   1      32.624  29.637  27.832  1.00  0.00     0.163 HD
ATOM     42  O   UNL A   1      34.711  28.302  27.109  1.00  0.00    -0.269 OA
BRANCH  40  43
ATOM     43  C   UNL A   1      35.775  30.023  28.293  1.00  0.00     0.039 A 
ATOM     44  C   UNL A   1      36.795  30.517  27.466  1.00  0.00     0.014 A 
ATOM     45  C   UNL A   1      36.012  29.604  29.595  1.00  0.00     0.014 A 
ATOM     46  C   UNL A   1      38.109  30.353  27.855  1.00  0.00     0.010 A 
ATOM     47  C   UNL A   1      37.305  29.296  29.912  1.00  0.00     0.010 A 
ATOM     48  C   UNL A   1      38.332  29.631  29.017  1.00  0.00    -0.014 A 
BRANCH  48  49
ATOM     49  C   UNL A   1      39.637  29.291  29.519  1.00  0.00     0.031 A 
ATOM     50  C   UNL A   1      40.043  27.907  29.241  1.00  0.00     0.074 A 
ATOM     51  C   UNL A   1      40.431  30.320  29.886  1.00  0.00     0.049 A 
ATOM     52  N   UNL A   1      41.129  27.375  29.646  1.00  0.00    -0.248 NA
ATOM     53  C   UNL A   1      39.211  26.974  28.467  1.00  0.00     0.031 C 
ATOM     54  C   UNL A   1      41.881  30.378  30.013  1.00  0.00     0.029 A 
ATOM     55  N   UNL A   1      39.996  31.522  30.467  1.00  0.00    -0.354 N 
ATOM     56  C   UNL A   1      41.322  26.241  28.887  1.00  0.00     0.074 A 
ATOM     57  C   UNL A   1      40.045  25.946  28.304  1.00  0.00     0.031 C 
ATOM     58  C   UNL A   1      42.197  31.336  30.905  1.00  0.00     0.029 A 
ATOM     59  C   UNL A   1      40.942  31.805  31.476  1.00  0.00     0.049 A 
ATOM     60  H   UNL A   1      39.203  32.052  30.224  1.00  0.00     0.167 HD
ATOM     61  C   UNL A   1      42.606  25.828  28.716  1.00  0.00     0.037 A 
ATOM     62  C   UNL A   1      40.573  31.630  32.782  1.00  0.00     0.037 A 
ATOM     63  C   UNL A   1      43.455  26.539  29.676  1.00  0.00     0.049 A 
ATOM     64  C   UNL A   1      41.333  30.479  33.421  1.00  0.00     0.074 A 
ATOM     65  C   UNL A   1      44.314  27.618  29.569  1.00  0.00     0.029 A 
ATOM     66  N   UNL A   1      43.147  26.415  31.030  1.00  0.00    -0.354 N 
ATOM     67  N   UNL A   1      41.815  29.454  32.762  1.00  0.00    -0.248 NA
ATOM     68  C   UNL A   1      41.727  30.469  34.825  1.00  0.00     0.031 C 
ATOM     69  C   UNL A   1      44.388  28.234  30.857  1.00  0.00     0.029 A 
ATOM     70  C   UNL A   1      43.601  27.510  31.742  1.00  0.00     0.049 A 
ATOM     71  H   UNL A   1      42.668  25.652  31.427  1.00  0.00     0.167 HD
ATOM     72  C   UNL A   1      42.612  28.702  33.590  1.00  0.00     0.074 A 
ATOM     73  C   UNL A   1      42.515  29.379  34.873  1.00  0.00     0.031 C 
ATOM     74  C   UNL A   1      43.327  27.607  33.173  1.00  0.00     0.037 A 
BRANCH  61  75
ATOM     75  C   UNL A   1      43.132  24.989  27.569  1.00  0.00     0.058 A 
ATOM     76  C   UNL A   1      43.957  23.879  27.851  1.00  0.00     0.135 A 
ATOM     77  C   UNL A   1      42.979  25.267  26.191  1.00  0.00     0.135 A 
ATOM     78  F   UNL A   1      44.204  23.502  29.114  1.00  0.00    -0.206 F 
ATOM     79  C   UNL A   1      44.588  23.124  26.858  1.00  0.00     0.059 A 
ATOM     80  C   UNL A   1      43.570  24.503  25.180  1.00  0.00     0.059 A 
ATOM     81  F   UNL A   1      42.293  26.322  25.740  1.00  0.00    -0.206 F 
ATOM     82  C   UNL A   1      44.389  23.442  25.521  1.00  0.00     0.060 A 
BRANCH  82  83
ATOM     83  S   UNL A   1      45.211  22.464  24.252  1.00  0.00     0.124 S 
ATOM     84  O   UNL A   1      46.316  23.337  23.867  1.00  0.00    -0.237 OA
ATOM     85  O   UNL A   1      45.578  21.256  24.982  1.00  0.00    -0.237 OA
ATOM     86  O   UNL A   1      44.178  22.285  23.236  1.00  0.00    -0.744 OA
ENDBRANCH  82  83
ENDBRANCH  61  75
BRANCH  62  87
ATOM     87  C   UNL A   1      39.156  32.073  33.015  1.00  0.00     0.058 A 
ATOM     88  C   UNL A   1      38.889  33.453  32.841  1.00  0.00     0.135 A 
ATOM     89  C   UNL A   1      38.058  31.207  32.910  1.00  0.00     0.135 A 
ATOM     90  F   UNL A   1      39.889  34.344  32.950  1.00  0.00    -0.206 F 
ATOM     91  C   UNL A   1      37.657  33.926  32.392  1.00  0.00     0.059 A 
ATOM     92  C   UNL A   1      36.799  31.667  32.488  1.00  0.00     0.059 A 
ATOM     93  F   UNL A   1      38.222  29.886  33.077  1.00  0.00    -0.206 F 
ATOM     94  C   UNL A   1      36.633  33.015  32.160  1.00  0.00     0.060 A 
BRANCH  94  95
ATOM     95  S   UNL A   1      35.169  33.603  31.264  1.00  0.00     0.124 S 
ATOM     96  O   UNL A   1      34.185  32.575  31.584  1.00  0.00    -0.237 OA
ATOM     97  O   UNL A   1      34.935  34.916  31.874  1.00  0.00    -0.237 OA
ATOM     98  O   UNL A   1      35.615  33.638  29.878  1.00  0.00    -0.744 OA
ENDBRANCH  94  95
ENDBRANCH  62  87
BRANCH  74  99
ATOM     99  C   UNL A   1      43.906  26.528  34.076  1.00  0.00     0.058 A 
ATOM    100  C   UNL A   1      43.133  25.618  34.817  1.00  0.00     0.135 A 
ATOM    101  C   UNL A   1      45.303  26.263  34.079  1.00  0.00     0.135 A 
ATOM    102  F   UNL A   1      41.795  25.653  34.808  1.00  0.00    -0.206 F 
ATOM    103  C   UNL A   1      43.702  24.587  35.567  1.00  0.00     0.059 A 
ATOM    104  C   UNL A   1      45.880  25.186  34.742  1.00  0.00     0.059 A 
ATOM    105  F   UNL A   1      46.175  27.036  33.413  1.00  0.00    -0.206 F 
ATOM    106  C   UNL A   1      45.074  24.375  35.519  1.00  0.00     0.060 A 
BRANCH 106 107
ATOM    107  S   UNL A   1      45.794  23.017  36.452  1.00  0.00     0.124 S 
ATOM    108  O   UNL A   1      45.278  23.286  37.791  1.00  0.00    -0.237 OA
ATOM    109  O   UNL A   1      45.238  21.844  35.784  1.00  0.00    -0.237 OA
ATOM    110  O   UNL A   1      47.229  23.207  36.277  1.00  0.00    -0.744 OA
ENDBRANCH 106 107
ENDBRANCH  74  99
ENDBRANCH  48  49
ENDBRANCH  40  43
ENDBRANCH  38  39
ENDBRANCH  37  38
ENDBRANCH   1  37
TORSDOF 19
ENDMDL
MODEL 2
REMARK VINA RESULT:     -13.6      1.233      2.253
REMARK SMILES Cc1ccc(NC(=O)C[NH+]2CCN(c3ccc(C(=O)NCCCNC(=O)c4ccc(-c5c6nc(c(-c7c(F)cc(S(=O)(=O)[O-])cc7F)c7ccc([nH]7)c(-c7c(F)cc(S(=O)(=O)[O-])cc7F)c7nc(c(-c8c(F)cc(S(=O)(=O)[O-])cc8F)c8ccc5[nH]8)C=C7)C=C6)cc4)cc3NS(C)(=O)=O)CC2)cc1
REMARK SMILES IDX 21 1 20 2 18 3 19 4 17 6 14 7 15 8 94 9 16 10 93 11 13 12
REMARK SMILES IDX 10 13 11 14 101 15 12 17 100 18 9 19 7 20 6 21 8 23 5 24
REMARK SMILES IDX 1 25 2 26 3 27 103 28 4 29 102 30 95 31 96 33 97 34 98 35
REMARK SMILES IDX 99 36 22 37 23 38 24 39 25 40 26 42 27 43 28 44 92 45 29 46
REMARK SMILES IDX 91 47 30 48 31 49 32 50 85 51 33 52 90 53 84 54 86 55 34 56
REMARK SMILES IDX 89 57 83 58 82 59 35 61 69 62 48 63 68 64 49 65 52 66 67 67
REMARK SMILES IDX 87 68 50 69 51 70 66 72 88 73 53 74 36 75 37 76 46 77 38 78
REMARK SMILES IDX 39 79 45 80 47 81 40 82 41 83 42 84 43 85 44 86 70 87 71 88
REMARK SMILES IDX 80 89 72 90 73 91 79 92 81 93 74 94 75 95 76 96 77 97 78 98
REMARK SMILES IDX 54 99 55 100 64 101 56 102 57 103 63 104 65 105 58 106
REMARK SMILES IDX 59 107 60 108 61 109 62 110
REMARK H PARENT 20 5 10 16 6 22 95 32 24 41 86 60 52 71
REMARK Flexibility Score: inf
ROOT
ATOM      1  C   UNL A   1      31.414  30.684  26.550  1.00  0.00     0.118 C 
ENDROOT
BRANCH   1   2
ATOM      2  N   UNL A   1      30.874  30.812  25.203  1.00  0.00    -0.352 N 
ATOM      3  C   UNL A   1      30.669  29.895  24.204  1.00  0.00     0.251 C 
ATOM      4  O   UNL A   1      30.271  30.315  23.116  1.00  0.00    -0.269 OA
ATOM      5  H   UNL A   1      30.606  31.728  24.966  1.00  0.00     0.163 HD
BRANCH   3   6
ATOM      6  C   UNL A   1      30.883  28.425  24.368  1.00  0.00     0.042 A 
ATOM      7  C   UNL A   1      31.345  25.637  24.498  1.00  0.00     0.062 A 
ATOM      8  C   UNL A   1      31.153  26.404  25.655  1.00  0.00     0.029 A 
ATOM      9  C   UNL A   1      31.261  26.281  23.225  1.00  0.00     0.073 A 
ATOM     10  C   UNL A   1      30.967  27.772  25.589  1.00  0.00     0.016 A 
ATOM     11  C   UNL A   1      31.043  27.665  23.194  1.00  0.00     0.042 A 
BRANCH   7  12
ATOM     12  N   UNL A   1      31.762  24.298  24.712  1.00  0.00    -0.359 N 
ATOM     13  N   UNL A   1      32.417  21.814  26.113  1.00  0.00    -0.324 N 
ATOM     14  C   UNL A   1      33.084  23.045  26.551  1.00  0.00     0.284 C 
ATOM     15  C   UNL A   1      30.993  22.190  25.938  1.00  0.00     0.284 C 
ATOM     16  H   UNL A   1      32.548  21.073  26.802  1.00  0.00     0.348 HD
ATOM     17  C   UNL A   1      32.942  24.255  25.619  1.00  0.00     0.178 C 
ATOM     18  C   UNL A   1      30.683  23.299  24.892  1.00  0.00     0.178 C 
BRANCH  13  19
ATOM     19  C   UNL A   1      32.980  21.249  24.854  1.00  0.00     0.364 C 
BRANCH  19  20
ATOM     20  C   UNL A   1      33.839  19.981  25.069  1.00  0.00     0.279 C 
ATOM     21  N   UNL A   1      35.212  19.962  25.063  1.00  0.00    -0.321 N 
ATOM     22  H   UNL A   1      35.600  19.067  25.193  1.00  0.00     0.170 HD
ATOM     23  O   UNL A   1      33.287  18.896  25.310  1.00  0.00    -0.268 OA
BRANCH  21  24
ATOM     24  C   UNL A   1      36.164  20.978  24.906  1.00  0.00     0.041 A 
ATOM     25  C   UNL A   1      38.574  24.175  26.291  1.00  0.00     0.044 C 
ATOM     26  C   UNL A   1      37.919  23.068  25.512  1.00  0.00    -0.051 A 
ATOM     27  C   UNL A   1      36.732  23.294  24.814  1.00  0.00     0.005 A 
ATOM     28  C   UNL A   1      38.342  21.752  25.659  1.00  0.00     0.005 A 
ATOM     29  C   UNL A   1      35.858  22.256  24.481  1.00  0.00     0.026 A 
ATOM     30  C   UNL A   1      37.469  20.705  25.338  1.00  0.00     0.026 A 
ENDBRANCH  21  24
ENDBRANCH  19  20
ENDBRANCH  13  19
ENDBRANCH   7  12
BRANCH   9  31
ATOM     31  N   UNL A   1      31.454  25.496  22.029  1.00  0.00    -0.282 N 
ATOM     32  H   UNL A   1      30.639  25.107  21.639  1.00  0.00     0.180 HD
BRANCH  31  33
ATOM     33  S   UNL A   1      32.883  25.156  21.212  1.00  0.00     0.229 S 
ATOM     34  C   UNL A   1      32.497  25.469  19.493  1.00  0.00     0.183 C 
ATOM     35  O   UNL A   1      33.805  26.198  21.600  1.00  0.00    -0.207 OA
ATOM     36  O   UNL A   1      33.266  23.764  21.324  1.00  0.00    -0.207 OA
ENDBRANCH  31  33
ENDBRANCH   9  31
ENDBRANCH   3   6
ENDBRANCH   1   2
BRANCH   1  37
ATOM     37  C   UNL A   1      32.278  31.897  26.883  1.00  0.00     0.042 C 
BRANCH  37  38
ATOM     38  C   UNL A   1      33.522  31.522  27.653  1.00  0.00     0.118 C 
BRANCH  38  39
ATOM     39  N   UNL A   1      33.690  30.077  27.705  1.00  0.00    -0.352 N 
ATOM     40  C   UNL A   1      34.892  29.389  27.695  1.00  0.00     0.251 C 
ATOM     41  H   UNL A   1      32.869  29.536  27.753  1.00  0.00     0.163 HD
ATOM     42  O   UNL A   1      35.058  28.301  27.168  1.00  0.00    -0.269 OA
BRANCH  40  43
ATOM     43  C   UNL A   1      35.948  29.989  28.529  1.00  0.00     0.039 A 
ATOM     44  C   UNL A   1      36.945  30.688  27.831  1.00  0.00     0.014 A 
ATOM     45  C   UNL A   1      36.177  29.410  29.770  1.00  0.00     0.014 A 
ATOM     46  C   UNL A   1      38.253  30.592  28.260  1.00  0.00     0.010 A 
ATOM     47  C   UNL A   1      37.481  29.181  30.106  1.00  0.00     0.010 A 
ATOM     48  C   UNL A   1      38.503  29.734  29.319  1.00  0.00    -0.014 A 
BRANCH  48  49
ATOM     49  C   UNL A   1      39.816  29.447  29.834  1.00  0.00     0.031 A 
ATOM     50  C   UNL A   1      40.311  28.107  29.494  1.00  0.00     0.074 A 
ATOM     51  C   UNL A   1      40.537  30.501  30.273  1.00  0.00     0.049 A 
ATOM     52  N   UNL A   1      41.420  27.621  29.897  1.00  0.00    -0.248 NA
ATOM     53  C   UNL A   1      39.555  27.168  28.652  1.00  0.00     0.031 C 
ATOM     54  C   UNL A   1      41.977  30.639  30.438  1.00  0.00     0.029 A 
ATOM     55  N   UNL A   1      40.017  31.642  30.905  1.00  0.00    -0.354 N 
ATOM     56  C   UNL A   1      41.698  26.542  29.084  1.00  0.00     0.074 A 
ATOM     57  C   UNL A   1      40.454  26.202  28.456  1.00  0.00     0.031 C 
ATOM     58  C   UNL A   1      42.216  31.565  31.386  1.00  0.00     0.029 A 
ATOM     59  C   UNL A   1      40.923  31.927  31.950  1.00  0.00     0.049 A 
ATOM     60  H   UNL A   1      39.197  32.135  30.671  1.00  0.00     0.167 HD
ATOM     61  C   UNL A   1      43.008  26.217  28.923  1.00  0.00     0.037 A 
ATOM     62  C   UNL A   1      40.538  31.661  33.236  1.00  0.00     0.037 A 
ATOM     63  C   UNL A   1      43.792  26.925  29.939  1.00  0.00     0.049 A 
ATOM     64  C   UNL A   1      41.353  30.525  33.832  1.00  0.00     0.074 A 
ATOM     65  C   UNL A   1      44.584  28.059  29.909  1.00  0.00     0.029 A 
ATOM     66  N   UNL A   1      43.463  26.711  31.277  1.00  0.00    -0.354 N 
ATOM     67  N   UNL A   1      41.911  29.568  33.132  1.00  0.00    -0.248 NA
ATOM     68  C   UNL A   1      41.718  30.463  35.243  1.00  0.00     0.031 C 
ATOM     69  C   UNL A   1      44.593  28.608  31.229  1.00  0.00     0.029 A 
ATOM     70  C   UNL A   1      43.834  27.792  32.056  1.00  0.00     0.049 A 
ATOM     71  H   UNL A   1      43.024  25.900  31.622  1.00  0.00     0.167 HD
ATOM     72  C   UNL A   1      42.736  28.821  33.939  1.00  0.00     0.074 A 
ATOM     73  C   UNL A   1      42.571  29.422  35.253  1.00  0.00     0.031 C 
ATOM     74  C   UNL A   1      43.526  27.796  33.483  1.00  0.00     0.037 A 
BRANCH  61  75
ATOM     75  C   UNL A   1      43.608  25.474  27.747  1.00  0.00     0.058 A 
ATOM     76  C   UNL A   1      43.435  24.076  27.657  1.00  0.00     0.135 A 
ATOM     77  C   UNL A   1      44.450  26.023  26.753  1.00  0.00     0.135 A 
ATOM     78  F   UNL A   1      42.673  23.414  28.539  1.00  0.00    -0.206 F 
ATOM     79  C   UNL A   1      44.054  23.291  26.680  1.00  0.00     0.059 A 
ATOM     80  C   UNL A   1      45.050  25.263  25.744  1.00  0.00     0.059 A 
ATOM     81  F   UNL A   1      44.785  27.317  26.725  1.00  0.00    -0.206 F 
ATOM     82  C   UNL A   1      44.861  23.892  25.724  1.00  0.00     0.060 A 
BRANCH  82  83
ATOM     83  S   UNL A   1      45.658  22.869  24.474  1.00  0.00     0.124 S 
ATOM     84  O   UNL A   1      46.563  23.820  23.836  1.00  0.00    -0.237 OA
ATOM     85  O   UNL A   1      46.290  21.831  25.281  1.00  0.00    -0.237 OA
ATOM     86  O   UNL A   1      44.545  22.417  23.643  1.00  0.00    -0.744 OA
ENDBRANCH  82  83
ENDBRANCH  61  75
BRANCH  62  87
ATOM     87  C   UNL A   1      39.091  32.004  33.458  1.00  0.00     0.058 A 
ATOM     88  C   UNL A   1      38.752  33.377  33.395  1.00  0.00     0.135 A 
ATOM     89  C   UNL A   1      38.048  31.093  33.240  1.00  0.00     0.135 A 
ATOM     90  F   UNL A   1      39.696  34.308  33.615  1.00  0.00    -0.206 F 
ATOM     91  C   UNL A   1      37.509  33.821  32.946  1.00  0.00     0.059 A 
ATOM     92  C   UNL A   1      36.778  31.520  32.817  1.00  0.00     0.059 A 
ATOM     93  F   UNL A   1      38.281  29.773  33.299  1.00  0.00    -0.206 F 
ATOM     94  C   UNL A   1      36.545  32.881  32.601  1.00  0.00     0.060 A 
BRANCH  94  95
ATOM     95  S   UNL A   1      35.078  33.465  31.710  1.00  0.00     0.124 S 
ATOM     96  O   UNL A   1      34.025  32.632  32.280  1.00  0.00    -0.237 OA
ATOM     97  O   UNL A   1      35.032  34.884  32.078  1.00  0.00    -0.237 OA
ATOM     98  O   UNL A   1      35.404  33.201  30.315  1.00  0.00    -0.744 OA
ENDBRANCH  94  95
ENDBRANCH  62  87
BRANCH  74  99
ATOM     99  C   UNL A   1      44.150  26.706  34.342  1.00  0.00     0.058 A 
ATOM    100  C   UNL A   1      45.491  26.699  34.760  1.00  0.00     0.135 A 
ATOM    101  C   UNL A   1      43.338  25.698  34.930  1.00  0.00     0.135 A 
ATOM    102  F   UNL A   1      46.351  27.661  34.400  1.00  0.00    -0.206 F 
ATOM    103  C   UNL A   1      46.004  25.726  35.619  1.00  0.00     0.059 A 
ATOM    104  C   UNL A   1      43.808  24.777  35.860  1.00  0.00     0.059 A 
ATOM    105  F   UNL A   1      42.034  25.575  34.640  1.00  0.00    -0.206 F 
ATOM    106  C   UNL A   1      45.156  24.773  36.168  1.00  0.00     0.060 A 
BRANCH 106 107
ATOM    107  S   UNL A   1      45.816  23.550  37.309  1.00  0.00     0.124 S 
ATOM    108  O   UNL A   1      45.190  23.961  38.562  1.00  0.00    -0.237 OA
ATOM    109  O   UNL A   1      45.331  22.295  36.742  1.00  0.00    -0.237 OA
ATOM    110  O   UNL A   1      47.258  23.751  37.225  1.00  0.00    -0.744 OA
ENDBRANCH 106 107
ENDBRANCH  74  99
ENDBRANCH  48  49
ENDBRANCH  40  43
ENDBRANCH  38  39
ENDBRANCH  37  38
ENDBRANCH   1  37
TORSDOF 19
ENDMDL
MODEL 3
REMARK VINA RESULT:     -13.4      3.354     10.327
REMARK SMILES Cc1ccc(NC(=O)C[NH+]2CCN(c3ccc(C(=O)NCCCNC(=O)c4ccc(-c5c6nc(c(-c7c(F)cc(S(=O)(=O)[O-])cc7F)c7ccc([nH]7)c(-c7c(F)cc(S(=O)(=O)[O-])cc7F)c7nc(c(-c8c(F)cc(S(=O)(=O)[O-])cc8F)c8ccc5[nH]8)C=C7)C=C6)cc4)cc3NS(C)(=O)=O)CC2)cc1
REMARK SMILES IDX 21 1 20 2 18 3 19 4 17 6 14 7 15 8 94 9 16 10 93 11 13 12
REMARK SMILES IDX 10 13 11 14 101 15 12 17 100 18 9 19 7 20 6 21 8 23 5 24
REMARK SMILES IDX 1 25 2 26 3 27 103 28 4 29 102 30 95 31 96 33 97 34 98 35
REMARK SMILES IDX 99 36 22 37 23 38 24 39 25 40 26 42 27 43 28 44 92 45 29 46
REMARK SMILES IDX 91 47 30 48 31 49 32 50 85 51 33 52 90 53 84 54 86 55 34 56
REMARK SMILES IDX 89 57 83 58 82 59 35 61 69 62 48 63 68 64 49 65 52 66 67 67
REMARK SMILES IDX 87 68 50 69 51 70 66 72 88 73 53 74 36 75 37 76 46 77 38 78
REMARK SMILES IDX 39 79 45 80 47 81 40 82 41 83 42 84 43 85 44 86 70 87 71 88
REMARK SMILES IDX 80 89 72 90 73 91 79 92 81 93 74 94 75 95 76 96 77 97 78 98
REMARK SMILES IDX 54 99 55 100 64 101 56 102 57 103 63 104 65 105 58 106
REMARK SMILES IDX 59 107 60 108 61 109 62 110
REMARK H PARENT 20 5 10 16 6 22 95 32 24 41 86 60 52 71
REMARK Flexibility Score: inf
ROOT
ATOM      1  C   UNL A   1      36.274  20.671  25.403  1.00  0.00     0.118 C 
ENDROOT
BRANCH   1   2
ATOM      2  N   UNL A   1      34.946  20.316  24.922  1.00  0.00    -0.352 N 
ATOM      3  C   UNL A   1      33.786  21.039  24.810  1.00  0.00     0.251 C 
ATOM      4  O   UNL A   1      32.772  20.441  24.444  1.00  0.00    -0.269 OA
ATOM      5  H   UNL A   1      34.865  19.383  24.622  1.00  0.00     0.163 HD
BRANCH   3   6
ATOM      6  C   UNL A   1      33.689  22.504  25.088  1.00  0.00     0.042 A 
ATOM      7  C   UNL A   1      33.507  25.307  25.426  1.00  0.00     0.062 A 
ATOM      8  C   UNL A   1      33.267  24.423  26.486  1.00  0.00     0.029 A 
ATOM      9  C   UNL A   1      33.893  24.773  24.158  1.00  0.00     0.073 A 
ATOM     10  C   UNL A   1      33.319  23.053  26.307  1.00  0.00     0.016 A 
ATOM     11  C   UNL A   1      33.963  23.380  24.019  1.00  0.00     0.042 A 
BRANCH   7  12
ATOM     12  N   UNL A   1      33.189  26.667  25.677  1.00  0.00    -0.359 N 
ATOM     13  N   UNL A   1      32.454  29.092  27.140  1.00  0.00    -0.324 N 
ATOM     14  C   UNL A   1      31.572  27.925  27.259  1.00  0.00     0.284 C 
ATOM     15  C   UNL A   1      33.827  28.552  27.283  1.00  0.00     0.284 C 
ATOM     16  H   UNL A   1      32.225  29.785  27.853  1.00  0.00     0.348 HD
ATOM     17  C   UNL A   1      31.825  26.788  26.262  1.00  0.00     0.178 C 
ATOM     18  C   UNL A   1      34.282  27.501  26.230  1.00  0.00     0.178 C 
BRANCH  13  19
ATOM     19  C   UNL A   1      32.297  29.825  25.852  1.00  0.00     0.364 C 
BRANCH  19  20
ATOM     20  C   UNL A   1      31.627  31.211  26.000  1.00  0.00     0.279 C 
ATOM     21  N   UNL A   1      30.558  31.640  25.252  1.00  0.00    -0.321 N 
ATOM     22  H   UNL A   1      30.268  32.558  25.459  1.00  0.00     0.170 HD
ATOM     23  O   UNL A   1      32.024  31.998  26.872  1.00  0.00    -0.268 OA
BRANCH  21  24
ATOM     24  C   UNL A   1      29.803  31.017  24.250  1.00  0.00     0.041 A 
ATOM     25  C   UNL A   1      26.633  28.588  22.834  1.00  0.00     0.044 C 
ATOM     26  C   UNL A   1      27.794  29.532  22.997  1.00  0.00    -0.051 A 
ATOM     27  C   UNL A   1      29.097  29.046  23.106  1.00  0.00     0.005 A 
ATOM     28  C   UNL A   1      27.579  30.876  23.278  1.00  0.00     0.005 A 
ATOM     29  C   UNL A   1      30.118  29.787  23.705  1.00  0.00     0.026 A 
ATOM     30  C   UNL A   1      28.592  31.625  23.889  1.00  0.00     0.026 A 
ENDBRANCH  21  24
ENDBRANCH  19  20
ENDBRANCH  13  19
ENDBRANCH   7  12
BRANCH   9  31
ATOM     31  N   UNL A   1      34.145  25.678  23.063  1.00  0.00    -0.282 N 
ATOM     32  H   UNL A   1      35.092  25.874  22.882  1.00  0.00     0.180 HD
BRANCH  31  33
ATOM     33  S   UNL A   1      33.039  26.443  22.054  1.00  0.00     0.229 S 
ATOM     34  C   UNL A   1      31.458  25.744  22.516  1.00  0.00     0.183 C 
ATOM     35  O   UNL A   1      33.003  27.817  22.496  1.00  0.00    -0.207 OA
ATOM     36  O   UNL A   1      33.258  26.131  20.656  1.00  0.00    -0.207 OA
ENDBRANCH  31  33
ENDBRANCH   9  31
ENDBRANCH   3   6
ENDBRANCH   1   2
BRANCH   1  37
ATOM     37  C   UNL A   1      36.996  21.523  24.362  1.00  0.00     0.042 C 
BRANCH  37  38
ATOM     38  C   UNL A   1      37.805  22.633  24.989  1.00  0.00     0.118 C 
BRANCH  38  39
ATOM     39  N   UNL A   1      38.464  22.178  26.205  1.00  0.00    -0.352 N 
ATOM     40  C   UNL A   1      39.499  22.817  26.866  1.00  0.00     0.251 C 
ATOM     41  H   UNL A   1      38.142  21.334  26.596  1.00  0.00     0.163 HD
ATOM     42  O   UNL A   1      40.399  22.241  27.457  1.00  0.00    -0.269 OA
BRANCH  40  43
ATOM     43  C   UNL A   1      39.356  24.280  26.960  1.00  0.00     0.039 A 
ATOM     44  C   UNL A   1      40.162  25.024  26.086  1.00  0.00     0.014 A 
ATOM     45  C   UNL A   1      38.898  24.793  28.167  1.00  0.00     0.014 A 
ATOM     46  C   UNL A   1      40.728  26.199  26.536  1.00  0.00     0.010 A 
ATOM     47  C   UNL A   1      39.577  25.866  28.671  1.00  0.00     0.010 A 
ATOM     48  C   UNL A   1      40.518  26.526  27.866  1.00  0.00    -0.014 A 
BRANCH  48  49
ATOM     49  C   UNL A   1      41.106  27.665  28.520  1.00  0.00     0.031 A 
ATOM     50  C   UNL A   1      40.236  28.848  28.556  1.00  0.00     0.074 A 
ATOM     51  C   UNL A   1      42.204  27.432  29.271  1.00  0.00     0.049 A 
ATOM     52  N   UNL A   1      40.575  29.983  29.031  1.00  0.00    -0.248 NA
ATOM     53  C   UNL A   1      38.866  28.846  28.022  1.00  0.00     0.031 C 
ATOM     54  C   UNL A   1      42.768  28.213  30.363  1.00  0.00     0.029 A 
ATOM     55  N   UNL A   1      43.196  26.478  28.994  1.00  0.00    -0.354 N 
ATOM     56  C   UNL A   1      39.410  30.692  29.233  1.00  0.00     0.074 A 
ATOM     57  C   UNL A   1      38.412  30.027  28.445  1.00  0.00     0.031 C 
ATOM     58  C   UNL A   1      44.088  27.960  30.436  1.00  0.00     0.029 A 
ATOM     59  C   UNL A   1      44.417  27.123  29.291  1.00  0.00     0.049 A 
ATOM     60  H   UNL A   1      43.069  25.560  28.663  1.00  0.00     0.167 HD
ATOM     61  C   UNL A   1      39.431  31.641  30.207  1.00  0.00     0.037 A 
ATOM     62  C   UNL A   1      45.217  27.514  28.251  1.00  0.00     0.037 A 
ATOM     63  C   UNL A   1      40.825  31.889  30.586  1.00  0.00     0.049 A 
ATOM     64  C   UNL A   1      45.291  29.028  28.151  1.00  0.00     0.074 A 
ATOM     65  C   UNL A   1      41.604  31.486  31.655  1.00  0.00     0.029 A 
ATOM     66  N   UNL A   1      41.708  32.289  29.584  1.00  0.00    -0.354 N 
ATOM     67  N   UNL A   1      44.351  29.844  28.562  1.00  0.00    -0.248 NA
ATOM     68  C   UNL A   1      46.487  29.738  27.712  1.00  0.00     0.031 C 
ATOM     69  C   UNL A   1      42.966  31.503  31.220  1.00  0.00     0.029 A 
ATOM     70  C   UNL A   1      43.008  31.942  29.905  1.00  0.00     0.049 A 
ATOM     71  H   UNL A   1      41.442  32.755  28.759  1.00  0.00     0.167 HD
ATOM     72  C   UNL A   1      44.807  31.140  28.515  1.00  0.00     0.074 A 
ATOM     73  C   UNL A   1      46.148  31.015  27.968  1.00  0.00     0.031 C 
ATOM     74  C   UNL A   1      44.085  32.219  28.959  1.00  0.00     0.037 A 
BRANCH  61  75
ATOM     75  C   UNL A   1      38.232  32.168  30.969  1.00  0.00     0.058 A 
ATOM     76  C   UNL A   1      37.405  33.139  30.364  1.00  0.00     0.135 A 
ATOM     77  C   UNL A   1      37.899  31.873  32.311  1.00  0.00     0.135 A 
ATOM     78  F   UNL A   1      37.608  33.529  29.097  1.00  0.00    -0.206 F 
ATOM     79  C   UNL A   1      36.354  33.772  31.033  1.00  0.00     0.059 A 
ATOM     80  C   UNL A   1      36.830  32.466  32.989  1.00  0.00     0.059 A 
ATOM     81  F   UNL A   1      38.616  31.033  33.064  1.00  0.00    -0.206 F 
ATOM     82  C   UNL A   1      36.071  33.430  32.348  1.00  0.00     0.060 A 
BRANCH  82  83
ATOM     83  S   UNL A   1      34.718  34.257  33.202  1.00  0.00     0.124 S 
ATOM     84  O   UNL A   1      34.687  35.554  32.534  1.00  0.00    -0.237 OA
ATOM     85  O   UNL A   1      33.592  33.371  32.926  1.00  0.00    -0.237 OA
ATOM     86  O   UNL A   1      35.158  34.284  34.594  1.00  0.00    -0.744 OA
ENDBRANCH  82  83
ENDBRANCH  61  75
BRANCH  62  87
ATOM     87  C   UNL A   1      45.221  26.492  27.149  1.00  0.00     0.058 A 
ATOM     88  C   UNL A   1      45.929  25.292  27.403  1.00  0.00     0.135 A 
ATOM     89  C   UNL A   1      44.231  26.433  26.158  1.00  0.00     0.135 A 
ATOM     90  F   UNL A   1      46.908  25.279  28.324  1.00  0.00    -0.206 F 
ATOM     91  C   UNL A   1      45.547  24.068  26.858  1.00  0.00     0.059 A 
ATOM     92  C   UNL A   1      43.851  25.214  25.572  1.00  0.00     0.059 A 
ATOM     93  F   UNL A   1      43.524  27.529  25.844  1.00  0.00    -0.206 F 
ATOM     94  C   UNL A   1      44.465  24.029  25.987  1.00  0.00     0.060 A 
BRANCH  94  95
ATOM     95  S   UNL A   1      43.781  22.404  25.563  1.00  0.00     0.124 S 
ATOM     96  O   UNL A   1      43.459  21.858  26.876  1.00  0.00    -0.237 OA
ATOM     97  O   UNL A   1      42.632  22.757  24.724  1.00  0.00    -0.237 OA
ATOM     98  O   UNL A   1      44.878  21.750  24.861  1.00  0.00    -0.744 OA
ENDBRANCH  94  95
ENDBRANCH  62  87
BRANCH  74  99
ATOM     99  C   UNL A   1      44.349  33.674  28.598  1.00  0.00     0.058 A 
ATOM    100  C   UNL A   1      44.131  34.226  27.324  1.00  0.00     0.135 A 
ATOM    101  C   UNL A   1      44.674  34.619  29.609  1.00  0.00     0.135 A 
ATOM    102  F   UNL A   1      43.690  33.487  26.298  1.00  0.00    -0.206 F 
ATOM    103  C   UNL A   1      44.304  35.584  27.056  1.00  0.00     0.059 A 
ATOM    104  C   UNL A   1      44.759  35.989  29.382  1.00  0.00     0.059 A 
ATOM    105  F   UNL A   1      44.906  34.253  30.879  1.00  0.00    -0.206 F 
ATOM    106  C   UNL A   1      44.612  36.458  28.090  1.00  0.00     0.060 A 
BRANCH 106 107
ATOM    107  S   UNL A   1      44.790  38.214  27.744  1.00  0.00     0.124 S 
ATOM    108  O   UNL A   1      45.968  38.217  26.882  1.00  0.00    -0.237 OA
ATOM    109  O   UNL A   1      43.525  38.537  27.088  1.00  0.00    -0.237 OA
ATOM    110  O   UNL A   1      44.970  38.804  29.065  1.00  0.00    -0.744 OA
ENDBRANCH 106 107
ENDBRANCH  74  99
ENDBRANCH  48  49
ENDBRANCH  40  43
ENDBRANCH  38  39
ENDBRANCH  37  38
ENDBRANCH   1  37
TORSDOF 19
ENDMDL
