MODEL 1
REMARK VINA RESULT:      -8.9      0.000      0.000
REMARK SMILES CC(C)[C@H](NC(=O)N1c2ccccc2[NH+]=C(NCCCNC(=O)c2ccc(-c3c4nc(c(-c5c(F)cc(S(=O)(=O)[O-])cc5F)c5ccc([nH]5)c(-c5c(F)cc(S(=O)(=O)[O-])cc5F)c5nc(c(-c6c(F)cc(S(=O)(=O)[O-])cc6F)c6ccc3[nH]6)C=C5)C=C4)cc2)[C@@H]1C(C)C)C(=O)N1CCC(C(=O)[O-])CC1
REMARK SMILES IDX 19 1 18 2 17 3 8 4 9 5 90 6 10 7 14 8 16 9 11 10 13 11 15 12
REMARK SMILES IDX 12 13 6 16 5 17 7 19 4 20 2 21 1 22 3 23 94 24 95 25 96 26
REMARK SMILES IDX 97 27 104 28 98 29 103 30 99 31 100 32 101 33 102 34 91 35
REMARK SMILES IDX 92 36 93 37 20 38 21 39 22 40 23 42 24 43 25 44 89 45 26 46
REMARK SMILES IDX 88 47 27 48 28 49 29 50 82 51 30 52 87 53 81 54 83 55 31 56
REMARK SMILES IDX 86 57 80 58 79 59 32 61 66 62 45 63 65 64 46 65 49 66 64 67
REMARK SMILES IDX 84 68 47 69 48 70 63 72 85 73 50 74 33 75 34 76 43 77 35 78
REMARK SMILES IDX 36 79 42 80 44 81 37 82 38 83 39 84 40 85 41 86 67 87 68 88
REMARK SMILES IDX 77 89 69 90 70 91 76 92 78 93 71 94 72 95 73 96 74 97 75 98
REMARK SMILES IDX 51 99 52 100 61 101 53 102 54 103 60 104 62 105 55 106
REMARK SMILES IDX 56 107 57 108 58 109 59 110
REMARK H PARENT 15 14 17 15 5 18 21 41 83 60 49 71
REMARK Flexibility Score: inf
ROOT
ATOM      1  C   UNL A   1      49.283  27.243  34.764  1.00  0.00     0.067 C 
ENDROOT
BRANCH   1   2
ATOM      2  C   UNL A   1      49.030  27.883  33.414  1.00  0.00     0.235 C 
BRANCH   2   3
ATOM      3  N   UNL A   1      48.100  28.966  33.546  1.00  0.00    -0.276 N 
ATOM      4  N   UNL A   1      46.111  30.064  30.497  1.00  0.00    -0.275 N 
ATOM      5  C   UNL A   1      45.075  30.957  31.206  1.00  0.00     0.093 A 
ATOM      6  C   UNL A   1      46.519  28.978  31.445  1.00  0.00     0.208 C 
ATOM      7  C   UNL A   1      43.342  31.747  30.750  1.00  0.00     0.031 A 
ATOM      8  C   UNL A   1      45.812  31.459  32.716  1.00  0.00     0.148 A 
ATOM      9  C   UNL A   1      47.224  29.600  32.715  1.00  0.00     0.271 C 
ATOM     10  C   UNL A   1      42.577  32.925  31.828  1.00  0.00     0.002 A 
ATOM     11  C   UNL A   1      44.977  32.641  33.702  1.00  0.00     0.054 A 
ATOM     12  N   UNL A   1      46.896  30.765  33.240  1.00  0.00    -0.241 N 
ATOM     13  C   UNL A   1      43.445  33.351  33.270  1.00  0.00     0.005 A 
ATOM     14  H   UNL A   1      47.411  31.138  33.992  1.00  0.00     0.312 HD
ATOM     15  H   UNL A   1      48.093  29.343  34.455  1.00  0.00     0.304 HD
BRANCH   4  16
ATOM     16  C   UNL A   1      47.263  30.579  29.779  1.00  0.00     0.323 C 
ATOM     17  N   UNL A   1      47.170  30.670  28.385  1.00  0.00    -0.326 N 
ATOM     18  H   UNL A   1      47.193  29.859  27.828  1.00  0.00     0.166 HD
ATOM     19  O   UNL A   1      48.401  30.598  30.254  1.00  0.00    -0.248 OA
BRANCH  17  20
ATOM     20  C   UNL A   1      47.039  31.997  27.764  1.00  0.00     0.175 C 
BRANCH  20  21
ATOM     21  C   UNL A   1      48.192  32.666  26.941  1.00  0.00     0.015 C 
ATOM     22  C   UNL A   1      47.851  33.993  26.283  1.00  0.00     0.010 C 
ATOM     23  C   UNL A   1      49.565  32.790  27.645  1.00  0.00     0.010 C 
ENDBRANCH  20  21
BRANCH  20  24
ATOM     24  C   UNL A   1      45.884  31.903  26.821  1.00  0.00     0.245 C 
ATOM     25  O   UNL A   1      45.918  31.118  25.870  1.00  0.00    -0.272 OA
ATOM     26  N   UNL A   1      44.765  32.682  27.126  1.00  0.00    -0.341 N 
ATOM     27  C   UNL A   1      43.945  33.064  25.552  1.00  0.00     0.120 C 
ATOM     28  C   UNL A   1      44.464  33.649  28.627  1.00  0.00     0.120 C 
ATOM     29  C   UNL A   1      42.937  35.013  25.451  1.00  0.00     0.031 C 
ATOM     30  C   UNL A   1      43.719  35.373  28.542  1.00  0.00     0.031 C 
ATOM     31  C   UNL A   1      42.813  36.009  27.080  1.00  0.00     0.038 C 
BRANCH  31  32
ATOM     32  C   UNL A   1      42.931  37.506  26.854  1.00  0.00     0.045 C 
ATOM     33  O   UNL A   1      41.995  38.270  26.681  1.00  0.00    -0.550 OA
ATOM     34  O   UNL A   1      44.192  37.970  26.819  1.00  0.00    -0.550 OA
ENDBRANCH  31  32
ENDBRANCH  20  24
ENDBRANCH  17  20
ENDBRANCH   4  16
BRANCH   6  35
ATOM     35  C   UNL A   1      47.148  27.703  30.797  1.00  0.00     0.018 C 
ATOM     36  C   UNL A   1      46.679  26.437  31.555  1.00  0.00     0.010 C 
ATOM     37  C   UNL A   1      46.830  27.452  29.318  1.00  0.00     0.010 C 
ENDBRANCH   6  35
ENDBRANCH   2   3
ENDBRANCH   1   2
BRANCH   1  38
ATOM     38  C   UNL A   1      48.316  26.108  35.055  1.00  0.00     0.120 C 
BRANCH  38  39
ATOM     39  N   UNL A   1      48.186  25.855  36.492  1.00  0.00    -0.352 N 
ATOM     40  C   UNL A   1      47.386  26.489  37.415  1.00  0.00     0.251 C 
ATOM     41  H   UNL A   1      48.750  25.131  36.848  1.00  0.00     0.163 HD
ATOM     42  O   UNL A   1      47.620  26.401  38.614  1.00  0.00    -0.269 OA
BRANCH  40  43
ATOM     43  C   UNL A   1      46.255  27.290  36.917  1.00  0.00     0.039 A 
ATOM     44  C   UNL A   1      46.429  28.627  36.562  1.00  0.00     0.014 A 
ATOM     45  C   UNL A   1      45.026  26.659  36.737  1.00  0.00     0.014 A 
ATOM     46  C   UNL A   1      45.375  29.306  35.948  1.00  0.00     0.010 A 
ATOM     47  C   UNL A   1      44.051  27.278  35.980  1.00  0.00     0.010 A 
ATOM     48  C   UNL A   1      44.195  28.622  35.613  1.00  0.00    -0.014 A 
BRANCH  48  49
ATOM     49  C   UNL A   1      43.056  29.279  34.930  1.00  0.00     0.031 A 
ATOM     50  C   UNL A   1      42.680  28.831  33.539  1.00  0.00     0.074 A 
ATOM     51  C   UNL A   1      42.452  30.339  35.498  1.00  0.00     0.049 A 
ATOM     52  N   UNL A   1      41.821  29.355  32.706  1.00  0.00    -0.248 NA
ATOM     53  C   UNL A   1      43.420  27.680  32.989  1.00  0.00     0.031 C 
ATOM     54  C   UNL A   1      42.802  30.923  36.795  1.00  0.00     0.029 A 
ATOM     55  N   UNL A   1      41.427  31.129  35.045  1.00  0.00    -0.354 N 
ATOM     56  C   UNL A   1      41.958  28.632  31.526  1.00  0.00     0.074 A 
ATOM     57  C   UNL A   1      43.038  27.694  31.723  1.00  0.00     0.031 C 
ATOM     58  C   UNL A   1      41.983  31.957  37.047  1.00  0.00     0.029 A 
ATOM     59  C   UNL A   1      41.080  32.134  35.915  1.00  0.00     0.049 A 
ATOM     60  H   UNL A   1      40.982  30.989  34.179  1.00  0.00     0.167 HD
ATOM     61  C   UNL A   1      41.224  28.714  30.392  1.00  0.00     0.037 A 
ATOM     62  C   UNL A   1      40.138  33.091  35.807  1.00  0.00     0.037 A 
ATOM     63  C   UNL A   1      40.109  29.607  30.241  1.00  0.00     0.049 A 
ATOM     64  C   UNL A   1      39.274  33.116  34.579  1.00  0.00     0.074 A 
ATOM     65  C   UNL A   1      39.218  29.704  29.190  1.00  0.00     0.029 A 
ATOM     66  N   UNL A   1      39.732  30.557  31.180  1.00  0.00    -0.354 N 
ATOM     67  N   UNL A   1      39.346  32.360  33.507  1.00  0.00    -0.248 NA
ATOM     68  C   UNL A   1      38.193  34.108  34.546  1.00  0.00     0.031 C 
ATOM     69  C   UNL A   1      38.325  30.743  29.476  1.00  0.00     0.029 A 
ATOM     70  C   UNL A   1      38.631  31.261  30.726  1.00  0.00     0.049 A 
ATOM     71  H   UNL A   1      40.181  30.709  32.043  1.00  0.00     0.167 HD
ATOM     72  C   UNL A   1      38.311  32.773  32.677  1.00  0.00     0.074 A 
ATOM     73  C   UNL A   1      37.618  33.836  33.381  1.00  0.00     0.031 C 
ATOM     74  C   UNL A   1      37.963  32.318  31.448  1.00  0.00     0.037 A 
BRANCH  61  75
ATOM     75  C   UNL A   1      41.607  27.808  29.252  1.00  0.00     0.058 A 
ATOM     76  C   UNL A   1      40.865  26.657  28.933  1.00  0.00     0.135 A 
ATOM     77  C   UNL A   1      42.754  28.074  28.486  1.00  0.00     0.135 A 
ATOM     78  F   UNL A   1      39.768  26.342  29.640  1.00  0.00    -0.206 F 
ATOM     79  C   UNL A   1      41.279  25.773  27.943  1.00  0.00     0.059 A 
ATOM     80  C   UNL A   1      43.165  27.223  27.464  1.00  0.00     0.059 A 
ATOM     81  F   UNL A   1      43.500  29.161  28.740  1.00  0.00    -0.206 F 
ATOM     82  C   UNL A   1      42.437  26.059  27.219  1.00  0.00     0.060 A 
BRANCH  82  83
ATOM     83  S   UNL A   1      42.980  24.887  25.959  1.00  0.00     0.124 S 
ATOM     84  O   UNL A   1      44.361  24.646  26.366  1.00  0.00    -0.237 OA
ATOM     85  O   UNL A   1      42.061  23.770  26.153  1.00  0.00    -0.237 OA
ATOM     86  O   UNL A   1      42.811  25.625  24.712  1.00  0.00    -0.744 OA
ENDBRANCH  82  83
ENDBRANCH  61  75
BRANCH  62  87
ATOM     87  C   UNL A   1      39.949  34.055  36.923  1.00  0.00     0.058 A 
ATOM     88  C   UNL A   1      39.099  33.755  37.997  1.00  0.00     0.135 A 
ATOM     89  C   UNL A   1      40.676  35.254  36.980  1.00  0.00     0.135 A 
ATOM     90  F   UNL A   1      38.380  32.623  37.988  1.00  0.00    -0.206 F 
ATOM     91  C   UNL A   1      38.981  34.606  39.093  1.00  0.00     0.059 A 
ATOM     92  C   UNL A   1      40.591  36.111  38.074  1.00  0.00     0.059 A 
ATOM     93  F   UNL A   1      41.518  35.578  35.986  1.00  0.00    -0.206 F 
ATOM     94  C   UNL A   1      39.741  35.776  39.127  1.00  0.00     0.060 A 
BRANCH  94  95
ATOM     95  S   UNL A   1      39.657  36.819  40.601  1.00  0.00     0.124 S 
ATOM     96  O   UNL A   1      40.952  37.487  40.563  1.00  0.00    -0.237 OA
ATOM     97  O   UNL A   1      38.497  37.658  40.316  1.00  0.00    -0.237 OA
ATOM     98  O   UNL A   1      39.473  35.858  41.683  1.00  0.00    -0.744 OA
ENDBRANCH  94  95
ENDBRANCH  62  87
BRANCH  74  99
ATOM     99  C   UNL A   1      36.771  32.952  30.790  1.00  0.00     0.058 A 
ATOM    100  C   UNL A   1      35.466  32.713  31.247  1.00  0.00     0.135 A 
ATOM    101  C   UNL A   1      36.945  33.861  29.734  1.00  0.00     0.135 A 
ATOM    102  F   UNL A   1      35.249  31.849  32.251  1.00  0.00    -0.206 F 
ATOM    103  C   UNL A   1      34.370  33.341  30.666  1.00  0.00     0.059 A 
ATOM    104  C   UNL A   1      35.867  34.521  29.158  1.00  0.00     0.059 A 
ATOM    105  F   UNL A   1      38.175  34.133  29.271  1.00  0.00    -0.206 F 
ATOM    106  C   UNL A   1      34.582  34.247  29.624  1.00  0.00     0.060 A 
BRANCH 106 107
ATOM    107  S   UNL A   1      33.154  35.084  28.904  1.00  0.00     0.124 S 
ATOM    108  O   UNL A   1      32.295  35.254  30.071  1.00  0.00    -0.237 OA
ATOM    109  O   UNL A   1      33.745  36.306  28.368  1.00  0.00    -0.237 OA
ATOM    110  O   UNL A   1      32.673  34.136  27.904  1.00  0.00    -0.744 OA
ENDBRANCH 106 107
ENDBRANCH  74  99
ENDBRANCH  48  49
ENDBRANCH  40  43
ENDBRANCH  38  39
ENDBRANCH   1  38
TORSDOF 18
ENDMDL
MODEL 2
REMARK VINA RESULT:      -8.7      6.365     13.180
REMARK SMILES CC(C)[C@H](NC(=O)N1c2ccccc2[NH+]=C(NCCCNC(=O)c2ccc(-c3c4nc(c(-c5c(F)cc(S(=O)(=O)[O-])cc5F)c5ccc([nH]5)c(-c5c(F)cc(S(=O)(=O)[O-])cc5F)c5nc(c(-c6c(F)cc(S(=O)(=O)[O-])cc6F)c6ccc3[nH]6)C=C5)C=C4)cc2)[C@@H]1C(C)C)C(=O)N1CCC(C(=O)[O-])CC1
REMARK SMILES IDX 19 1 18 2 17 3 8 4 9 5 90 6 10 7 14 8 16 9 11 10 13 11 15 12
REMARK SMILES IDX 12 13 6 16 5 17 7 19 4 20 2 21 1 22 3 23 94 24 95 25 96 26
REMARK SMILES IDX 97 27 104 28 98 29 103 30 99 31 100 32 101 33 102 34 91 35
REMARK SMILES IDX 92 36 93 37 20 38 21 39 22 40 23 42 24 43 25 44 89 45 26 46
REMARK SMILES IDX 88 47 27 48 28 49 29 50 82 51 30 52 87 53 81 54 83 55 31 56
REMARK SMILES IDX 86 57 80 58 79 59 32 61 66 62 45 63 65 64 46 65 49 66 64 67
REMARK SMILES IDX 84 68 47 69 48 70 63 72 85 73 50 74 33 75 34 76 43 77 35 78
REMARK SMILES IDX 36 79 42 80 44 81 37 82 38 83 39 84 40 85 41 86 67 87 68 88
REMARK SMILES IDX 77 89 69 90 70 91 76 92 78 93 71 94 72 95 73 96 74 97 75 98
REMARK SMILES IDX 51 99 52 100 61 101 53 102 54 103 60 104 62 105 55 106
REMARK SMILES IDX 56 107 57 108 58 109 59 110
REMARK H PARENT 15 14 17 15 5 18 21 41 83 60 49 71
REMARK Flexibility Score: inf
ROOT
ATOM      1  C   UNL A   1      44.754  38.240  29.817  1.00  0.00     0.067 C 
ENDROOT
BRANCH   1   2
ATOM      2  C   UNL A   1      45.164  38.667  28.423  1.00  0.00     0.235 C 
BRANCH   2   3
ATOM      3  N   UNL A   1      45.886  39.904  28.475  1.00  0.00    -0.276 N 
ATOM      4  N   UNL A   1      44.869  42.729  26.142  1.00  0.00    -0.275 N 
ATOM      5  C   UNL A   1      45.667  43.871  26.800  1.00  0.00     0.093 A 
ATOM      6  C   UNL A   1      44.499  41.743  27.208  1.00  0.00     0.208 C 
ATOM      7  C   UNL A   1      45.653  45.828  26.731  1.00  0.00     0.031 A 
ATOM      8  C   UNL A   1      46.987  43.110  27.668  1.00  0.00     0.148 A 
ATOM      9  C   UNL A   1      45.801  41.107  27.837  1.00  0.00     0.271 C 
ATOM     10  C   UNL A   1      46.935  46.767  27.511  1.00  0.00     0.002 A 
ATOM     11  C   UNL A   1      48.212  44.131  28.392  1.00  0.00     0.054 A 
ATOM     12  N   UNL A   1      46.937  41.759  27.990  1.00  0.00    -0.241 N 
ATOM     13  C   UNL A   1      48.195  45.872  28.302  1.00  0.00     0.005 A 
ATOM     14  H   UNL A   1      47.739  41.296  28.326  1.00  0.00     0.312 HD
ATOM     15  H   UNL A   1      46.621  39.879  29.129  1.00  0.00     0.304 HD
BRANCH   4  16
ATOM     16  C   UNL A   1      45.288  42.045  24.933  1.00  0.00     0.323 C 
ATOM     17  N   UNL A   1      44.712  42.455  23.723  1.00  0.00    -0.326 N 
ATOM     18  H   UNL A   1      43.775  42.235  23.517  1.00  0.00     0.166 HD
ATOM     19  O   UNL A   1      45.819  40.931  24.936  1.00  0.00    -0.248 OA
BRANCH  17  20
ATOM     20  C   UNL A   1      45.529  43.217  22.767  1.00  0.00     0.175 C 
BRANCH  20  21
ATOM     21  C   UNL A   1      46.907  42.701  22.229  1.00  0.00     0.015 C 
ATOM     22  C   UNL A   1      46.902  41.305  21.631  1.00  0.00     0.010 C 
ATOM     23  C   UNL A   1      47.682  43.651  21.284  1.00  0.00     0.010 C 
ENDBRANCH  20  21
BRANCH  20  24
ATOM     24  C   UNL A   1      44.678  43.409  21.554  1.00  0.00     0.245 C 
ATOM     25  O   UNL A   1      44.025  42.468  21.095  1.00  0.00    -0.272 OA
ATOM     26  N   UNL A   1      44.611  44.705  21.037  1.00  0.00    -0.341 N 
ATOM     27  C   UNL A   1      44.300  44.546  19.256  1.00  0.00     0.120 C 
ATOM     28  C   UNL A   1      45.275  46.223  21.767  1.00  0.00     0.120 C 
ATOM     29  C   UNL A   1      45.192  46.106  17.991  1.00  0.00     0.031 C 
ATOM     30  C   UNL A   1      46.154  47.507  20.712  1.00  0.00     0.031 C 
ATOM     31  C   UNL A   1      45.996  47.593  18.887  1.00  0.00     0.038 C 
BRANCH  31  32
ATOM     32  C   UNL A   1      47.225  48.112  18.161  1.00  0.00     0.045 C 
ATOM     33  O   UNL A   1      47.334  49.219  17.660  1.00  0.00    -0.550 OA
ATOM     34  O   UNL A   1      48.232  47.227  18.060  1.00  0.00    -0.550 OA
ENDBRANCH  31  32
ENDBRANCH  20  24
ENDBRANCH  17  20
ENDBRANCH   4  16
BRANCH   6  35
ATOM     35  C   UNL A   1      43.294  40.802  26.883  1.00  0.00     0.018 C 
ATOM     36  C   UNL A   1      42.418  40.607  28.145  1.00  0.00     0.010 C 
ATOM     37  C   UNL A   1      42.340  41.260  25.774  1.00  0.00     0.010 C 
ENDBRANCH   6  35
ENDBRANCH   2   3
ENDBRANCH   1   2
BRANCH   1  38
ATOM     38  C   UNL A   1      45.861  37.490  30.539  1.00  0.00     0.120 C 
BRANCH  38  39
ATOM     39  N   UNL A   1      47.143  37.598  29.836  1.00  0.00    -0.352 N 
ATOM     40  C   UNL A   1      47.903  36.605  29.263  1.00  0.00     0.251 C 
ATOM     41  H   UNL A   1      47.511  38.508  29.764  1.00  0.00     0.163 HD
ATOM     42  O   UNL A   1      49.087  36.788  29.008  1.00  0.00    -0.269 OA
BRANCH  40  43
ATOM     43  C   UNL A   1      47.255  35.312  28.983  1.00  0.00     0.039 A 
ATOM     44  C   UNL A   1      46.703  35.047  27.730  1.00  0.00     0.014 A 
ATOM     45  C   UNL A   1      47.275  34.333  29.974  1.00  0.00     0.014 A 
ATOM     46  C   UNL A   1      46.241  33.759  27.454  1.00  0.00     0.010 A 
ATOM     47  C   UNL A   1      46.977  33.027  29.643  1.00  0.00     0.010 A 
ATOM     48  C   UNL A   1      46.417  32.730  28.394  1.00  0.00    -0.014 A 
BRANCH  48  49
ATOM     49  C   UNL A   1      45.979  31.336  28.145  1.00  0.00     0.031 A 
ATOM     50  C   UNL A   1      44.555  30.949  28.455  1.00  0.00     0.074 A 
ATOM     51  C   UNL A   1      46.876  30.408  27.764  1.00  0.00     0.049 A 
ATOM     52  N   UNL A   1      43.999  29.767  28.450  1.00  0.00    -0.248 NA
ATOM     53  C   UNL A   1      43.654  32.030  28.897  1.00  0.00     0.031 C 
ATOM     54  C   UNL A   1      48.303  30.648  27.533  1.00  0.00     0.029 A 
ATOM     55  N   UNL A   1      46.723  29.067  27.522  1.00  0.00    -0.354 N 
ATOM     56  C   UNL A   1      42.710  29.959  28.935  1.00  0.00     0.074 A 
ATOM     57  C   UNL A   1      42.595  31.351  29.303  1.00  0.00     0.031 C 
ATOM     58  C   UNL A   1      48.886  29.500  27.152  1.00  0.00     0.029 A 
ATOM     59  C   UNL A   1      47.887  28.438  27.150  1.00  0.00     0.049 A 
ATOM     60  H   UNL A   1      45.861  28.600  27.606  1.00  0.00     0.167 HD
ATOM     61  C   UNL A   1      41.698  29.066  29.027  1.00  0.00     0.037 A 
ATOM     62  C   UNL A   1      48.117  27.146  26.845  1.00  0.00     0.037 A 
ATOM     63  C   UNL A   1      41.811  27.702  28.591  1.00  0.00     0.049 A 
ATOM     64  C   UNL A   1      46.965  26.183  26.869  1.00  0.00     0.074 A 
ATOM     65  C   UNL A   1      40.829  26.733  28.525  1.00  0.00     0.029 A 
ATOM     66  N   UNL A   1      42.987  27.118  28.139  1.00  0.00    -0.354 N 
ATOM     67  N   UNL A   1      45.721  26.398  27.233  1.00  0.00    -0.248 NA
ATOM     68  C   UNL A   1      47.236  24.809  26.431  1.00  0.00     0.031 C 
ATOM     69  C   UNL A   1      41.422  25.548  28.071  1.00  0.00     0.029 A 
ATOM     70  C   UNL A   1      42.762  25.794  27.809  1.00  0.00     0.049 A 
ATOM     71  H   UNL A   1      43.854  27.579  28.064  1.00  0.00     0.167 HD
ATOM     72  C   UNL A   1      45.056  25.191  27.053  1.00  0.00     0.074 A 
ATOM     73  C   UNL A   1      46.034  24.255  26.532  1.00  0.00     0.031 C 
ATOM     74  C   UNL A   1      43.757  24.884  27.295  1.00  0.00     0.037 A 
BRANCH  61  75
ATOM     75  C   UNL A   1      40.396  29.551  29.609  1.00  0.00     0.058 A 
ATOM     76  C   UNL A   1      39.285  29.851  28.802  1.00  0.00     0.135 A 
ATOM     77  C   UNL A   1      40.267  29.753  30.993  1.00  0.00     0.135 A 
ATOM     78  F   UNL A   1      39.354  29.694  27.470  1.00  0.00    -0.206 F 
ATOM     79  C   UNL A   1      38.120  30.392  29.335  1.00  0.00     0.059 A 
ATOM     80  C   UNL A   1      39.096  30.257  31.553  1.00  0.00     0.059 A 
ATOM     81  F   UNL A   1      41.292  29.480  31.816  1.00  0.00    -0.206 F 
ATOM     82  C   UNL A   1      38.037  30.599  30.712  1.00  0.00     0.060 A 
BRANCH  82  83
ATOM     83  S   UNL A   1      36.532  31.332  31.387  1.00  0.00     0.124 S 
ATOM     84  O   UNL A   1      35.634  31.255  30.238  1.00  0.00    -0.237 OA
ATOM     85  O   UNL A   1      36.218  30.437  32.496  1.00  0.00    -0.237 OA
ATOM     86  O   UNL A   1      36.950  32.676  31.769  1.00  0.00    -0.744 OA
ENDBRANCH  82  83
ENDBRANCH  61  75
BRANCH  62  87
ATOM     87  C   UNL A   1      49.485  26.726  26.444  1.00  0.00     0.058 A 
ATOM     88  C   UNL A   1      50.327  26.058  27.345  1.00  0.00     0.135 A 
ATOM     89  C   UNL A   1      49.948  26.909  25.131  1.00  0.00     0.135 A 
ATOM     90  F   UNL A   1      49.932  25.862  28.612  1.00  0.00    -0.206 F 
ATOM     91  C   UNL A   1      51.575  25.577  26.958  1.00  0.00     0.059 A 
ATOM     92  C   UNL A   1      51.183  26.420  24.715  1.00  0.00     0.059 A 
ATOM     93  F   UNL A   1      49.173  27.525  24.225  1.00  0.00    -0.206 F 
ATOM     94  C   UNL A   1      51.989  25.753  25.637  1.00  0.00     0.060 A 
BRANCH  94  95
ATOM     95  S   UNL A   1      53.565  25.035  25.122  1.00  0.00     0.124 S 
ATOM     96  O   UNL A   1      53.630  25.439  23.723  1.00  0.00    -0.237 OA
ATOM     97  O   UNL A   1      54.509  25.692  26.021  1.00  0.00    -0.237 OA
ATOM     98  O   UNL A   1      53.378  23.608  25.359  1.00  0.00    -0.744 OA
ENDBRANCH  94  95
ENDBRANCH  62  87
BRANCH  74  99
ATOM     99  C   UNL A   1      43.311  23.484  26.983  1.00  0.00     0.058 A 
ATOM    100  C   UNL A   1      43.170  23.035  25.661  1.00  0.00     0.135 A 
ATOM    101  C   UNL A   1      43.090  22.563  28.019  1.00  0.00     0.135 A 
ATOM    102  F   UNL A   1      43.365  23.880  24.636  1.00  0.00    -0.206 F 
ATOM    103  C   UNL A   1      42.805  21.725  25.377  1.00  0.00     0.059 A 
ATOM    104  C   UNL A   1      42.752  21.240  27.758  1.00  0.00     0.059 A 
ATOM    105  F   UNL A   1      43.226  22.940  29.300  1.00  0.00    -0.206 F 
ATOM    106  C   UNL A   1      42.602  20.833  26.433  1.00  0.00     0.060 A 
BRANCH 106 107
ATOM    107  S   UNL A   1      42.165  19.125  26.050  1.00  0.00     0.124 S 
ATOM    108  O   UNL A   1      43.032  18.850  24.908  1.00  0.00    -0.237 OA
ATOM    109  O   UNL A   1      42.507  18.429  27.287  1.00  0.00    -0.237 OA
ATOM    110  O   UNL A   1      40.738  19.197  25.751  1.00  0.00    -0.744 OA
ENDBRANCH 106 107
ENDBRANCH  74  99
ENDBRANCH  48  49
ENDBRANCH  40  43
ENDBRANCH  38  39
ENDBRANCH   1  38
TORSDOF 18
ENDMDL
MODEL 3
REMARK VINA RESULT:      -8.3      5.505     12.507
REMARK SMILES CC(C)[C@H](NC(=O)N1c2ccccc2[NH+]=C(NCCCNC(=O)c2ccc(-c3c4nc(c(-c5c(F)cc(S(=O)(=O)[O-])cc5F)c5ccc([nH]5)c(-c5c(F)cc(S(=O)(=O)[O-])cc5F)c5nc(c(-c6c(F)cc(S(=O)(=O)[O-])cc6F)c6ccc3[nH]6)C=C5)C=C4)cc2)[C@@H]1C(C)C)C(=O)N1CCC(C(=O)[O-])CC1
REMARK SMILES IDX 19 1 18 2 17 3 8 4 9 5 90 6 10 7 14 8 16 9 11 10 13 11 15 12
REMARK SMILES IDX 12 13 6 16 5 17 7 19 4 20 2 21 1 22 3 23 94 24 95 25 96 26
REMARK SMILES IDX 97 27 104 28 98 29 103 30 99 31 100 32 101 33 102 34 91 35
REMARK SMILES IDX 92 36 93 37 20 38 21 39 22 40 23 42 24 43 25 44 89 45 26 46
REMARK SMILES IDX 88 47 27 48 28 49 29 50 82 51 30 52 87 53 81 54 83 55 31 56
REMARK SMILES IDX 86 57 80 58 79 59 32 61 66 62 45 63 65 64 46 65 49 66 64 67
REMARK SMILES IDX 84 68 47 69 48 70 63 72 85 73 50 74 33 75 34 76 43 77 35 78
REMARK SMILES IDX 36 79 42 80 44 81 37 82 38 83 39 84 40 85 41 86 67 87 68 88
REMARK SMILES IDX 77 89 69 90 70 91 76 92 78 93 71 94 72 95 73 96 74 97 75 98
REMARK SMILES IDX 51 99 52 100 61 101 53 102 54 103 60 104 62 105 55 106
REMARK SMILES IDX 56 107 57 108 58 109 59 110
REMARK H PARENT 15 14 17 15 5 18 21 41 83 60 49 71
REMARK Flexibility Score: inf
ROOT
ATOM      1  C   UNL A   1      51.279  37.459  28.120  1.00  0.00     0.067 C 
ENDROOT
BRANCH   1   2
ATOM      2  C   UNL A   1      52.336  36.702  27.343  1.00  0.00     0.235 C 
BRANCH   2   3
ATOM      3  N   UNL A   1      52.284  35.307  27.667  1.00  0.00    -0.276 N 
ATOM      4  N   UNL A   1      53.531  32.778  25.116  1.00  0.00    -0.275 N 
ATOM      5  C   UNL A   1      53.586  31.537  26.028  1.00  0.00     0.093 A 
ATOM      6  C   UNL A   1      53.787  33.989  25.959  1.00  0.00     0.208 C 
ATOM      7  C   UNL A   1      54.414  29.764  25.953  1.00  0.00     0.031 A 
ATOM      8  C   UNL A   1      52.463  31.843  27.339  1.00  0.00     0.148 A 
ATOM      9  C   UNL A   1      52.649  34.150  27.042  1.00  0.00     0.271 C 
ATOM     10  C   UNL A   1      54.022  28.534  27.165  1.00  0.00     0.002 A 
ATOM     11  C   UNL A   1      52.134  30.551  28.476  1.00  0.00     0.054 A 
ATOM     12  N   UNL A   1      52.036  33.135  27.619  1.00  0.00    -0.241 N 
ATOM     13  C   UNL A   1      52.863  28.971  28.382  1.00  0.00     0.005 A 
ATOM     14  H   UNL A   1      51.287  33.289  28.240  1.00  0.00     0.312 HD
ATOM     15  H   UNL A   1      51.889  35.144  28.554  1.00  0.00     0.304 HD
BRANCH   4  16
ATOM     16  C   UNL A   1      52.466  33.032  24.163  1.00  0.00     0.323 C 
ATOM     17  N   UNL A   1      52.833  33.315  22.841  1.00  0.00    -0.326 N 
ATOM     18  H   UNL A   1      53.240  34.181  22.610  1.00  0.00     0.166 HD
ATOM     19  O   UNL A   1      51.325  33.362  24.496  1.00  0.00    -0.248 OA
BRANCH  17  20
ATOM     20  C   UNL A   1      52.602  32.298  21.803  1.00  0.00     0.175 C 
BRANCH  20  21
ATOM     21  C   UNL A   1      52.691  32.616  20.271  1.00  0.00     0.015 C 
ATOM     22  C   UNL A   1      53.885  33.449  19.837  1.00  0.00     0.010 C 
ATOM     23  C   UNL A   1      52.535  31.417  19.305  1.00  0.00     0.010 C 
ENDBRANCH  20  21
BRANCH  20  24
ATOM     24  C   UNL A   1      53.611  31.223  22.043  1.00  0.00     0.245 C 
ATOM     25  O   UNL A   1      54.802  31.507  22.191  1.00  0.00    -0.272 OA
ATOM     26  N   UNL A   1      53.118  29.921  22.163  1.00  0.00    -0.341 N 
ATOM     27  C   UNL A   1      54.437  28.806  21.603  1.00  0.00     0.120 C 
ATOM     28  C   UNL A   1      51.388  29.396  22.256  1.00  0.00     0.120 C 
ATOM     29  C   UNL A   1      53.767  26.959  20.619  1.00  0.00     0.031 C 
ATOM     30  C   UNL A   1      50.776  27.889  21.314  1.00  0.00     0.031 C 
ATOM     31  C   UNL A   1      51.890  26.588  20.657  1.00  0.00     0.038 C 
BRANCH  31  32
ATOM     32  C   UNL A   1      51.407  25.912  19.387  1.00  0.00     0.045 C 
ATOM     33  O   UNL A   1      50.911  26.482  18.428  1.00  0.00    -0.550 OA
ATOM     34  O   UNL A   1      51.526  24.573  19.383  1.00  0.00    -0.550 OA
ENDBRANCH  31  32
ENDBRANCH  20  24
ENDBRANCH  17  20
ENDBRANCH   4  16
BRANCH   6  35
ATOM     35  C   UNL A   1      54.273  35.265  25.197  1.00  0.00     0.018 C 
ATOM     36  C   UNL A   1      55.177  36.120  26.118  1.00  0.00     0.010 C 
ATOM     37  C   UNL A   1      55.076  35.036  23.911  1.00  0.00     0.010 C 
ENDBRANCH   6  35
ENDBRANCH   2   3
ENDBRANCH   1   2
BRANCH   1  38
ATOM     38  C   UNL A   1      50.314  36.530  28.838  1.00  0.00     0.120 C 
BRANCH  38  39
ATOM     39  N   UNL A   1      49.096  37.227  29.260  1.00  0.00    -0.352 N 
ATOM     40  C   UNL A   1      47.788  36.809  29.182  1.00  0.00     0.251 C 
ATOM     41  H   UNL A   1      49.233  38.119  29.654  1.00  0.00     0.163 HD
ATOM     42  O   UNL A   1      46.866  37.612  29.263  1.00  0.00    -0.269 OA
BRANCH  40  43
ATOM     43  C   UNL A   1      47.530  35.373  28.980  1.00  0.00     0.039 A 
ATOM     44  C   UNL A   1      47.588  34.481  30.050  1.00  0.00     0.014 A 
ATOM     45  C   UNL A   1      47.154  34.939  27.711  1.00  0.00     0.014 A 
ATOM     46  C   UNL A   1      47.185  33.159  29.851  1.00  0.00     0.010 A 
ATOM     47  C   UNL A   1      46.598  33.686  27.560  1.00  0.00     0.010 A 
ATOM     48  C   UNL A   1      46.645  32.765  28.615  1.00  0.00    -0.014 A 
BRANCH  48  49
ATOM     49  C   UNL A   1      46.168  31.387  28.354  1.00  0.00     0.031 A 
ATOM     50  C   UNL A   1      44.741  31.031  28.687  1.00  0.00     0.074 A 
ATOM     51  C   UNL A   1      47.034  30.442  27.942  1.00  0.00     0.049 A 
ATOM     52  N   UNL A   1      44.155  29.864  28.676  1.00  0.00    -0.248 NA
ATOM     53  C   UNL A   1      43.876  32.127  29.162  1.00  0.00     0.031 C 
ATOM     54  C   UNL A   1      48.462  30.650  27.687  1.00  0.00     0.029 A 
ATOM     55  N   UNL A   1      46.843  29.110  27.684  1.00  0.00    -0.354 N 
ATOM     56  C   UNL A   1      42.881  30.080  29.189  1.00  0.00     0.074 A 
ATOM     57  C   UNL A   1      42.809  31.469  29.579  1.00  0.00     0.031 C 
ATOM     58  C   UNL A   1      49.008  29.494  27.279  1.00  0.00     0.029 A 
ATOM     59  C   UNL A   1      47.982  28.457  27.281  1.00  0.00     0.049 A 
ATOM     60  H   UNL A   1      45.971  28.663  27.779  1.00  0.00     0.167 HD
ATOM     61  C   UNL A   1      41.849  29.211  29.288  1.00  0.00     0.037 A 
ATOM     62  C   UNL A   1      48.174  27.164  26.953  1.00  0.00     0.037 A 
ATOM     63  C   UNL A   1      41.919  27.852  28.830  1.00  0.00     0.049 A 
ATOM     64  C   UNL A   1      46.999  26.230  26.987  1.00  0.00     0.074 A 
ATOM     65  C   UNL A   1      40.912  26.908  28.770  1.00  0.00     0.029 A 
ATOM     66  N   UNL A   1      43.071  27.245  28.347  1.00  0.00    -0.354 N 
ATOM     67  N   UNL A   1      45.768  26.470  27.378  1.00  0.00    -0.248 NA
ATOM     68  C   UNL A   1      47.227  24.856  26.523  1.00  0.00     0.031 C 
ATOM     69  C   UNL A   1      41.466  25.716  28.288  1.00  0.00     0.029 A 
ATOM     70  C   UNL A   1      42.806  25.932  28.003  1.00  0.00     0.049 A 
ATOM     71  H   UNL A   1      43.948  27.685  28.261  1.00  0.00     0.167 HD
ATOM     72  C   UNL A   1      45.069  25.284  27.194  1.00  0.00     0.074 A 
ATOM     73  C   UNL A   1      46.013  24.331  26.640  1.00  0.00     0.031 C 
ATOM     74  C   UNL A   1      43.768  25.005  27.457  1.00  0.00     0.037 A 
BRANCH  61  75
ATOM     75  C   UNL A   1      40.571  29.720  29.903  1.00  0.00     0.058 A 
ATOM     76  C   UNL A   1      39.475  30.119  29.118  1.00  0.00     0.135 A 
ATOM     77  C   UNL A   1      40.452  29.844  31.297  1.00  0.00     0.135 A 
ATOM     78  F   UNL A   1      39.535  30.039  27.779  1.00  0.00    -0.206 F 
ATOM     79  C   UNL A   1      38.336  30.680  29.687  1.00  0.00     0.059 A 
ATOM     80  C   UNL A   1      39.306  30.367  31.890  1.00  0.00     0.059 A 
ATOM     81  F   UNL A   1      41.464  29.475  32.098  1.00  0.00    -0.206 F 
ATOM     82  C   UNL A   1      38.264  30.808  31.074  1.00  0.00     0.060 A 
BRANCH  82  83
ATOM     83  S   UNL A   1      36.795  31.567  31.796  1.00  0.00     0.124 S 
ATOM     84  O   UNL A   1      36.884  31.110  33.180  1.00  0.00    -0.237 OA
ATOM     85  O   UNL A   1      37.039  32.990  31.583  1.00  0.00    -0.237 OA
ATOM     86  O   UNL A   1      35.700  30.998  31.016  1.00  0.00    -0.744 OA
ENDBRANCH  82  83
ENDBRANCH  61  75
BRANCH  62  87
ATOM     87  C   UNL A   1      49.524  26.717  26.519  1.00  0.00     0.058 A 
ATOM     88  C   UNL A   1      50.367  26.017  27.395  1.00  0.00     0.135 A 
ATOM     89  C   UNL A   1      49.964  26.904  25.200  1.00  0.00     0.135 A 
ATOM     90  F   UNL A   1      49.992  25.815  28.667  1.00  0.00    -0.206 F 
ATOM     91  C   UNL A   1      51.595  25.511  26.977  1.00  0.00     0.059 A 
ATOM     92  C   UNL A   1      51.178  26.390  24.753  1.00  0.00     0.059 A 
ATOM     93  F   UNL A   1      49.186  27.550  24.317  1.00  0.00    -0.206 F 
ATOM     94  C   UNL A   1      51.986  25.693  25.650  1.00  0.00     0.060 A 
BRANCH  94  95
ATOM     95  S   UNL A   1      53.534  24.943  25.095  1.00  0.00     0.124 S 
ATOM     96  O   UNL A   1      53.651  25.477  23.743  1.00  0.00    -0.237 OA
ATOM     97  O   UNL A   1      54.490  25.458  26.070  1.00  0.00    -0.237 OA
ATOM     98  O   UNL A   1      53.266  23.512  25.188  1.00  0.00    -0.744 OA
ENDBRANCH  94  95
ENDBRANCH  62  87
BRANCH  74  99
ATOM     99  C   UNL A   1      43.281  23.621  27.134  1.00  0.00     0.058 A 
ATOM    100  C   UNL A   1      43.028  23.221  25.813  1.00  0.00     0.135 A 
ATOM    101  C   UNL A   1      43.133  22.667  28.152  1.00  0.00     0.135 A 
ATOM    102  F   UNL A   1      43.152  24.100  24.805  1.00  0.00    -0.206 F 
ATOM    103  C   UNL A   1      42.626  21.925  25.514  1.00  0.00     0.059 A 
ATOM    104  C   UNL A   1      42.758  21.357  27.873  1.00  0.00     0.059 A 
ATOM    105  F   UNL A   1      43.376  22.997  29.430  1.00  0.00    -0.206 F 
ATOM    106  C   UNL A   1      42.497  20.999  26.552  1.00  0.00     0.060 A 
BRANCH 106 107
ATOM    107  S   UNL A   1      42.010  19.310  26.146  1.00  0.00     0.124 S 
ATOM    108  O   UNL A   1      40.575  19.461  25.932  1.00  0.00    -0.237 OA
ATOM    109  O   UNL A   1      42.803  19.033  24.953  1.00  0.00    -0.237 OA
ATOM    110  O   UNL A   1      42.390  18.551  27.334  1.00  0.00    -0.744 OA
ENDBRANCH 106 107
ENDBRANCH  74  99
ENDBRANCH  48  49
ENDBRANCH  40  43
ENDBRANCH  38  39
ENDBRANCH   1  38
TORSDOF 18
ENDMDL
