MODEL 1
REMARK VINA RESULT:     -10.5      0.000      0.000
REMARK SMILES CCOC(=O)[C@@H]1CCCCN1C(=O)N[C@](C)(CC)C(=O)NCCCNC(=O)c1ccc(-c2c3nc(c(-c4c(F)cc(S(=O)(=O)[O-])cc4F)c4ccc([nH]4)c(-c4c(F)cc(S(=O)(=O)[O-])cc4F)c4nc(c(-c5c(F)cc(S(=O)(=O)[O-])cc5F)c5ccc2[nH]5)C=C4)C=C3)cc1
REMARK SMILES IDX 22 1 21 2 19 3 20 4 15 6 16 7 14 8 12 9 13 10 11 12 6 13
REMARK SMILES IDX 7 14 8 15 10 16 9 17 4 18 5 19 3 20 2 21 1 22 17 23 18 24
REMARK SMILES IDX 23 25 24 26 25 27 26 28 27 30 28 31 29 32 93 33 30 34 92 35
REMARK SMILES IDX 31 36 32 37 33 38 86 39 34 40 91 41 85 42 87 43 35 44 90 45
REMARK SMILES IDX 84 46 83 47 36 49 70 50 49 51 69 52 50 53 53 54 68 55 88 56
REMARK SMILES IDX 51 57 52 58 67 60 89 61 54 62 37 63 38 64 47 65 39 66 40 67
REMARK SMILES IDX 46 68 48 69 41 70 42 71 43 72 44 73 45 74 71 75 72 76 81 77
REMARK SMILES IDX 73 78 74 79 80 80 82 81 75 82 76 83 77 84 78 85 79 86 55 87
REMARK SMILES IDX 56 88 65 89 57 90 58 91 64 92 66 93 59 94 60 95 61 96 62 97
REMARK SMILES IDX 63 98
REMARK H PARENT 21 5 14 11 25 29 87 48 53 59
REMARK Flexibility Score: inf
ROOT
ATOM      1  C   UNL A   1      33.468  28.055  24.808  1.00  0.00     0.117 C 
ENDROOT
BRANCH   1   2
ATOM      2  N   UNL A   1      33.102  26.923  25.626  1.00  0.00    -0.354 N 
ATOM      3  C   UNL A   1      31.868  26.343  25.756  1.00  0.00     0.245 C 
ATOM      4  O   UNL A   1      31.358  26.245  26.874  1.00  0.00    -0.272 OA
ATOM      5  H   UNL A   1      33.828  26.518  26.153  1.00  0.00     0.163 HD
BRANCH   3   6
ATOM      6  C   UNL A   1      31.151  25.836  24.483  1.00  0.00     0.117 C 
ATOM      7  C   UNL A   1      30.226  24.644  24.762  1.00  0.00     0.045 C 
BRANCH   6   8
ATOM      8  N   UNL A   1      32.114  25.513  23.399  1.00  0.00    -0.324 N 
ATOM      9  C   UNL A   1      32.845  24.539  22.860  1.00  0.00     0.319 C 
ATOM     10  O   UNL A   1      33.586  24.987  21.979  1.00  0.00    -0.249 OA
ATOM     11  H   UNL A   1      32.275  26.335  22.881  1.00  0.00     0.166 HD
BRANCH   9  12
ATOM     12  N   UNL A   1      32.922  23.235  23.274  1.00  0.00    -0.311 N 
ATOM     13  C   UNL A   1      33.662  23.061  24.569  1.00  0.00     0.196 C 
ATOM     14  C   UNL A   1      33.940  21.598  24.959  1.00  0.00     0.037 C 
ATOM     15  C   UNL A   1      32.748  20.695  24.738  1.00  0.00     0.005 C 
ATOM     16  C   UNL A   1      32.033  22.152  22.832  1.00  0.00     0.122 C 
ATOM     17  C   UNL A   1      32.409  20.737  23.261  1.00  0.00     0.022 C 
BRANCH  13  18
ATOM     18  C   UNL A   1      35.027  23.752  24.809  1.00  0.00     0.328 C 
ATOM     19  O   UNL A   1      35.144  24.728  25.547  1.00  0.00    -0.250 OA
BRANCH  18  20
ATOM     20  O   UNL A   1      36.082  23.090  24.258  1.00  0.00    -0.464 OA
BRANCH  20  21
ATOM     21  C   UNL A   1      37.205  22.937  25.141  1.00  0.00     0.229 C 
ATOM     22  C   UNL A   1      37.822  21.550  25.027  1.00  0.00     0.049 C 
ENDBRANCH  20  21
ENDBRANCH  18  20
ENDBRANCH  13  18
ENDBRANCH   9  12
ENDBRANCH   6   8
BRANCH   6  23
ATOM     23  C   UNL A   1      30.265  27.009  23.931  1.00  0.00     0.035 C 
ATOM     24  C   UNL A   1      30.598  27.510  22.528  1.00  0.00     0.007 C 
ENDBRANCH   6  23
ENDBRANCH   3   6
ENDBRANCH   1   2
BRANCH   1  25
ATOM     25  C   UNL A   1      33.490  29.347  25.620  1.00  0.00     0.042 C 
BRANCH  25  26
ATOM     26  C   UNL A   1      33.466  29.191  27.135  1.00  0.00     0.118 C 
BRANCH  26  27
ATOM     27  N   UNL A   1      33.595  30.432  27.883  1.00  0.00    -0.352 N 
ATOM     28  C   UNL A   1      34.737  30.968  28.445  1.00  0.00     0.251 C 
ATOM     29  H   UNL A   1      32.767  30.952  28.002  1.00  0.00     0.163 HD
ATOM     30  O   UNL A   1      34.731  32.079  28.948  1.00  0.00    -0.269 OA
BRANCH  28  31
ATOM     31  C   UNL A   1      35.934  30.104  28.519  1.00  0.00     0.039 A 
ATOM     32  C   UNL A   1      36.809  30.122  27.430  1.00  0.00     0.014 A 
ATOM     33  C   UNL A   1      36.288  29.482  29.717  1.00  0.00     0.014 A 
ATOM     34  C   UNL A   1      38.104  29.631  27.588  1.00  0.00     0.010 A 
ATOM     35  C   UNL A   1      37.602  29.062  29.893  1.00  0.00     0.010 A 
ATOM     36  C   UNL A   1      38.530  29.171  28.845  1.00  0.00    -0.014 A 
BRANCH  36  37
ATOM     37  C   UNL A   1      39.961  28.872  29.103  1.00  0.00     0.031 A 
ATOM     38  C   UNL A   1      40.850  29.924  29.698  1.00  0.00     0.074 A 
ATOM     39  C   UNL A   1      40.468  27.682  28.720  1.00  0.00     0.049 A 
ATOM     40  N   UNL A   1      42.139  29.890  29.910  1.00  0.00    -0.248 NA
ATOM     41  C   UNL A   1      40.208  31.193  30.076  1.00  0.00     0.031 C 
ATOM     42  C   UNL A   1      39.710  26.602  28.078  1.00  0.00     0.029 A 
ATOM     43  N   UNL A   1      41.743  27.180  28.802  1.00  0.00    -0.354 N 
ATOM     44  C   UNL A   1      42.465  31.134  30.435  1.00  0.00     0.074 A 
ATOM     45  C   UNL A   1      41.249  31.917  30.458  1.00  0.00     0.031 C 
ATOM     46  C   UNL A   1      40.528  25.561  27.850  1.00  0.00     0.029 A 
ATOM     47  C   UNL A   1      41.874  25.908  28.292  1.00  0.00     0.049 A 
ATOM     48  H   UNL A   1      42.495  27.683  29.190  1.00  0.00     0.167 HD
ATOM     49  C   UNL A   1      43.666  31.572  30.881  1.00  0.00     0.037 A 
ATOM     50  C   UNL A   1      42.957  25.113  28.191  1.00  0.00     0.037 A 
ATOM     51  C   UNL A   1      44.866  30.777  30.872  1.00  0.00     0.049 A 
ATOM     52  C   UNL A   1      44.278  25.622  28.702  1.00  0.00     0.074 A 
ATOM     53  C   UNL A   1      46.126  31.113  31.332  1.00  0.00     0.029 A 
ATOM     54  N   UNL A   1      44.950  29.482  30.382  1.00  0.00    -0.354 N 
ATOM     55  N   UNL A   1      44.560  26.785  29.241  1.00  0.00    -0.248 NA
ATOM     56  C   UNL A   1      45.427  24.713  28.597  1.00  0.00     0.031 C 
ATOM     57  C   UNL A   1      46.979  30.029  31.096  1.00  0.00     0.029 A 
ATOM     58  C   UNL A   1      46.241  29.005  30.523  1.00  0.00     0.049 A 
ATOM     59  H   UNL A   1      44.201  28.976  29.991  1.00  0.00     0.167 HD
ATOM     60  C   UNL A   1      45.911  26.737  29.564  1.00  0.00     0.074 A 
ATOM     61  C   UNL A   1      46.387  25.427  29.169  1.00  0.00     0.031 C 
ATOM     62  C   UNL A   1      46.687  27.690  30.134  1.00  0.00     0.037 A 
BRANCH  49  63
ATOM     63  C   UNL A   1      43.730  32.972  31.426  1.00  0.00     0.058 A 
ATOM     64  C   UNL A   1      43.630  33.224  32.804  1.00  0.00     0.135 A 
ATOM     65  C   UNL A   1      43.904  34.071  30.570  1.00  0.00     0.135 A 
ATOM     66  F   UNL A   1      43.444  32.210  33.665  1.00  0.00    -0.206 F 
ATOM     67  C   UNL A   1      43.668  34.517  33.311  1.00  0.00     0.059 A 
ATOM     68  C   UNL A   1      43.970  35.372  31.059  1.00  0.00     0.059 A 
ATOM     69  F   UNL A   1      44.000  33.886  29.245  1.00  0.00    -0.206 F 
ATOM     70  C   UNL A   1      43.834  35.586  32.430  1.00  0.00     0.060 A 
BRANCH  70  71
ATOM     71  S   UNL A   1      43.877  37.260  33.105  1.00  0.00     0.124 S 
ATOM     72  O   UNL A   1      45.171  37.268  33.781  1.00  0.00    -0.237 OA
ATOM     73  O   UNL A   1      43.786  38.085  31.904  1.00  0.00    -0.237 OA
ATOM     74  O   UNL A   1      42.711  37.303  33.980  1.00  0.00    -0.744 OA
ENDBRANCH  70  71
ENDBRANCH  49  63
BRANCH  50  75
ATOM     75  C   UNL A   1      42.840  23.749  27.611  1.00  0.00     0.058 A 
ATOM     76  C   UNL A   1      42.484  22.655  28.415  1.00  0.00     0.135 A 
ATOM     77  C   UNL A   1      43.081  23.506  26.250  1.00  0.00     0.135 A 
ATOM     78  F   UNL A   1      42.248  22.835  29.723  1.00  0.00    -0.206 F 
ATOM     79  C   UNL A   1      42.391  21.366  27.897  1.00  0.00     0.059 A 
ATOM     80  C   UNL A   1      42.973  22.230  25.704  1.00  0.00     0.059 A 
ATOM     81  F   UNL A   1      43.406  24.520  25.433  1.00  0.00    -0.206 F 
ATOM     82  C   UNL A   1      42.640  21.164  26.539  1.00  0.00     0.060 A 
BRANCH  82  83
ATOM     83  S   UNL A   1      42.484  19.494  25.868  1.00  0.00     0.124 S 
ATOM     84  O   UNL A   1      41.041  19.380  25.696  1.00  0.00    -0.237 OA
ATOM     85  O   UNL A   1      43.269  19.580  24.640  1.00  0.00    -0.237 OA
ATOM     86  O   UNL A   1      43.064  18.658  26.915  1.00  0.00    -0.744 OA
ENDBRANCH  82  83
ENDBRANCH  50  75
BRANCH  62  87
ATOM     87  C   UNL A   1      48.122  27.338  30.400  1.00  0.00     0.058 A 
ATOM     88  C   UNL A   1      48.500  26.598  31.531  1.00  0.00     0.135 A 
ATOM     89  C   UNL A   1      49.122  27.701  29.484  1.00  0.00     0.135 A 
ATOM     90  F   UNL A   1      47.581  26.236  32.439  1.00  0.00    -0.206 F 
ATOM     91  C   UNL A   1      49.826  26.245  31.755  1.00  0.00     0.059 A 
ATOM     92  C   UNL A   1      50.452  27.338  29.675  1.00  0.00     0.059 A 
ATOM     93  F   UNL A   1      48.809  28.401  28.382  1.00  0.00    -0.206 F 
ATOM     94  C   UNL A   1      50.794  26.618  30.820  1.00  0.00     0.060 A 
BRANCH  94  95
ATOM     95  S   UNL A   1      52.507  26.119  31.099  1.00  0.00     0.124 S 
ATOM     96  O   UNL A   1      53.047  27.292  31.777  1.00  0.00    -0.237 OA
ATOM     97  O   UNL A   1      52.355  24.924  31.923  1.00  0.00    -0.237 OA
ATOM     98  O   UNL A   1      53.015  25.881  29.751  1.00  0.00    -0.744 OA
ENDBRANCH  94  95
ENDBRANCH  62  87
ENDBRANCH  36  37
ENDBRANCH  28  31
ENDBRANCH  26  27
ENDBRANCH  25  26
ENDBRANCH   1  25
TORSDOF 19
ENDMDL
MODEL 2
REMARK VINA RESULT:     -10.4      2.866      3.939
REMARK SMILES CCOC(=O)[C@@H]1CCCCN1C(=O)N[C@](C)(CC)C(=O)NCCCNC(=O)c1ccc(-c2c3nc(c(-c4c(F)cc(S(=O)(=O)[O-])cc4F)c4ccc([nH]4)c(-c4c(F)cc(S(=O)(=O)[O-])cc4F)c4nc(c(-c5c(F)cc(S(=O)(=O)[O-])cc5F)c5ccc2[nH]5)C=C4)C=C3)cc1
REMARK SMILES IDX 22 1 21 2 19 3 20 4 15 6 16 7 14 8 12 9 13 10 11 12 6 13
REMARK SMILES IDX 7 14 8 15 10 16 9 17 4 18 5 19 3 20 2 21 1 22 17 23 18 24
REMARK SMILES IDX 23 25 24 26 25 27 26 28 27 30 28 31 29 32 93 33 30 34 92 35
REMARK SMILES IDX 31 36 32 37 33 38 86 39 34 40 91 41 85 42 87 43 35 44 90 45
REMARK SMILES IDX 84 46 83 47 36 49 70 50 49 51 69 52 50 53 53 54 68 55 88 56
REMARK SMILES IDX 51 57 52 58 67 60 89 61 54 62 37 63 38 64 47 65 39 66 40 67
REMARK SMILES IDX 46 68 48 69 41 70 42 71 43 72 44 73 45 74 71 75 72 76 81 77
REMARK SMILES IDX 73 78 74 79 80 80 82 81 75 82 76 83 77 84 78 85 79 86 55 87
REMARK SMILES IDX 56 88 65 89 57 90 58 91 64 92 66 93 59 94 60 95 61 96 62 97
REMARK SMILES IDX 63 98
REMARK H PARENT 21 5 14 11 25 29 87 48 53 59
REMARK Flexibility Score: inf
ROOT
ATOM      1  C   UNL A   1      34.083  29.250  26.510  1.00  0.00     0.117 C 
ENDROOT
BRANCH   1   2
ATOM      2  N   UNL A   1      33.970  29.437  25.083  1.00  0.00    -0.354 N 
ATOM      3  C   UNL A   1      33.266  28.674  24.188  1.00  0.00     0.245 C 
ATOM      4  O   UNL A   1      33.851  28.172  23.227  1.00  0.00    -0.272 OA
ATOM      5  H   UNL A   1      34.457  30.205  24.707  1.00  0.00     0.163 HD
BRANCH   3   6
ATOM      6  C   UNL A   1      31.752  28.467  24.424  1.00  0.00     0.117 C 
ATOM      7  C   UNL A   1      31.021  29.776  24.746  1.00  0.00     0.045 C 
BRANCH   6   8
ATOM      8  N   UNL A   1      31.491  27.447  25.472  1.00  0.00    -0.324 N 
ATOM      9  C   UNL A   1      31.868  26.258  25.938  1.00  0.00     0.319 C 
ATOM     10  O   UNL A   1      31.108  25.881  26.837  1.00  0.00    -0.249 OA
ATOM     11  H   UNL A   1      30.757  27.776  26.041  1.00  0.00     0.166 HD
BRANCH   9  12
ATOM     12  N   UNL A   1      32.854  25.448  25.441  1.00  0.00    -0.311 N 
ATOM     13  C   UNL A   1      32.459  24.726  24.184  1.00  0.00     0.196 C 
ATOM     14  C   UNL A   1      33.465  23.660  23.711  1.00  0.00     0.037 C 
ATOM     15  C   UNL A   1      34.899  24.129  23.796  1.00  0.00     0.005 C 
ATOM     16  C   UNL A   1      34.285  25.567  25.751  1.00  0.00     0.122 C 
ATOM     17  C   UNL A   1      35.193  24.448  25.249  1.00  0.00     0.022 C 
BRANCH  13  18
ATOM     18  C   UNL A   1      31.099  23.995  24.077  1.00  0.00     0.328 C 
ATOM     19  O   UNL A   1      30.149  24.470  23.458  1.00  0.00    -0.250 OA
BRANCH  18  20
ATOM     20  O   UNL A   1      31.111  22.734  24.591  1.00  0.00    -0.464 OA
BRANCH  20  21
ATOM     21  C   UNL A   1      30.688  22.653  25.961  1.00  0.00     0.229 C 
ATOM     22  C   UNL A   1      31.871  22.473  26.903  1.00  0.00     0.049 C 
ENDBRANCH  20  21
ENDBRANCH  18  20
ENDBRANCH  13  18
ENDBRANCH   9  12
ENDBRANCH   6   8
BRANCH   6  23
ATOM     23  C   UNL A   1      31.135  27.887  23.102  1.00  0.00     0.035 C 
ATOM     24  C   UNL A   1      29.969  28.665  22.499  1.00  0.00     0.007 C 
ENDBRANCH   6  23
ENDBRANCH   3   6
ENDBRANCH   1   2
BRANCH   1  25
ATOM     25  C   UNL A   1      34.261  30.581  27.235  1.00  0.00     0.042 C 
BRANCH  25  26
ATOM     26  C   UNL A   1      35.530  30.731  28.065  1.00  0.00     0.118 C 
BRANCH  26  27
ATOM     27  N   UNL A   1      35.492  30.084  29.368  1.00  0.00    -0.352 N 
ATOM     28  C   UNL A   1      36.554  29.809  30.208  1.00  0.00     0.251 C 
ATOM     29  H   UNL A   1      34.603  29.810  29.689  1.00  0.00     0.163 HD
ATOM     30  O   UNL A   1      36.372  29.366  31.330  1.00  0.00    -0.269 OA
BRANCH  28  31
ATOM     31  C   UNL A   1      37.917  29.961  29.660  1.00  0.00     0.039 A 
ATOM     32  C   UNL A   1      38.944  30.255  30.561  1.00  0.00     0.014 A 
ATOM     33  C   UNL A   1      38.198  29.596  28.342  1.00  0.00     0.014 A 
ATOM     34  C   UNL A   1      40.268  30.051  30.176  1.00  0.00     0.010 A 
ATOM     35  C   UNL A   1      39.515  29.322  27.987  1.00  0.00     0.010 A 
ATOM     36  C   UNL A   1      40.555  29.507  28.913  1.00  0.00    -0.014 A 
BRANCH  36  37
ATOM     37  C   UNL A   1      41.926  29.054  28.570  1.00  0.00     0.031 A 
ATOM     38  C   UNL A   1      43.052  30.044  28.524  1.00  0.00     0.074 A 
ATOM     39  C   UNL A   1      42.129  27.767  28.219  1.00  0.00     0.049 A 
ATOM     40  N   UNL A   1      44.293  29.865  28.155  1.00  0.00    -0.248 NA
ATOM     41  C   UNL A   1      42.731  31.426  28.915  1.00  0.00     0.031 C 
ATOM     42  C   UNL A   1      41.096  26.726  28.172  1.00  0.00     0.029 A 
ATOM     43  N   UNL A   1      43.269  27.113  27.823  1.00  0.00    -0.354 N 
ATOM     44  C   UNL A   1      44.899  31.110  28.258  1.00  0.00     0.074 A 
ATOM     45  C   UNL A   1      43.876  32.046  28.672  1.00  0.00     0.031 C 
ATOM     46  C   UNL A   1      41.656  25.563  27.796  1.00  0.00     0.029 A 
ATOM     47  C   UNL A   1      43.075  25.780  27.539  1.00  0.00     0.049 A 
ATOM     48  H   UNL A   1      44.145  27.556  27.749  1.00  0.00     0.167 HD
ATOM     49  C   UNL A   1      46.197  31.436  28.051  1.00  0.00     0.037 A 
ATOM     50  C   UNL A   1      43.943  24.840  27.116  1.00  0.00     0.037 A 
ATOM     51  C   UNL A   1      47.210  30.492  27.660  1.00  0.00     0.049 A 
ATOM     52  C   UNL A   1      45.381  25.228  26.902  1.00  0.00     0.074 A 
ATOM     53  C   UNL A   1      48.560  30.711  27.457  1.00  0.00     0.029 A 
ATOM     54  N   UNL A   1      46.981  29.145  27.417  1.00  0.00    -0.354 N 
ATOM     55  N   UNL A   1      45.949  26.402  27.052  1.00  0.00    -0.248 NA
ATOM     56  C   UNL A   1      46.299  24.167  26.468  1.00  0.00     0.031 C 
ATOM     57  C   UNL A   1      49.144  29.501  27.067  1.00  0.00     0.029 A 
ATOM     58  C   UNL A   1      48.164  28.521  27.062  1.00  0.00     0.049 A 
ATOM     59  H   UNL A   1      46.106  28.699  27.487  1.00  0.00     0.167 HD
ATOM     60  C   UNL A   1      47.294  26.214  26.756  1.00  0.00     0.074 A 
ATOM     61  C   UNL A   1      47.457  24.812  26.429  1.00  0.00     0.031 C 
ATOM     62  C   UNL A   1      48.302  27.119  26.754  1.00  0.00     0.037 A 
BRANCH  49  63
ATOM     63  C   UNL A   1      46.588  32.873  28.260  1.00  0.00     0.058 A 
ATOM     64  C   UNL A   1      46.537  33.803  27.209  1.00  0.00     0.135 A 
ATOM     65  C   UNL A   1      47.007  33.328  29.520  1.00  0.00     0.135 A 
ATOM     66  F   UNL A   1      46.162  33.416  25.980  1.00  0.00    -0.206 F 
ATOM     67  C   UNL A   1      46.917  35.128  27.393  1.00  0.00     0.059 A 
ATOM     68  C   UNL A   1      47.367  34.656  29.731  1.00  0.00     0.059 A 
ATOM     69  F   UNL A   1      47.077  32.479  30.556  1.00  0.00    -0.206 F 
ATOM     70  C   UNL A   1      47.335  35.544  28.657  1.00  0.00     0.060 A 
BRANCH  70  71
ATOM     71  S   UNL A   1      47.829  37.267  28.878  1.00  0.00     0.124 S 
ATOM     72  O   UNL A   1      46.567  37.962  28.651  1.00  0.00    -0.237 OA
ATOM     73  O   UNL A   1      48.320  37.278  30.252  1.00  0.00    -0.237 OA
ATOM     74  O   UNL A   1      48.847  37.461  27.851  1.00  0.00    -0.744 OA
ENDBRANCH  70  71
ENDBRANCH  49  63
BRANCH  50  75
ATOM     75  C   UNL A   1      43.490  23.441  26.894  1.00  0.00     0.058 A 
ATOM     76  C   UNL A   1      43.233  22.589  27.979  1.00  0.00     0.135 A 
ATOM     77  C   UNL A   1      43.308  22.924  25.602  1.00  0.00     0.135 A 
ATOM     78  F   UNL A   1      43.397  23.035  29.234  1.00  0.00    -0.206 F 
ATOM     79  C   UNL A   1      42.832  21.269  27.793  1.00  0.00     0.059 A 
ATOM     80  C   UNL A   1      42.885  21.615  25.391  1.00  0.00     0.059 A 
ATOM     81  F   UNL A   1      43.522  23.703  24.530  1.00  0.00    -0.206 F 
ATOM     82  C   UNL A   1      42.662  20.791  26.494  1.00  0.00     0.060 A 
BRANCH  82  83
ATOM     83  S   UNL A   1      42.107  19.088  26.261  1.00  0.00     0.124 S 
ATOM     84  O   UNL A   1      40.712  19.282  25.884  1.00  0.00    -0.237 OA
ATOM     85  O   UNL A   1      42.995  18.615  25.204  1.00  0.00    -0.237 OA
ATOM     86  O   UNL A   1      42.330  18.482  27.571  1.00  0.00    -0.744 OA
ENDBRANCH  82  83
ENDBRANCH  50  75
BRANCH  62  87
ATOM     87  C   UNL A   1      49.677  26.614  26.424  1.00  0.00     0.058 A 
ATOM     88  C   UNL A   1      50.510  26.054  27.406  1.00  0.00     0.135 A 
ATOM     89  C   UNL A   1      50.145  26.643  25.101  1.00  0.00     0.135 A 
ATOM     90  F   UNL A   1      50.109  26.011  28.686  1.00  0.00    -0.206 F 
ATOM     91  C   UNL A   1      51.768  25.556  27.089  1.00  0.00     0.059 A 
ATOM     92  C   UNL A   1      51.391  26.129  24.757  1.00  0.00     0.059 A 
ATOM     93  F   UNL A   1      49.382  27.161  24.125  1.00  0.00    -0.206 F 
ATOM     94  C   UNL A   1      52.199  25.597  25.761  1.00  0.00     0.060 A 
BRANCH  94  95
ATOM     95  S   UNL A   1      53.819  24.910  25.354  1.00  0.00     0.124 S 
ATOM     96  O   UNL A   1      53.482  23.524  25.051  1.00  0.00    -0.237 OA
ATOM     97  O   UNL A   1      54.229  25.727  24.216  1.00  0.00    -0.237 OA
ATOM     98  O   UNL A   1      54.591  25.118  26.575  1.00  0.00    -0.744 OA
ENDBRANCH  94  95
ENDBRANCH  62  87
ENDBRANCH  36  37
ENDBRANCH  28  31
ENDBRANCH  26  27
ENDBRANCH  25  26
ENDBRANCH   1  25
TORSDOF 19
ENDMDL
MODEL 3
REMARK VINA RESULT:     -10.3      1.117      2.104
REMARK SMILES CCOC(=O)[C@@H]1CCCCN1C(=O)N[C@](C)(CC)C(=O)NCCCNC(=O)c1ccc(-c2c3nc(c(-c4c(F)cc(S(=O)(=O)[O-])cc4F)c4ccc([nH]4)c(-c4c(F)cc(S(=O)(=O)[O-])cc4F)c4nc(c(-c5c(F)cc(S(=O)(=O)[O-])cc5F)c5ccc2[nH]5)C=C4)C=C3)cc1
REMARK SMILES IDX 22 1 21 2 19 3 20 4 15 6 16 7 14 8 12 9 13 10 11 12 6 13
REMARK SMILES IDX 7 14 8 15 10 16 9 17 4 18 5 19 3 20 2 21 1 22 17 23 18 24
REMARK SMILES IDX 23 25 24 26 25 27 26 28 27 30 28 31 29 32 93 33 30 34 92 35
REMARK SMILES IDX 31 36 32 37 33 38 86 39 34 40 91 41 85 42 87 43 35 44 90 45
REMARK SMILES IDX 84 46 83 47 36 49 70 50 49 51 69 52 50 53 53 54 68 55 88 56
REMARK SMILES IDX 51 57 52 58 67 60 89 61 54 62 37 63 38 64 47 65 39 66 40 67
REMARK SMILES IDX 46 68 48 69 41 70 42 71 43 72 44 73 45 74 71 75 72 76 81 77
REMARK SMILES IDX 73 78 74 79 80 80 82 81 75 82 76 83 77 84 78 85 79 86 55 87
REMARK SMILES IDX 56 88 65 89 57 90 58 91 64 92 66 93 59 94 60 95 61 96 62 97
REMARK SMILES IDX 63 98
REMARK H PARENT 21 5 14 11 25 29 87 48 53 59
REMARK Flexibility Score: inf
ROOT
ATOM      1  C   UNL A   1      32.753  27.435  26.462  1.00  0.00     0.117 C 
ENDROOT
BRANCH   1   2
ATOM      2  N   UNL A   1      33.212  27.327  25.097  1.00  0.00    -0.354 N 
ATOM      3  C   UNL A   1      33.057  26.271  24.239  1.00  0.00     0.245 C 
ATOM      4  O   UNL A   1      34.052  25.755  23.726  1.00  0.00    -0.272 OA
ATOM      5  H   UNL A   1      33.693  28.108  24.740  1.00  0.00     0.163 HD
BRANCH   3   6
ATOM      6  C   UNL A   1      31.627  25.757  23.949  1.00  0.00     0.117 C 
ATOM      7  C   UNL A   1      30.594  26.889  23.898  1.00  0.00     0.045 C 
BRANCH   6   8
ATOM      8  N   UNL A   1      31.212  24.708  24.915  1.00  0.00    -0.324 N 
ATOM      9  C   UNL A   1      31.641  23.676  25.639  1.00  0.00     0.319 C 
ATOM     10  O   UNL A   1      30.693  23.101  26.185  1.00  0.00    -0.249 OA
ATOM     11  H   UNL A   1      30.247  24.817  25.085  1.00  0.00     0.166 HD
BRANCH   9  12
ATOM     12  N   UNL A   1      32.916  23.178  25.697  1.00  0.00    -0.311 N 
ATOM     13  C   UNL A   1      33.295  22.362  24.495  1.00  0.00     0.196 C 
ATOM     14  C   UNL A   1      34.642  21.626  24.616  1.00  0.00     0.037 C 
ATOM     15  C   UNL A   1      35.730  22.487  25.216  1.00  0.00     0.005 C 
ATOM     16  C   UNL A   1      33.994  23.706  26.545  1.00  0.00     0.122 C 
ATOM     17  C   UNL A   1      35.281  22.890  26.607  1.00  0.00     0.022 C 
BRANCH  13  18
ATOM     18  C   UNL A   1      32.349  21.270  23.939  1.00  0.00     0.328 C 
ATOM     19  O   UNL A   1      32.084  21.183  22.742  1.00  0.00    -0.250 OA
BRANCH  18  20
ATOM     20  O   UNL A   1      31.973  20.345  24.866  1.00  0.00    -0.464 OA
BRANCH  20  21
ATOM     21  C   UNL A   1      32.856  19.217  24.960  1.00  0.00     0.229 C 
ATOM     22  C   UNL A   1      32.325  18.023  24.177  1.00  0.00     0.049 C 
ENDBRANCH  20  21
ENDBRANCH  18  20
ENDBRANCH  13  18
ENDBRANCH   9  12
ENDBRANCH   6   8
BRANCH   6  23
ATOM     23  C   UNL A   1      31.644  25.060  22.543  1.00  0.00     0.035 C 
ATOM     24  C   UNL A   1      31.775  25.978  21.331  1.00  0.00     0.007 C 
ENDBRANCH   6  23
ENDBRANCH   3   6
ENDBRANCH   1   2
BRANCH   1  25
ATOM     25  C   UNL A   1      33.613  28.406  27.265  1.00  0.00     0.042 C 
BRANCH  25  26
ATOM     26  C   UNL A   1      33.630  29.851  26.782  1.00  0.00     0.118 C 
BRANCH  26  27
ATOM     27  N   UNL A   1      33.640  30.853  27.837  1.00  0.00    -0.352 N 
ATOM     28  C   UNL A   1      34.690  31.198  28.666  1.00  0.00     0.251 C 
ATOM     29  H   UNL A   1      32.798  31.344  27.975  1.00  0.00     0.163 HD
ATOM     30  O   UNL A   1      34.602  32.140  29.436  1.00  0.00    -0.269 OA
BRANCH  28  31
ATOM     31  C   UNL A   1      35.876  30.317  28.673  1.00  0.00     0.039 A 
ATOM     32  C   UNL A   1      36.723  30.369  27.563  1.00  0.00     0.014 A 
ATOM     33  C   UNL A   1      36.252  29.640  29.834  1.00  0.00     0.014 A 
ATOM     34  C   UNL A   1      38.015  29.855  27.666  1.00  0.00     0.010 A 
ATOM     35  C   UNL A   1      37.565  29.196  29.958  1.00  0.00     0.010 A 
ATOM     36  C   UNL A   1      38.467  29.338  28.890  1.00  0.00    -0.014 A 
BRANCH  36  37
ATOM     37  C   UNL A   1      39.899  29.010  29.099  1.00  0.00     0.031 A 
ATOM     38  C   UNL A   1      40.838  30.055  29.626  1.00  0.00     0.074 A 
ATOM     39  C   UNL A   1      40.361  27.797  28.729  1.00  0.00     0.049 A 
ATOM     40  N   UNL A   1      42.133  29.995  29.786  1.00  0.00    -0.248 NA
ATOM     41  C   UNL A   1      40.242  31.350  29.994  1.00  0.00     0.031 C 
ATOM     42  C   UNL A   1      39.552  26.720  28.149  1.00  0.00     0.029 A 
ATOM     43  N   UNL A   1      41.626  27.266  28.773  1.00  0.00    -0.354 N 
ATOM     44  C   UNL A   1      42.511  31.243  30.262  1.00  0.00     0.074 A 
ATOM     45  C   UNL A   1      41.316  32.058  30.313  1.00  0.00     0.031 C 
ATOM     46  C   UNL A   1      40.334  25.652  27.918  1.00  0.00     0.029 A 
ATOM     47  C   UNL A   1      41.705  25.978  28.294  1.00  0.00     0.049 A 
ATOM     48  H   UNL A   1      42.406  27.761  29.115  1.00  0.00     0.167 HD
ATOM     49  C   UNL A   1      43.740  31.664  30.645  1.00  0.00     0.037 A 
ATOM     50  C   UNL A   1      42.764  25.154  28.171  1.00  0.00     0.037 A 
ATOM     51  C   UNL A   1      44.918  30.839  30.610  1.00  0.00     0.049 A 
ATOM     52  C   UNL A   1      44.117  25.643  28.613  1.00  0.00     0.074 A 
ATOM     53  C   UNL A   1      46.204  31.155  31.008  1.00  0.00     0.029 A 
ATOM     54  N   UNL A   1      44.950  29.529  30.154  1.00  0.00    -0.354 N 
ATOM     55  N   UNL A   1      44.449  26.812  29.107  1.00  0.00    -0.248 NA
ATOM     56  C   UNL A   1      45.238  24.703  28.487  1.00  0.00     0.031 C 
ATOM     57  C   UNL A   1      47.020  30.044  30.768  1.00  0.00     0.029 A 
ATOM     58  C   UNL A   1      46.235  29.024  30.255  1.00  0.00     0.049 A 
ATOM     59  H   UNL A   1      44.174  29.031  29.809  1.00  0.00     0.167 HD
ATOM     60  C   UNL A   1      45.810  26.740  29.376  1.00  0.00     0.074 A 
ATOM     61  C   UNL A   1      46.239  25.407  28.998  1.00  0.00     0.031 C 
ATOM     62  C   UNL A   1      46.632  27.688  29.886  1.00  0.00     0.037 A 
BRANCH  49  63
ATOM     63  C   UNL A   1      43.860  33.076  31.148  1.00  0.00     0.058 A 
ATOM     64  C   UNL A   1      43.729  33.378  32.513  1.00  0.00     0.135 A 
ATOM     65  C   UNL A   1      44.118  34.135  30.263  1.00  0.00     0.135 A 
ATOM     66  F   UNL A   1      43.463  32.405  33.399  1.00  0.00    -0.206 F 
ATOM     67  C   UNL A   1      43.819  34.685  32.980  1.00  0.00     0.059 A 
ATOM     68  C   UNL A   1      44.237  35.447  30.713  1.00  0.00     0.059 A 
ATOM     69  F   UNL A   1      44.247  33.901  28.948  1.00  0.00    -0.206 F 
ATOM     70  C   UNL A   1      44.069  35.713  32.071  1.00  0.00     0.060 A 
BRANCH  70  71
ATOM     71  S   UNL A   1      44.179  37.405  32.693  1.00  0.00     0.124 S 
ATOM     72  O   UNL A   1      45.535  37.428  33.233  1.00  0.00    -0.237 OA
ATOM     73  O   UNL A   1      43.965  38.197  31.486  1.00  0.00    -0.237 OA
ATOM     74  O   UNL A   1      43.108  37.473  33.681  1.00  0.00    -0.744 OA
ENDBRANCH  70  71
ENDBRANCH  49  63
BRANCH  50  75
ATOM     75  C   UNL A   1      42.590  23.777  27.635  1.00  0.00     0.058 A 
ATOM     76  C   UNL A   1      42.459  22.681  28.502  1.00  0.00     0.135 A 
ATOM     77  C   UNL A   1      42.552  23.525  26.255  1.00  0.00     0.135 A 
ATOM     78  F   UNL A   1      42.493  22.869  29.830  1.00  0.00    -0.206 F 
ATOM     79  C   UNL A   1      42.319  21.382  28.021  1.00  0.00     0.059 A 
ATOM     80  C   UNL A   1      42.390  22.238  25.750  1.00  0.00     0.059 A 
ATOM     81  F   UNL A   1      42.654  24.541  25.383  1.00  0.00    -0.206 F 
ATOM     82  C   UNL A   1      42.287  21.171  26.642  1.00  0.00     0.060 A 
BRANCH  82  83
ATOM     83  S   UNL A   1      42.070  19.487  26.027  1.00  0.00     0.124 S 
ATOM     84  O   UNL A   1      42.511  18.696  27.170  1.00  0.00    -0.237 OA
ATOM     85  O   UNL A   1      40.640  19.446  25.735  1.00  0.00    -0.237 OA
ATOM     86  O   UNL A   1      42.941  19.445  24.855  1.00  0.00    -0.744 OA
ENDBRANCH  82  83
ENDBRANCH  50  75
BRANCH  62  87
ATOM     87  C   UNL A   1      48.069  27.307  30.102  1.00  0.00     0.058 A 
ATOM     88  C   UNL A   1      49.050  27.560  29.131  1.00  0.00     0.135 A 
ATOM     89  C   UNL A   1      48.474  26.731  31.317  1.00  0.00     0.135 A 
ATOM     90  F   UNL A   1      48.709  28.102  27.952  1.00  0.00    -0.206 F 
ATOM     91  C   UNL A   1      50.384  27.237  29.350  1.00  0.00     0.059 A 
ATOM     92  C   UNL A   1      49.807  26.422  31.567  1.00  0.00     0.059 A 
ATOM     93  F   UNL A   1      47.574  26.479  32.280  1.00  0.00    -0.206 F 
ATOM     94  C   UNL A   1      50.753  26.670  30.572  1.00  0.00     0.060 A 
BRANCH  94  95
ATOM     95  S   UNL A   1      52.495  26.292  30.862  1.00  0.00     0.124 S 
ATOM     96  O   UNL A   1      52.994  26.145  29.499  1.00  0.00    -0.237 OA
ATOM     97  O   UNL A   1      52.957  27.474  31.583  1.00  0.00    -0.237 OA
ATOM     98  O   UNL A   1      52.448  25.064  31.651  1.00  0.00    -0.744 OA
ENDBRANCH  94  95
ENDBRANCH  62  87
ENDBRANCH  36  37
ENDBRANCH  28  31
ENDBRANCH  26  27
ENDBRANCH  25  26
ENDBRANCH   1  25
TORSDOF 19
ENDMDL
