MODEL 1
REMARK VINA RESULT:     -11.2      0.000      0.000
REMARK SMILES CCC(CC)(NC(=O)c1ccc(C)s1)C(=O)NCCCNC(=O)c1ccc(-c2c3nc(c(-c4c(F)cc(S(=O)(=O)[O-])cc4F)c4ccc([nH]4)c(-c4c(F)cc(S(=O)(=O)[O-])cc4F)c4nc(c(-c5c(F)cc(S(=O)(=O)[O-])cc5F)c5ccc2[nH]5)C=C4)C=C3)cc1
REMARK SMILES IDX 19 1 18 2 17 3 15 4 16 5 3 7 2 8 1 9 4 10 5 11 6 12 7 13
REMARK SMILES IDX 8 15 9 16 10 17 14 18 11 19 12 20 13 21 20 22 21 23 22 24
REMARK SMILES IDX 23 26 24 27 25 28 89 29 26 30 88 31 27 32 28 33 29 34 82 35
REMARK SMILES IDX 30 36 87 37 81 38 83 39 31 40 86 41 80 42 79 43 32 45 66 46
REMARK SMILES IDX 45 47 65 48 46 49 49 50 64 51 84 52 47 53 48 54 63 56 85 57
REMARK SMILES IDX 50 58 33 59 34 60 43 61 35 62 36 63 42 64 44 65 37 66 38 67
REMARK SMILES IDX 39 68 40 69 41 70 67 71 68 72 77 73 69 74 70 75 76 76 78 77
REMARK SMILES IDX 71 78 72 79 73 80 74 81 75 82 51 83 52 84 61 85 53 86 54 87
REMARK SMILES IDX 60 88 62 89 55 90 56 91 57 92 58 93 59 94
REMARK H PARENT 17 6 6 14 21 25 83 44 49 55
REMARK Flexibility Score: inf
ROOT
ATOM      1  C   UNL A   1      39.033  22.373  26.478  1.00  0.00     0.042 C 
ENDROOT
BRANCH   1   2
ATOM      2  C   UNL A   1      37.780  22.956  25.825  1.00  0.00     0.117 C 
BRANCH   2   3
ATOM      3  N   UNL A   1      37.504  22.673  24.420  1.00  0.00    -0.354 N 
ATOM      4  C   UNL A   1      36.376  22.836  23.648  1.00  0.00     0.245 C 
ATOM      5  O   UNL A   1      36.557  22.968  22.432  1.00  0.00    -0.272 OA
ATOM      6  H   UNL A   1      38.270  22.292  23.932  1.00  0.00     0.163 HD
BRANCH   4   7
ATOM      7  C   UNL A   1      34.958  22.985  24.268  1.00  0.00     0.118 C 
BRANCH   7   8
ATOM      8  C   UNL A   1      34.430  21.751  25.066  1.00  0.00     0.035 C 
ATOM      9  C   UNL A   1      35.185  20.432  24.986  1.00  0.00     0.007 C 
ENDBRANCH   7   8
BRANCH   7  10
ATOM     10  C   UNL A   1      34.035  23.247  23.026  1.00  0.00     0.035 C 
ATOM     11  C   UNL A   1      32.776  22.406  22.881  1.00  0.00     0.007 C 
ENDBRANCH   7  10
BRANCH   7  12
ATOM     12  N   UNL A   1      34.948  24.109  25.234  1.00  0.00    -0.337 N 
ATOM     13  C   UNL A   1      33.986  25.081  25.483  1.00  0.00     0.262 C 
ATOM     14  H   UNL A   1      35.758  24.177  25.791  1.00  0.00     0.164 HD
ATOM     15  O   UNL A   1      34.482  26.194  25.697  1.00  0.00    -0.268 OA
BRANCH  13  16
ATOM     16  C   UNL A   1      32.550  24.817  25.646  1.00  0.00     0.092 A 
ATOM     17  C   UNL A   1      31.389  25.217  25.007  1.00  0.00     0.026 A 
ATOM     18  S   UNL A   1      32.119  23.737  26.943  1.00  0.00    -0.135 S 
ATOM     19  C   UNL A   1      30.233  24.461  25.392  1.00  0.00     0.016 A 
ATOM     20  C   UNL A   1      30.495  23.607  26.437  1.00  0.00     0.002 A 
ATOM     21  C   UNL A   1      29.561  22.664  27.120  1.00  0.00     0.056 C 
ENDBRANCH  13  16
ENDBRANCH   7  12
ENDBRANCH   4   7
ENDBRANCH   2   3
ENDBRANCH   1   2
BRANCH   1  22
ATOM     22  C   UNL A   1      40.130  23.316  26.955  1.00  0.00     0.118 C 
BRANCH  22  23
ATOM     23  N   UNL A   1      40.790  24.077  25.914  1.00  0.00    -0.352 N 
ATOM     24  C   UNL A   1      41.307  25.348  25.985  1.00  0.00     0.251 C 
ATOM     25  H   UNL A   1      40.879  23.625  25.044  1.00  0.00     0.163 HD
ATOM     26  O   UNL A   1      41.884  25.825  25.009  1.00  0.00    -0.269 OA
BRANCH  24  27
ATOM     27  C   UNL A   1      41.150  26.160  27.214  1.00  0.00     0.039 A 
ATOM     28  C   UNL A   1      42.122  27.114  27.518  1.00  0.00     0.014 A 
ATOM     29  C   UNL A   1      40.080  25.960  28.088  1.00  0.00     0.014 A 
ATOM     30  C   UNL A   1      41.998  27.894  28.675  1.00  0.00     0.010 A 
ATOM     31  C   UNL A   1      39.932  26.777  29.218  1.00  0.00     0.010 A 
ATOM     32  C   UNL A   1      40.886  27.761  29.529  1.00  0.00    -0.014 A 
BRANCH  32  33
ATOM     33  C   UNL A   1      40.706  28.682  30.699  1.00  0.00     0.031 A 
ATOM     34  C   UNL A   1      41.549  28.561  31.948  1.00  0.00     0.074 A 
ATOM     35  C   UNL A   1      39.738  29.624  30.659  1.00  0.00     0.049 A 
ATOM     36  N   UNL A   1      41.511  29.280  33.046  1.00  0.00    -0.248 NA
ATOM     37  C   UNL A   1      42.542  27.478  31.985  1.00  0.00     0.031 C 
ATOM     38  C   UNL A   1      38.790  29.812  29.558  1.00  0.00     0.029 A 
ATOM     39  N   UNL A   1      39.387  30.602  31.561  1.00  0.00    -0.354 N 
ATOM     40  C   UNL A   1      42.453  28.725  33.908  1.00  0.00     0.074 A 
ATOM     41  C   UNL A   1      43.012  27.578  33.221  1.00  0.00     0.031 C 
ATOM     42  C   UNL A   1      38.000  30.862  29.828  1.00  0.00     0.029 A 
ATOM     43  C   UNL A   1      38.352  31.404  31.138  1.00  0.00     0.049 A 
ATOM     44  H   UNL A   1      39.836  30.717  32.431  1.00  0.00     0.167 HD
ATOM     45  C   UNL A   1      42.835  29.139  35.142  1.00  0.00     0.037 A 
ATOM     46  C   UNL A   1      37.749  32.457  31.724  1.00  0.00     0.037 A 
ATOM     47  C   UNL A   1      42.311  30.306  35.811  1.00  0.00     0.049 A 
ATOM     48  C   UNL A   1      38.222  32.930  33.071  1.00  0.00     0.074 A 
ATOM     49  C   UNL A   1      42.700  30.850  37.025  1.00  0.00     0.029 A 
ATOM     50  N   UNL A   1      41.288  31.110  35.329  1.00  0.00    -0.354 N 
ATOM     51  N   UNL A   1      39.172  32.439  33.830  1.00  0.00    -0.248 NA
ATOM     52  C   UNL A   1      37.549  34.108  33.639  1.00  0.00     0.031 C 
ATOM     53  C   UNL A   1      41.888  31.957  37.294  1.00  0.00     0.029 A 
ATOM     54  C   UNL A   1      41.026  32.135  36.226  1.00  0.00     0.049 A 
ATOM     55  H   UNL A   1      40.819  30.974  34.474  1.00  0.00     0.167 HD
ATOM     56  C   UNL A   1      39.226  33.259  34.952  1.00  0.00     0.074 A 
ATOM     57  C   UNL A   1      38.225  34.289  34.766  1.00  0.00     0.031 C 
ATOM     58  C   UNL A   1      40.033  33.164  36.037  1.00  0.00     0.037 A 
BRANCH  45  59
ATOM     59  C   UNL A   1      43.895  28.338  35.860  1.00  0.00     0.058 A 
ATOM     60  C   UNL A   1      45.262  28.625  35.714  1.00  0.00     0.135 A 
ATOM     61  C   UNL A   1      43.539  27.310  36.750  1.00  0.00     0.135 A 
ATOM     62  F   UNL A   1      45.662  29.596  34.878  1.00  0.00    -0.206 F 
ATOM     63  C   UNL A   1      46.237  27.899  36.391  1.00  0.00     0.059 A 
ATOM     64  C   UNL A   1      44.497  26.590  37.462  1.00  0.00     0.059 A 
ATOM     65  F   UNL A   1      42.247  26.998  36.943  1.00  0.00    -0.206 F 
ATOM     66  C   UNL A   1      45.846  26.882  37.261  1.00  0.00     0.060 A 
BRANCH  66  67
ATOM     67  S   UNL A   1      47.122  25.944  38.129  1.00  0.00     0.124 S 
ATOM     68  O   UNL A   1      47.285  24.790  37.243  1.00  0.00    -0.237 OA
ATOM     69  O   UNL A   1      48.243  26.885  38.145  1.00  0.00    -0.237 OA
ATOM     70  O   UNL A   1      46.526  25.664  39.422  1.00  0.00    -0.744 OA
ENDBRANCH  66  67
ENDBRANCH  45  59
BRANCH  46  71
ATOM     71  C   UNL A   1      36.645  33.165  31.018  1.00  0.00     0.058 A 
ATOM     72  C   UNL A   1      36.904  33.968  29.895  1.00  0.00     0.135 A 
ATOM     73  C   UNL A   1      35.311  33.039  31.434  1.00  0.00     0.135 A 
ATOM     74  F   UNL A   1      38.165  34.128  29.464  1.00  0.00    -0.206 F 
ATOM     75  C   UNL A   1      35.885  34.628  29.219  1.00  0.00     0.059 A 
ATOM     76  C   UNL A   1      34.270  33.667  30.758  1.00  0.00     0.059 A 
ATOM     77  F   UNL A   1      35.007  32.271  32.492  1.00  0.00    -0.206 F 
ATOM     78  C   UNL A   1      34.568  34.467  29.655  1.00  0.00     0.060 A 
BRANCH  78  79
ATOM     79  S   UNL A   1      33.246  35.277  28.730  1.00  0.00     0.124 S 
ATOM     80  O   UNL A   1      32.438  35.843  29.804  1.00  0.00    -0.237 OA
ATOM     81  O   UNL A   1      33.984  36.236  27.914  1.00  0.00    -0.237 OA
ATOM     82  O   UNL A   1      32.632  34.178  27.989  1.00  0.00    -0.744 OA
ENDBRANCH  78  79
ENDBRANCH  46  71
BRANCH  58  83
ATOM     83  C   UNL A   1      39.898  34.219  37.101  1.00  0.00     0.058 A 
ATOM     84  C   UNL A   1      40.528  35.469  36.990  1.00  0.00     0.135 A 
ATOM     85  C   UNL A   1      39.088  33.995  38.227  1.00  0.00     0.135 A 
ATOM     86  F   UNL A   1      41.321  35.734  35.939  1.00  0.00    -0.206 F 
ATOM     87  C   UNL A   1      40.379  36.450  37.966  1.00  0.00     0.059 A 
ATOM     88  C   UNL A   1      38.902  34.971  39.202  1.00  0.00     0.059 A 
ATOM     89  F   UNL A   1      38.454  32.822  38.380  1.00  0.00    -0.206 F 
ATOM     90  C   UNL A   1      39.562  36.192  39.069  1.00  0.00     0.060 A 
BRANCH  90  91
ATOM     91  S   UNL A   1      39.349  37.485  40.311  1.00  0.00     0.124 S 
ATOM     92  O   UNL A   1      40.728  37.907  40.536  1.00  0.00    -0.237 OA
ATOM     93  O   UNL A   1      38.498  38.448  39.619  1.00  0.00    -0.237 OA
ATOM     94  O   UNL A   1      38.717  36.786  41.426  1.00  0.00    -0.744 OA
ENDBRANCH  90  91
ENDBRANCH  58  83
ENDBRANCH  32  33
ENDBRANCH  24  27
ENDBRANCH  22  23
ENDBRANCH   1  22
TORSDOF 17
ENDMDL
MODEL 2
REMARK VINA RESULT:     -11.2      5.105      9.777
REMARK SMILES CCC(CC)(NC(=O)c1ccc(C)s1)C(=O)NCCCNC(=O)c1ccc(-c2c3nc(c(-c4c(F)cc(S(=O)(=O)[O-])cc4F)c4ccc([nH]4)c(-c4c(F)cc(S(=O)(=O)[O-])cc4F)c4nc(c(-c5c(F)cc(S(=O)(=O)[O-])cc5F)c5ccc2[nH]5)C=C4)C=C3)cc1
REMARK SMILES IDX 19 1 18 2 17 3 15 4 16 5 3 7 2 8 1 9 4 10 5 11 6 12 7 13
REMARK SMILES IDX 8 15 9 16 10 17 14 18 11 19 12 20 13 21 20 22 21 23 22 24
REMARK SMILES IDX 23 26 24 27 25 28 89 29 26 30 88 31 27 32 28 33 29 34 82 35
REMARK SMILES IDX 30 36 87 37 81 38 83 39 31 40 86 41 80 42 79 43 32 45 66 46
REMARK SMILES IDX 45 47 65 48 46 49 49 50 64 51 84 52 47 53 48 54 63 56 85 57
REMARK SMILES IDX 50 58 33 59 34 60 43 61 35 62 36 63 42 64 44 65 37 66 38 67
REMARK SMILES IDX 39 68 40 69 41 70 67 71 68 72 77 73 69 74 70 75 76 76 78 77
REMARK SMILES IDX 71 78 72 79 73 80 74 81 75 82 51 83 52 84 61 85 53 86 54 87
REMARK SMILES IDX 60 88 62 89 55 90 56 91 57 92 58 93 59 94
REMARK H PARENT 17 6 6 14 21 25 83 44 49 55
REMARK Flexibility Score: inf
ROOT
ATOM      1  C   UNL A   1      33.441  27.597  25.565  1.00  0.00     0.042 C 
ENDROOT
BRANCH   1   2
ATOM      2  C   UNL A   1      33.169  26.140  25.190  1.00  0.00     0.117 C 
BRANCH   2   3
ATOM      3  N   UNL A   1      33.816  25.570  24.012  1.00  0.00    -0.354 N 
ATOM      4  C   UNL A   1      34.406  24.348  23.782  1.00  0.00     0.245 C 
ATOM      5  O   UNL A   1      34.435  23.964  22.608  1.00  0.00    -0.272 OA
ATOM      6  H   UNL A   1      33.835  26.175  23.235  1.00  0.00     0.163 HD
BRANCH   4   7
ATOM      7  C   UNL A   1      34.891  23.427  24.938  1.00  0.00     0.118 C 
BRANCH   7   8
ATOM      8  C   UNL A   1      35.878  24.077  25.958  1.00  0.00     0.035 C 
ATOM      9  C   UNL A   1      37.375  23.874  25.782  1.00  0.00     0.007 C 
ENDBRANCH   7   8
BRANCH   7  10
ATOM     10  C   UNL A   1      35.601  22.241  24.196  1.00  0.00     0.035 C 
ATOM     11  C   UNL A   1      35.932  20.991  24.997  1.00  0.00     0.007 C 
ENDBRANCH   7  10
BRANCH   7  12
ATOM     12  N   UNL A   1      33.730  22.982  25.745  1.00  0.00    -0.337 N 
ATOM     13  C   UNL A   1      32.499  22.466  25.355  1.00  0.00     0.262 C 
ATOM     14  H   UNL A   1      33.852  23.066  26.719  1.00  0.00     0.164 HD
ATOM     15  O   UNL A   1      31.566  22.890  26.048  1.00  0.00    -0.268 OA
BRANCH  13  16
ATOM     16  C   UNL A   1      32.314  21.410  24.350  1.00  0.00     0.092 A 
ATOM     17  C   UNL A   1      31.993  21.367  23.004  1.00  0.00     0.026 A 
ATOM     18  S   UNL A   1      32.540  19.778  24.914  1.00  0.00    -0.135 S 
ATOM     19  C   UNL A   1      32.191  20.079  22.408  1.00  0.00     0.016 A 
ATOM     20  C   UNL A   1      32.504  19.118  23.340  1.00  0.00     0.002 A 
ATOM     21  C   UNL A   1      32.778  17.667  23.120  1.00  0.00     0.056 C 
ENDBRANCH  13  16
ENDBRANCH   7  12
ENDBRANCH   4   7
ENDBRANCH   2   3
ENDBRANCH   1   2
BRANCH   1  22
ATOM     22  C   UNL A   1      33.796  27.939  27.008  1.00  0.00     0.118 C 
BRANCH  22  23
ATOM     23  N   UNL A   1      33.545  29.311  27.398  1.00  0.00    -0.352 N 
ATOM     24  C   UNL A   1      34.440  30.240  27.873  1.00  0.00     0.251 C 
ATOM     25  H   UNL A   1      32.613  29.618  27.314  1.00  0.00     0.163 HD
ATOM     26  O   UNL A   1      34.061  31.385  28.110  1.00  0.00    -0.269 OA
BRANCH  24  27
ATOM     27  C   UNL A   1      35.851  29.866  28.129  1.00  0.00     0.039 A 
ATOM     28  C   UNL A   1      36.784  30.019  27.103  1.00  0.00     0.014 A 
ATOM     29  C   UNL A   1      36.252  29.329  29.353  1.00  0.00     0.014 A 
ATOM     30  C   UNL A   1      38.124  29.673  27.319  1.00  0.00     0.010 A 
ATOM     31  C   UNL A   1      37.603  29.030  29.583  1.00  0.00     0.010 A 
ATOM     32  C   UNL A   1      38.563  29.202  28.571  1.00  0.00    -0.014 A 
BRANCH  32  33
ATOM     33  C   UNL A   1      40.018  28.946  28.825  1.00  0.00     0.031 A 
ATOM     34  C   UNL A   1      40.670  27.625  28.481  1.00  0.00     0.074 A 
ATOM     35  C   UNL A   1      40.768  29.905  29.412  1.00  0.00     0.049 A 
ATOM     36  N   UNL A   1      41.917  27.250  28.643  1.00  0.00    -0.248 NA
ATOM     37  C   UNL A   1      39.807  26.580  27.911  1.00  0.00     0.031 C 
ATOM     38  C   UNL A   1      40.266  31.200  29.876  1.00  0.00     0.029 A 
ATOM     39  N   UNL A   1      42.109  29.945  29.721  1.00  0.00    -0.354 N 
ATOM     40  C   UNL A   1      41.984  25.926  28.218  1.00  0.00     0.074 A 
ATOM     41  C   UNL A   1      40.638  25.549  27.836  1.00  0.00     0.031 C 
ATOM     42  C   UNL A   1      41.286  31.920  30.367  1.00  0.00     0.029 A 
ATOM     43  C   UNL A   1      42.512  31.130  30.293  1.00  0.00     0.049 A 
ATOM     44  H   UNL A   1      42.723  29.194  29.549  1.00  0.00     0.167 HD
ATOM     45  C   UNL A   1      43.062  25.106  28.130  1.00  0.00     0.037 A 
ATOM     46  C   UNL A   1      43.724  31.546  30.711  1.00  0.00     0.037 A 
ATOM     47  C   UNL A   1      44.411  25.493  28.469  1.00  0.00     0.049 A 
ATOM     48  C   UNL A   1      44.915  30.639  30.558  1.00  0.00     0.074 A 
ATOM     49  C   UNL A   1      45.578  24.756  28.330  1.00  0.00     0.029 A 
ATOM     50  N   UNL A   1      44.779  26.715  29.010  1.00  0.00    -0.354 N 
ATOM     51  N   UNL A   1      44.966  29.421  30.076  1.00  0.00    -0.248 NA
ATOM     52  C   UNL A   1      46.216  31.166  30.997  1.00  0.00     0.031 C 
ATOM     53  C   UNL A   1      46.642  25.518  28.824  1.00  0.00     0.029 A 
ATOM     54  C   UNL A   1      46.149  26.748  29.224  1.00  0.00     0.049 A 
ATOM     55  H   UNL A   1      44.159  27.453  29.211  1.00  0.00     0.167 HD
ATOM     56  C   UNL A   1      46.304  29.046  30.131  1.00  0.00     0.074 A 
ATOM     57  C   UNL A   1      47.033  30.171  30.679  1.00  0.00     0.031 C 
ATOM     58  C   UNL A   1      46.875  27.872  29.762  1.00  0.00     0.037 A 
BRANCH  45  59
ATOM     59  C   UNL A   1      42.842  23.700  27.627  1.00  0.00     0.058 A 
ATOM     60  C   UNL A   1      42.552  22.640  28.501  1.00  0.00     0.135 A 
ATOM     61  C   UNL A   1      42.861  23.419  26.249  1.00  0.00     0.135 A 
ATOM     62  F   UNL A   1      42.521  22.849  29.827  1.00  0.00    -0.206 F 
ATOM     63  C   UNL A   1      42.331  21.348  28.035  1.00  0.00     0.059 A 
ATOM     64  C   UNL A   1      42.612  22.138  25.758  1.00  0.00     0.059 A 
ATOM     65  F   UNL A   1      43.118  24.393  25.362  1.00  0.00    -0.206 F 
ATOM     66  C   UNL A   1      42.365  21.106  26.662  1.00  0.00     0.060 A 
BRANCH  66  67
ATOM     67  S   UNL A   1      42.080  19.423  26.071  1.00  0.00     0.124 S 
ATOM     68  O   UNL A   1      40.636  19.442  25.833  1.00  0.00    -0.237 OA
ATOM     69  O   UNL A   1      42.912  19.370  24.869  1.00  0.00    -0.237 OA
ATOM     70  O   UNL A   1      42.522  18.590  27.174  1.00  0.00    -0.744 OA
ENDBRANCH  66  67
ENDBRANCH  45  59
BRANCH  46  71
ATOM     71  C   UNL A   1      43.881  32.911  31.285  1.00  0.00     0.058 A 
ATOM     72  C   UNL A   1      44.075  34.026  30.454  1.00  0.00     0.135 A 
ATOM     73  C   UNL A   1      43.819  33.134  32.669  1.00  0.00     0.135 A 
ATOM     74  F   UNL A   1      44.150  33.864  29.124  1.00  0.00    -0.206 F 
ATOM     75  C   UNL A   1      44.213  35.308  30.973  1.00  0.00     0.059 A 
ATOM     76  C   UNL A   1      43.927  34.410  33.211  1.00  0.00     0.059 A 
ATOM     77  F   UNL A   1      43.619  32.104  33.507  1.00  0.00    -0.206 F 
ATOM     78  C   UNL A   1      44.133  35.492  32.355  1.00  0.00     0.060 A 
BRANCH  78  79
ATOM     79  S   UNL A   1      44.249  37.169  33.013  1.00  0.00     0.124 S 
ATOM     80  O   UNL A   1      44.290  37.963  31.791  1.00  0.00    -0.237 OA
ATOM     81  O   UNL A   1      43.025  37.275  33.801  1.00  0.00    -0.237 OA
ATOM     82  O   UNL A   1      45.485  37.140  33.790  1.00  0.00    -0.744 OA
ENDBRANCH  78  79
ENDBRANCH  46  71
BRANCH  58  83
ATOM     83  C   UNL A   1      48.368  27.748  29.904  1.00  0.00     0.058 A 
ATOM     84  C   UNL A   1      49.248  28.248  28.930  1.00  0.00     0.135 A 
ATOM     85  C   UNL A   1      48.928  27.162  31.051  1.00  0.00     0.135 A 
ATOM     86  F   UNL A   1      48.766  28.810  27.810  1.00  0.00    -0.206 F 
ATOM     87  C   UNL A   1      50.628  28.152  29.078  1.00  0.00     0.059 A 
ATOM     88  C   UNL A   1      50.306  27.079  31.233  1.00  0.00     0.059 A 
ATOM     89  F   UNL A   1      48.134  26.676  32.017  1.00  0.00    -0.206 F 
ATOM     90  C   UNL A   1      51.149  27.567  30.234  1.00  0.00     0.060 A 
BRANCH  90  91
ATOM     91  S   UNL A   1      52.942  27.479  30.430  1.00  0.00     0.124 S 
ATOM     92  O   UNL A   1      53.404  27.995  29.146  1.00  0.00    -0.237 OA
ATOM     93  O   UNL A   1      53.174  28.345  31.582  1.00  0.00    -0.237 OA
ATOM     94  O   UNL A   1      53.190  26.059  30.662  1.00  0.00    -0.744 OA
ENDBRANCH  90  91
ENDBRANCH  58  83
ENDBRANCH  32  33
ENDBRANCH  24  27
ENDBRANCH  22  23
ENDBRANCH   1  22
TORSDOF 17
ENDMDL
MODEL 3
REMARK VINA RESULT:     -11.1      2.515      8.849
REMARK SMILES CCC(CC)(NC(=O)c1ccc(C)s1)C(=O)NCCCNC(=O)c1ccc(-c2c3nc(c(-c4c(F)cc(S(=O)(=O)[O-])cc4F)c4ccc([nH]4)c(-c4c(F)cc(S(=O)(=O)[O-])cc4F)c4nc(c(-c5c(F)cc(S(=O)(=O)[O-])cc5F)c5ccc2[nH]5)C=C4)C=C3)cc1
REMARK SMILES IDX 19 1 18 2 17 3 15 4 16 5 3 7 2 8 1 9 4 10 5 11 6 12 7 13
REMARK SMILES IDX 8 15 9 16 10 17 14 18 11 19 12 20 13 21 20 22 21 23 22 24
REMARK SMILES IDX 23 26 24 27 25 28 89 29 26 30 88 31 27 32 28 33 29 34 82 35
REMARK SMILES IDX 30 36 87 37 81 38 83 39 31 40 86 41 80 42 79 43 32 45 66 46
REMARK SMILES IDX 45 47 65 48 46 49 49 50 64 51 84 52 47 53 48 54 63 56 85 57
REMARK SMILES IDX 50 58 33 59 34 60 43 61 35 62 36 63 42 64 44 65 37 66 38 67
REMARK SMILES IDX 39 68 40 69 41 70 67 71 68 72 77 73 69 74 70 75 76 76 78 77
REMARK SMILES IDX 71 78 72 79 73 80 74 81 75 82 51 83 52 84 61 85 53 86 54 87
REMARK SMILES IDX 60 88 62 89 55 90 56 91 57 92 58 93 59 94
REMARK H PARENT 17 6 6 14 21 25 83 44 49 55
REMARK Flexibility Score: inf
ROOT
ATOM      1  C   UNL A   1      31.789  31.784  26.645  1.00  0.00     0.042 C 
ENDROOT
BRANCH   1   2
ATOM      2  C   UNL A   1      32.114  30.403  26.076  1.00  0.00     0.117 C 
BRANCH   2   3
ATOM      3  N   UNL A   1      31.416  29.937  24.881  1.00  0.00    -0.354 N 
ATOM      4  C   UNL A   1      31.367  28.710  24.259  1.00  0.00     0.245 C 
ATOM      5  O   UNL A   1      30.361  28.479  23.579  1.00  0.00    -0.272 OA
ATOM      6  H   UNL A   1      30.881  30.633  24.435  1.00  0.00     0.163 HD
BRANCH   4   7
ATOM      7  C   UNL A   1      32.443  27.613  24.496  1.00  0.00     0.118 C 
BRANCH   7   8
ATOM      8  C   UNL A   1      32.554  27.072  25.957  1.00  0.00     0.035 C 
ATOM      9  C   UNL A   1      31.319  27.065  26.846  1.00  0.00     0.007 C 
ENDBRANCH   7   8
BRANCH   7  10
ATOM     10  C   UNL A   1      33.786  28.315  24.088  1.00  0.00     0.035 C 
ATOM     11  C   UNL A   1      33.994  28.662  22.622  1.00  0.00     0.007 C 
ENDBRANCH   7  10
BRANCH   7  12
ATOM     12  N   UNL A   1      32.142  26.427  23.661  1.00  0.00    -0.337 N 
ATOM     13  C   UNL A   1      32.925  25.325  23.335  1.00  0.00     0.262 C 
ATOM     14  H   UNL A   1      31.237  26.418  23.272  1.00  0.00     0.164 HD
ATOM     15  O   UNL A   1      32.773  24.965  22.162  1.00  0.00    -0.268 OA
BRANCH  13  16
ATOM     16  C   UNL A   1      33.724  24.551  24.296  1.00  0.00     0.092 A 
ATOM     17  C   UNL A   1      35.055  24.511  24.674  1.00  0.00     0.026 A 
ATOM     18  S   UNL A   1      32.850  23.374  25.236  1.00  0.00    -0.135 S 
ATOM     19  C   UNL A   1      35.291  23.745  25.862  1.00  0.00     0.016 A 
ATOM     20  C   UNL A   1      34.165  23.078  26.283  1.00  0.00     0.002 A 
ATOM     21  C   UNL A   1      34.005  22.182  27.467  1.00  0.00     0.056 C 
ENDBRANCH  13  16
ENDBRANCH   7  12
ENDBRANCH   4   7
ENDBRANCH   2   3
ENDBRANCH   1   2
BRANCH   1  22
ATOM     22  C   UNL A   1      32.915  32.634  27.222  1.00  0.00     0.118 C 
BRANCH  22  23
ATOM     23  N   UNL A   1      32.525  33.951  27.681  1.00  0.00    -0.352 N 
ATOM     24  C   UNL A   1      33.133  34.739  28.629  1.00  0.00     0.251 C 
ATOM     25  H   UNL A   1      31.719  34.331  27.259  1.00  0.00     0.163 HD
ATOM     26  O   UNL A   1      32.691  35.863  28.860  1.00  0.00    -0.269 OA
BRANCH  24  27
ATOM     27  C   UNL A   1      34.297  34.235  29.395  1.00  0.00     0.039 A 
ATOM     28  C   UNL A   1      34.068  33.495  30.555  1.00  0.00     0.014 A 
ATOM     29  C   UNL A   1      35.606  34.522  29.004  1.00  0.00     0.014 A 
ATOM     30  C   UNL A   1      35.152  33.008  31.299  1.00  0.00     0.010 A 
ATOM     31  C   UNL A   1      36.688  33.990  29.721  1.00  0.00     0.010 A 
ATOM     32  C   UNL A   1      36.479  33.220  30.878  1.00  0.00    -0.014 A 
BRANCH  32  33
ATOM     33  C   UNL A   1      37.624  32.596  31.617  1.00  0.00     0.031 A 
ATOM     34  C   UNL A   1      38.081  33.108  32.964  1.00  0.00     0.074 A 
ATOM     35  C   UNL A   1      38.298  31.569  31.052  1.00  0.00     0.049 A 
ATOM     36  N   UNL A   1      39.059  32.676  33.726  1.00  0.00    -0.248 NA
ATOM     37  C   UNL A   1      37.373  34.273  33.515  1.00  0.00     0.031 C 
ATOM     38  C   UNL A   1      38.029  31.016  29.722  1.00  0.00     0.029 A 
ATOM     39  N   UNL A   1      39.343  30.805  31.517  1.00  0.00    -0.354 N 
ATOM     40  C   UNL A   1      39.097  33.525  34.830  1.00  0.00     0.074 A 
ATOM     41  C   UNL A   1      38.074  34.527  34.612  1.00  0.00     0.031 C 
ATOM     42  C   UNL A   1      38.852  29.980  29.498  1.00  0.00     0.029 A 
ATOM     43  C   UNL A   1      39.737  29.814  30.648  1.00  0.00     0.049 A 
ATOM     44  H   UNL A   1      39.770  30.955  32.392  1.00  0.00     0.167 HD
ATOM     45  C   UNL A   1      39.889  33.466  35.930  1.00  0.00     0.037 A 
ATOM     46  C   UNL A   1      40.697  28.873  30.752  1.00  0.00     0.037 A 
ATOM     47  C   UNL A   1      40.879  32.444  36.170  1.00  0.00     0.049 A 
ATOM     48  C   UNL A   1      41.530  28.795  32.003  1.00  0.00     0.074 A 
ATOM     49  C   UNL A   1      41.667  32.256  37.295  1.00  0.00     0.029 A 
ATOM     50  N   UNL A   1      41.220  31.438  35.278  1.00  0.00    -0.354 N 
ATOM     51  N   UNL A   1      41.490  29.558  33.068  1.00  0.00    -0.248 NA
ATOM     52  C   UNL A   1      42.533  27.721  32.071  1.00  0.00     0.031 C 
ATOM     53  C   UNL A   1      42.510  31.163  37.067  1.00  0.00     0.029 A 
ATOM     54  C   UNL A   1      42.214  30.637  35.821  1.00  0.00     0.049 A 
ATOM     55  H   UNL A   1      40.814  31.310  34.390  1.00  0.00     0.167 HD
ATOM     56  C   UNL A   1      42.443  29.044  33.941  1.00  0.00     0.074 A 
ATOM     57  C   UNL A   1      43.033  27.895  33.287  1.00  0.00     0.031 C 
ATOM     58  C   UNL A   1      42.796  29.488  35.172  1.00  0.00     0.037 A 
BRANCH  45  59
ATOM     59  C   UNL A   1      39.711  34.530  36.986  1.00  0.00     0.058 A 
ATOM     60  C   UNL A   1      38.971  34.292  38.157  1.00  0.00     0.135 A 
ATOM     61  C   UNL A   1      40.336  35.783  36.857  1.00  0.00     0.135 A 
ATOM     62  F   UNL A   1      38.352  33.115  38.336  1.00  0.00    -0.206 F 
ATOM     63  C   UNL A   1      38.824  35.267  39.138  1.00  0.00     0.059 A 
ATOM     64  C   UNL A   1      40.227  36.763  37.842  1.00  0.00     0.059 A 
ATOM     65  F   UNL A   1      41.068  36.065  35.768  1.00  0.00    -0.206 F 
ATOM     66  C   UNL A   1      39.453  36.500  38.972  1.00  0.00     0.060 A 
BRANCH  66  67
ATOM     67  S   UNL A   1      39.249  37.758  40.252  1.00  0.00     0.124 S 
ATOM     68  O   UNL A   1      38.792  36.948  41.382  1.00  0.00    -0.237 OA
ATOM     69  O   UNL A   1      40.604  38.298  40.376  1.00  0.00    -0.237 OA
ATOM     70  O   UNL A   1      38.265  38.665  39.692  1.00  0.00    -0.744 OA
ENDBRANCH  66  67
ENDBRANCH  45  59
BRANCH  46  71
ATOM     71  C   UNL A   1      40.898  27.896  29.646  1.00  0.00     0.058 A 
ATOM     72  C   UNL A   1      39.997  26.839  29.443  1.00  0.00     0.135 A 
ATOM     73  C   UNL A   1      41.980  28.009  28.758  1.00  0.00     0.135 A 
ATOM     74  F   UNL A   1      38.952  26.682  30.271  1.00  0.00    -0.206 F 
ATOM     75  C   UNL A   1      40.165  25.924  28.410  1.00  0.00     0.059 A 
ATOM     76  C   UNL A   1      42.154  27.123  27.701  1.00  0.00     0.059 A 
ATOM     77  F   UNL A   1      42.862  29.011  28.899  1.00  0.00    -0.206 F 
ATOM     78  C   UNL A   1      41.246  26.077  27.539  1.00  0.00     0.060 A 
BRANCH  78  79
ATOM     79  S   UNL A   1      41.418  24.922  26.162  1.00  0.00     0.124 S 
ATOM     80  O   UNL A   1      42.562  24.125  26.588  1.00  0.00    -0.237 OA
ATOM     81  O   UNL A   1      40.128  24.241  26.170  1.00  0.00    -0.237 OA
ATOM     82  O   UNL A   1      41.648  25.798  25.016  1.00  0.00    -0.744 OA
ENDBRANCH  78  79
ENDBRANCH  46  71
BRANCH  58  83
ATOM     83  C   UNL A   1      43.849  28.713  35.917  1.00  0.00     0.058 A 
ATOM     84  C   UNL A   1      45.210  29.048  35.838  1.00  0.00     0.135 A 
ATOM     85  C   UNL A   1      43.486  27.648  36.759  1.00  0.00     0.135 A 
ATOM     86  F   UNL A   1      45.613  30.052  35.042  1.00  0.00    -0.206 F 
ATOM     87  C   UNL A   1      46.177  28.343  36.549  1.00  0.00     0.059 A 
ATOM     88  C   UNL A   1      44.432  26.946  37.500  1.00  0.00     0.059 A 
ATOM     89  F   UNL A   1      42.199  27.291  36.879  1.00  0.00    -0.206 F 
ATOM     90  C   UNL A   1      45.778  27.293  37.379  1.00  0.00     0.060 A 
BRANCH  90  91
ATOM     91  S   UNL A   1      47.037  26.407  38.323  1.00  0.00     0.124 S 
ATOM     92  O   UNL A   1      46.251  25.338  38.932  1.00  0.00    -0.237 OA
ATOM     93  O   UNL A   1      47.972  25.990  37.282  1.00  0.00    -0.237 OA
ATOM     94  O   UNL A   1      47.545  27.417  39.246  1.00  0.00    -0.744 OA
ENDBRANCH  90  91
ENDBRANCH  58  83
ENDBRANCH  32  33
ENDBRANCH  24  27
ENDBRANCH  22  23
ENDBRANCH   1  22
TORSDOF 17
ENDMDL
