MODEL 1
REMARK VINA RESULT:     -11.8      0.000      0.000
REMARK SMILES CCOC(=O)NC(=O)C[N@H+]1CC[C@@H](C(=O)NCCCNC(=O)c2ccc(-c3c4nc(c(-c5c(F)cc(S(=O)(=O)[O-])cc5F)c5ccc([nH]5)c(-c5c(F)cc(S(=O)(=O)[O-])cc5F)c5nc(c(-c6c(F)cc(S(=O)(=O)[O-])cc6F)c6ccc3[nH]6)C=C5)C=C4)cc2)[C@@H]1C
REMARK SMILES IDX 17 1 16 2 14 3 15 4 13 6 10 7 11 8 89 9 12 11 90 12 9 13
REMARK SMILES IDX 7 14 4 15 5 16 6 17 8 19 3 20 2 21 1 22 18 23 19 24 20 25
REMARK SMILES IDX 21 26 22 28 23 29 24 30 88 31 25 32 87 33 26 34 27 35 28 36
REMARK SMILES IDX 81 37 29 38 86 39 80 40 82 41 30 42 85 43 79 44 78 45 31 47
REMARK SMILES IDX 65 48 44 49 64 50 45 51 48 52 63 53 83 54 46 55 47 56 62 58
REMARK SMILES IDX 84 59 49 60 32 61 33 62 42 63 34 64 35 65 41 66 43 67 36 68
REMARK SMILES IDX 37 69 38 70 39 71 40 72 66 73 67 74 76 75 68 76 69 77 75 78
REMARK SMILES IDX 77 79 70 80 71 81 72 82 73 83 74 84 50 85 51 86 60 87 52 88
REMARK SMILES IDX 53 89 59 90 61 91 54 92 55 93 56 94 57 95 58 96
REMARK H PARENT 16 5 10 10 6 18 20 27 82 46 48 57
REMARK Flexibility Score: inf
ROOT
ATOM      1  C   UNL A   1      32.085  27.002  26.950  1.00  0.00     0.117 C 
ENDROOT
BRANCH   1   2
ATOM      2  N   UNL A   1      31.388  25.827  26.466  1.00  0.00    -0.356 N 
ATOM      3  C   UNL A   1      31.843  24.587  26.148  1.00  0.00     0.229 C 
ATOM      4  O   UNL A   1      31.005  23.758  25.779  1.00  0.00    -0.275 OA
ATOM      5  H   UNL A   1      30.419  25.948  26.346  1.00  0.00     0.163 HD
BRANCH   3   6
ATOM      6  C   UNL A   1      33.313  24.206  26.199  1.00  0.00     0.142 C 
ATOM      7  N   UNL A   1      34.650  22.302  25.498  1.00  0.00    -0.324 N 
ATOM      8  C   UNL A   1      35.256  23.546  24.984  1.00  0.00     0.263 C 
ATOM      9  C   UNL A   1      33.532  22.697  26.372  1.00  0.00     0.194 C 
ATOM     10  H   UNL A   1      35.260  21.744  26.095  1.00  0.00     0.348 HD
ATOM     11  C   UNL A   1      34.183  24.624  25.031  1.00  0.00     0.081 C 
ATOM     12  C   UNL A   1      33.943  22.430  27.829  1.00  0.00     0.076 C 
BRANCH   7  13
ATOM     13  C   UNL A   1      34.399  21.355  24.384  1.00  0.00     0.364 C 
BRANCH  13  14
ATOM     14  C   UNL A   1      32.952  21.010  24.025  1.00  0.00     0.284 C 
ATOM     15  C   UNL A   1      32.738  18.707  24.919  1.00  0.00     0.414 C 
ATOM     16  O   UNL A   1      31.956  17.833  25.281  1.00  0.00    -0.224 OA
ATOM     17  N   UNL A   1      32.287  19.945  24.557  1.00  0.00    -0.256 N 
ATOM     18  H   UNL A   1      31.325  20.093  24.705  1.00  0.00     0.176 HD
ATOM     19  O   UNL A   1      32.364  21.672  23.161  1.00  0.00    -0.268 OA
BRANCH  15  20
ATOM     20  O   UNL A   1      34.072  18.551  24.783  1.00  0.00    -0.450 OA
BRANCH  20  21
ATOM     21  C   UNL A   1      34.514  17.235  24.436  1.00  0.00     0.231 C 
ATOM     22  C   UNL A   1      34.153  16.893  23.002  1.00  0.00     0.049 C 
ENDBRANCH  20  21
ENDBRANCH  15  20
ENDBRANCH  13  14
ENDBRANCH   7  13
ENDBRANCH   3   6
ENDBRANCH   1   2
BRANCH   1  23
ATOM     23  C   UNL A   1      32.743  27.796  25.837  1.00  0.00     0.042 C 
BRANCH  23  24
ATOM     24  C   UNL A   1      34.053  28.448  26.231  1.00  0.00     0.118 C 
BRANCH  24  25
ATOM     25  N   UNL A   1      33.834  29.765  26.812  1.00  0.00    -0.352 N 
ATOM     26  C   UNL A   1      34.557  30.452  27.758  1.00  0.00     0.251 C 
ATOM     27  H   UNL A   1      33.040  30.239  26.475  1.00  0.00     0.163 HD
ATOM     28  O   UNL A   1      34.026  31.400  28.334  1.00  0.00    -0.269 OA
BRANCH  26  29
ATOM     29  C   UNL A   1      35.952  30.071  28.087  1.00  0.00     0.039 A 
ATOM     30  C   UNL A   1      36.247  29.595  29.368  1.00  0.00     0.014 A 
ATOM     31  C   UNL A   1      36.987  30.242  27.166  1.00  0.00     0.014 A 
ATOM     32  C   UNL A   1      37.561  29.250  29.702  1.00  0.00     0.010 A 
ATOM     33  C   UNL A   1      38.268  29.786  27.458  1.00  0.00     0.010 A 
ATOM     34  C   UNL A   1      38.580  29.312  28.739  1.00  0.00    -0.014 A 
BRANCH  34  35
ATOM     35  C   UNL A   1      39.985  28.932  29.050  1.00  0.00     0.031 A 
ATOM     36  C   UNL A   1      40.921  29.947  29.660  1.00  0.00     0.074 A 
ATOM     37  C   UNL A   1      40.439  27.707  28.722  1.00  0.00     0.049 A 
ATOM     38  N   UNL A   1      42.202  29.850  29.905  1.00  0.00    -0.248 NA
ATOM     39  C   UNL A   1      40.347  31.257  30.009  1.00  0.00     0.031 C 
ATOM     40  C   UNL A   1      39.647  26.650  28.089  1.00  0.00     0.029 A 
ATOM     41  N   UNL A   1      41.685  27.145  28.864  1.00  0.00    -0.354 N 
ATOM     42  C   UNL A   1      42.588  31.085  30.412  1.00  0.00     0.074 A 
ATOM     43  C   UNL A   1      41.421  31.938  30.381  1.00  0.00     0.031 C 
ATOM     44  C   UNL A   1      40.416  25.563  27.921  1.00  0.00     0.029 A 
ATOM     45  C   UNL A   1      41.767  25.857  28.387  1.00  0.00     0.049 A 
ATOM     46  H   UNL A   1      42.446  27.619  29.269  1.00  0.00     0.167 HD
ATOM     47  C   UNL A   1      43.797  31.469  30.888  1.00  0.00     0.037 A 
ATOM     48  C   UNL A   1      42.817  25.013  28.318  1.00  0.00     0.037 A 
ATOM     49  C   UNL A   1      44.947  30.605  30.946  1.00  0.00     0.049 A 
ATOM     50  C   UNL A   1      44.154  25.465  28.842  1.00  0.00     0.074 A 
ATOM     51  C   UNL A   1      46.202  30.876  31.461  1.00  0.00     0.029 A 
ATOM     52  N   UNL A   1      44.983  29.302  30.471  1.00  0.00    -0.354 N 
ATOM     53  N   UNL A   1      44.486  26.620  29.371  1.00  0.00    -0.248 NA
ATOM     54  C   UNL A   1      45.259  24.500  28.766  1.00  0.00     0.031 C 
ATOM     55  C   UNL A   1      47.013  29.757  31.248  1.00  0.00     0.029 A 
ATOM     56  C   UNL A   1      46.245  28.764  30.660  1.00  0.00     0.049 A 
ATOM     57  H   UNL A   1      44.224  28.828  30.061  1.00  0.00     0.167 HD
ATOM     58  C   UNL A   1      45.826  26.506  29.723  1.00  0.00     0.074 A 
ATOM     59  C   UNL A   1      46.241  25.168  29.355  1.00  0.00     0.031 C 
ATOM     60  C   UNL A   1      46.640  27.424  30.301  1.00  0.00     0.037 A 
BRANCH  47  61
ATOM     61  C   UNL A   1      43.939  32.884  31.388  1.00  0.00     0.058 A 
ATOM     62  C   UNL A   1      43.698  33.222  32.731  1.00  0.00     0.135 A 
ATOM     63  C   UNL A   1      44.359  33.908  30.524  1.00  0.00     0.135 A 
ATOM     64  F   UNL A   1      43.280  32.288  33.600  1.00  0.00    -0.206 F 
ATOM     65  C   UNL A   1      43.835  34.528  33.190  1.00  0.00     0.059 A 
ATOM     66  C   UNL A   1      44.537  35.216  30.969  1.00  0.00     0.059 A 
ATOM     67  F   UNL A   1      44.604  33.645  29.231  1.00  0.00    -0.206 F 
ATOM     68  C   UNL A   1      44.257  35.519  32.301  1.00  0.00     0.060 A 
BRANCH  68  69
ATOM     69  S   UNL A   1      44.437  37.205  32.917  1.00  0.00     0.124 S 
ATOM     70  O   UNL A   1      43.293  37.311  33.818  1.00  0.00    -0.237 OA
ATOM     71  O   UNL A   1      45.747  37.164  33.558  1.00  0.00    -0.237 OA
ATOM     72  O   UNL A   1      44.358  38.020  31.708  1.00  0.00    -0.744 OA
ENDBRANCH  68  69
ENDBRANCH  47  61
BRANCH  48  73
ATOM     73  C   UNL A   1      42.640  23.650  27.747  1.00  0.00     0.058 A 
ATOM     74  C   UNL A   1      42.712  23.430  26.363  1.00  0.00     0.135 A 
ATOM     75  C   UNL A   1      42.407  22.538  28.572  1.00  0.00     0.135 A 
ATOM     76  F   UNL A   1      42.927  24.461  25.532  1.00  0.00    -0.206 F 
ATOM     77  C   UNL A   1      42.539  22.163  25.815  1.00  0.00     0.059 A 
ATOM     78  C   UNL A   1      42.261  21.256  28.050  1.00  0.00     0.059 A 
ATOM     79  F   UNL A   1      42.346  22.689  29.904  1.00  0.00    -0.206 F 
ATOM     80  C   UNL A   1      42.317  21.081  26.668  1.00  0.00     0.060 A 
BRANCH  80  81
ATOM     81  S   UNL A   1      42.136  19.435  25.947  1.00  0.00     0.124 S 
ATOM     82  O   UNL A   1      42.957  19.547  24.747  1.00  0.00    -0.237 OA
ATOM     83  O   UNL A   1      42.664  18.579  27.005  1.00  0.00    -0.237 OA
ATOM     84  O   UNL A   1      40.698  19.323  25.720  1.00  0.00    -0.744 OA
ENDBRANCH  80  81
ENDBRANCH  48  73
BRANCH  60  85
ATOM     85  C   UNL A   1      48.050  27.004  30.621  1.00  0.00     0.058 A 
ATOM     86  C   UNL A   1      49.132  27.345  29.795  1.00  0.00     0.135 A 
ATOM     87  C   UNL A   1      48.326  26.304  31.807  1.00  0.00     0.135 A 
ATOM     88  F   UNL A   1      48.924  28.009  28.647  1.00  0.00    -0.206 F 
ATOM     89  C   UNL A   1      50.436  26.986  30.122  1.00  0.00     0.059 A 
ATOM     90  C   UNL A   1      49.624  25.964  32.170  1.00  0.00     0.059 A 
ATOM     91  F   UNL A   1      47.329  25.963  32.639  1.00  0.00    -0.206 F 
ATOM     92  C   UNL A   1      50.673  26.298  31.315  1.00  0.00     0.060 A 
BRANCH  92  93
ATOM     93  S   UNL A   1      52.373  25.874  31.746  1.00  0.00     0.124 S 
ATOM     94  O   UNL A   1      52.211  24.538  32.308  1.00  0.00    -0.237 OA
ATOM     95  O   UNL A   1      53.047  25.940  30.452  1.00  0.00    -0.237 OA
ATOM     96  O   UNL A   1      52.754  26.914  32.697  1.00  0.00    -0.744 OA
ENDBRANCH  92  93
ENDBRANCH  60  85
ENDBRANCH  34  35
ENDBRANCH  26  29
ENDBRANCH  24  25
ENDBRANCH  23  24
ENDBRANCH   1  23
TORSDOF 17
ENDMDL
MODEL 2
REMARK VINA RESULT:     -11.8      3.927      5.746
REMARK SMILES CCOC(=O)NC(=O)C[N@H+]1CC[C@@H](C(=O)NCCCNC(=O)c2ccc(-c3c4nc(c(-c5c(F)cc(S(=O)(=O)[O-])cc5F)c5ccc([nH]5)c(-c5c(F)cc(S(=O)(=O)[O-])cc5F)c5nc(c(-c6c(F)cc(S(=O)(=O)[O-])cc6F)c6ccc3[nH]6)C=C5)C=C4)cc2)[C@@H]1C
REMARK SMILES IDX 17 1 16 2 14 3 15 4 13 6 10 7 11 8 89 9 12 11 90 12 9 13
REMARK SMILES IDX 7 14 4 15 5 16 6 17 8 19 3 20 2 21 1 22 18 23 19 24 20 25
REMARK SMILES IDX 21 26 22 28 23 29 24 30 88 31 25 32 87 33 26 34 27 35 28 36
REMARK SMILES IDX 81 37 29 38 86 39 80 40 82 41 30 42 85 43 79 44 78 45 31 47
REMARK SMILES IDX 65 48 44 49 64 50 45 51 48 52 63 53 83 54 46 55 47 56 62 58
REMARK SMILES IDX 84 59 49 60 32 61 33 62 42 63 34 64 35 65 41 66 43 67 36 68
REMARK SMILES IDX 37 69 38 70 39 71 40 72 66 73 67 74 76 75 68 76 69 77 75 78
REMARK SMILES IDX 77 79 70 80 71 81 72 82 73 83 74 84 50 85 51 86 60 87 52 88
REMARK SMILES IDX 53 89 59 90 61 91 54 92 55 93 56 94 57 95 58 96
REMARK H PARENT 16 5 10 10 6 18 20 27 82 46 48 57
REMARK Flexibility Score: inf
ROOT
ATOM      1  C   UNL A   1      34.285  29.365  27.327  1.00  0.00     0.117 C 
ENDROOT
BRANCH   1   2
ATOM      2  N   UNL A   1      33.022  28.778  27.728  1.00  0.00    -0.356 N 
ATOM      3  C   UNL A   1      32.077  28.115  27.010  1.00  0.00     0.229 C 
ATOM      4  O   UNL A   1      31.094  27.694  27.628  1.00  0.00    -0.275 OA
ATOM      5  H   UNL A   1      32.812  28.876  28.684  1.00  0.00     0.163 HD
BRANCH   3   6
ATOM      6  C   UNL A   1      32.172  27.911  25.507  1.00  0.00     0.142 C 
ATOM      7  N   UNL A   1      30.769  28.403  23.586  1.00  0.00    -0.324 N 
ATOM      8  C   UNL A   1      32.134  28.909  23.342  1.00  0.00     0.263 C 
ATOM      9  C   UNL A   1      30.807  27.656  24.855  1.00  0.00     0.194 C 
ATOM     10  H   UNL A   1      30.434  27.728  22.898  1.00  0.00     0.348 HD
ATOM     11  C   UNL A   1      32.827  29.008  24.693  1.00  0.00     0.081 C 
ATOM     12  C   UNL A   1      30.695  26.157  24.533  1.00  0.00     0.076 C 
BRANCH   7  13
ATOM     13  C   UNL A   1      29.779  29.496  23.418  1.00  0.00     0.364 C 
BRANCH  13  14
ATOM     14  C   UNL A   1      28.424  29.169  22.789  1.00  0.00     0.284 C 
ATOM     15  C   UNL A   1      28.159  31.016  21.156  1.00  0.00     0.414 C 
ATOM     16  O   UNL A   1      27.578  31.393  20.143  1.00  0.00    -0.224 OA
ATOM     17  N   UNL A   1      27.977  29.751  21.640  1.00  0.00    -0.256 N 
ATOM     18  H   UNL A   1      27.436  29.164  21.064  1.00  0.00     0.176 HD
ATOM     19  O   UNL A   1      27.651  28.398  23.371  1.00  0.00    -0.268 OA
BRANCH  15  20
ATOM     20  O   UNL A   1      28.968  31.781  21.920  1.00  0.00    -0.450 OA
BRANCH  20  21
ATOM     21  C   UNL A   1      28.405  33.010  22.388  1.00  0.00     0.231 C 
ATOM     22  C   UNL A   1      29.335  33.707  23.363  1.00  0.00     0.049 C 
ENDBRANCH  20  21
ENDBRANCH  15  20
ENDBRANCH  13  14
ENDBRANCH   7  13
ENDBRANCH   3   6
ENDBRANCH   1   2
BRANCH   1  23
ATOM     23  C   UNL A   1      34.332  30.866  27.546  1.00  0.00     0.042 C 
BRANCH  23  24
ATOM     24  C   UNL A   1      35.596  31.354  28.224  1.00  0.00     0.118 C 
BRANCH  24  25
ATOM     25  N   UNL A   1      35.531  31.160  29.666  1.00  0.00    -0.352 N 
ATOM     26  C   UNL A   1      36.358  30.456  30.507  1.00  0.00     0.251 C 
ATOM     27  H   UNL A   1      34.773  31.605  30.109  1.00  0.00     0.163 HD
ATOM     28  O   UNL A   1      35.948  30.160  31.628  1.00  0.00    -0.269 OA
BRANCH  26  29
ATOM     29  C   UNL A   1      37.724  30.055  30.088  1.00  0.00     0.039 A 
ATOM     30  C   UNL A   1      38.028  29.987  28.724  1.00  0.00     0.014 A 
ATOM     31  C   UNL A   1      38.689  29.678  31.023  1.00  0.00     0.014 A 
ATOM     32  C   UNL A   1      39.304  29.592  28.310  1.00  0.00     0.010 A 
ATOM     33  C   UNL A   1      39.990  29.403  30.615  1.00  0.00     0.010 A 
ATOM     34  C   UNL A   1      40.308  29.327  29.254  1.00  0.00    -0.014 A 
BRANCH  34  35
ATOM     35  C   UNL A   1      41.684  28.926  28.851  1.00  0.00     0.031 A 
ATOM     36  C   UNL A   1      42.781  29.961  28.791  1.00  0.00     0.074 A 
ATOM     37  C   UNL A   1      41.931  27.657  28.471  1.00  0.00     0.049 A 
ATOM     38  N   UNL A   1      44.011  29.839  28.364  1.00  0.00    -0.248 NA
ATOM     39  C   UNL A   1      42.440  31.321  29.240  1.00  0.00     0.031 C 
ATOM     40  C   UNL A   1      40.946  26.573  28.443  1.00  0.00     0.029 A 
ATOM     41  N   UNL A   1      43.087  27.064  28.023  1.00  0.00    -0.354 N 
ATOM     42  C   UNL A   1      44.579  31.103  28.471  1.00  0.00     0.074 A 
ATOM     43  C   UNL A   1      43.541  31.993  28.942  1.00  0.00     0.031 C 
ATOM     44  C   UNL A   1      41.545  25.445  28.027  1.00  0.00     0.029 A 
ATOM     45  C   UNL A   1      42.940  25.733  27.711  1.00  0.00     0.049 A 
ATOM     46  H   UNL A   1      43.940  27.547  27.935  1.00  0.00     0.167 HD
ATOM     47  C   UNL A   1      45.855  31.487  28.226  1.00  0.00     0.037 A 
ATOM     48  C   UNL A   1      43.824  24.846  27.212  1.00  0.00     0.037 A 
ATOM     49  C   UNL A   1      46.891  30.589  27.787  1.00  0.00     0.049 A 
ATOM     50  C   UNL A   1      45.235  25.297  26.937  1.00  0.00     0.074 A 
ATOM     51  C   UNL A   1      48.229  30.862  27.565  1.00  0.00     0.029 A 
ATOM     52  N   UNL A   1      46.706  29.244  27.502  1.00  0.00    -0.354 N 
ATOM     53  N   UNL A   1      45.768  26.485  27.099  1.00  0.00    -0.248 NA
ATOM     54  C   UNL A   1      46.167  24.286  26.417  1.00  0.00     0.031 C 
ATOM     55  C   UNL A   1      48.841  29.697  27.092  1.00  0.00     0.029 A 
ATOM     56  C   UNL A   1      47.899  28.680  27.083  1.00  0.00     0.049 A 
ATOM     57  H   UNL A   1      45.851  28.760  27.585  1.00  0.00     0.167 HD
ATOM     58  C   UNL A   1      47.104  26.356  26.734  1.00  0.00     0.074 A 
ATOM     59  C   UNL A   1      47.299  24.972  26.353  1.00  0.00     0.031 C 
ATOM     60  C   UNL A   1      48.082  27.296  26.720  1.00  0.00     0.037 A 
BRANCH  47  61
ATOM     61  C   UNL A   1      46.206  32.938  28.431  1.00  0.00     0.058 A 
ATOM     62  C   UNL A   1      46.666  33.421  29.668  1.00  0.00     0.135 A 
ATOM     63  C   UNL A   1      46.117  33.851  27.368  1.00  0.00     0.135 A 
ATOM     64  F   UNL A   1      46.757  32.598  30.725  1.00  0.00    -0.206 F 
ATOM     65  C   UNL A   1      46.993  34.760  29.852  1.00  0.00     0.059 A 
ATOM     66  C   UNL A   1      46.473  35.189  27.519  1.00  0.00     0.059 A 
ATOM     67  F   UNL A   1      45.684  33.448  26.163  1.00  0.00    -0.206 F 
ATOM     68  C   UNL A   1      46.894  35.638  28.770  1.00  0.00     0.060 A 
BRANCH  68  69
ATOM     69  S   UNL A   1      47.331  37.369  29.026  1.00  0.00     0.124 S 
ATOM     70  O   UNL A   1      48.789  37.316  28.961  1.00  0.00    -0.237 OA
ATOM     71  O   UNL A   1      46.671  38.026  27.902  1.00  0.00    -0.237 OA
ATOM     72  O   UNL A   1      46.774  37.671  30.341  1.00  0.00    -0.744 OA
ENDBRANCH  68  69
ENDBRANCH  47  61
BRANCH  48  73
ATOM     73  C   UNL A   1      43.408  23.440  26.958  1.00  0.00     0.058 A 
ATOM     74  C   UNL A   1      43.235  22.535  28.016  1.00  0.00     0.135 A 
ATOM     75  C   UNL A   1      43.164  22.974  25.657  1.00  0.00     0.135 A 
ATOM     76  F   UNL A   1      43.462  22.929  29.279  1.00  0.00    -0.206 F 
ATOM     77  C   UNL A   1      42.856  21.215  27.795  1.00  0.00     0.059 A 
ATOM     78  C   UNL A   1      42.754  21.667  25.411  1.00  0.00     0.059 A 
ATOM     79  F   UNL A   1      43.298  23.802  24.609  1.00  0.00    -0.206 F 
ATOM     80  C   UNL A   1      42.615  20.791  26.487  1.00  0.00     0.060 A 
BRANCH  80  81
ATOM     81  S   UNL A   1      42.083  19.086  26.215  1.00  0.00     0.124 S 
ATOM     82  O   UNL A   1      43.011  18.650  25.179  1.00  0.00    -0.237 OA
ATOM     83  O   UNL A   1      42.273  18.494  27.535  1.00  0.00    -0.237 OA
ATOM     84  O   UNL A   1      40.691  19.231  25.797  1.00  0.00    -0.744 OA
ENDBRANCH  80  81
ENDBRANCH  48  73
BRANCH  60  85
ATOM     85  C   UNL A   1      49.466  26.856  26.326  1.00  0.00     0.058 A 
ATOM     86  C   UNL A   1      50.352  26.274  27.246  1.00  0.00     0.135 A 
ATOM     87  C   UNL A   1      49.887  26.964  24.990  1.00  0.00     0.135 A 
ATOM     88  F   UNL A   1      50.002  26.152  28.536  1.00  0.00    -0.206 F 
ATOM     89  C   UNL A   1      51.614  25.835  26.860  1.00  0.00     0.059 A 
ATOM     90  C   UNL A   1      51.132  26.502  24.576  1.00  0.00     0.059 A 
ATOM     91  F   UNL A   1      49.076  27.502  24.066  1.00  0.00    -0.206 F 
ATOM     92  C   UNL A   1      51.994  25.949  25.521  1.00  0.00     0.060 A 
BRANCH  92  93
ATOM     93  S   UNL A   1      53.619  25.339  25.028  1.00  0.00     0.124 S 
ATOM     94  O   UNL A   1      53.710  25.819  23.653  1.00  0.00    -0.237 OA
ATOM     95  O   UNL A   1      54.502  25.996  25.987  1.00  0.00    -0.237 OA
ATOM     96  O   UNL A   1      53.502  23.892  25.182  1.00  0.00    -0.744 OA
ENDBRANCH  92  93
ENDBRANCH  60  85
ENDBRANCH  34  35
ENDBRANCH  26  29
ENDBRANCH  24  25
ENDBRANCH  23  24
ENDBRANCH   1  23
TORSDOF 17
ENDMDL
MODEL 3
REMARK VINA RESULT:     -11.6      2.885      3.856
REMARK SMILES CCOC(=O)NC(=O)C[N@H+]1CC[C@@H](C(=O)NCCCNC(=O)c2ccc(-c3c4nc(c(-c5c(F)cc(S(=O)(=O)[O-])cc5F)c5ccc([nH]5)c(-c5c(F)cc(S(=O)(=O)[O-])cc5F)c5nc(c(-c6c(F)cc(S(=O)(=O)[O-])cc6F)c6ccc3[nH]6)C=C5)C=C4)cc2)[C@@H]1C
REMARK SMILES IDX 17 1 16 2 14 3 15 4 13 6 10 7 11 8 89 9 12 11 90 12 9 13
REMARK SMILES IDX 7 14 4 15 5 16 6 17 8 19 3 20 2 21 1 22 18 23 19 24 20 25
REMARK SMILES IDX 21 26 22 28 23 29 24 30 88 31 25 32 87 33 26 34 27 35 28 36
REMARK SMILES IDX 81 37 29 38 86 39 80 40 82 41 30 42 85 43 79 44 78 45 31 47
REMARK SMILES IDX 65 48 44 49 64 50 45 51 48 52 63 53 83 54 46 55 47 56 62 58
REMARK SMILES IDX 84 59 49 60 32 61 33 62 42 63 34 64 35 65 41 66 43 67 36 68
REMARK SMILES IDX 37 69 38 70 39 71 40 72 66 73 67 74 76 75 68 76 69 77 75 78
REMARK SMILES IDX 77 79 70 80 71 81 72 82 73 83 74 84 50 85 51 86 60 87 52 88
REMARK SMILES IDX 53 89 59 90 61 91 54 92 55 93 56 94 57 95 58 96
REMARK H PARENT 16 5 10 10 6 18 20 27 82 46 48 57
REMARK Flexibility Score: inf
ROOT
ATOM      1  C   UNL A   1      34.069  29.397  27.159  1.00  0.00     0.117 C 
ENDROOT
BRANCH   1   2
ATOM      2  N   UNL A   1      32.833  28.846  27.678  1.00  0.00    -0.356 N 
ATOM      3  C   UNL A   1      31.977  27.928  27.157  1.00  0.00     0.229 C 
ATOM      4  O   UNL A   1      30.997  27.621  27.843  1.00  0.00    -0.275 OA
ATOM      5  H   UNL A   1      32.567  29.198  28.558  1.00  0.00     0.163 HD
BRANCH   3   6
ATOM      6  C   UNL A   1      32.164  27.308  25.783  1.00  0.00     0.142 C 
ATOM      7  N   UNL A   1      31.912  25.093  24.816  1.00  0.00    -0.324 N 
ATOM      8  C   UNL A   1      31.186  26.077  23.990  1.00  0.00     0.263 C 
ATOM      9  C   UNL A   1      32.642  25.852  25.847  1.00  0.00     0.194 C 
ATOM     10  H   UNL A   1      32.633  24.568  24.322  1.00  0.00     0.348 HD
ATOM     11  C   UNL A   1      30.973  27.317  24.846  1.00  0.00     0.081 C 
ATOM     12  C   UNL A   1      34.139  25.816  25.499  1.00  0.00     0.076 C 
BRANCH   7  13
ATOM     13  C   UNL A   1      30.998  24.000  25.233  1.00  0.00     0.364 C 
BRANCH  13  14
ATOM     14  C   UNL A   1      30.989  23.569  26.700  1.00  0.00     0.284 C 
ATOM     15  C   UNL A   1      33.110  22.293  26.871  1.00  0.00     0.414 C 
ATOM     16  O   UNL A   1      33.964  21.852  27.634  1.00  0.00    -0.224 OA
ATOM     17  N   UNL A   1      32.090  23.075  27.337  1.00  0.00    -0.256 N 
ATOM     18  H   UNL A   1      32.161  23.322  28.287  1.00  0.00     0.176 HD
ATOM     19  O   UNL A   1      29.930  23.595  27.337  1.00  0.00    -0.268 OA
BRANCH  15  20
ATOM     20  O   UNL A   1      33.035  22.031  25.549  1.00  0.00    -0.450 OA
BRANCH  20  21
ATOM     21  C   UNL A   1      34.052  21.172  25.026  1.00  0.00     0.231 C 
ATOM     22  C   UNL A   1      35.173  21.971  24.387  1.00  0.00     0.049 C 
ENDBRANCH  20  21
ENDBRANCH  15  20
ENDBRANCH  13  14
ENDBRANCH   7  13
ENDBRANCH   3   6
ENDBRANCH   1   2
BRANCH   1  23
ATOM     23  C   UNL A   1      34.228  30.875  27.465  1.00  0.00     0.042 C 
BRANCH  23  24
ATOM     24  C   UNL A   1      35.561  31.240  28.087  1.00  0.00     0.118 C 
BRANCH  24  25
ATOM     25  N   UNL A   1      35.505  31.162  29.540  1.00  0.00    -0.352 N 
ATOM     26  C   UNL A   1      36.352  30.547  30.431  1.00  0.00     0.251 C 
ATOM     27  H   UNL A   1      34.738  31.623  29.950  1.00  0.00     0.163 HD
ATOM     28  O   UNL A   1      35.952  30.333  31.574  1.00  0.00    -0.269 OA
BRANCH  26  29
ATOM     29  C   UNL A   1      37.725  30.147  30.038  1.00  0.00     0.039 A 
ATOM     30  C   UNL A   1      38.650  29.809  31.032  1.00  0.00     0.014 A 
ATOM     31  C   UNL A   1      38.133  30.165  28.703  1.00  0.00     0.014 A 
ATOM     32  C   UNL A   1      39.954  29.447  30.680  1.00  0.00     0.010 A 
ATOM     33  C   UNL A   1      39.390  29.690  28.347  1.00  0.00     0.010 A 
ATOM     34  C   UNL A   1      40.328  29.354  29.331  1.00  0.00    -0.014 A 
BRANCH  34  35
ATOM     35  C   UNL A   1      41.700  28.951  28.918  1.00  0.00     0.031 A 
ATOM     36  C   UNL A   1      42.803  29.981  28.866  1.00  0.00     0.074 A 
ATOM     37  C   UNL A   1      41.941  27.685  28.524  1.00  0.00     0.049 A 
ATOM     38  N   UNL A   1      44.030  29.858  28.432  1.00  0.00    -0.248 NA
ATOM     39  C   UNL A   1      42.470  31.338  29.331  1.00  0.00     0.031 C 
ATOM     40  C   UNL A   1      40.950  26.606  28.487  1.00  0.00     0.029 A 
ATOM     41  N   UNL A   1      43.091  27.092  28.065  1.00  0.00    -0.354 N 
ATOM     42  C   UNL A   1      44.604  31.119  28.551  1.00  0.00     0.074 A 
ATOM     43  C   UNL A   1      43.573  32.008  29.036  1.00  0.00     0.031 C 
ATOM     44  C   UNL A   1      41.542  25.480  28.057  1.00  0.00     0.029 A 
ATOM     45  C   UNL A   1      42.937  25.764  27.739  1.00  0.00     0.049 A 
ATOM     46  H   UNL A   1      43.947  27.572  27.979  1.00  0.00     0.167 HD
ATOM     47  C   UNL A   1      45.881  31.499  28.305  1.00  0.00     0.037 A 
ATOM     48  C   UNL A   1      43.816  24.880  27.226  1.00  0.00     0.037 A 
ATOM     49  C   UNL A   1      46.911  30.601  27.852  1.00  0.00     0.049 A 
ATOM     50  C   UNL A   1      45.227  25.326  26.951  1.00  0.00     0.074 A 
ATOM     51  C   UNL A   1      48.249  30.871  27.628  1.00  0.00     0.029 A 
ATOM     52  N   UNL A   1      46.719  29.260  27.553  1.00  0.00    -0.354 N 
ATOM     53  N   UNL A   1      45.766  26.511  27.123  1.00  0.00    -0.248 NA
ATOM     54  C   UNL A   1      46.152  24.318  26.416  1.00  0.00     0.031 C 
ATOM     55  C   UNL A   1      48.854  29.708  27.140  1.00  0.00     0.029 A 
ATOM     56  C   UNL A   1      47.908  28.695  27.124  1.00  0.00     0.049 A 
ATOM     57  H   UNL A   1      45.862  28.780  27.634  1.00  0.00     0.167 HD
ATOM     58  C   UNL A   1      47.100  26.379  26.752  1.00  0.00     0.074 A 
ATOM     59  C   UNL A   1      47.287  24.999  26.355  1.00  0.00     0.031 C 
ATOM     60  C   UNL A   1      48.082  27.315  26.744  1.00  0.00     0.037 A 
BRANCH  47  61
ATOM     61  C   UNL A   1      46.239  32.946  28.525  1.00  0.00     0.058 A 
ATOM     62  C   UNL A   1      46.109  33.905  27.506  1.00  0.00     0.135 A 
ATOM     63  C   UNL A   1      46.684  33.389  29.782  1.00  0.00     0.135 A 
ATOM     64  F   UNL A   1      45.703  33.538  26.279  1.00  0.00    -0.206 F 
ATOM     65  C   UNL A   1      46.436  35.240  27.714  1.00  0.00     0.059 A 
ATOM     66  C   UNL A   1      46.983  34.728  30.023  1.00  0.00     0.059 A 
ATOM     67  F   UNL A   1      46.827  32.520  30.794  1.00  0.00    -0.206 F 
ATOM     68  C   UNL A   1      46.872  35.643  28.978  1.00  0.00     0.060 A 
BRANCH  68  69
ATOM     69  S   UNL A   1      47.283  37.381  29.231  1.00  0.00     0.124 S 
ATOM     70  O   UNL A   1      47.793  37.364  30.599  1.00  0.00    -0.237 OA
ATOM     71  O   UNL A   1      48.275  37.622  28.188  1.00  0.00    -0.237 OA
ATOM     72  O   UNL A   1      46.006  38.065  29.048  1.00  0.00    -0.744 OA
ENDBRANCH  68  69
ENDBRANCH  47  61
BRANCH  48  73
ATOM     73  C   UNL A   1      43.392  23.478  26.959  1.00  0.00     0.058 A 
ATOM     74  C   UNL A   1      43.142  23.034  25.652  1.00  0.00     0.135 A 
ATOM     75  C   UNL A   1      43.237  22.551  28.002  1.00  0.00     0.135 A 
ATOM     76  F   UNL A   1      43.270  23.884  24.621  1.00  0.00    -0.206 F 
ATOM     77  C   UNL A   1      42.735  21.730  25.387  1.00  0.00     0.059 A 
ATOM     78  C   UNL A   1      42.861  21.233  27.761  1.00  0.00     0.059 A 
ATOM     79  F   UNL A   1      43.479  22.917  29.270  1.00  0.00    -0.206 F 
ATOM     80  C   UNL A   1      42.601  20.835  26.449  1.00  0.00     0.060 A 
BRANCH  80  81
ATOM     81  S   UNL A   1      42.113  19.134  26.090  1.00  0.00     0.124 S 
ATOM     82  O   UNL A   1      40.677  19.277  25.882  1.00  0.00    -0.237 OA
ATOM     83  O   UNL A   1      42.905  18.835  24.901  1.00  0.00    -0.237 OA
ATOM     84  O   UNL A   1      42.508  18.409  27.294  1.00  0.00    -0.744 OA
ENDBRANCH  80  81
ENDBRANCH  48  73
BRANCH  60  85
ATOM     85  C   UNL A   1      49.463  26.873  26.340  1.00  0.00     0.058 A 
ATOM     86  C   UNL A   1      49.951  27.058  25.037  1.00  0.00     0.135 A 
ATOM     87  C   UNL A   1      50.332  26.314  27.292  1.00  0.00     0.135 A 
ATOM     88  F   UNL A   1      49.161  27.582  24.087  1.00  0.00    -0.206 F 
ATOM     89  C   UNL A   1      51.244  26.681  24.686  1.00  0.00     0.059 A 
ATOM     90  C   UNL A   1      51.638  25.962  26.972  1.00  0.00     0.059 A 
ATOM     91  F   UNL A   1      49.921  26.127  28.556  1.00  0.00    -0.206 F 
ATOM     92  C   UNL A   1      52.083  26.138  25.662  1.00  0.00     0.060 A 
BRANCH  92  93
ATOM     93  S   UNL A   1      53.769  25.693  25.202  1.00  0.00     0.124 S 
ATOM     94  O   UNL A   1      54.517  26.863  25.651  1.00  0.00    -0.237 OA
ATOM     95  O   UNL A   1      53.988  24.469  25.969  1.00  0.00    -0.237 OA
ATOM     96  O   UNL A   1      53.693  25.513  23.756  1.00  0.00    -0.744 OA
ENDBRANCH  92  93
ENDBRANCH  60  85
ENDBRANCH  34  35
ENDBRANCH  26  29
ENDBRANCH  24  25
ENDBRANCH  23  24
ENDBRANCH   1  23
TORSDOF 17
ENDMDL
