MODEL 1
REMARK VINA RESULT:     -13.2      0.000      0.000
REMARK SMILES O=C1CC[C@@H](CC(=O)N2CCC(Oc3ccccc3)(C(=O)NCCCNC(=O)c3ccc(-c4c5nc(c(-c6c(F)cc(S(=O)(=O)[O-])cc6F)c6ccc([nH]6)c(-c6c(F)cc(S(=O)(=O)[O-])cc6F)c6nc(c(-c7c(F)cc(S(=O)(=O)[O-])cc7F)c7ccc4[nH]7)C=C6)C=C5)cc3)CC2)N1
REMARK SMILES IDX 24 1 23 2 22 3 20 4 21 5 12 7 7 8 8 9 9 10 10 11 96 12 11 13
REMARK SMILES IDX 95 14 6 15 5 16 1 17 2 18 3 19 97 20 4 21 13 23 14 24 15 25
REMARK SMILES IDX 19 26 16 27 18 28 17 29 25 30 26 31 27 32 28 34 29 35 30 36
REMARK SMILES IDX 94 37 31 38 93 39 32 40 33 41 34 42 87 43 35 44 92 45 86 46
REMARK SMILES IDX 88 47 36 48 91 49 85 50 84 51 37 53 71 54 50 55 70 56 51 57
REMARK SMILES IDX 54 58 69 59 89 60 52 61 53 62 68 64 90 65 55 66 38 67 39 68
REMARK SMILES IDX 48 69 40 70 41 71 47 72 49 73 42 74 43 75 44 76 45 77 46 78
REMARK SMILES IDX 72 79 73 80 82 81 74 82 75 83 81 84 83 85 76 86 77 87 78 88
REMARK SMILES IDX 79 89 80 90 56 91 57 92 66 93 58 94 59 95 65 96 67 97 60 98
REMARK SMILES IDX 61 99 62 100 63 101 64 102
REMARK H PARENT 22 6 97 22 26 33 88 52 54 63
REMARK Flexibility Score: inf
ROOT
ATOM      1  C   UNL A   1      37.804  23.620  25.480  1.00  0.00     0.042 C 
ENDROOT
BRANCH   1   2
ATOM      2  C   UNL A   1      36.935  22.396  25.716  1.00  0.00     0.118 C 
BRANCH   2   3
ATOM      3  N   UNL A   1      35.846  22.707  26.615  1.00  0.00    -0.353 N 
ATOM      4  C   UNL A   1      34.513  22.491  26.491  1.00  0.00     0.264 C 
ATOM      5  O   UNL A   1      33.838  22.819  27.476  1.00  0.00    -0.270 OA
ATOM      6  H   UNL A   1      36.117  23.146  27.454  1.00  0.00     0.163 HD
BRANCH   4   7
ATOM      7  C   UNL A   1      33.891  21.851  25.216  1.00  0.00     0.190 C 
ATOM      8  C   UNL A   1      32.714  24.571  22.293  1.00  0.00     0.224 C 
ATOM      9  O   UNL A   1      33.193  24.219  21.207  1.00  0.00    -0.275 OA
ATOM     10  N   UNL A   1      33.277  24.122  23.471  1.00  0.00    -0.342 N 
ATOM     11  C   UNL A   1      34.646  23.606  23.496  1.00  0.00     0.124 C 
ATOM     12  C   UNL A   1      32.549  23.908  24.695  1.00  0.00     0.124 C 
ATOM     13  C   UNL A   1      34.691  22.140  23.926  1.00  0.00     0.080 C 
ATOM     14  C   UNL A   1      32.481  22.430  25.059  1.00  0.00     0.080 C 
BRANCH   8  15
ATOM     15  C   UNL A   1      31.652  25.689  22.265  1.00  0.00     0.125 C 
BRANCH  15  16
ATOM     16  C   UNL A   1      31.803  27.153  22.686  1.00  0.00     0.091 C 
ATOM     17  O   UNL A   1      29.907  30.069  22.182  1.00  0.00    -0.275 OA
ATOM     18  C   UNL A   1      30.515  29.116  22.644  1.00  0.00     0.220 C 
ATOM     19  C   UNL A   1      30.689  28.801  24.109  1.00  0.00     0.102 C 
ATOM     20  N   UNL A   1      31.114  28.128  21.896  1.00  0.00    -0.353 N 
ATOM     21  C   UNL A   1      31.448  27.470  24.142  1.00  0.00     0.035 C 
ATOM     22  H   UNL A   1      31.072  28.095  20.912  1.00  0.00     0.163 HD
ENDBRANCH  15  16
ENDBRANCH   8  15
BRANCH   7  23
ATOM     23  O   UNL A   1      33.849  20.455  25.612  1.00  0.00    -0.477 OA
BRANCH  23  24
ATOM     24  C   UNL A   1      33.687  19.510  24.647  1.00  0.00     0.120 A 
ATOM     25  C   UNL A   1      32.540  19.569  23.859  1.00  0.00     0.046 A 
ATOM     26  C   UNL A   1      34.547  18.419  24.548  1.00  0.00     0.046 A 
ATOM     27  C   UNL A   1      32.296  18.575  22.913  1.00  0.00     0.004 A 
ATOM     28  C   UNL A   1      34.319  17.437  23.586  1.00  0.00     0.004 A 
ATOM     29  C   UNL A   1      33.195  17.518  22.764  1.00  0.00     0.000 A 
ENDBRANCH  23  24
ENDBRANCH   7  23
ENDBRANCH   4   7
ENDBRANCH   2   3
ENDBRANCH   1   2
BRANCH   1  30
ATOM     30  C   UNL A   1      38.695  23.963  26.666  1.00  0.00     0.118 C 
BRANCH  30  31
ATOM     31  N   UNL A   1      40.110  23.853  26.344  1.00  0.00    -0.352 N 
ATOM     32  C   UNL A   1      41.145  24.700  26.650  1.00  0.00     0.251 C 
ATOM     33  H   UNL A   1      40.362  23.052  25.830  1.00  0.00     0.163 HD
ATOM     34  O   UNL A   1      42.226  24.571  26.087  1.00  0.00    -0.269 OA
BRANCH  32  35
ATOM     35  C   UNL A   1      40.943  25.772  27.647  1.00  0.00     0.039 A 
ATOM     36  C   UNL A   1      39.866  25.684  28.530  1.00  0.00     0.014 A 
ATOM     37  C   UNL A   1      41.817  26.861  27.708  1.00  0.00     0.014 A 
ATOM     38  C   UNL A   1      39.704  26.659  29.515  1.00  0.00     0.010 A 
ATOM     39  C   UNL A   1      41.710  27.775  28.748  1.00  0.00     0.010 A 
ATOM     40  C   UNL A   1      40.645  27.692  29.656  1.00  0.00    -0.014 A 
BRANCH  40  41
ATOM     41  C   UNL A   1      40.531  28.699  30.741  1.00  0.00     0.031 A 
ATOM     42  C   UNL A   1      41.399  28.590  31.966  1.00  0.00     0.074 A 
ATOM     43  C   UNL A   1      39.604  29.673  30.649  1.00  0.00     0.049 A 
ATOM     44  N   UNL A   1      41.403  29.330  33.043  1.00  0.00    -0.248 NA
ATOM     45  C   UNL A   1      42.372  27.484  31.997  1.00  0.00     0.031 C 
ATOM     46  C   UNL A   1      38.672  29.850  29.532  1.00  0.00     0.029 A 
ATOM     47  N   UNL A   1      39.286  30.692  31.510  1.00  0.00    -0.354 N 
ATOM     48  C   UNL A   1      42.364  28.778  33.880  1.00  0.00     0.074 A 
ATOM     49  C   UNL A   1      42.880  27.602  33.214  1.00  0.00     0.031 C 
ATOM     50  C   UNL A   1      37.907  30.929  29.765  1.00  0.00     0.029 A 
ATOM     51  C   UNL A   1      38.261  31.493  31.064  1.00  0.00     0.049 A 
ATOM     52  H   UNL A   1      39.748  30.837  32.367  1.00  0.00     0.167 HD
ATOM     53  C   UNL A   1      42.796  29.224  35.084  1.00  0.00     0.037 A 
ATOM     54  C   UNL A   1      37.665  32.555  31.640  1.00  0.00     0.037 A 
ATOM     55  C   UNL A   1      42.289  30.407  35.729  1.00  0.00     0.049 A 
ATOM     56  C   UNL A   1      38.155  33.024  32.983  1.00  0.00     0.074 A 
ATOM     57  C   UNL A   1      42.698  30.977  36.923  1.00  0.00     0.029 A 
ATOM     58  N   UNL A   1      41.261  31.200  35.240  1.00  0.00    -0.354 N 
ATOM     59  N   UNL A   1      39.112  32.530  33.732  1.00  0.00    -0.248 NA
ATOM     60  C   UNL A   1      37.489  34.200  33.560  1.00  0.00     0.031 C 
ATOM     61  C   UNL A   1      41.879  32.080  37.182  1.00  0.00     0.029 A 
ATOM     62  C   UNL A   1      41.002  32.237  36.121  1.00  0.00     0.049 A 
ATOM     63  H   UNL A   1      40.785  31.047  34.392  1.00  0.00     0.167 HD
ATOM     64  C   UNL A   1      39.183  33.351  34.852  1.00  0.00     0.074 A 
ATOM     65  C   UNL A   1      38.181  34.382  34.676  1.00  0.00     0.031 C 
ATOM     66  C   UNL A   1      40.004  33.261  35.927  1.00  0.00     0.037 A 
BRANCH  53  67
ATOM     67  C   UNL A   1      43.870  28.432  35.781  1.00  0.00     0.058 A 
ATOM     68  C   UNL A   1      45.234  28.716  35.600  1.00  0.00     0.135 A 
ATOM     69  C   UNL A   1      43.532  27.400  36.672  1.00  0.00     0.135 A 
ATOM     70  F   UNL A   1      45.617  29.681  34.748  1.00  0.00    -0.206 F 
ATOM     71  C   UNL A   1      46.223  27.987  36.252  1.00  0.00     0.059 A 
ATOM     72  C   UNL A   1      44.504  26.680  37.360  1.00  0.00     0.059 A 
ATOM     73  F   UNL A   1      42.245  27.083  36.882  1.00  0.00    -0.206 F 
ATOM     74  C   UNL A   1      45.847  26.972  37.133  1.00  0.00     0.060 A 
BRANCH  74  75
ATOM     75  S   UNL A   1      47.145  26.042  37.977  1.00  0.00     0.124 S 
ATOM     76  O   UNL A   1      47.795  25.368  36.858  1.00  0.00    -0.237 OA
ATOM     77  O   UNL A   1      47.919  27.101  38.616  1.00  0.00    -0.237 OA
ATOM     78  O   UNL A   1      46.404  25.174  38.887  1.00  0.00    -0.744 OA
ENDBRANCH  74  75
ENDBRANCH  53  67
BRANCH  54  79
ATOM     79  C   UNL A   1      36.556  33.257  30.941  1.00  0.00     0.058 A 
ATOM     80  C   UNL A   1      35.223  33.088  31.345  1.00  0.00     0.135 A 
ATOM     81  C   UNL A   1      36.805  34.120  29.861  1.00  0.00     0.135 A 
ATOM     82  F   UNL A   1      34.933  32.271  32.369  1.00  0.00    -0.206 F 
ATOM     83  C   UNL A   1      34.176  33.732  30.695  1.00  0.00     0.059 A 
ATOM     84  C   UNL A   1      35.777  34.797  29.213  1.00  0.00     0.059 A 
ATOM     85  F   UNL A   1      38.064  34.330  29.444  1.00  0.00    -0.206 F 
ATOM     86  C   UNL A   1      34.464  34.588  29.631  1.00  0.00     0.060 A 
BRANCH  86  87
ATOM     87  S   UNL A   1      33.100  35.454  28.823  1.00  0.00     0.124 S 
ATOM     88  O   UNL A   1      32.381  36.000  29.967  1.00  0.00    -0.237 OA
ATOM     89  O   UNL A   1      33.805  36.422  27.988  1.00  0.00    -0.237 OA
ATOM     90  O   UNL A   1      32.413  34.391  28.093  1.00  0.00    -0.744 OA
ENDBRANCH  86  87
ENDBRANCH  54  79
BRANCH  66  91
ATOM     91  C   UNL A   1      39.886  34.327  36.983  1.00  0.00     0.058 A 
ATOM     92  C   UNL A   1      40.582  35.542  36.890  1.00  0.00     0.135 A 
ATOM     93  C   UNL A   1      39.020  34.151  38.075  1.00  0.00     0.135 A 
ATOM     94  F   UNL A   1      41.428  35.761  35.870  1.00  0.00    -0.206 F 
ATOM     95  C   UNL A   1      40.444  36.534  37.856  1.00  0.00     0.059 A 
ATOM     96  C   UNL A   1      38.842  35.141  39.035  1.00  0.00     0.059 A 
ATOM     97  F   UNL A   1      38.322  33.012  38.206  1.00  0.00    -0.206 F 
ATOM     98  C   UNL A   1      39.568  36.325  38.922  1.00  0.00     0.060 A 
BRANCH  98  99
ATOM     99  S   UNL A   1      39.372  37.636  40.148  1.00  0.00     0.124 S 
ATOM    100  O   UNL A   1      40.682  38.278  40.105  1.00  0.00    -0.237 OA
ATOM    101  O   UNL A   1      38.266  38.414  39.598  1.00  0.00    -0.237 OA
ATOM    102  O   UNL A   1      39.069  36.909  41.378  1.00  0.00    -0.744 OA
ENDBRANCH  98  99
ENDBRANCH  66  91
ENDBRANCH  40  41
ENDBRANCH  32  35
ENDBRANCH  30  31
ENDBRANCH   1  30
TORSDOF 17
ENDMDL
MODEL 2
REMARK VINA RESULT:     -13.2      6.458     11.709
REMARK SMILES O=C1CC[C@@H](CC(=O)N2CCC(Oc3ccccc3)(C(=O)NCCCNC(=O)c3ccc(-c4c5nc(c(-c6c(F)cc(S(=O)(=O)[O-])cc6F)c6ccc([nH]6)c(-c6c(F)cc(S(=O)(=O)[O-])cc6F)c6nc(c(-c7c(F)cc(S(=O)(=O)[O-])cc7F)c7ccc4[nH]7)C=C6)C=C5)cc3)CC2)N1
REMARK SMILES IDX 24 1 23 2 22 3 20 4 21 5 12 7 7 8 8 9 9 10 10 11 96 12 11 13
REMARK SMILES IDX 95 14 6 15 5 16 1 17 2 18 3 19 97 20 4 21 13 23 14 24 15 25
REMARK SMILES IDX 19 26 16 27 18 28 17 29 25 30 26 31 27 32 28 34 29 35 30 36
REMARK SMILES IDX 94 37 31 38 93 39 32 40 33 41 34 42 87 43 35 44 92 45 86 46
REMARK SMILES IDX 88 47 36 48 91 49 85 50 84 51 37 53 71 54 50 55 70 56 51 57
REMARK SMILES IDX 54 58 69 59 89 60 52 61 53 62 68 64 90 65 55 66 38 67 39 68
REMARK SMILES IDX 48 69 40 70 41 71 47 72 49 73 42 74 43 75 44 76 45 77 46 78
REMARK SMILES IDX 72 79 73 80 82 81 74 82 75 83 81 84 83 85 76 86 77 87 78 88
REMARK SMILES IDX 79 89 80 90 56 91 57 92 66 93 58 94 59 95 65 96 67 97 60 98
REMARK SMILES IDX 61 99 62 100 63 101 64 102
REMARK H PARENT 22 6 97 22 26 33 88 52 54 63
REMARK Flexibility Score: inf
ROOT
ATOM      1  C   UNL A   1      34.604  30.894  27.516  1.00  0.00     0.042 C 
ENDROOT
BRANCH   1   2
ATOM      2  C   UNL A   1      34.645  29.377  27.449  1.00  0.00     0.118 C 
BRANCH   2   3
ATOM      3  N   UNL A   1      33.393  28.810  27.896  1.00  0.00    -0.353 N 
ATOM      4  C   UNL A   1      32.559  27.928  27.291  1.00  0.00     0.264 C 
ATOM      5  O   UNL A   1      31.583  27.584  27.969  1.00  0.00    -0.270 OA
ATOM      6  H   UNL A   1      33.098  29.113  28.785  1.00  0.00     0.163 HD
BRANCH   4   7
ATOM      7  C   UNL A   1      32.835  27.372  25.863  1.00  0.00     0.190 C 
ATOM      8  C   UNL A   1      30.551  29.104  22.844  1.00  0.00     0.224 C 
ATOM      9  O   UNL A   1      31.306  29.463  21.931  1.00  0.00    -0.275 OA
ATOM     10  N   UNL A   1      31.054  28.906  24.115  1.00  0.00    -0.342 N 
ATOM     11  C   UNL A   1      32.329  29.502  24.516  1.00  0.00     0.124 C 
ATOM     12  C   UNL A   1      30.528  27.958  25.063  1.00  0.00     0.124 C 
ATOM     13  C   UNL A   1      33.363  28.437  24.876  1.00  0.00     0.080 C 
ATOM     14  C   UNL A   1      31.508  26.822  25.327  1.00  0.00     0.080 C 
BRANCH   8  15
ATOM     15  C   UNL A   1      29.035  29.129  22.556  1.00  0.00     0.125 C 
BRANCH  15  16
ATOM     16  C   UNL A   1      28.137  30.342  22.306  1.00  0.00     0.091 C 
ATOM     17  O   UNL A   1      28.438  33.794  22.893  1.00  0.00    -0.275 OA
ATOM     18  C   UNL A   1      28.306  32.682  22.406  1.00  0.00     0.220 C 
ATOM     19  C   UNL A   1      28.093  32.374  20.945  1.00  0.00     0.102 C 
ATOM     20  N   UNL A   1      28.376  31.502  23.111  1.00  0.00    -0.353 N 
ATOM     21  C   UNL A   1      28.076  30.844  20.860  1.00  0.00     0.035 C 
ATOM     22  H   UNL A   1      28.572  31.460  24.075  1.00  0.00     0.163 HD
ENDBRANCH  15  16
ENDBRANCH   8  15
BRANCH   7  23
ATOM     23  O   UNL A   1      33.767  26.302  26.169  1.00  0.00    -0.477 OA
BRANCH  23  24
ATOM     24  C   UNL A   1      33.687  25.146  25.455  1.00  0.00     0.120 A 
ATOM     25  C   UNL A   1      33.203  24.011  26.101  1.00  0.00     0.046 A 
ATOM     26  C   UNL A   1      34.220  25.047  24.173  1.00  0.00     0.046 A 
ATOM     27  C   UNL A   1      33.180  22.788  25.431  1.00  0.00     0.004 A 
ATOM     28  C   UNL A   1      34.174  23.832  23.491  1.00  0.00     0.004 A 
ATOM     29  C   UNL A   1      33.649  22.703  24.119  1.00  0.00     0.000 A 
ENDBRANCH  23  24
ENDBRANCH   7  23
ENDBRANCH   4   7
ENDBRANCH   2   3
ENDBRANCH   1   2
BRANCH   1  30
ATOM     30  C   UNL A   1      35.770  31.494  28.289  1.00  0.00     0.118 C 
BRANCH  30  31
ATOM     31  N   UNL A   1      35.627  31.320  29.727  1.00  0.00    -0.352 N 
ATOM     32  C   UNL A   1      36.396  30.593  30.600  1.00  0.00     0.251 C 
ATOM     33  H   UNL A   1      34.866  31.794  30.133  1.00  0.00     0.163 HD
ATOM     34  O   UNL A   1      35.983  30.364  31.732  1.00  0.00    -0.269 OA
BRANCH  32  35
ATOM     35  C   UNL A   1      37.711  30.078  30.165  1.00  0.00     0.039 A 
ATOM     36  C   UNL A   1      38.020  30.069  28.804  1.00  0.00     0.014 A 
ATOM     37  C   UNL A   1      38.636  29.605  31.100  1.00  0.00     0.014 A 
ATOM     38  C   UNL A   1      39.282  29.644  28.388  1.00  0.00     0.010 A 
ATOM     39  C   UNL A   1      39.922  29.275  30.694  1.00  0.00     0.010 A 
ATOM     40  C   UNL A   1      40.257  29.279  29.332  1.00  0.00    -0.014 A 
BRANCH  40  41
ATOM     41  C   UNL A   1      41.628  28.891  28.916  1.00  0.00     0.031 A 
ATOM     42  C   UNL A   1      42.721  29.924  28.864  1.00  0.00     0.074 A 
ATOM     43  C   UNL A   1      41.871  27.623  28.528  1.00  0.00     0.049 A 
ATOM     44  N   UNL A   1      43.960  29.795  28.469  1.00  0.00    -0.248 NA
ATOM     45  C   UNL A   1      42.367  31.290  29.286  1.00  0.00     0.031 C 
ATOM     46  C   UNL A   1      40.879  26.546  28.488  1.00  0.00     0.029 A 
ATOM     47  N   UNL A   1      43.024  27.028  28.084  1.00  0.00    -0.354 N 
ATOM     48  C   UNL A   1      44.528  31.058  28.583  1.00  0.00     0.074 A 
ATOM     49  C   UNL A   1      43.483  31.954  29.024  1.00  0.00     0.031 C 
ATOM     50  C   UNL A   1      41.472  25.416  28.071  1.00  0.00     0.029 A 
ATOM     51  C   UNL A   1      42.873  25.697  27.771  1.00  0.00     0.049 A 
ATOM     52  H   UNL A   1      43.880  27.507  27.999  1.00  0.00     0.167 HD
ATOM     53  C   UNL A   1      45.812  31.432  28.364  1.00  0.00     0.037 A 
ATOM     54  C   UNL A   1      43.759  24.805  27.286  1.00  0.00     0.037 A 
ATOM     55  C   UNL A   1      46.849  30.527  27.942  1.00  0.00     0.049 A 
ATOM     56  C   UNL A   1      45.176  25.248  27.039  1.00  0.00     0.074 A 
ATOM     57  C   UNL A   1      48.194  30.793  27.746  1.00  0.00     0.029 A 
ATOM     58  N   UNL A   1      46.661  29.184  27.649  1.00  0.00    -0.354 N 
ATOM     59  N   UNL A   1      45.714  26.432  27.216  1.00  0.00    -0.248 NA
ATOM     60  C   UNL A   1      46.110  24.234  26.531  1.00  0.00     0.031 C 
ATOM     61  C   UNL A   1      48.805  29.626  27.279  1.00  0.00     0.029 A 
ATOM     62  C   UNL A   1      47.858  28.615  27.245  1.00  0.00     0.049 A 
ATOM     63  H   UNL A   1      45.803  28.707  27.715  1.00  0.00     0.167 HD
ATOM     64  C   UNL A   1      47.055  26.297  26.871  1.00  0.00     0.074 A 
ATOM     65  C   UNL A   1      47.248  24.914  26.488  1.00  0.00     0.031 C 
ATOM     66  C   UNL A   1      48.036  27.233  26.873  1.00  0.00     0.037 A 
BRANCH  53  67
ATOM     67  C   UNL A   1      46.166  32.880  28.575  1.00  0.00     0.058 A 
ATOM     68  C   UNL A   1      46.603  33.360  29.821  1.00  0.00     0.135 A 
ATOM     69  C   UNL A   1      46.105  33.793  27.510  1.00  0.00     0.135 A 
ATOM     70  F   UNL A   1      46.665  32.536  30.880  1.00  0.00    -0.206 F 
ATOM     71  C   UNL A   1      46.937  34.697  30.011  1.00  0.00     0.059 A 
ATOM     72  C   UNL A   1      46.466  35.128  27.669  1.00  0.00     0.059 A 
ATOM     73  F   UNL A   1      45.693  33.391  26.297  1.00  0.00    -0.206 F 
ATOM     74  C   UNL A   1      46.868  35.573  28.927  1.00  0.00     0.060 A 
BRANCH  74  75
ATOM     75  S   UNL A   1      47.314  37.302  29.190  1.00  0.00     0.124 S 
ATOM     76  O   UNL A   1      48.374  37.483  28.203  1.00  0.00    -0.237 OA
ATOM     77  O   UNL A   1      46.059  37.993  28.908  1.00  0.00    -0.237 OA
ATOM     78  O   UNL A   1      47.743  37.335  30.585  1.00  0.00    -0.744 OA
ENDBRANCH  74  75
ENDBRANCH  53  67
BRANCH  54  79
ATOM     79  C   UNL A   1      43.337  23.404  27.022  1.00  0.00     0.058 A 
ATOM     80  C   UNL A   1      43.107  22.507  28.076  1.00  0.00     0.135 A 
ATOM     81  C   UNL A   1      43.143  22.935  25.713  1.00  0.00     0.135 A 
ATOM     82  F   UNL A   1      43.282  22.905  29.345  1.00  0.00    -0.206 F 
ATOM     83  C   UNL A   1      42.719  21.191  27.842  1.00  0.00     0.059 A 
ATOM     84  C   UNL A   1      42.728  21.633  25.455  1.00  0.00     0.059 A 
ATOM     85  F   UNL A   1      43.332  23.758  24.669  1.00  0.00    -0.206 F 
ATOM     86  C   UNL A   1      42.529  20.765  26.527  1.00  0.00     0.060 A 
BRANCH  86  87
ATOM     87  S   UNL A   1      41.982  19.068  26.238  1.00  0.00     0.124 S 
ATOM     88  O   UNL A   1      42.243  18.451  27.533  1.00  0.00    -0.237 OA
ATOM     89  O   UNL A   1      40.576  19.256  25.891  1.00  0.00    -0.237 OA
ATOM     90  O   UNL A   1      42.836  18.622  25.141  1.00  0.00    -0.744 OA
ENDBRANCH  86  87
ENDBRANCH  54  79
BRANCH  66  91
ATOM     91  C   UNL A   1      49.420  26.787  26.488  1.00  0.00     0.058 A 
ATOM     92  C   UNL A   1      50.327  26.283  27.434  1.00  0.00     0.135 A 
ATOM     93  C   UNL A   1      49.826  26.815  25.143  1.00  0.00     0.135 A 
ATOM     94  F   UNL A   1      49.993  26.238  28.733  1.00  0.00    -0.206 F 
ATOM     95  C   UNL A   1      51.595  25.846  27.063  1.00  0.00     0.059 A 
ATOM     96  C   UNL A   1      51.076  26.354  24.746  1.00  0.00     0.059 A 
ATOM     97  F   UNL A   1      48.994  27.278  24.196  1.00  0.00    -0.206 F 
ATOM     98  C   UNL A   1      51.958  25.882  25.716  1.00  0.00     0.060 A 
BRANCH  98  99
ATOM     99  S   UNL A   1      53.594  25.278  25.246  1.00  0.00     0.124 S 
ATOM    100  O   UNL A   1      53.410  23.833  25.332  1.00  0.00    -0.237 OA
ATOM    101  O   UNL A   1      53.751  25.819  23.900  1.00  0.00    -0.237 OA
ATOM    102  O   UNL A   1      54.474  25.860  26.256  1.00  0.00    -0.744 OA
ENDBRANCH  98  99
ENDBRANCH  66  91
ENDBRANCH  40  41
ENDBRANCH  32  35
ENDBRANCH  30  31
ENDBRANCH   1  30
TORSDOF 17
ENDMDL
MODEL 3
REMARK VINA RESULT:     -13.2      3.304      9.583
REMARK SMILES O=C1CC[C@@H](CC(=O)N2CCC(Oc3ccccc3)(C(=O)NCCCNC(=O)c3ccc(-c4c5nc(c(-c6c(F)cc(S(=O)(=O)[O-])cc6F)c6ccc([nH]6)c(-c6c(F)cc(S(=O)(=O)[O-])cc6F)c6nc(c(-c7c(F)cc(S(=O)(=O)[O-])cc7F)c7ccc4[nH]7)C=C6)C=C5)cc3)CC2)N1
REMARK SMILES IDX 24 1 23 2 22 3 20 4 21 5 12 7 7 8 8 9 9 10 10 11 96 12 11 13
REMARK SMILES IDX 95 14 6 15 5 16 1 17 2 18 3 19 97 20 4 21 13 23 14 24 15 25
REMARK SMILES IDX 19 26 16 27 18 28 17 29 25 30 26 31 27 32 28 34 29 35 30 36
REMARK SMILES IDX 94 37 31 38 93 39 32 40 33 41 34 42 87 43 35 44 92 45 86 46
REMARK SMILES IDX 88 47 36 48 91 49 85 50 84 51 37 53 71 54 50 55 70 56 51 57
REMARK SMILES IDX 54 58 69 59 89 60 52 61 53 62 68 64 90 65 55 66 38 67 39 68
REMARK SMILES IDX 48 69 40 70 41 71 47 72 49 73 42 74 43 75 44 76 45 77 46 78
REMARK SMILES IDX 72 79 73 80 82 81 74 82 75 83 81 84 83 85 76 86 77 87 78 88
REMARK SMILES IDX 79 89 80 90 56 91 57 92 66 93 58 94 59 95 65 96 67 97 60 98
REMARK SMILES IDX 61 99 62 100 63 101 64 102
REMARK H PARENT 22 6 97 22 26 33 88 52 54 63
REMARK Flexibility Score: inf
ROOT
ATOM      1  C   UNL A   1      33.310  27.164  25.297  1.00  0.00     0.042 C 
ENDROOT
BRANCH   1   2
ATOM      2  C   UNL A   1      33.886  25.827  24.863  1.00  0.00     0.118 C 
BRANCH   2   3
ATOM      3  N   UNL A   1      33.949  24.909  25.978  1.00  0.00    -0.353 N 
ATOM      4  C   UNL A   1      34.392  23.629  26.042  1.00  0.00     0.264 C 
ATOM      5  O   UNL A   1      34.374  23.126  27.172  1.00  0.00    -0.270 OA
ATOM      6  H   UNL A   1      33.617  25.274  26.831  1.00  0.00     0.163 HD
BRANCH   4   7
ATOM      7  C   UNL A   1      34.910  22.868  24.787  1.00  0.00     0.190 C 
ATOM      8  C   UNL A   1      32.509  19.699  23.551  1.00  0.00     0.224 C 
ATOM      9  O   UNL A   1      32.286  19.820  22.339  1.00  0.00    -0.275 OA
ATOM     10  N   UNL A   1      32.897  20.798  24.291  1.00  0.00    -0.342 N 
ATOM     11  C   UNL A   1      32.644  22.155  23.804  1.00  0.00     0.124 C 
ATOM     12  C   UNL A   1      33.749  20.743  25.452  1.00  0.00     0.124 C 
ATOM     13  C   UNL A   1      33.943  22.928  23.583  1.00  0.00     0.080 C 
ATOM     14  C   UNL A   1      35.098  21.401  25.192  1.00  0.00     0.080 C 
BRANCH   8  15
ATOM     15  C   UNL A   1      32.110  18.364  24.212  1.00  0.00     0.125 C 
BRANCH  15  16
ATOM     16  C   UNL A   1      32.955  17.458  25.110  1.00  0.00     0.091 C 
ATOM     17  O   UNL A   1      33.221  13.982  25.552  1.00  0.00    -0.275 OA
ATOM     18  C   UNL A   1      33.416  15.166  25.328  1.00  0.00     0.220 C 
ATOM     19  C   UNL A   1      34.730  15.787  24.921  1.00  0.00     0.102 C 
ATOM     20  N   UNL A   1      32.448  16.143  25.364  1.00  0.00    -0.353 N 
ATOM     21  C   UNL A   1      34.414  17.267  24.685  1.00  0.00     0.035 C 
ATOM     22  H   UNL A   1      31.498  15.956  25.547  1.00  0.00     0.163 HD
ENDBRANCH  15  16
ENDBRANCH   8  15
BRANCH   7  23
ATOM     23  O   UNL A   1      36.186  23.528  24.583  1.00  0.00    -0.477 OA
BRANCH  23  24
ATOM     24  C   UNL A   1      37.267  23.085  25.281  1.00  0.00     0.120 A 
ATOM     25  C   UNL A   1      37.915  23.984  26.125  1.00  0.00     0.046 A 
ATOM     26  C   UNL A   1      37.817  21.827  25.045  1.00  0.00     0.046 A 
ATOM     27  C   UNL A   1      39.073  23.594  26.797  1.00  0.00     0.004 A 
ATOM     28  C   UNL A   1      38.960  21.426  25.735  1.00  0.00     0.004 A 
ATOM     29  C   UNL A   1      39.585  22.308  26.615  1.00  0.00     0.000 A 
ENDBRANCH  23  24
ENDBRANCH   7  23
ENDBRANCH   4   7
ENDBRANCH   2   3
ENDBRANCH   1   2
BRANCH   1  30
ATOM     30  C   UNL A   1      34.236  27.947  26.217  1.00  0.00     0.118 C 
BRANCH  30  31
ATOM     31  N   UNL A   1      33.860  29.350  26.316  1.00  0.00    -0.352 N 
ATOM     32  C   UNL A   1      34.357  30.332  27.134  1.00  0.00     0.251 C 
ATOM     33  H   UNL A   1      33.142  29.635  25.705  1.00  0.00     0.163 HD
ATOM     34  O   UNL A   1      33.751  31.392  27.252  1.00  0.00    -0.269 OA
BRANCH  32  35
ATOM     35  C   UNL A   1      35.611  30.100  27.881  1.00  0.00     0.039 A 
ATOM     36  C   UNL A   1      35.542  29.631  29.194  1.00  0.00     0.014 A 
ATOM     37  C   UNL A   1      36.850  30.344  27.284  1.00  0.00     0.014 A 
ATOM     38  C   UNL A   1      36.721  29.349  29.885  1.00  0.00     0.010 A 
ATOM     39  C   UNL A   1      38.018  29.971  27.937  1.00  0.00     0.010 A 
ATOM     40  C   UNL A   1      37.968  29.480  29.250  1.00  0.00    -0.014 A 
BRANCH  40  41
ATOM     41  C   UNL A   1      39.229  29.119  29.943  1.00  0.00     0.031 A 
ATOM     42  C   UNL A   1      39.664  29.882  31.165  1.00  0.00     0.074 A 
ATOM     43  C   UNL A   1      40.010  28.144  29.436  1.00  0.00     0.049 A 
ATOM     44  N   UNL A   1      40.758  29.758  31.869  1.00  0.00    -0.248 NA
ATOM     45  C   UNL A   1      38.763  30.944  31.642  1.00  0.00     0.031 C 
ATOM     46  C   UNL A   1      39.718  27.368  28.228  1.00  0.00     0.029 A 
ATOM     47  N   UNL A   1      41.214  27.646  29.866  1.00  0.00    -0.354 N 
ATOM     48  C   UNL A   1      40.683  30.729  32.861  1.00  0.00     0.074 A 
ATOM     49  C   UNL A   1      39.466  31.475  32.632  1.00  0.00     0.031 C 
ATOM     50  C   UNL A   1      40.700  26.474  28.031  1.00  0.00     0.029 A 
ATOM     51  C   UNL A   1      41.713  26.642  29.069  1.00  0.00     0.049 A 
ATOM     52  H   UNL A   1      41.677  27.974  30.670  1.00  0.00     0.167 HD
ATOM     53  C   UNL A   1      41.538  30.960  33.886  1.00  0.00     0.037 A 
ATOM     54  C   UNL A   1      42.861  25.944  29.156  1.00  0.00     0.037 A 
ATOM     55  C   UNL A   1      42.737  30.197  34.117  1.00  0.00     0.049 A 
ATOM     56  C   UNL A   1      43.801  26.228  30.296  1.00  0.00     0.074 A 
ATOM     57  C   UNL A   1      43.643  30.314  35.157  1.00  0.00     0.029 A 
ATOM     58  N   UNL A   1      43.202  29.180  33.295  1.00  0.00    -0.354 N 
ATOM     59  N   UNL A   1      43.682  27.105  31.265  1.00  0.00    -0.248 NA
ATOM     60  C   UNL A   1      45.030  25.424  30.361  1.00  0.00     0.031 C 
ATOM     61  C   UNL A   1      44.684  29.407  34.933  1.00  0.00     0.029 A 
ATOM     62  C   UNL A   1      44.396  28.680  33.789  1.00  0.00     0.049 A 
ATOM     63  H   UNL A   1      42.751  28.862  32.480  1.00  0.00     0.167 HD
ATOM     64  C   UNL A   1      44.804  26.937  32.070  1.00  0.00     0.074 A 
ATOM     65  C   UNL A   1      45.582  25.867  31.482  1.00  0.00     0.031 C 
ATOM     66  C   UNL A   1      45.156  27.608  33.195  1.00  0.00     0.037 A 
BRANCH  53  67
ATOM     67  C   UNL A   1      41.208  32.081  34.835  1.00  0.00     0.058 A 
ATOM     68  C   UNL A   1      41.689  33.385  34.634  1.00  0.00     0.135 A 
ATOM     69  C   UNL A   1      40.369  31.859  35.939  1.00  0.00     0.135 A 
ATOM     70  F   UNL A   1      42.509  33.653  33.605  1.00  0.00    -0.206 F 
ATOM     71  C   UNL A   1      41.376  34.421  35.509  1.00  0.00     0.059 A 
ATOM     72  C   UNL A   1      40.015  32.886  36.808  1.00  0.00     0.059 A 
ATOM     73  F   UNL A   1      39.881  30.632  36.181  1.00  0.00    -0.206 F 
ATOM     74  C   UNL A   1      40.535  34.161  36.592  1.00  0.00     0.060 A 
BRANCH  74  75
ATOM     75  S   UNL A   1      40.132  35.519  37.712  1.00  0.00     0.124 S 
ATOM     76  O   UNL A   1      38.976  34.979  38.420  1.00  0.00    -0.237 OA
ATOM     77  O   UNL A   1      41.355  35.646  38.498  1.00  0.00    -0.237 OA
ATOM     78  O   UNL A   1      39.852  36.632  36.810  1.00  0.00    -0.744 OA
ENDBRANCH  74  75
ENDBRANCH  53  67
BRANCH  54  79
ATOM     79  C   UNL A   1      43.175  24.898  28.146  1.00  0.00     0.058 A 
ATOM     80  C   UNL A   1      42.842  23.553  28.369  1.00  0.00     0.135 A 
ATOM     81  C   UNL A   1      43.803  25.221  26.932  1.00  0.00     0.135 A 
ATOM     82  F   UNL A   1      42.245  23.193  29.515  1.00  0.00    -0.206 F 
ATOM     83  C   UNL A   1      43.137  22.564  27.437  1.00  0.00     0.059 A 
ATOM     84  C   UNL A   1      44.082  24.254  25.972  1.00  0.00     0.059 A 
ATOM     85  F   UNL A   1      44.127  26.495  26.661  1.00  0.00    -0.206 F 
ATOM     86  C   UNL A   1      43.755  22.926  26.239  1.00  0.00     0.060 A 
BRANCH  86  87
ATOM     87  S   UNL A   1      44.092  21.639  25.016  1.00  0.00     0.124 S 
ATOM     88  O   UNL A   1      43.953  22.378  23.768  1.00  0.00    -0.237 OA
ATOM     89  O   UNL A   1      45.447  21.229  25.371  1.00  0.00    -0.237 OA
ATOM     90  O   UNL A   1      43.055  20.645  25.282  1.00  0.00    -0.744 OA
ENDBRANCH  86  87
ENDBRANCH  54  79
BRANCH  66  91
ATOM     91  C   UNL A   1      46.419  27.180  33.892  1.00  0.00     0.058 A 
ATOM     92  C   UNL A   1      46.422  26.168  34.865  1.00  0.00     0.135 A 
ATOM     93  C   UNL A   1      47.653  27.753  33.539  1.00  0.00     0.135 A 
ATOM     94  F   UNL A   1      45.271  25.590  35.244  1.00  0.00    -0.206 F 
ATOM     95  C   UNL A   1      47.599  25.758  35.483  1.00  0.00     0.059 A 
ATOM     96  C   UNL A   1      48.846  27.336  34.121  1.00  0.00     0.059 A 
ATOM     97  F   UNL A   1      47.708  28.717  32.607  1.00  0.00    -0.206 F 
ATOM     98  C   UNL A   1      48.807  26.346  35.101  1.00  0.00     0.060 A 
BRANCH  98  99
ATOM     99  S   UNL A   1      50.331  25.779  35.886  1.00  0.00     0.124 S 
ATOM    100  O   UNL A   1      51.346  26.361  35.013  1.00  0.00    -0.237 OA
ATOM    101  O   UNL A   1      50.229  26.362  37.220  1.00  0.00    -0.237 OA
ATOM    102  O   UNL A   1      50.218  24.324  35.833  1.00  0.00    -0.744 OA
ENDBRANCH  98  99
ENDBRANCH  66  91
ENDBRANCH  40  41
ENDBRANCH  32  35
ENDBRANCH  30  31
ENDBRANCH   1  30
TORSDOF 17
ENDMDL
