MODEL 1
REMARK VINA RESULT:     -13.1      0.000      0.000
REMARK SMILES CC(=O)NS(=O)(=O)c1ccc(-c2ccn(C(F)F)c(=O)c2)cc1C(=O)NCCCNC(=O)c1ccc(-c2c3nc(c(-c4c(F)cc(S(=O)(=O)[O-])cc4F)c4ccc([nH]4)c(-c4c(F)cc(S(=O)(=O)[O-])cc4F)c4nc(c(-c5c(F)cc(S(=O)(=O)[O-])cc5F)c5ccc2[nH]5)C=C4)C=C3)cc1
REMARK SMILES IDX 28 1 27 2 26 3 24 4 25 5 23 7 8 8 9 9 10 10 22 11 11 12 5 13
REMARK SMILES IDX 6 14 7 15 4 16 1 17 2 18 3 19 12 21 13 22 21 23 14 24 19 25
REMARK SMILES IDX 15 26 20 27 16 28 17 29 18 30 29 31 30 32 31 33 32 35 33 36
REMARK SMILES IDX 34 37 98 38 35 39 97 40 36 41 37 42 38 43 91 44 39 45 96 46
REMARK SMILES IDX 90 47 92 48 40 49 95 50 89 51 88 52 41 54 75 55 54 56 74 57
REMARK SMILES IDX 55 58 58 59 73 60 93 61 56 62 57 63 72 65 94 66 59 67 42 68
REMARK SMILES IDX 43 69 52 70 44 71 45 72 51 73 53 74 46 75 47 76 48 77 49 78
REMARK SMILES IDX 50 79 76 80 77 81 86 82 78 83 79 84 85 85 87 86 80 87 81 88
REMARK SMILES IDX 82 89 83 90 84 91 60 92 61 93 70 94 62 95 63 96 69 97 71 98
REMARK SMILES IDX 64 99 65 100 66 101 67 102 68 103
REMARK H PARENT 26 6 4 20 30 34 92 53 58 64
REMARK Flexibility Score: inf
ROOT
ATOM      1  C   UNL A   1      33.707  30.934  27.137  1.00  0.00     0.042 C 
ENDROOT
BRANCH   1   2
ATOM      2  C   UNL A   1      32.960  29.838  26.377  1.00  0.00     0.118 C 
BRANCH   2   3
ATOM      3  N   UNL A   1      33.254  29.811  24.953  1.00  0.00    -0.352 N 
ATOM      4  C   UNL A   1      33.049  28.855  24.001  1.00  0.00     0.252 C 
ATOM      5  O   UNL A   1      33.345  29.105  22.834  1.00  0.00    -0.269 OA
ATOM      6  H   UNL A   1      33.678  30.631  24.615  1.00  0.00     0.163 HD
BRANCH   4   7
ATOM      7  C   UNL A   1      32.526  27.509  24.299  1.00  0.00     0.060 A 
ATOM      8  C   UNL A   1      31.233  27.051  24.044  1.00  0.00     0.100 A 
ATOM      9  C   UNL A   1      30.896  25.715  24.331  1.00  0.00     0.024 A 
ATOM     10  C   UNL A   1      31.874  24.803  24.723  1.00  0.00     0.010 A 
ATOM     11  C   UNL A   1      33.514  26.566  24.666  1.00  0.00     0.024 A 
ATOM     12  C   UNL A   1      33.208  25.206  24.814  1.00  0.00    -0.017 A 
BRANCH   8  13
ATOM     13  S   UNL A   1      30.017  27.944  23.115  1.00  0.00     0.264 S 
ATOM     14  O   UNL A   1      28.736  27.404  23.500  1.00  0.00    -0.201 OA
ATOM     15  O   UNL A   1      30.440  27.916  21.730  1.00  0.00    -0.201 OA
BRANCH  13  16
ATOM     16  N   UNL A   1      30.072  29.516  23.608  1.00  0.00    -0.249 N 
ATOM     17  C   UNL A   1      28.210  30.480  22.223  1.00  0.00     0.115 C 
ATOM     18  C   UNL A   1      29.142  30.546  23.401  1.00  0.00     0.230 C 
ATOM     19  O   UNL A   1      29.187  31.526  24.132  1.00  0.00    -0.274 OA
ATOM     20  H   UNL A   1      30.872  29.768  24.122  1.00  0.00     0.183 HD
ENDBRANCH  13  16
ENDBRANCH   8  13
BRANCH  12  21
ATOM     21  C   UNL A   1      34.290  24.201  24.882  1.00  0.00    -0.011 A 
ATOM     22  C   UNL A   1      34.690  23.502  26.086  1.00  0.00     0.027 A 
ATOM     23  C   UNL A   1      35.000  24.005  23.754  1.00  0.00     0.080 A 
ATOM     24  C   UNL A   1      35.756  22.690  26.077  1.00  0.00     0.095 A 
ATOM     25  C   UNL A   1      36.168  23.089  23.720  1.00  0.00     0.255 A 
ATOM     26  N   UNL A   1      36.494  22.487  24.924  1.00  0.00    -0.258 N 
ATOM     27  O   UNL A   1      36.763  22.937  22.658  1.00  0.00    -0.269 OA
BRANCH  26  28
ATOM     28  C   UNL A   1      37.652  21.632  24.926  1.00  0.00     0.451 C 
ATOM     29  F   UNL A   1      38.539  22.013  25.877  1.00  0.00    -0.185 F 
ATOM     30  F   UNL A   1      37.306  20.344  25.170  1.00  0.00    -0.185 F 
ENDBRANCH  26  28
ENDBRANCH  12  21
ENDBRANCH   4   7
ENDBRANCH   2   3
ENDBRANCH   1   2
BRANCH   1  31
ATOM     31  C   UNL A   1      34.924  30.469  27.939  1.00  0.00     0.118 C 
BRANCH  31  32
ATOM     32  N   UNL A   1      35.084  31.132  29.227  1.00  0.00    -0.352 N 
ATOM     33  C   UNL A   1      36.100  31.149  30.148  1.00  0.00     0.251 C 
ATOM     34  H   UNL A   1      34.306  31.676  29.488  1.00  0.00     0.163 HD
ATOM     35  O   UNL A   1      35.882  31.676  31.239  1.00  0.00    -0.269 OA
BRANCH  33  36
ATOM     36  C   UNL A   1      37.425  30.538  29.889  1.00  0.00     0.039 A 
ATOM     37  C   UNL A   1      37.970  30.653  28.604  1.00  0.00     0.014 A 
ATOM     38  C   UNL A   1      38.104  29.788  30.850  1.00  0.00     0.014 A 
ATOM     39  C   UNL A   1      39.222  30.101  28.311  1.00  0.00     0.010 A 
ATOM     40  C   UNL A   1      39.385  29.300  30.581  1.00  0.00     0.010 A 
ATOM     41  C   UNL A   1      39.968  29.465  29.314  1.00  0.00    -0.014 A 
BRANCH  41  42
ATOM     42  C   UNL A   1      41.359  28.989  29.086  1.00  0.00     0.031 A 
ATOM     43  C   UNL A   1      42.514  29.946  29.191  1.00  0.00     0.074 A 
ATOM     44  C   UNL A   1      41.586  27.728  28.669  1.00  0.00     0.049 A 
ATOM     45  N   UNL A   1      43.729  29.824  28.719  1.00  0.00    -0.248 NA
ATOM     46  C   UNL A   1      42.259  31.219  29.879  1.00  0.00     0.031 C 
ATOM     47  C   UNL A   1      40.569  26.688  28.496  1.00  0.00     0.029 A 
ATOM     48  N   UNL A   1      42.754  27.114  28.293  1.00  0.00    -0.354 N 
ATOM     49  C   UNL A   1      44.346  31.047  28.949  1.00  0.00     0.074 A 
ATOM     50  C   UNL A   1      43.393  31.873  29.662  1.00  0.00     0.031 C 
ATOM     51  C   UNL A   1      41.162  25.558  28.077  1.00  0.00     0.029 A 
ATOM     52  C   UNL A   1      42.588  25.810  27.898  1.00  0.00     0.049 A 
ATOM     53  H   UNL A   1      43.629  27.567  28.305  1.00  0.00     0.167 HD
ATOM     54  C   UNL A   1      45.579  31.453  28.562  1.00  0.00     0.037 A 
ATOM     55  C   UNL A   1      43.477  24.918  27.420  1.00  0.00     0.037 A 
ATOM     56  C   UNL A   1      46.558  30.605  27.936  1.00  0.00     0.049 A 
ATOM     57  C   UNL A   1      44.901  25.328  27.201  1.00  0.00     0.074 A 
ATOM     58  C   UNL A   1      47.826  30.929  27.482  1.00  0.00     0.029 A 
ATOM     59  N   UNL A   1      46.393  29.246  27.717  1.00  0.00    -0.354 N 
ATOM     60  N   UNL A   1      45.439  26.517  27.324  1.00  0.00    -0.248 NA
ATOM     61  C   UNL A   1      45.836  24.281  26.765  1.00  0.00     0.031 C 
ATOM     62  C   UNL A   1      48.437  29.758  27.012  1.00  0.00     0.029 A 
ATOM     63  C   UNL A   1      47.550  28.708  27.178  1.00  0.00     0.049 A 
ATOM     64  H   UNL A   1      45.574  28.738  27.917  1.00  0.00     0.167 HD
ATOM     65  C   UNL A   1      46.772  26.365  26.967  1.00  0.00     0.074 A 
ATOM     66  C   UNL A   1      46.967  24.965  26.647  1.00  0.00     0.031 C 
ATOM     67  C   UNL A   1      47.740  27.310  26.889  1.00  0.00     0.037 A 
BRANCH  54  68
ATOM     68  C   UNL A   1      45.903  32.903  28.754  1.00  0.00     0.058 A 
ATOM     69  C   UNL A   1      45.629  33.865  27.773  1.00  0.00     0.135 A 
ATOM     70  C   UNL A   1      46.520  33.326  29.942  1.00  0.00     0.135 A 
ATOM     71  F   UNL A   1      45.059  33.502  26.614  1.00  0.00    -0.206 F 
ATOM     72  C   UNL A   1      45.981  35.200  27.951  1.00  0.00     0.059 A 
ATOM     73  C   UNL A   1      46.870  34.655  30.146  1.00  0.00     0.059 A 
ATOM     74  F   UNL A   1      46.809  32.438  30.908  1.00  0.00    -0.206 F 
ATOM     75  C   UNL A   1      46.614  35.582  29.136  1.00  0.00     0.060 A 
BRANCH  75  76
ATOM     76  S   UNL A   1      47.116  37.299  29.376  1.00  0.00     0.124 S 
ATOM     77  O   UNL A   1      46.133  37.752  30.355  1.00  0.00    -0.237 OA
ATOM     78  O   UNL A   1      48.486  37.178  29.866  1.00  0.00    -0.237 OA
ATOM     79  O   UNL A   1      46.983  37.866  28.038  1.00  0.00    -0.744 OA
ENDBRANCH  75  76
ENDBRANCH  54  68
BRANCH  55  80
ATOM     80  C   UNL A   1      43.028  23.539  27.121  1.00  0.00     0.058 A 
ATOM     81  C   UNL A   1      42.778  23.147  25.800  1.00  0.00     0.135 A 
ATOM     82  C   UNL A   1      42.900  22.580  28.135  1.00  0.00     0.135 A 
ATOM     83  F   UNL A   1      42.890  24.038  24.803  1.00  0.00    -0.206 F 
ATOM     84  C   UNL A   1      42.420  21.840  25.487  1.00  0.00     0.059 A 
ATOM     85  C   UNL A   1      42.552  21.265  27.845  1.00  0.00     0.059 A 
ATOM     86  F   UNL A   1      43.147  22.912  29.411  1.00  0.00    -0.206 F 
ATOM     87  C   UNL A   1      42.312  20.905  26.517  1.00  0.00     0.060 A 
BRANCH  87  88
ATOM     88  S   UNL A   1      41.938  19.184  26.119  1.00  0.00     0.124 S 
ATOM     89  O   UNL A   1      42.745  18.978  24.922  1.00  0.00    -0.237 OA
ATOM     90  O   UNL A   1      42.379  18.473  27.316  1.00  0.00    -0.237 OA
ATOM     91  O   UNL A   1      40.492  19.208  25.916  1.00  0.00    -0.744 OA
ENDBRANCH  87  88
ENDBRANCH  55  80
BRANCH  67  92
ATOM     92  C   UNL A   1      49.099  26.856  26.460  1.00  0.00     0.058 A 
ATOM     93  C   UNL A   1      49.994  26.284  27.375  1.00  0.00     0.135 A 
ATOM     94  C   UNL A   1      49.504  26.975  25.122  1.00  0.00     0.135 A 
ATOM     95  F   UNL A   1      49.649  26.155  28.666  1.00  0.00    -0.206 F 
ATOM     96  C   UNL A   1      51.255  25.850  26.981  1.00  0.00     0.059 A 
ATOM     97  C   UNL A   1      50.759  26.545  24.705  1.00  0.00     0.059 A 
ATOM     98  F   UNL A   1      48.681  27.521  24.214  1.00  0.00    -0.206 F 
ATOM     99  C   UNL A   1      51.632  25.993  25.644  1.00  0.00     0.060 A 
BRANCH  99 100
ATOM    100  S   UNL A   1      53.261  25.414  25.117  1.00  0.00     0.124 S 
ATOM    101  O   UNL A   1      54.143  26.269  25.904  1.00  0.00    -0.237 OA
ATOM    102  O   UNL A   1      53.243  24.004  25.494  1.00  0.00    -0.237 OA
ATOM    103  O   UNL A   1      53.251  25.670  23.680  1.00  0.00    -0.744 OA
ENDBRANCH  99 100
ENDBRANCH  67  92
ENDBRANCH  41  42
ENDBRANCH  33  36
ENDBRANCH  31  32
ENDBRANCH   1  31
TORSDOF 17
ENDMDL
MODEL 2
REMARK VINA RESULT:     -13.0      2.342      3.121
REMARK SMILES CC(=O)NS(=O)(=O)c1ccc(-c2ccn(C(F)F)c(=O)c2)cc1C(=O)NCCCNC(=O)c1ccc(-c2c3nc(c(-c4c(F)cc(S(=O)(=O)[O-])cc4F)c4ccc([nH]4)c(-c4c(F)cc(S(=O)(=O)[O-])cc4F)c4nc(c(-c5c(F)cc(S(=O)(=O)[O-])cc5F)c5ccc2[nH]5)C=C4)C=C3)cc1
REMARK SMILES IDX 28 1 27 2 26 3 24 4 25 5 23 7 8 8 9 9 10 10 22 11 11 12 5 13
REMARK SMILES IDX 6 14 7 15 4 16 1 17 2 18 3 19 12 21 13 22 21 23 14 24 19 25
REMARK SMILES IDX 15 26 20 27 16 28 17 29 18 30 29 31 30 32 31 33 32 35 33 36
REMARK SMILES IDX 34 37 98 38 35 39 97 40 36 41 37 42 38 43 91 44 39 45 96 46
REMARK SMILES IDX 90 47 92 48 40 49 95 50 89 51 88 52 41 54 75 55 54 56 74 57
REMARK SMILES IDX 55 58 58 59 73 60 93 61 56 62 57 63 72 65 94 66 59 67 42 68
REMARK SMILES IDX 43 69 52 70 44 71 45 72 51 73 53 74 46 75 47 76 48 77 49 78
REMARK SMILES IDX 50 79 76 80 77 81 86 82 78 83 79 84 85 85 87 86 80 87 81 88
REMARK SMILES IDX 82 89 83 90 84 91 60 92 61 93 70 94 62 95 63 96 69 97 71 98
REMARK SMILES IDX 64 99 65 100 66 101 67 102 68 103
REMARK H PARENT 26 6 4 20 30 34 92 53 58 64
REMARK Flexibility Score: inf
ROOT
ATOM      1  C   UNL A   1      32.065  27.742  27.346  1.00  0.00     0.042 C 
ENDROOT
BRANCH   1   2
ATOM      2  C   UNL A   1      31.828  26.519  26.460  1.00  0.00     0.118 C 
BRANCH   2   3
ATOM      3  N   UNL A   1      30.611  26.598  25.668  1.00  0.00    -0.352 N 
ATOM      4  C   UNL A   1      30.257  26.022  24.483  1.00  0.00     0.252 C 
ATOM      5  O   UNL A   1      29.124  26.211  24.043  1.00  0.00    -0.269 OA
ATOM      6  H   UNL A   1      29.915  27.173  26.059  1.00  0.00     0.163 HD
BRANCH   4   7
ATOM      7  C   UNL A   1      31.179  25.209  23.667  1.00  0.00     0.060 A 
ATOM      8  C   UNL A   1      32.140  25.694  22.780  1.00  0.00     0.100 A 
ATOM      9  C   UNL A   1      32.991  24.794  22.112  1.00  0.00     0.024 A 
ATOM     10  C   UNL A   1      32.991  23.439  22.439  1.00  0.00     0.010 A 
ATOM     11  C   UNL A   1      31.211  23.838  24.013  1.00  0.00     0.024 A 
ATOM     12  C   UNL A   1      32.155  22.965  23.453  1.00  0.00    -0.017 A 
BRANCH   8  13
ATOM     13  S   UNL A   1      32.582  27.401  22.612  1.00  0.00     0.264 S 
ATOM     14  O   UNL A   1      33.695  27.444  21.697  1.00  0.00    -0.201 OA
ATOM     15  O   UNL A   1      32.710  27.938  23.952  1.00  0.00    -0.201 OA
BRANCH  13  16
ATOM     16  N   UNL A   1      31.312  28.175  21.900  1.00  0.00    -0.249 N 
ATOM     17  C   UNL A   1      30.501  29.565  23.829  1.00  0.00     0.115 C 
ATOM     18  C   UNL A   1      30.573  29.277  22.355  1.00  0.00     0.230 C 
ATOM     19  O   UNL A   1      29.919  29.916  21.541  1.00  0.00    -0.274 OA
ATOM     20  H   UNL A   1      31.033  27.812  21.029  1.00  0.00     0.183 HD
ENDBRANCH  13  16
ENDBRANCH   8  13
BRANCH  12  21
ATOM     21  C   UNL A   1      32.384  21.632  24.049  1.00  0.00    -0.011 A 
ATOM     22  C   UNL A   1      32.873  21.403  25.393  1.00  0.00     0.027 A 
ATOM     23  C   UNL A   1      32.205  20.573  23.237  1.00  0.00     0.080 A 
ATOM     24  C   UNL A   1      33.158  20.162  25.809  1.00  0.00     0.095 A 
ATOM     25  C   UNL A   1      32.490  19.187  23.691  1.00  0.00     0.255 A 
ATOM     26  N   UNL A   1      32.981  19.068  24.979  1.00  0.00    -0.258 N 
ATOM     27  O   UNL A   1      32.288  18.262  22.911  1.00  0.00    -0.269 OA
BRANCH  26  28
ATOM     28  C   UNL A   1      33.310  17.740  25.425  1.00  0.00     0.451 C 
ATOM     29  F   UNL A   1      32.217  16.938  25.422  1.00  0.00    -0.185 F 
ATOM     30  F   UNL A   1      34.244  17.173  24.622  1.00  0.00    -0.185 F 
ENDBRANCH  26  28
ENDBRANCH  12  21
ENDBRANCH   4   7
ENDBRANCH   2   3
ENDBRANCH   1   2
BRANCH   1  31
ATOM     31  C   UNL A   1      33.413  28.441  27.160  1.00  0.00     0.118 C 
BRANCH  31  32
ATOM     32  N   UNL A   1      33.458  29.805  27.670  1.00  0.00    -0.352 N 
ATOM     33  C   UNL A   1      34.436  30.536  28.294  1.00  0.00     0.251 C 
ATOM     34  H   UNL A   1      32.618  30.300  27.540  1.00  0.00     0.163 HD
ATOM     35  O   UNL A   1      34.127  31.630  28.767  1.00  0.00    -0.269 OA
BRANCH  33  36
ATOM     36  C   UNL A   1      35.827  30.048  28.444  1.00  0.00     0.039 A 
ATOM     37  C   UNL A   1      36.671  30.094  27.326  1.00  0.00     0.014 A 
ATOM     38  C   UNL A   1      36.297  29.474  29.626  1.00  0.00     0.014 A 
ATOM     39  C   UNL A   1      37.996  29.653  27.419  1.00  0.00     0.010 A 
ATOM     40  C   UNL A   1      37.638  29.103  29.740  1.00  0.00     0.010 A 
ATOM     41  C   UNL A   1      38.509  29.203  28.644  1.00  0.00    -0.014 A 
BRANCH  41  42
ATOM     42  C   UNL A   1      39.946  28.859  28.823  1.00  0.00     0.031 A 
ATOM     43  C   UNL A   1      40.927  29.908  29.266  1.00  0.00     0.074 A 
ATOM     44  C   UNL A   1      40.401  27.639  28.476  1.00  0.00     0.049 A 
ATOM     45  N   UNL A   1      42.232  29.911  29.164  1.00  0.00    -0.248 NA
ATOM     46  C   UNL A   1      40.366  31.129  29.864  1.00  0.00     0.031 C 
ATOM     47  C   UNL A   1      39.579  26.521  28.007  1.00  0.00     0.029 A 
ATOM     48  N   UNL A   1      41.680  27.143  28.448  1.00  0.00    -0.354 N 
ATOM     49  C   UNL A   1      42.639  31.173  29.575  1.00  0.00     0.074 A 
ATOM     50  C   UNL A   1      41.448  31.886  29.991  1.00  0.00     0.031 C 
ATOM     51  C   UNL A   1      40.371  25.464  27.765  1.00  0.00     0.029 A 
ATOM     52  C   UNL A   1      41.758  25.845  28.009  1.00  0.00     0.049 A 
ATOM     53  H   UNL A   1      42.468  27.670  28.717  1.00  0.00     0.167 HD
ATOM     54  C   UNL A   1      43.887  31.699  29.566  1.00  0.00     0.037 A 
ATOM     55  C   UNL A   1      42.826  25.052  27.799  1.00  0.00     0.037 A 
ATOM     56  C   UNL A   1      45.080  30.964  29.240  1.00  0.00     0.049 A 
ATOM     57  C   UNL A   1      44.208  25.593  28.005  1.00  0.00     0.074 A 
ATOM     58  C   UNL A   1      46.389  31.413  29.175  1.00  0.00     0.029 A 
ATOM     59  N   UNL A   1      45.114  29.604  28.970  1.00  0.00    -0.354 N 
ATOM     60  N   UNL A   1      44.574  26.818  28.291  1.00  0.00    -0.248 NA
ATOM     61  C   UNL A   1      45.323  24.648  27.848  1.00  0.00     0.031 C 
ATOM     62  C   UNL A   1      47.217  30.318  28.891  1.00  0.00     0.029 A 
ATOM     63  C   UNL A   1      46.422  29.190  28.782  1.00  0.00     0.049 A 
ATOM     64  H   UNL A   1      44.324  29.020  28.919  1.00  0.00     0.167 HD
ATOM     65  C   UNL A   1      45.961  26.797  28.333  1.00  0.00     0.074 A 
ATOM     66  C   UNL A   1      46.370  25.432  28.068  1.00  0.00     0.031 C 
ATOM     67  C   UNL A   1      46.817  27.825  28.547  1.00  0.00     0.037 A 
BRANCH  54  68
ATOM     68  C   UNL A   1      44.005  33.164  29.857  1.00  0.00     0.058 A 
ATOM     69  C   UNL A   1      44.189  33.653  31.157  1.00  0.00     0.135 A 
ATOM     70  C   UNL A   1      43.910  34.091  28.808  1.00  0.00     0.135 A 
ATOM     71  F   UNL A   1      44.264  32.803  32.193  1.00  0.00    -0.206 F 
ATOM     72  C   UNL A   1      44.250  35.020  31.413  1.00  0.00     0.059 A 
ATOM     73  C   UNL A   1      43.979  35.460  29.039  1.00  0.00     0.059 A 
ATOM     74  F   UNL A   1      43.727  33.669  27.546  1.00  0.00    -0.206 F 
ATOM     75  C   UNL A   1      44.129  35.916  30.349  1.00  0.00     0.060 A 
BRANCH  75  76
ATOM     76  S   UNL A   1      44.164  37.693  30.658  1.00  0.00     0.124 S 
ATOM     77  O   UNL A   1      43.721  37.752  32.048  1.00  0.00    -0.237 OA
ATOM     78  O   UNL A   1      45.562  38.043  30.426  1.00  0.00    -0.237 OA
ATOM     79  O   UNL A   1      43.221  38.213  29.672  1.00  0.00    -0.744 OA
ENDBRANCH  75  76
ENDBRANCH  54  68
BRANCH  55  80
ATOM     80  C   UNL A   1      42.614  23.651  27.370  1.00  0.00     0.058 A 
ATOM     81  C   UNL A   1      42.620  23.319  26.009  1.00  0.00     0.135 A 
ATOM     82  C   UNL A   1      42.462  22.618  28.306  1.00  0.00     0.135 A 
ATOM     83  F   UNL A   1      42.763  24.281  25.085  1.00  0.00    -0.206 F 
ATOM     84  C   UNL A   1      42.490  22.002  25.583  1.00  0.00     0.059 A 
ATOM     85  C   UNL A   1      42.338  21.293  27.904  1.00  0.00     0.059 A 
ATOM     86  F   UNL A   1      42.467  22.894  29.619  1.00  0.00    -0.206 F 
ATOM     87  C   UNL A   1      42.351  20.995  26.539  1.00  0.00     0.060 A 
BRANCH  87  88
ATOM     88  S   UNL A   1      42.272  19.271  26.008  1.00  0.00     0.124 S 
ATOM     89  O   UNL A   1      40.848  19.111  25.742  1.00  0.00    -0.237 OA
ATOM     90  O   UNL A   1      43.144  19.255  24.836  1.00  0.00    -0.237 OA
ATOM     91  O   UNL A   1      42.789  18.552  27.168  1.00  0.00    -0.744 OA
ENDBRANCH  87  88
ENDBRANCH  55  80
BRANCH  67  92
ATOM     92  C   UNL A   1      48.279  27.507  28.524  1.00  0.00     0.058 A 
ATOM     93  C   UNL A   1      48.983  27.422  27.315  1.00  0.00     0.135 A 
ATOM     94  C   UNL A   1      48.986  27.304  29.719  1.00  0.00     0.135 A 
ATOM     95  F   UNL A   1      48.344  27.604  26.148  1.00  0.00    -0.206 F 
ATOM     96  C   UNL A   1      50.344  27.136  27.287  1.00  0.00     0.059 A 
ATOM     97  C   UNL A   1      50.347  27.020  29.715  1.00  0.00     0.059 A 
ATOM     98  F   UNL A   1      48.350  27.372  30.899  1.00  0.00    -0.206 F 
ATOM     99  C   UNL A   1      51.016  26.929  28.493  1.00  0.00     0.060 A 
BRANCH  99 100
ATOM    100  S   UNL A   1      52.788  26.577  28.469  1.00  0.00     0.124 S 
ATOM    101  O   UNL A   1      53.348  27.908  28.265  1.00  0.00    -0.237 OA
ATOM    102  O   UNL A   1      53.020  25.986  29.784  1.00  0.00    -0.237 OA
ATOM    103  O   UNL A   1      52.925  25.655  27.345  1.00  0.00    -0.744 OA
ENDBRANCH  99 100
ENDBRANCH  67  92
ENDBRANCH  41  42
ENDBRANCH  33  36
ENDBRANCH  31  32
ENDBRANCH   1  31
TORSDOF 17
ENDMDL
MODEL 3
REMARK VINA RESULT:     -12.9      2.693      4.461
REMARK SMILES CC(=O)NS(=O)(=O)c1ccc(-c2ccn(C(F)F)c(=O)c2)cc1C(=O)NCCCNC(=O)c1ccc(-c2c3nc(c(-c4c(F)cc(S(=O)(=O)[O-])cc4F)c4ccc([nH]4)c(-c4c(F)cc(S(=O)(=O)[O-])cc4F)c4nc(c(-c5c(F)cc(S(=O)(=O)[O-])cc5F)c5ccc2[nH]5)C=C4)C=C3)cc1
REMARK SMILES IDX 28 1 27 2 26 3 24 4 25 5 23 7 8 8 9 9 10 10 22 11 11 12 5 13
REMARK SMILES IDX 6 14 7 15 4 16 1 17 2 18 3 19 12 21 13 22 21 23 14 24 19 25
REMARK SMILES IDX 15 26 20 27 16 28 17 29 18 30 29 31 30 32 31 33 32 35 33 36
REMARK SMILES IDX 34 37 98 38 35 39 97 40 36 41 37 42 38 43 91 44 39 45 96 46
REMARK SMILES IDX 90 47 92 48 40 49 95 50 89 51 88 52 41 54 75 55 54 56 74 57
REMARK SMILES IDX 55 58 58 59 73 60 93 61 56 62 57 63 72 65 94 66 59 67 42 68
REMARK SMILES IDX 43 69 52 70 44 71 45 72 51 73 53 74 46 75 47 76 48 77 49 78
REMARK SMILES IDX 50 79 76 80 77 81 86 82 78 83 79 84 85 85 87 86 80 87 81 88
REMARK SMILES IDX 82 89 83 90 84 91 60 92 61 93 70 94 62 95 63 96 69 97 71 98
REMARK SMILES IDX 64 99 65 100 66 101 67 102 68 103
REMARK H PARENT 26 6 4 20 30 34 92 53 58 64
REMARK Flexibility Score: inf
ROOT
ATOM      1  C   UNL A   1      32.993  28.935  27.087  1.00  0.00     0.042 C 
ENDROOT
BRANCH   1   2
ATOM      2  C   UNL A   1      32.628  27.451  27.081  1.00  0.00     0.118 C 
BRANCH   2   3
ATOM      3  N   UNL A   1      33.624  26.607  26.442  1.00  0.00    -0.352 N 
ATOM      4  C   UNL A   1      33.556  25.781  25.358  1.00  0.00     0.252 C 
ATOM      5  O   UNL A   1      34.577  25.207  24.981  1.00  0.00    -0.269 OA
ATOM      6  H   UNL A   1      34.510  26.637  26.869  1.00  0.00     0.163 HD
BRANCH   4   7
ATOM      7  C   UNL A   1      32.306  25.498  24.628  1.00  0.00     0.060 A 
ATOM      8  C   UNL A   1      31.524  24.349  24.745  1.00  0.00     0.100 A 
ATOM      9  C   UNL A   1      30.319  24.246  24.025  1.00  0.00     0.024 A 
ATOM     10  C   UNL A   1      29.820  25.337  23.315  1.00  0.00     0.010 A 
ATOM     11  C   UNL A   1      31.772  26.607  23.932  1.00  0.00     0.024 A 
ATOM     12  C   UNL A   1      30.506  26.554  23.333  1.00  0.00    -0.017 A 
BRANCH   8  13
ATOM     13  S   UNL A   1      31.777  23.082  25.958  1.00  0.00     0.264 S 
ATOM     14  O   UNL A   1      30.730  22.111  25.755  1.00  0.00    -0.201 OA
ATOM     15  O   UNL A   1      31.927  23.745  27.237  1.00  0.00    -0.201 OA
BRANCH  13  16
ATOM     16  N   UNL A   1      33.216  22.351  25.619  1.00  0.00    -0.249 N 
ATOM     17  C   UNL A   1      32.806  21.641  23.244  1.00  0.00     0.115 C 
ATOM     18  C   UNL A   1      33.740  21.948  24.382  1.00  0.00     0.230 C 
ATOM     19  O   UNL A   1      34.946  21.755  24.295  1.00  0.00    -0.274 OA
ATOM     20  H   UNL A   1      33.791  22.173  26.398  1.00  0.00     0.183 HD
ENDBRANCH  13  16
ENDBRANCH   8  13
BRANCH  12  21
ATOM     21  C   UNL A   1      29.835  27.796  22.893  1.00  0.00    -0.011 A 
ATOM     22  C   UNL A   1      30.509  28.923  22.282  1.00  0.00     0.027 A 
ATOM     23  C   UNL A   1      28.522  27.902  23.174  1.00  0.00     0.080 A 
ATOM     24  C   UNL A   1      29.839  30.054  22.019  1.00  0.00     0.095 A 
ATOM     25  C   UNL A   1      27.758  29.138  22.864  1.00  0.00     0.255 A 
ATOM     26  N   UNL A   1      28.491  30.172  22.308  1.00  0.00    -0.258 N 
ATOM     27  O   UNL A   1      26.560  29.166  23.126  1.00  0.00    -0.269 OA
BRANCH  26  28
ATOM     28  C   UNL A   1      27.781  31.397  22.044  1.00  0.00     0.451 C 
ATOM     29  F   UNL A   1      27.330  31.957  23.193  1.00  0.00    -0.185 F 
ATOM     30  F   UNL A   1      28.581  32.300  21.426  1.00  0.00    -0.185 F 
ENDBRANCH  26  28
ENDBRANCH  12  21
ENDBRANCH   4   7
ENDBRANCH   2   3
ENDBRANCH   1   2
BRANCH   1  31
ATOM     31  C   UNL A   1      34.445  29.257  27.445  1.00  0.00     0.118 C 
BRANCH  31  32
ATOM     32  N   UNL A   1      34.602  30.366  28.376  1.00  0.00    -0.352 N 
ATOM     33  C   UNL A   1      35.651  30.795  29.149  1.00  0.00     0.251 C 
ATOM     34  H   UNL A   1      33.793  30.918  28.470  1.00  0.00     0.163 HD
ATOM     35  O   UNL A   1      35.436  31.680  29.977  1.00  0.00    -0.269 OA
BRANCH  33  36
ATOM     36  C   UNL A   1      37.011  30.215  29.043  1.00  0.00     0.039 A 
ATOM     37  C   UNL A   1      37.623  30.181  27.783  1.00  0.00     0.014 A 
ATOM     38  C   UNL A   1      37.664  29.632  30.130  1.00  0.00     0.014 A 
ATOM     39  C   UNL A   1      38.910  29.653  27.633  1.00  0.00     0.010 A 
ATOM     40  C   UNL A   1      38.975  29.172  29.995  1.00  0.00     0.010 A 
ATOM     41  C   UNL A   1      39.621  29.192  28.750  1.00  0.00    -0.014 A 
BRANCH  41  42
ATOM     42  C   UNL A   1      41.041  28.753  28.659  1.00  0.00     0.031 A 
ATOM     43  C   UNL A   1      42.154  29.749  28.833  1.00  0.00     0.074 A 
ATOM     44  C   UNL A   1      41.340  27.488  28.304  1.00  0.00     0.049 A 
ATOM     45  N   UNL A   1      43.409  29.652  28.473  1.00  0.00    -0.248 NA
ATOM     46  C   UNL A   1      41.802  31.033  29.455  1.00  0.00     0.031 C 
ATOM     47  C   UNL A   1      40.373  26.412  28.077  1.00  0.00     0.029 A 
ATOM     48  N   UNL A   1      42.554  26.900  28.052  1.00  0.00    -0.354 N 
ATOM     49  C   UNL A   1      43.967  30.899  28.717  1.00  0.00     0.074 A 
ATOM     50  C   UNL A   1      42.932  31.716  29.317  1.00  0.00     0.031 C 
ATOM     51  C   UNL A   1      41.032  25.290  27.748  1.00  0.00     0.029 A 
ATOM     52  C   UNL A   1      42.461  25.580  27.687  1.00  0.00     0.049 A 
ATOM     53  H   UNL A   1      43.411  27.381  28.126  1.00  0.00     0.167 HD
ATOM     54  C   UNL A   1      45.218  31.333  28.426  1.00  0.00     0.037 A 
ATOM     55  C   UNL A   1      43.414  24.704  27.317  1.00  0.00     0.037 A 
ATOM     56  C   UNL A   1      46.272  30.498  27.915  1.00  0.00     0.049 A 
ATOM     57  C   UNL A   1      44.839  25.152  27.210  1.00  0.00     0.074 A 
ATOM     58  C   UNL A   1      47.565  30.848  27.564  1.00  0.00     0.029 A 
ATOM     59  N   UNL A   1      46.167  29.128  27.727  1.00  0.00    -0.354 N 
ATOM     60  N   UNL A   1      45.330  26.359  27.342  1.00  0.00    -0.248 NA
ATOM     61  C   UNL A   1      45.839  24.122  26.892  1.00  0.00     0.031 C 
ATOM     62  C   UNL A   1      48.249  29.683  27.187  1.00  0.00     0.029 A 
ATOM     63  C   UNL A   1      47.381  28.611  27.309  1.00  0.00     0.049 A 
ATOM     64  H   UNL A   1      45.348  28.601  27.871  1.00  0.00     0.167 HD
ATOM     65  C   UNL A   1      46.693  26.240  27.107  1.00  0.00     0.074 A 
ATOM     66  C   UNL A   1      46.955  24.838  26.850  1.00  0.00     0.031 C 
ATOM     67  C   UNL A   1      47.636  27.212  27.083  1.00  0.00     0.037 A 
BRANCH  54  68
ATOM     68  C   UNL A   1      45.482  32.797  28.599  1.00  0.00     0.058 A 
ATOM     69  C   UNL A   1      45.248  33.723  27.573  1.00  0.00     0.135 A 
ATOM     70  C   UNL A   1      45.999  33.271  29.814  1.00  0.00     0.135 A 
ATOM     71  F   UNL A   1      44.774  33.310  26.388  1.00  0.00    -0.206 F 
ATOM     72  C   UNL A   1      45.544  35.073  27.737  1.00  0.00     0.059 A 
ATOM     73  C   UNL A   1      46.292  34.617  30.004  1.00  0.00     0.059 A 
ATOM     74  F   UNL A   1      46.246  32.420  30.823  1.00  0.00    -0.206 F 
ATOM     75  C   UNL A   1      46.079  35.507  28.952  1.00  0.00     0.060 A 
BRANCH  75  76
ATOM     76  S   UNL A   1      46.509  37.246  29.177  1.00  0.00     0.124 S 
ATOM     77  O   UNL A   1      47.135  37.219  30.495  1.00  0.00    -0.237 OA
ATOM     78  O   UNL A   1      47.408  37.512  28.058  1.00  0.00    -0.237 OA
ATOM     79  O   UNL A   1      45.213  37.913  29.106  1.00  0.00    -0.744 OA
ENDBRANCH  75  76
ENDBRANCH  54  68
BRANCH  55  80
ATOM     80  C   UNL A   1      43.033  23.302  27.025  1.00  0.00     0.058 A 
ATOM     81  C   UNL A   1      42.983  22.844  25.702  1.00  0.00     0.135 A 
ATOM     82  C   UNL A   1      42.774  22.389  28.056  1.00  0.00     0.135 A 
ATOM     83  F   UNL A   1      43.225  23.690  24.689  1.00  0.00    -0.206 F 
ATOM     84  C   UNL A   1      42.693  21.516  25.406  1.00  0.00     0.059 A 
ATOM     85  C   UNL A   1      42.490  21.055  27.784  1.00  0.00     0.059 A 
ATOM     86  F   UNL A   1      42.828  22.786  29.337  1.00  0.00    -0.206 F 
ATOM     87  C   UNL A   1      42.450  20.629  26.455  1.00  0.00     0.060 A 
BRANCH  87  88
ATOM     88  S   UNL A   1      42.163  18.883  26.092  1.00  0.00     0.124 S 
ATOM     89  O   UNL A   1      43.082  18.659  24.983  1.00  0.00    -0.237 OA
ATOM     90  O   UNL A   1      42.512  18.230  27.351  1.00  0.00    -0.237 OA
ATOM     91  O   UNL A   1      40.742  18.854  25.758  1.00  0.00    -0.744 OA
ENDBRANCH  87  88
ENDBRANCH  55  80
BRANCH  67  92
ATOM     92  C   UNL A   1      49.041  26.788  26.789  1.00  0.00     0.058 A 
ATOM     93  C   UNL A   1      49.962  26.565  27.823  1.00  0.00     0.135 A 
ATOM     94  C   UNL A   1      49.465  26.585  25.467  1.00  0.00     0.135 A 
ATOM     95  F   UNL A   1      49.598  26.753  29.102  1.00  0.00    -0.206 F 
ATOM     96  C   UNL A   1      51.266  26.162  27.557  1.00  0.00     0.059 A 
ATOM     97  C   UNL A   1      50.763  26.178  25.179  1.00  0.00     0.059 A 
ATOM     98  F   UNL A   1      48.618  26.791  24.448  1.00  0.00    -0.206 F 
ATOM     99  C   UNL A   1      51.660  25.978  26.230  1.00  0.00     0.060 A 
BRANCH  99 100
ATOM    100  S   UNL A   1      53.346  25.435  25.875  1.00  0.00     0.124 S 
ATOM    101  O   UNL A   1      53.971  25.545  27.188  1.00  0.00    -0.237 OA
ATOM    102  O   UNL A   1      53.152  24.076  25.378  1.00  0.00    -0.237 OA
ATOM    103  O   UNL A   1      53.799  26.399  24.877  1.00  0.00    -0.744 OA
ENDBRANCH  99 100
ENDBRANCH  67  92
ENDBRANCH  41  42
ENDBRANCH  33  36
ENDBRANCH  31  32
ENDBRANCH   1  31
TORSDOF 17
ENDMDL
