MODEL 1
REMARK VINA RESULT:     -12.5      0.000      0.000
REMARK SMILES O=C(NCCCNC(=O)[C@H]1Cc2[nH]cnc2CN1S(=O)(=O)c1cccs1)c1ccc(-c2c3nc(c(-c4c(F)cc(S(=O)(=O)[O-])cc4F)c4ccc([nH]4)c(-c4c(F)cc(S(=O)(=O)[O-])cc4F)c4nc(c(-c5c(F)cc(S(=O)(=O)[O-])cc5F)c5ccc2[nH]5)C=C4)C=C3)cc1
REMARK SMILES IDX 4 1 3 2 1 3 2 4 27 6 28 7 92 8 29 9 91 10 30 11 31 12 32 13
REMARK SMILES IDX 85 14 33 15 90 16 84 17 86 18 34 19 89 20 83 21 82 22 35 24
REMARK SMILES IDX 69 25 48 26 68 27 49 28 52 29 67 30 87 31 50 32 51 33 66 35
REMARK SMILES IDX 88 36 53 37 36 38 37 39 46 40 38 41 39 42 45 43 47 44 40 45
REMARK SMILES IDX 41 46 42 47 43 48 44 49 70 50 71 51 80 52 72 53 73 54 79 55
REMARK SMILES IDX 81 56 74 57 75 58 76 59 77 60 78 61 54 62 55 63 64 64 56 65
REMARK SMILES IDX 57 66 63 67 65 68 58 69 59 70 60 71 61 72 62 73 5 74 6 75
REMARK SMILES IDX 7 76 8 77 9 79 10 80 11 81 18 82 12 83 17 84 13 85 16 86
REMARK SMILES IDX 14 87 15 89 19 90 20 91 21 92 22 93 23 94 26 95 24 96 25 97
REMARK H PARENT 3 5 86 23 52 34 7 78 13 88
REMARK Flexibility Score: inf
ROOT
ATOM      1  C   UNL A   1      36.162  23.048  26.098  1.00  0.00     0.118 C 
ENDROOT
BRANCH   1   2
ATOM      2  N   UNL A   1      37.345  22.288  25.760  1.00  0.00    -0.352 N 
ATOM      3  O   UNL A   1      39.421  21.496  25.860  1.00  0.00    -0.269 OA
ATOM      4  C   UNL A   1      38.653  22.417  26.146  1.00  0.00     0.251 C 
ATOM      5  H   UNL A   1      37.180  21.543  25.139  1.00  0.00     0.163 HD
BRANCH   4   6
ATOM      6  C   UNL A   1      39.198  23.630  26.809  1.00  0.00     0.039 A 
ATOM      7  C   UNL A   1      38.608  24.898  26.784  1.00  0.00     0.014 A 
ATOM      8  C   UNL A   1      40.375  23.442  27.546  1.00  0.00     0.014 A 
ATOM      9  C   UNL A   1      39.226  25.976  27.424  1.00  0.00     0.010 A 
ATOM     10  C   UNL A   1      40.976  24.507  28.209  1.00  0.00     0.010 A 
ATOM     11  C   UNL A   1      40.417  25.786  28.131  1.00  0.00    -0.014 A 
BRANCH  11  12
ATOM     12  C   UNL A   1      41.001  26.912  28.872  1.00  0.00     0.031 A 
ATOM     13  C   UNL A   1      42.212  27.573  28.287  1.00  0.00     0.074 A 
ATOM     14  C   UNL A   1      40.357  27.533  29.882  1.00  0.00     0.049 A 
ATOM     15  N   UNL A   1      43.329  27.891  28.866  1.00  0.00    -0.248 NA
ATOM     16  C   UNL A   1      42.161  27.936  26.862  1.00  0.00     0.031 C 
ATOM     17  C   UNL A   1      38.994  27.278  30.351  1.00  0.00     0.029 A 
ATOM     18  N   UNL A   1      40.735  28.636  30.598  1.00  0.00    -0.354 N 
ATOM     19  C   UNL A   1      44.057  28.634  27.934  1.00  0.00     0.074 A 
ATOM     20  C   UNL A   1      43.325  28.563  26.694  1.00  0.00     0.031 C 
ATOM     21  C   UNL A   1      38.580  28.331  31.088  1.00  0.00     0.029 A 
ATOM     22  C   UNL A   1      39.681  29.268  31.240  1.00  0.00     0.049 A 
ATOM     23  H   UNL A   1      41.667  28.950  30.653  1.00  0.00     0.167 HD
ATOM     24  C   UNL A   1      45.142  29.392  28.258  1.00  0.00     0.037 A 
ATOM     25  C   UNL A   1      39.677  30.511  31.779  1.00  0.00     0.037 A 
ATOM     26  C   UNL A   1      45.675  29.080  29.553  1.00  0.00     0.049 A 
ATOM     27  C   UNL A   1      41.082  30.930  32.008  1.00  0.00     0.074 A 
ATOM     28  C   UNL A   1      46.213  27.959  30.150  1.00  0.00     0.029 A 
ATOM     29  N   UNL A   1      45.479  29.981  30.570  1.00  0.00    -0.354 N 
ATOM     30  N   UNL A   1      41.882  30.411  32.895  1.00  0.00    -0.248 NA
ATOM     31  C   UNL A   1      41.724  31.772  31.007  1.00  0.00     0.031 C 
ATOM     32  C   UNL A   1      45.884  28.071  31.533  1.00  0.00     0.029 A 
ATOM     33  C   UNL A   1      45.159  29.252  31.686  1.00  0.00     0.049 A 
ATOM     34  H   UNL A   1      45.554  30.961  30.509  1.00  0.00     0.167 HD
ATOM     35  C   UNL A   1      43.149  30.531  32.346  1.00  0.00     0.074 A 
ATOM     36  C   UNL A   1      43.004  31.494  31.264  1.00  0.00     0.031 C 
ATOM     37  C   UNL A   1      44.135  29.631  32.634  1.00  0.00     0.037 A 
BRANCH  24  38
ATOM     38  C   UNL A   1      45.584  30.620  27.502  1.00  0.00     0.058 A 
ATOM     39  C   UNL A   1      46.926  30.757  27.094  1.00  0.00     0.135 A 
ATOM     40  C   UNL A   1      44.791  31.785  27.412  1.00  0.00     0.135 A 
ATOM     41  F   UNL A   1      47.769  29.715  27.158  1.00  0.00    -0.206 F 
ATOM     42  C   UNL A   1      47.458  31.979  26.674  1.00  0.00     0.059 A 
ATOM     43  C   UNL A   1      45.288  33.001  26.952  1.00  0.00     0.059 A 
ATOM     44  F   UNL A   1      43.527  31.805  27.857  1.00  0.00    -0.206 F 
ATOM     45  C   UNL A   1      46.635  33.099  26.626  1.00  0.00     0.060 A 
BRANCH  45  46
ATOM     46  S   UNL A   1      47.343  34.703  26.199  1.00  0.00     0.124 S 
ATOM     47  O   UNL A   1      46.152  35.450  25.815  1.00  0.00    -0.237 OA
ATOM     48  O   UNL A   1      47.975  35.107  27.450  1.00  0.00    -0.237 OA
ATOM     49  O   UNL A   1      48.267  34.380  25.116  1.00  0.00    -0.744 OA
ENDBRANCH  45  46
ENDBRANCH  24  38
BRANCH  25  50
ATOM     50  C   UNL A   1      38.541  31.463  31.874  1.00  0.00     0.058 A 
ATOM     51  C   UNL A   1      38.110  32.197  30.756  1.00  0.00     0.135 A 
ATOM     52  C   UNL A   1      37.693  31.490  32.999  1.00  0.00     0.135 A 
ATOM     53  F   UNL A   1      38.836  32.199  29.627  1.00  0.00    -0.206 F 
ATOM     54  C   UNL A   1      36.898  32.893  30.744  1.00  0.00     0.059 A 
ATOM     55  C   UNL A   1      36.491  32.193  33.020  1.00  0.00     0.059 A 
ATOM     56  F   UNL A   1      37.963  30.756  34.090  1.00  0.00    -0.206 F 
ATOM     57  C   UNL A   1      36.088  32.874  31.879  1.00  0.00     0.060 A 
BRANCH  57  58
ATOM     58  S   UNL A   1      34.452  33.639  31.817  1.00  0.00     0.124 S 
ATOM     59  O   UNL A   1      33.692  32.804  32.740  1.00  0.00    -0.237 OA
ATOM     60  O   UNL A   1      34.730  34.999  32.267  1.00  0.00    -0.237 OA
ATOM     61  O   UNL A   1      34.075  33.518  30.411  1.00  0.00    -0.744 OA
ENDBRANCH  57  58
ENDBRANCH  25  50
BRANCH  37  62
ATOM     62  C   UNL A   1      43.971  28.752  33.842  1.00  0.00     0.058 A 
ATOM     63  C   UNL A   1      44.376  29.116  35.136  1.00  0.00     0.135 A 
ATOM     64  C   UNL A   1      43.233  27.564  33.708  1.00  0.00     0.135 A 
ATOM     65  F   UNL A   1      44.987  30.288  35.362  1.00  0.00    -0.206 F 
ATOM     66  C   UNL A   1      44.098  28.316  36.244  1.00  0.00     0.059 A 
ATOM     67  C   UNL A   1      42.917  26.765  34.805  1.00  0.00     0.059 A 
ATOM     68  F   UNL A   1      42.761  27.196  32.506  1.00  0.00    -0.206 F 
ATOM     69  C   UNL A   1      43.366  27.141  36.069  1.00  0.00     0.060 A 
BRANCH  69  70
ATOM     70  S   UNL A   1      42.921  26.160  37.518  1.00  0.00     0.124 S 
ATOM     71  O   UNL A   1      41.490  26.419  37.635  1.00  0.00    -0.237 OA
ATOM     72  O   UNL A   1      43.290  24.806  37.116  1.00  0.00    -0.237 OA
ATOM     73  O   UNL A   1      43.747  26.730  38.581  1.00  0.00    -0.744 OA
ENDBRANCH  69  70
ENDBRANCH  37  62
ENDBRANCH  11  12
ENDBRANCH   4   6
ENDBRANCH   1   2
BRANCH   1  74
ATOM     74  C   UNL A   1      35.169  23.308  24.962  1.00  0.00     0.042 C 
BRANCH  74  75
ATOM     75  C   UNL A   1      34.451  24.658  25.018  1.00  0.00     0.117 C 
BRANCH  75  76
ATOM     76  N   UNL A   1      33.358  24.704  25.980  1.00  0.00    -0.355 N 
ATOM     77  C   UNL A   1      32.230  25.461  26.039  1.00  0.00     0.238 C 
ATOM     78  H   UNL A   1      33.455  24.070  26.728  1.00  0.00     0.163 HD
ATOM     79  O   UNL A   1      31.421  25.175  26.928  1.00  0.00    -0.273 OA
BRANCH  77  80
ATOM     80  C   UNL A   1      31.930  26.534  25.007  1.00  0.00     0.168 C 
ATOM     81  C   UNL A   1      30.389  26.759  24.894  1.00  0.00     0.086 C 
ATOM     82  N   UNL A   1      32.692  27.840  25.094  1.00  0.00    -0.178 NA
ATOM     83  C   UNL A   1      30.155  27.770  23.839  1.00  0.00     0.041 A 
ATOM     84  C   UNL A   1      32.553  28.613  23.769  1.00  0.00     0.161 C 
ATOM     85  N   UNL A   1      28.987  28.112  23.228  1.00  0.00    -0.348 N 
ATOM     86  C   UNL A   1      31.119  28.606  23.323  1.00  0.00     0.077 A 
ATOM     87  C   UNL A   1      29.295  29.095  22.325  1.00  0.00     0.197 A 
ATOM     88  H   UNL A   1      28.098  27.729  23.402  1.00  0.00     0.167 HD
ATOM     89  N   UNL A   1      30.577  29.400  22.348  1.00  0.00    -0.240 NA
BRANCH  82  90
ATOM     90  S   UNL A   1      32.453  28.911  26.410  1.00  0.00     0.253 S 
ATOM     91  O   UNL A   1      31.634  29.987  25.907  1.00  0.00    -0.206 OA
ATOM     92  O   UNL A   1      32.043  28.140  27.569  1.00  0.00    -0.206 OA
BRANCH  90  93
ATOM     93  C   UNL A   1      33.971  29.674  26.971  1.00  0.00     0.135 A 
ATOM     94  C   UNL A   1      35.238  29.167  27.202  1.00  0.00     0.033 A 
ATOM     95  S   UNL A   1      33.869  31.297  27.526  1.00  0.00    -0.131 S 
ATOM     96  C   UNL A   1      36.153  30.145  27.686  1.00  0.00     0.013 A 
ATOM     97  C   UNL A   1      35.535  31.353  27.908  1.00  0.00     0.066 A 
ENDBRANCH  90  93
ENDBRANCH  82  90
ENDBRANCH  77  80
ENDBRANCH  75  76
ENDBRANCH  74  75
ENDBRANCH   1  74
TORSDOF 15
ENDMDL
MODEL 2
REMARK VINA RESULT:     -12.5      3.116      9.253
REMARK SMILES O=C(NCCCNC(=O)[C@H]1Cc2[nH]cnc2CN1S(=O)(=O)c1cccs1)c1ccc(-c2c3nc(c(-c4c(F)cc(S(=O)(=O)[O-])cc4F)c4ccc([nH]4)c(-c4c(F)cc(S(=O)(=O)[O-])cc4F)c4nc(c(-c5c(F)cc(S(=O)(=O)[O-])cc5F)c5ccc2[nH]5)C=C4)C=C3)cc1
REMARK SMILES IDX 4 1 3 2 1 3 2 4 27 6 28 7 92 8 29 9 91 10 30 11 31 12 32 13
REMARK SMILES IDX 85 14 33 15 90 16 84 17 86 18 34 19 89 20 83 21 82 22 35 24
REMARK SMILES IDX 69 25 48 26 68 27 49 28 52 29 67 30 87 31 50 32 51 33 66 35
REMARK SMILES IDX 88 36 53 37 36 38 37 39 46 40 38 41 39 42 45 43 47 44 40 45
REMARK SMILES IDX 41 46 42 47 43 48 44 49 70 50 71 51 80 52 72 53 73 54 79 55
REMARK SMILES IDX 81 56 74 57 75 58 76 59 77 60 78 61 54 62 55 63 64 64 56 65
REMARK SMILES IDX 57 66 63 67 65 68 58 69 59 70 60 71 61 72 62 73 5 74 6 75
REMARK SMILES IDX 7 76 8 77 9 79 10 80 11 81 18 82 12 83 17 84 13 85 16 86
REMARK SMILES IDX 14 87 15 89 19 90 20 91 21 92 22 93 23 94 26 95 24 96 25 97
REMARK H PARENT 3 5 86 23 52 34 7 78 13 88
REMARK Flexibility Score: inf
ROOT
ATOM      1  C   UNL A   1      33.746  29.009  25.841  1.00  0.00     0.118 C 
ENDROOT
BRANCH   1   2
ATOM      2  N   UNL A   1      33.491  30.103  26.752  1.00  0.00    -0.352 N 
ATOM      3  O   UNL A   1      33.864  31.838  28.093  1.00  0.00    -0.269 OA
ATOM      4  C   UNL A   1      34.321  30.817  27.575  1.00  0.00     0.251 C 
ATOM      5  H   UNL A   1      32.549  30.386  26.787  1.00  0.00     0.163 HD
BRANCH   4   6
ATOM      6  C   UNL A   1      35.696  30.381  27.933  1.00  0.00     0.039 A 
ATOM      7  C   UNL A   1      36.137  29.054  27.978  1.00  0.00     0.014 A 
ATOM      8  C   UNL A   1      36.610  31.411  28.198  1.00  0.00     0.014 A 
ATOM      9  C   UNL A   1      37.451  28.760  28.354  1.00  0.00     0.010 A 
ATOM     10  C   UNL A   1      37.926  31.121  28.544  1.00  0.00     0.010 A 
ATOM     11  C   UNL A   1      38.346  29.792  28.647  1.00  0.00    -0.014 A 
BRANCH  11  12
ATOM     12  C   UNL A   1      39.746  29.465  28.951  1.00  0.00     0.031 A 
ATOM     13  C   UNL A   1      40.145  29.398  30.394  1.00  0.00     0.074 A 
ATOM     14  C   UNL A   1      40.597  28.968  28.029  1.00  0.00     0.049 A 
ATOM     15  N   UNL A   1      41.169  29.933  30.984  1.00  0.00    -0.248 NA
ATOM     16  C   UNL A   1      39.282  28.621  31.298  1.00  0.00     0.031 C 
ATOM     17  C   UNL A   1      40.285  28.598  26.647  1.00  0.00     0.029 A 
ATOM     18  N   UNL A   1      41.887  28.542  28.186  1.00  0.00    -0.354 N 
ATOM     19  C   UNL A   1      41.178  29.433  32.288  1.00  0.00     0.074 A 
ATOM     20  C   UNL A   1      39.951  28.694  32.449  1.00  0.00     0.031 C 
ATOM     21  C   UNL A   1      41.265  27.797  26.176  1.00  0.00     0.029 A 
ATOM     22  C   UNL A   1      42.319  27.698  27.172  1.00  0.00     0.049 A 
ATOM     23  H   UNL A   1      42.455  28.809  28.944  1.00  0.00     0.167 HD
ATOM     24  C   UNL A   1      42.251  29.522  33.123  1.00  0.00     0.037 A 
ATOM     25  C   UNL A   1      43.415  26.902  27.181  1.00  0.00     0.037 A 
ATOM     26  C   UNL A   1      43.228  30.473  32.675  1.00  0.00     0.049 A 
ATOM     27  C   UNL A   1      44.347  27.394  28.224  1.00  0.00     0.074 A 
ATOM     28  C   UNL A   1      43.238  31.831  32.430  1.00  0.00     0.029 A 
ATOM     29  N   UNL A   1      44.410  29.998  32.164  1.00  0.00    -0.354 N 
ATOM     30  N   UNL A   1      45.009  28.515  28.167  1.00  0.00    -0.248 NA
ATOM     31  C   UNL A   1      44.328  26.749  29.530  1.00  0.00     0.031 C 
ATOM     32  C   UNL A   1      44.193  32.022  31.391  1.00  0.00     0.029 A 
ATOM     33  C   UNL A   1      44.700  30.764  31.064  1.00  0.00     0.049 A 
ATOM     34  H   UNL A   1      44.946  29.251  32.518  1.00  0.00     0.167 HD
ATOM     35  C   UNL A   1      45.149  28.914  29.487  1.00  0.00     0.074 A 
ATOM     36  C   UNL A   1      44.841  27.729  30.276  1.00  0.00     0.031 C 
ATOM     37  C   UNL A   1      45.224  30.235  29.825  1.00  0.00     0.037 A 
BRANCH  24  38
ATOM     38  C   UNL A   1      42.555  28.548  34.234  1.00  0.00     0.058 A 
ATOM     39  C   UNL A   1      42.610  28.993  35.571  1.00  0.00     0.135 A 
ATOM     40  C   UNL A   1      43.062  27.253  33.994  1.00  0.00     0.135 A 
ATOM     41  F   UNL A   1      42.172  30.217  35.902  1.00  0.00    -0.206 F 
ATOM     42  C   UNL A   1      43.179  28.225  36.590  1.00  0.00     0.059 A 
ATOM     43  C   UNL A   1      43.589  26.452  35.003  1.00  0.00     0.059 A 
ATOM     44  F   UNL A   1      43.148  26.756  32.752  1.00  0.00    -0.206 F 
ATOM     45  C   UNL A   1      43.683  26.964  36.291  1.00  0.00     0.060 A 
BRANCH  45  46
ATOM     46  S   UNL A   1      44.524  26.017  37.576  1.00  0.00     0.124 S 
ATOM     47  O   UNL A   1      45.910  26.416  37.367  1.00  0.00    -0.237 OA
ATOM     48  O   UNL A   1      43.893  26.516  38.793  1.00  0.00    -0.237 OA
ATOM     49  O   UNL A   1      44.202  24.635  37.235  1.00  0.00    -0.744 OA
ENDBRANCH  45  46
ENDBRANCH  24  38
BRANCH  25  50
ATOM     50  C   UNL A   1      43.593  25.585  26.516  1.00  0.00     0.058 A 
ATOM     51  C   UNL A   1      44.424  25.443  25.393  1.00  0.00     0.135 A 
ATOM     52  C   UNL A   1      43.150  24.390  27.118  1.00  0.00     0.135 A 
ATOM     53  F   UNL A   1      44.923  26.526  24.778  1.00  0.00    -0.206 F 
ATOM     54  C   UNL A   1      44.816  24.190  24.911  1.00  0.00     0.059 A 
ATOM     55  C   UNL A   1      43.508  23.131  26.643  1.00  0.00     0.059 A 
ATOM     56  F   UNL A   1      42.423  24.408  28.246  1.00  0.00    -0.206 F 
ATOM     57  C   UNL A   1      44.362  23.038  25.552  1.00  0.00     0.060 A 
BRANCH  57  58
ATOM     58  S   UNL A   1      44.989  21.425  25.031  1.00  0.00     0.124 S 
ATOM     59  O   UNL A   1      44.715  21.443  23.599  1.00  0.00    -0.237 OA
ATOM     60  O   UNL A   1      46.395  21.503  25.414  1.00  0.00    -0.237 OA
ATOM     61  O   UNL A   1      44.187  20.484  25.808  1.00  0.00    -0.744 OA
ENDBRANCH  57  58
ENDBRANCH  25  50
BRANCH  37  62
ATOM     62  C   UNL A   1      45.555  31.231  28.749  1.00  0.00     0.058 A 
ATOM     63  C   UNL A   1      44.607  31.773  27.865  1.00  0.00     0.135 A 
ATOM     64  C   UNL A   1      46.850  31.775  28.718  1.00  0.00     0.135 A 
ATOM     65  F   UNL A   1      43.325  31.385  27.909  1.00  0.00    -0.206 F 
ATOM     66  C   UNL A   1      44.941  32.780  26.960  1.00  0.00     0.059 A 
ATOM     67  C   UNL A   1      47.197  32.803  27.844  1.00  0.00     0.059 A 
ATOM     68  F   UNL A   1      47.782  31.344  29.584  1.00  0.00    -0.206 F 
ATOM     69  C   UNL A   1      46.239  33.291  26.957  1.00  0.00     0.060 A 
BRANCH  69  70
ATOM     70  S   UNL A   1      46.640  34.664  25.856  1.00  0.00     0.124 S 
ATOM     71  O   UNL A   1      48.015  34.360  25.476  1.00  0.00    -0.237 OA
ATOM     72  O   UNL A   1      45.644  34.528  24.796  1.00  0.00    -0.237 OA
ATOM     73  O   UNL A   1      46.472  35.841  26.705  1.00  0.00    -0.744 OA
ENDBRANCH  69  70
ENDBRANCH  37  62
ENDBRANCH  11  12
ENDBRANCH   4   6
ENDBRANCH   1   2
BRANCH   1  74
ATOM     74  C   UNL A   1      32.950  27.724  26.077  1.00  0.00     0.042 C 
BRANCH  74  75
ATOM     75  C   UNL A   1      33.720  26.424  25.834  1.00  0.00     0.117 C 
BRANCH  75  76
ATOM     76  N   UNL A   1      33.967  26.141  24.427  1.00  0.00    -0.355 N 
ATOM     77  C   UNL A   1      33.981  24.977  23.723  1.00  0.00     0.238 C 
ATOM     78  H   UNL A   1      34.162  26.940  23.886  1.00  0.00     0.163 HD
ATOM     79  O   UNL A   1      34.103  25.077  22.497  1.00  0.00    -0.273 OA
BRANCH  77  80
ATOM     80  C   UNL A   1      33.760  23.632  24.393  1.00  0.00     0.168 C 
ATOM     81  C   UNL A   1      33.295  22.575  23.341  1.00  0.00     0.086 C 
ATOM     82  N   UNL A   1      34.852  23.097  25.296  1.00  0.00    -0.178 NA
ATOM     83  C   UNL A   1      33.042  21.306  24.056  1.00  0.00     0.041 A 
ATOM     84  C   UNL A   1      34.291  21.961  26.173  1.00  0.00     0.161 C 
ATOM     85  N   UNL A   1      32.406  20.187  23.611  1.00  0.00    -0.348 N 
ATOM     86  C   UNL A   1      33.480  21.019  25.329  1.00  0.00     0.077 A 
ATOM     87  C   UNL A   1      32.429  19.290  24.647  1.00  0.00     0.197 A 
ATOM     88  H   UNL A   1      32.009  20.050  22.721  1.00  0.00     0.167 HD
ATOM     89  N   UNL A   1      33.054  19.772  25.701  1.00  0.00    -0.240 NA
BRANCH  82  90
ATOM     90  S   UNL A   1      36.371  22.630  24.656  1.00  0.00     0.253 S 
ATOM     91  O   UNL A   1      36.335  21.191  24.549  1.00  0.00    -0.206 OA
ATOM     92  O   UNL A   1      36.663  23.457  23.500  1.00  0.00    -0.206 OA
BRANCH  90  93
ATOM     93  C   UNL A   1      37.733  23.004  25.754  1.00  0.00     0.135 A 
ATOM     94  C   UNL A   1      38.126  24.171  26.385  1.00  0.00     0.033 A 
ATOM     95  S   UNL A   1      38.925  21.784  25.961  1.00  0.00    -0.131 S 
ATOM     96  C   UNL A   1      39.315  24.019  27.155  1.00  0.00     0.013 A 
ATOM     97  C   UNL A   1      39.855  22.762  27.011  1.00  0.00     0.066 A 
ENDBRANCH  90  93
ENDBRANCH  82  90
ENDBRANCH  77  80
ENDBRANCH  75  76
ENDBRANCH  74  75
ENDBRANCH   1  74
TORSDOF 15
ENDMDL
MODEL 3
REMARK VINA RESULT:     -12.5      2.839      9.005
REMARK SMILES O=C(NCCCNC(=O)[C@H]1Cc2[nH]cnc2CN1S(=O)(=O)c1cccs1)c1ccc(-c2c3nc(c(-c4c(F)cc(S(=O)(=O)[O-])cc4F)c4ccc([nH]4)c(-c4c(F)cc(S(=O)(=O)[O-])cc4F)c4nc(c(-c5c(F)cc(S(=O)(=O)[O-])cc5F)c5ccc2[nH]5)C=C4)C=C3)cc1
REMARK SMILES IDX 4 1 3 2 1 3 2 4 27 6 28 7 92 8 29 9 91 10 30 11 31 12 32 13
REMARK SMILES IDX 85 14 33 15 90 16 84 17 86 18 34 19 89 20 83 21 82 22 35 24
REMARK SMILES IDX 69 25 48 26 68 27 49 28 52 29 67 30 87 31 50 32 51 33 66 35
REMARK SMILES IDX 88 36 53 37 36 38 37 39 46 40 38 41 39 42 45 43 47 44 40 45
REMARK SMILES IDX 41 46 42 47 43 48 44 49 70 50 71 51 80 52 72 53 73 54 79 55
REMARK SMILES IDX 81 56 74 57 75 58 76 59 77 60 78 61 54 62 55 63 64 64 56 65
REMARK SMILES IDX 57 66 63 67 65 68 58 69 59 70 60 71 61 72 62 73 5 74 6 75
REMARK SMILES IDX 7 76 8 77 9 79 10 80 11 81 18 82 12 83 17 84 13 85 16 86
REMARK SMILES IDX 14 87 15 89 19 90 20 91 21 92 22 93 23 94 26 95 24 96 25 97
REMARK H PARENT 3 5 86 23 52 34 7 78 13 88
REMARK Flexibility Score: inf
ROOT
ATOM      1  C   UNL A   1      33.451  29.426  25.947  1.00  0.00     0.118 C 
ENDROOT
BRANCH   1   2
ATOM      2  N   UNL A   1      33.221  30.527  26.857  1.00  0.00    -0.352 N 
ATOM      3  O   UNL A   1      33.634  32.263  28.186  1.00  0.00    -0.269 OA
ATOM      4  C   UNL A   1      34.071  31.234  27.666  1.00  0.00     0.251 C 
ATOM      5  H   UNL A   1      32.283  30.822  26.903  1.00  0.00     0.163 HD
BRANCH   4   6
ATOM      6  C   UNL A   1      35.445  30.782  28.008  1.00  0.00     0.039 A 
ATOM      7  C   UNL A   1      35.909  29.466  27.913  1.00  0.00     0.014 A 
ATOM      8  C   UNL A   1      36.332  31.789  28.412  1.00  0.00     0.014 A 
ATOM      9  C   UNL A   1      37.219  29.152  28.287  1.00  0.00     0.010 A 
ATOM     10  C   UNL A   1      37.645  31.482  28.758  1.00  0.00     0.010 A 
ATOM     11  C   UNL A   1      38.088  30.157  28.720  1.00  0.00    -0.014 A 
BRANCH  11  12
ATOM     12  C   UNL A   1      39.486  29.820  29.021  1.00  0.00     0.031 A 
ATOM     13  C   UNL A   1      39.861  29.642  30.461  1.00  0.00     0.074 A 
ATOM     14  C   UNL A   1      40.357  29.407  28.077  1.00  0.00     0.049 A 
ATOM     15  N   UNL A   1      40.870  30.137  31.110  1.00  0.00    -0.248 NA
ATOM     16  C   UNL A   1      38.991  28.787  31.284  1.00  0.00     0.031 C 
ATOM     17  C   UNL A   1      40.072  29.146  26.665  1.00  0.00     0.029 A 
ATOM     18  N   UNL A   1      41.649  28.981  28.222  1.00  0.00    -0.354 N 
ATOM     19  C   UNL A   1      40.862  29.534  32.370  1.00  0.00     0.074 A 
ATOM     20  C   UNL A   1      39.640  28.774  32.450  1.00  0.00     0.031 C 
ATOM     21  C   UNL A   1      41.068  28.394  26.149  1.00  0.00     0.029 A 
ATOM     22  C   UNL A   1      42.107  28.226  27.152  1.00  0.00     0.049 A 
ATOM     23  H   UNL A   1      42.201  29.192  29.009  1.00  0.00     0.167 HD
ATOM     24  C   UNL A   1      41.920  29.567  33.227  1.00  0.00     0.037 A 
ATOM     25  C   UNL A   1      43.210  27.441  27.117  1.00  0.00     0.037 A 
ATOM     26  C   UNL A   1      42.894  30.559  32.875  1.00  0.00     0.049 A 
ATOM     27  C   UNL A   1      44.120  27.857  28.212  1.00  0.00     0.074 A 
ATOM     28  C   UNL A   1      42.893  31.933  32.739  1.00  0.00     0.029 A 
ATOM     29  N   UNL A   1      44.089  30.138  32.348  1.00  0.00    -0.354 N 
ATOM     30  N   UNL A   1      44.770  28.986  28.256  1.00  0.00    -0.248 NA
ATOM     31  C   UNL A   1      44.086  27.110  29.461  1.00  0.00     0.031 C 
ATOM     32  C   UNL A   1      43.864  32.215  31.735  1.00  0.00     0.029 A 
ATOM     33  C   UNL A   1      44.389  30.992  31.318  1.00  0.00     0.049 A 
ATOM     34  H   UNL A   1      44.627  29.370  32.650  1.00  0.00     0.167 HD
ATOM     35  C   UNL A   1      44.884  29.278  29.606  1.00  0.00     0.074 A 
ATOM     36  C   UNL A   1      44.576  28.032  30.292  1.00  0.00     0.031 C 
ATOM     37  C   UNL A   1      44.940  30.569  30.049  1.00  0.00     0.037 A 
BRANCH  24  38
ATOM     38  C   UNL A   1      42.215  28.510  34.263  1.00  0.00     0.058 A 
ATOM     39  C   UNL A   1      42.166  28.829  35.635  1.00  0.00     0.135 A 
ATOM     40  C   UNL A   1      42.811  27.273  33.938  1.00  0.00     0.135 A 
ATOM     41  F   UNL A   1      41.638  29.992  36.047  1.00  0.00    -0.206 F 
ATOM     42  C   UNL A   1      42.719  28.000  36.614  1.00  0.00     0.059 A 
ATOM     43  C   UNL A   1      43.324  26.409  34.902  1.00  0.00     0.059 A 
ATOM     44  F   UNL A   1      42.998  26.900  32.665  1.00  0.00    -0.206 F 
ATOM     45  C   UNL A   1      43.314  26.801  36.234  1.00  0.00     0.060 A 
BRANCH  45  46
ATOM     46  S   UNL A   1      44.132  25.784  37.479  1.00  0.00     0.124 S 
ATOM     47  O   UNL A   1      43.656  24.453  37.121  1.00  0.00    -0.237 OA
ATOM     48  O   UNL A   1      45.543  26.048  37.219  1.00  0.00    -0.237 OA
ATOM     49  O   UNL A   1      43.623  26.323  38.736  1.00  0.00    -0.744 OA
ENDBRANCH  45  46
ENDBRANCH  24  38
BRANCH  25  50
ATOM     50  C   UNL A   1      43.414  26.184  26.352  1.00  0.00     0.058 A 
ATOM     51  C   UNL A   1      44.513  26.024  25.492  1.00  0.00     0.135 A 
ATOM     52  C   UNL A   1      42.673  25.019  26.639  1.00  0.00     0.135 A 
ATOM     53  F   UNL A   1      45.296  27.071  25.193  1.00  0.00    -0.206 F 
ATOM     54  C   UNL A   1      44.873  24.778  24.969  1.00  0.00     0.059 A 
ATOM     55  C   UNL A   1      42.999  23.772  26.113  1.00  0.00     0.059 A 
ATOM     56  F   UNL A   1      41.657  25.040  27.515  1.00  0.00    -0.206 F 
ATOM     57  C   UNL A   1      44.116  23.654  25.296  1.00  0.00     0.060 A 
BRANCH  57  58
ATOM     58  S   UNL A   1      44.667  22.022  24.751  1.00  0.00     0.124 S 
ATOM     59  O   UNL A   1      43.666  21.149  25.353  1.00  0.00    -0.237 OA
ATOM     60  O   UNL A   1      44.614  22.148  23.298  1.00  0.00    -0.237 OA
ATOM     61  O   UNL A   1      46.010  21.912  25.313  1.00  0.00    -0.744 OA
ENDBRANCH  57  58
ENDBRANCH  25  50
BRANCH  37  62
ATOM     62  C   UNL A   1      45.278  31.651  29.063  1.00  0.00     0.058 A 
ATOM     63  C   UNL A   1      46.588  32.065  28.772  1.00  0.00     0.135 A 
ATOM     64  C   UNL A   1      44.246  32.177  28.268  1.00  0.00     0.135 A 
ATOM     65  F   UNL A   1      47.637  31.527  29.412  1.00  0.00    -0.206 F 
ATOM     66  C   UNL A   1      46.859  32.991  27.766  1.00  0.00     0.059 A 
ATOM     67  C   UNL A   1      44.496  33.079  27.237  1.00  0.00     0.059 A 
ATOM     68  F   UNL A   1      42.979  31.769  28.453  1.00  0.00    -0.206 F 
ATOM     69  C   UNL A   1      45.806  33.492  27.001  1.00  0.00     0.060 A 
BRANCH  69  70
ATOM     70  S   UNL A   1      46.170  34.613  25.633  1.00  0.00     0.124 S 
ATOM     71  O   UNL A   1      47.572  34.313  25.357  1.00  0.00    -0.237 OA
ATOM     72  O   UNL A   1      45.218  34.192  24.609  1.00  0.00    -0.237 OA
ATOM     73  O   UNL A   1      45.915  35.936  26.199  1.00  0.00    -0.744 OA
ENDBRANCH  69  70
ENDBRANCH  37  62
ENDBRANCH  11  12
ENDBRANCH   4   6
ENDBRANCH   1   2
BRANCH   1  74
ATOM     74  C   UNL A   1      32.304  28.426  25.784  1.00  0.00     0.042 C 
BRANCH  74  75
ATOM     75  C   UNL A   1      32.167  27.400  26.912  1.00  0.00     0.117 C 
BRANCH  75  76
ATOM     76  N   UNL A   1      30.897  26.686  26.907  1.00  0.00    -0.355 N 
ATOM     77  C   UNL A   1      30.567  25.421  26.530  1.00  0.00     0.238 C 
ATOM     78  H   UNL A   1      30.137  27.218  27.237  1.00  0.00     0.163 HD
ATOM     79  O   UNL A   1      29.408  25.062  26.766  1.00  0.00    -0.273 OA
BRANCH  77  80
ATOM     80  C   UNL A   1      31.592  24.467  25.942  1.00  0.00     0.168 C 
ATOM     81  C   UNL A   1      30.999  23.025  25.858  1.00  0.00     0.086 C 
ATOM     82  N   UNL A   1      32.291  24.872  24.662  1.00  0.00    -0.178 NA
ATOM     83  C   UNL A   1      32.055  22.131  25.333  1.00  0.00     0.041 A 
ATOM     84  C   UNL A   1      33.543  23.997  24.454  1.00  0.00     0.161 C 
ATOM     85  N   UNL A   1      32.088  20.771  25.308  1.00  0.00    -0.348 N 
ATOM     86  C   UNL A   1      33.203  22.556  24.704  1.00  0.00     0.077 A 
ATOM     87  C   UNL A   1      33.277  20.421  24.723  1.00  0.00     0.197 A 
ATOM     88  H   UNL A   1      31.394  20.158  25.644  1.00  0.00     0.167 HD
ATOM     89  N   UNL A   1      33.977  21.478  24.365  1.00  0.00    -0.240 NA
BRANCH  82  90
ATOM     90  S   UNL A   1      31.426  24.995  23.188  1.00  0.00     0.253 S 
ATOM     91  O   UNL A   1      32.394  24.786  22.138  1.00  0.00    -0.206 OA
ATOM     92  O   UNL A   1      30.234  24.173  23.278  1.00  0.00    -0.206 OA
BRANCH  90  93
ATOM     93  C   UNL A   1      30.750  26.628  22.912  1.00  0.00     0.135 A 
ATOM     94  C   UNL A   1      31.297  27.785  22.383  1.00  0.00     0.033 A 
ATOM     95  S   UNL A   1      29.197  26.951  23.572  1.00  0.00    -0.131 S 
ATOM     96  C   UNL A   1      30.391  28.884  22.383  1.00  0.00     0.013 A 
ATOM     97  C   UNL A   1      29.206  28.564  23.005  1.00  0.00     0.066 A 
ENDBRANCH  90  93
ENDBRANCH  82  90
ENDBRANCH  77  80
ENDBRANCH  75  76
ENDBRANCH  74  75
ENDBRANCH   1  74
TORSDOF 15
ENDMDL
