MODEL 1
REMARK VINA RESULT:     -15.4      0.000      0.000
REMARK SMILES Cc1ccc(-c2nc(NC(=O)[C@H]3[C@@H](C(=O)NCCCNC(=O)c4ccc(-c5c6nc(c(-c7c(F)cc(S(=O)(=O)[O-])cc7F)c7ccc([nH]7)c(-c7c(F)cc(S(=O)(=O)[O-])cc7F)c7nc(c(-c8c(F)cc(S(=O)(=O)[O-])cc8F)c8ccc5[nH]8)C=C7)C=C6)cc4)[C@@H]4CC[C@H]3O4)sc2C)cc1
REMARK SMILES IDX 18 1 17 2 16 3 14 4 15 5 13 7 12 8 92 9 89 10 91 11 93 12
REMARK SMILES IDX 90 13 10 14 9 15 11 17 8 18 6 19 7 20 95 21 94 22 96 23 5 24
REMARK SMILES IDX 1 25 2 26 3 27 98 28 4 29 97 30 19 31 20 32 21 33 22 35
REMARK SMILES IDX 23 36 24 37 88 38 25 39 87 40 26 41 27 42 28 43 81 44 29 45
REMARK SMILES IDX 86 46 80 47 82 48 30 49 85 50 79 51 78 52 31 54 65 55 44 56
REMARK SMILES IDX 64 57 45 58 48 59 63 60 83 61 46 62 47 63 62 65 84 66 49 67
REMARK SMILES IDX 32 68 33 69 42 70 34 71 35 72 41 73 43 74 36 75 37 76 38 77
REMARK SMILES IDX 39 78 40 79 66 80 67 81 76 82 68 83 69 84 75 85 77 86 70 87
REMARK SMILES IDX 71 88 72 89 73 90 74 91 50 92 51 93 60 94 52 95 53 96 59 97
REMARK SMILES IDX 61 98 54 99 55 100 56 101 57 102 58 103
REMARK H PARENT 16 6 9 16 20 34 82 53 48 64
REMARK Flexibility Score: inf
ROOT
ATOM      1  C   UNL A   1      33.021  30.777  26.975  1.00  0.00     0.042 C 
ENDROOT
BRANCH   1   2
ATOM      2  C   UNL A   1      32.441  30.073  25.764  1.00  0.00     0.117 C 
BRANCH   2   3
ATOM      3  N   UNL A   1      33.400  29.416  24.880  1.00  0.00    -0.356 N 
ATOM      4  C   UNL A   1      33.097  28.801  23.702  1.00  0.00     0.226 C 
ATOM      5  O   UNL A   1      33.583  29.265  22.668  1.00  0.00    -0.275 OA
ATOM      6  H   UNL A   1      34.344  29.416  25.158  1.00  0.00     0.163 HD
BRANCH   4   7
ATOM      7  C   UNL A   1      32.072  27.690  23.680  1.00  0.00     0.122 C 
ATOM      8  C   UNL A   1      32.338  26.199  23.411  1.00  0.00     0.123 C 
ATOM      9  C   UNL A   1      30.965  25.803  22.829  1.00  0.00     0.132 C 
ATOM     10  C   UNL A   1      30.874  27.966  22.719  1.00  0.00     0.132 C 
ATOM     11  C   UNL A   1      29.785  26.176  23.765  1.00  0.00     0.035 C 
ATOM     12  O   UNL A   1      30.862  26.824  21.818  1.00  0.00    -0.373 OA
ATOM     13  C   UNL A   1      29.574  27.664  23.452  1.00  0.00     0.035 C 
BRANCH   8  14
ATOM     14  C   UNL A   1      33.407  25.375  22.642  1.00  0.00     0.232 C 
ATOM     15  N   UNL A   1      34.060  24.212  22.849  1.00  0.00    -0.302 N 
ATOM     16  H   UNL A   1      34.718  24.041  22.137  1.00  0.00     0.172 HD
ATOM     17  O   UNL A   1      33.817  25.951  21.606  1.00  0.00    -0.274 OA
BRANCH  15  18
ATOM     18  C   UNL A   1      34.061  23.207  23.773  1.00  0.00     0.190 A 
ATOM     19  C   UNL A   1      33.905  21.159  24.653  1.00  0.00     0.086 A 
ATOM     20  N   UNL A   1      34.010  21.920  23.475  1.00  0.00    -0.220 NA
ATOM     21  C   UNL A   1      33.988  21.921  25.812  1.00  0.00     0.031 A 
ATOM     22  S   UNL A   1      34.207  23.552  25.398  1.00  0.00    -0.101 S 
ATOM     23  C   UNL A   1      33.950  21.596  27.260  1.00  0.00     0.059 C 
BRANCH  19  24
ATOM     24  C   UNL A   1      33.743  19.696  24.675  1.00  0.00     0.001 A 
ATOM     25  C   UNL A   1      33.201  15.422  25.259  1.00  0.00     0.044 C 
ATOM     26  C   UNL A   1      33.391  16.895  25.032  1.00  0.00    -0.051 A 
ATOM     27  C   UNL A   1      34.649  17.429  24.719  1.00  0.00     0.004 A 
ATOM     28  C   UNL A   1      32.302  17.761  25.104  1.00  0.00     0.004 A 
ATOM     29  C   UNL A   1      34.826  18.818  24.544  1.00  0.00     0.010 A 
ATOM     30  C   UNL A   1      32.475  19.135  24.906  1.00  0.00     0.010 A 
ENDBRANCH  19  24
ENDBRANCH  15  18
ENDBRANCH   8  14
ENDBRANCH   4   7
ENDBRANCH   2   3
ENDBRANCH   1   2
BRANCH   1  31
ATOM     31  C   UNL A   1      34.199  30.038  27.575  1.00  0.00     0.118 C 
BRANCH  31  32
ATOM     32  N   UNL A   1      35.484  30.608  27.228  1.00  0.00    -0.352 N 
ATOM     33  C   UNL A   1      36.365  30.873  28.268  1.00  0.00     0.251 C 
ATOM     34  H   UNL A   1      35.724  30.799  26.292  1.00  0.00     0.163 HD
ATOM     35  O   UNL A   1      36.198  31.712  29.134  1.00  0.00    -0.269 OA
BRANCH  33  36
ATOM     36  C   UNL A   1      37.281  29.732  28.483  1.00  0.00     0.039 A 
ATOM     37  C   UNL A   1      37.309  28.985  29.658  1.00  0.00     0.014 A 
ATOM     38  C   UNL A   1      38.308  29.654  27.538  1.00  0.00     0.014 A 
ATOM     39  C   UNL A   1      38.439  28.210  29.933  1.00  0.00     0.010 A 
ATOM     40  C   UNL A   1      39.451  28.961  27.849  1.00  0.00     0.010 A 
ATOM     41  C   UNL A   1      39.528  28.262  29.058  1.00  0.00    -0.014 A 
BRANCH  41  42
ATOM     42  C   UNL A   1      40.820  27.631  29.285  1.00  0.00     0.031 A 
ATOM     43  C   UNL A   1      41.037  26.238  28.845  1.00  0.00     0.074 A 
ATOM     44  C   UNL A   1      41.853  28.403  29.682  1.00  0.00     0.049 A 
ATOM     45  N   UNL A   1      42.050  25.511  29.169  1.00  0.00    -0.248 NA
ATOM     46  C   UNL A   1      40.066  25.530  28.021  1.00  0.00     0.031 C 
ATOM     47  C   UNL A   1      43.277  28.106  29.575  1.00  0.00     0.029 A 
ATOM     48  N   UNL A   1      41.795  29.562  30.463  1.00  0.00    -0.354 N 
ATOM     49  C   UNL A   1      42.018  24.366  28.397  1.00  0.00     0.074 A 
ATOM     50  C   UNL A   1      40.716  24.390  27.776  1.00  0.00     0.031 C 
ATOM     51  C   UNL A   1      43.944  28.862  30.462  1.00  0.00     0.029 A 
ATOM     52  C   UNL A   1      42.947  29.537  31.277  1.00  0.00     0.049 A 
ATOM     53  H   UNL A   1      41.094  30.252  30.449  1.00  0.00     0.167 HD
ATOM     54  C   UNL A   1      43.156  23.617  28.289  1.00  0.00     0.037 A 
ATOM     55  C   UNL A   1      42.836  29.393  32.631  1.00  0.00     0.037 A 
ATOM     56  C   UNL A   1      44.175  24.111  29.223  1.00  0.00     0.049 A 
ATOM     57  C   UNL A   1      43.501  28.147  33.168  1.00  0.00     0.074 A 
ATOM     58  C   UNL A   1      45.278  24.935  29.065  1.00  0.00     0.029 A 
ATOM     59  N   UNL A   1      43.950  24.014  30.594  1.00  0.00    -0.354 N 
ATOM     60  N   UNL A   1      43.782  27.094  32.449  1.00  0.00    -0.248 NA
ATOM     61  C   UNL A   1      43.918  27.999  34.557  1.00  0.00     0.031 C 
ATOM     62  C   UNL A   1      45.662  25.402  30.349  1.00  0.00     0.029 A 
ATOM     63  C   UNL A   1      44.816  24.838  31.289  1.00  0.00     0.049 A 
ATOM     64  H   UNL A   1      43.269  23.439  31.011  1.00  0.00     0.167 HD
ATOM     65  C   UNL A   1      44.385  26.145  33.235  1.00  0.00     0.074 A 
ATOM     66  C   UNL A   1      44.468  26.772  34.542  1.00  0.00     0.031 C 
ATOM     67  C   UNL A   1      44.764  24.925  32.745  1.00  0.00     0.037 A 
BRANCH  54  68
ATOM     68  C   UNL A   1      43.467  22.622  27.171  1.00  0.00     0.058 A 
ATOM     69  C   UNL A   1      42.739  21.411  27.065  1.00  0.00     0.135 A 
ATOM     70  C   UNL A   1      44.505  22.741  26.224  1.00  0.00     0.135 A 
ATOM     71  F   UNL A   1      41.664  21.171  27.829  1.00  0.00    -0.206 F 
ATOM     72  C   UNL A   1      43.077  20.381  26.177  1.00  0.00     0.059 A 
ATOM     73  C   UNL A   1      44.885  21.715  25.352  1.00  0.00     0.059 A 
ATOM     74  F   UNL A   1      45.181  23.877  26.048  1.00  0.00    -0.206 F 
ATOM     75  C   UNL A   1      44.176  20.528  25.345  1.00  0.00     0.060 A 
BRANCH  75  76
ATOM     76  S   UNL A   1      44.647  19.179  24.246  1.00  0.00     0.124 S 
ATOM     77  O   UNL A   1      43.714  18.127  24.637  1.00  0.00    -0.237 OA
ATOM     78  O   UNL A   1      44.428  19.765  22.928  1.00  0.00    -0.237 OA
ATOM     79  O   UNL A   1      46.043  18.929  24.591  1.00  0.00    -0.744 OA
ENDBRANCH  75  76
ENDBRANCH  54  68
BRANCH  55  80
ATOM     80  C   UNL A   1      41.609  30.041  33.181  1.00  0.00     0.058 A 
ATOM     81  C   UNL A   1      41.650  31.436  33.375  1.00  0.00     0.135 A 
ATOM     82  C   UNL A   1      40.347  29.445  33.039  1.00  0.00     0.135 A 
ATOM     83  F   UNL A   1      42.830  32.055  33.547  1.00  0.00    -0.206 F 
ATOM     84  C   UNL A   1      40.515  32.229  33.234  1.00  0.00     0.059 A 
ATOM     85  C   UNL A   1      39.192  30.222  32.912  1.00  0.00     0.059 A 
ATOM     86  F   UNL A   1      40.240  28.120  32.866  1.00  0.00    -0.206 F 
ATOM     87  C   UNL A   1      39.305  31.613  32.919  1.00  0.00     0.060 A 
BRANCH  87  88
ATOM     88  S   UNL A   1      37.950  32.660  32.333  1.00  0.00     0.124 S 
ATOM     89  O   UNL A   1      37.939  33.734  33.319  1.00  0.00    -0.237 OA
ATOM     90  O   UNL A   1      38.412  33.034  30.994  1.00  0.00    -0.237 OA
ATOM     91  O   UNL A   1      36.795  31.771  32.356  1.00  0.00    -0.744 OA
ENDBRANCH  87  88
ENDBRANCH  55  80
BRANCH  67  92
ATOM     92  C   UNL A   1      45.216  23.729  33.562  1.00  0.00     0.058 A 
ATOM     93  C   UNL A   1      46.522  23.551  34.052  1.00  0.00     0.135 A 
ATOM     94  C   UNL A   1      44.275  22.762  34.000  1.00  0.00     0.135 A 
ATOM     95  F   UNL A   1      47.485  24.455  33.829  1.00  0.00    -0.206 F 
ATOM     96  C   UNL A   1      46.887  22.458  34.845  1.00  0.00     0.059 A 
ATOM     97  C   UNL A   1      44.603  21.700  34.840  1.00  0.00     0.059 A 
ATOM     98  F   UNL A   1      42.985  22.823  33.637  1.00  0.00    -0.206 F 
ATOM     99  C   UNL A   1      45.921  21.537  35.234  1.00  0.00     0.060 A 
BRANCH  99 100
ATOM    100  S   UNL A   1      46.374  20.164  36.310  1.00  0.00     0.124 S 
ATOM    101  O   UNL A   1      45.787  20.584  37.579  1.00  0.00    -0.237 OA
ATOM    102  O   UNL A   1      45.732  19.022  35.667  1.00  0.00    -0.237 OA
ATOM    103  O   UNL A   1      47.833  20.164  36.256  1.00  0.00    -0.744 OA
ENDBRANCH  99 100
ENDBRANCH  67  92
ENDBRANCH  41  42
ENDBRANCH  33  36
ENDBRANCH  31  32
ENDBRANCH   1  31
TORSDOF 16
ENDMDL
MODEL 2
REMARK VINA RESULT:     -15.0      4.803     10.767
REMARK SMILES Cc1ccc(-c2nc(NC(=O)[C@H]3[C@@H](C(=O)NCCCNC(=O)c4ccc(-c5c6nc(c(-c7c(F)cc(S(=O)(=O)[O-])cc7F)c7ccc([nH]7)c(-c7c(F)cc(S(=O)(=O)[O-])cc7F)c7nc(c(-c8c(F)cc(S(=O)(=O)[O-])cc8F)c8ccc5[nH]8)C=C7)C=C6)cc4)[C@@H]4CC[C@H]3O4)sc2C)cc1
REMARK SMILES IDX 18 1 17 2 16 3 14 4 15 5 13 7 12 8 92 9 89 10 91 11 93 12
REMARK SMILES IDX 90 13 10 14 9 15 11 17 8 18 6 19 7 20 95 21 94 22 96 23 5 24
REMARK SMILES IDX 1 25 2 26 3 27 98 28 4 29 97 30 19 31 20 32 21 33 22 35
REMARK SMILES IDX 23 36 24 37 88 38 25 39 87 40 26 41 27 42 28 43 81 44 29 45
REMARK SMILES IDX 86 46 80 47 82 48 30 49 85 50 79 51 78 52 31 54 65 55 44 56
REMARK SMILES IDX 64 57 45 58 48 59 63 60 83 61 46 62 47 63 62 65 84 66 49 67
REMARK SMILES IDX 32 68 33 69 42 70 34 71 35 72 41 73 43 74 36 75 37 76 38 77
REMARK SMILES IDX 39 78 40 79 66 80 67 81 76 82 68 83 69 84 75 85 77 86 70 87
REMARK SMILES IDX 71 88 72 89 73 90 74 91 50 92 51 93 60 94 52 95 53 96 59 97
REMARK SMILES IDX 61 98 54 99 55 100 56 101 57 102 58 103
REMARK H PARENT 16 6 9 16 20 34 82 53 48 64
REMARK Flexibility Score: inf
ROOT
ATOM      1  C   UNL A   1      36.698  22.692  25.485  1.00  0.00     0.042 C 
ENDROOT
BRANCH   1   2
ATOM      2  C   UNL A   1      35.942  23.983  25.238  1.00  0.00     0.117 C 
BRANCH   2   3
ATOM      3  N   UNL A   1      34.769  23.888  24.373  1.00  0.00    -0.356 N 
ATOM      4  C   UNL A   1      34.252  24.905  23.628  1.00  0.00     0.226 C 
ATOM      5  O   UNL A   1      34.251  24.777  22.401  1.00  0.00    -0.275 OA
ATOM      6  H   UNL A   1      34.314  23.016  24.324  1.00  0.00     0.163 HD
BRANCH   4   7
ATOM      7  C   UNL A   1      33.848  26.196  24.302  1.00  0.00     0.122 C 
ATOM      8  C   UNL A   1      32.924  26.347  25.522  1.00  0.00     0.123 C 
ATOM      9  C   UNL A   1      32.372  27.760  25.243  1.00  0.00     0.132 C 
ATOM     10  C   UNL A   1      33.237  27.246  23.322  1.00  0.00     0.132 C 
ATOM     11  C   UNL A   1      33.493  28.814  25.042  1.00  0.00     0.035 C 
ATOM     12  O   UNL A   1      31.931  27.551  23.887  1.00  0.00    -0.373 OA
ATOM     13  C   UNL A   1      33.891  28.597  23.576  1.00  0.00     0.035 C 
BRANCH   8  14
ATOM     14  C   UNL A   1      31.764  25.528  26.154  1.00  0.00     0.232 C 
ATOM     15  N   UNL A   1      31.259  24.287  25.988  1.00  0.00    -0.302 N 
ATOM     16  H   UNL A   1      30.467  24.147  26.556  1.00  0.00     0.172 HD
ATOM     17  O   UNL A   1      31.088  26.192  26.975  1.00  0.00    -0.274 OA
BRANCH  15  18
ATOM     18  C   UNL A   1      31.540  23.175  25.250  1.00  0.00     0.190 A 
ATOM     19  C   UNL A   1      32.343  21.162  24.702  1.00  0.00     0.086 A 
ATOM     20  N   UNL A   1      32.068  22.067  25.743  1.00  0.00    -0.220 NA
ATOM     21  C   UNL A   1      31.903  21.600  23.459  1.00  0.00     0.031 A 
ATOM     22  S   UNL A   1      31.153  23.113  23.629  1.00  0.00    -0.101 S 
ATOM     23  C   UNL A   1      31.939  21.019  22.093  1.00  0.00     0.059 C 
BRANCH  19  24
ATOM     24  C   UNL A   1      33.010  19.864  24.896  1.00  0.00     0.001 A 
ATOM     25  C   UNL A   1      35.004  16.001  24.942  1.00  0.00     0.044 C 
ATOM     26  C   UNL A   1      34.315  17.336  24.952  1.00  0.00    -0.051 A 
ATOM     27  C   UNL A   1      32.964  17.458  25.306  1.00  0.00     0.004 A 
ATOM     28  C   UNL A   1      35.023  18.492  24.629  1.00  0.00     0.004 A 
ATOM     29  C   UNL A   1      32.315  18.710  25.277  1.00  0.00     0.010 A 
ATOM     30  C   UNL A   1      34.384  19.736  24.624  1.00  0.00     0.010 A 
ENDBRANCH  19  24
ENDBRANCH  15  18
ENDBRANCH   8  14
ENDBRANCH   4   7
ENDBRANCH   2   3
ENDBRANCH   1   2
BRANCH   1  31
ATOM     31  C   UNL A   1      38.181  22.913  25.702  1.00  0.00     0.118 C 
BRANCH  31  32
ATOM     32  N   UNL A   1      38.547  23.089  27.093  1.00  0.00    -0.352 N 
ATOM     33  C   UNL A   1      39.763  23.703  27.358  1.00  0.00     0.251 C 
ATOM     34  H   UNL A   1      37.957  22.786  27.820  1.00  0.00     0.163 HD
ATOM     35  O   UNL A   1      40.858  23.236  27.102  1.00  0.00    -0.269 OA
BRANCH  33  36
ATOM     36  C   UNL A   1      39.585  25.159  27.546  1.00  0.00     0.039 A 
ATOM     37  C   UNL A   1      40.122  26.113  26.685  1.00  0.00     0.014 A 
ATOM     38  C   UNL A   1      39.091  25.504  28.807  1.00  0.00     0.014 A 
ATOM     39  C   UNL A   1      40.250  27.429  27.138  1.00  0.00     0.010 A 
ATOM     40  C   UNL A   1      39.296  26.775  29.280  1.00  0.00     0.010 A 
ATOM     41  C   UNL A   1      39.900  27.731  28.456  1.00  0.00    -0.014 A 
BRANCH  41  42
ATOM     42  C   UNL A   1      40.114  29.013  29.111  1.00  0.00     0.031 A 
ATOM     43  C   UNL A   1      39.069  30.054  29.033  1.00  0.00     0.074 A 
ATOM     44  C   UNL A   1      41.155  29.137  29.961  1.00  0.00     0.049 A 
ATOM     45  N   UNL A   1      39.223  31.283  29.387  1.00  0.00    -0.248 NA
ATOM     46  C   UNL A   1      37.748  29.780  28.482  1.00  0.00     0.031 C 
ATOM     47  C   UNL A   1      41.331  30.133  31.012  1.00  0.00     0.029 A 
ATOM     48  N   UNL A   1      42.384  28.473  29.898  1.00  0.00    -0.354 N 
ATOM     49  C   UNL A   1      37.982  31.888  29.380  1.00  0.00     0.074 A 
ATOM     50  C   UNL A   1      37.123  30.936  28.719  1.00  0.00     0.031 C 
ATOM     51  C   UNL A   1      42.637  30.219  31.311  1.00  0.00     0.029 A 
ATOM     52  C   UNL A   1      43.349  29.404  30.340  1.00  0.00     0.049 A 
ATOM     53  H   UNL A   1      42.545  27.547  29.605  1.00  0.00     0.167 HD
ATOM     54  C   UNL A   1      37.823  33.066  30.055  1.00  0.00     0.037 A 
ATOM     55  C   UNL A   1      44.294  29.885  29.478  1.00  0.00     0.037 A 
ATOM     56  C   UNL A   1      39.127  33.565  30.509  1.00  0.00     0.049 A 
ATOM     57  C   UNL A   1      44.225  31.379  29.271  1.00  0.00     0.074 A 
ATOM     58  C   UNL A   1      39.784  33.511  31.728  1.00  0.00     0.029 A 
ATOM     59  N   UNL A   1      40.077  33.951  29.568  1.00  0.00    -0.354 N 
ATOM     60  N   UNL A   1      43.169  32.109  29.509  1.00  0.00    -0.248 NA
ATOM     61  C   UNL A   1      45.353  32.173  28.796  1.00  0.00     0.031 C 
ATOM     62  C   UNL A   1      41.157  33.784  31.497  1.00  0.00     0.029 A 
ATOM     63  C   UNL A   1      41.330  34.037  30.147  1.00  0.00     0.049 A 
ATOM     64  H   UNL A   1      39.884  34.138  28.621  1.00  0.00     0.167 HD
ATOM     65  C   UNL A   1      43.440  33.423  29.223  1.00  0.00     0.074 A 
ATOM     66  C   UNL A   1      44.830  33.412  28.803  1.00  0.00     0.031 C 
ATOM     67  C   UNL A   1      42.499  34.408  29.356  1.00  0.00     0.037 A 
BRANCH  54  68
ATOM     68  C   UNL A   1      36.496  33.640  30.550  1.00  0.00     0.058 A 
ATOM     69  C   UNL A   1      35.551  34.159  29.631  1.00  0.00     0.135 A 
ATOM     70  C   UNL A   1      36.113  33.791  31.899  1.00  0.00     0.135 A 
ATOM     71  F   UNL A   1      35.715  34.022  28.307  1.00  0.00    -0.206 F 
ATOM     72  C   UNL A   1      34.396  34.851  30.017  1.00  0.00     0.059 A 
ATOM     73  C   UNL A   1      34.984  34.507  32.312  1.00  0.00     0.059 A 
ATOM     74  F   UNL A   1      36.778  33.209  32.898  1.00  0.00    -0.206 F 
ATOM     75  C   UNL A   1      34.135  35.050  31.364  1.00  0.00     0.060 A 
BRANCH  75  76
ATOM     76  S   UNL A   1      32.681  35.991  31.860  1.00  0.00     0.124 S 
ATOM     77  O   UNL A   1      32.200  36.507  30.582  1.00  0.00    -0.237 OA
ATOM     78  O   UNL A   1      31.850  34.968  32.486  1.00  0.00    -0.237 OA
ATOM     79  O   UNL A   1      33.219  36.997  32.771  1.00  0.00    -0.744 OA
ENDBRANCH  75  76
ENDBRANCH  54  68
BRANCH  55  80
ATOM     80  C   UNL A   1      44.715  28.876  28.463  1.00  0.00     0.058 A 
ATOM     81  C   UNL A   1      44.186  29.011  27.164  1.00  0.00     0.135 A 
ATOM     82  C   UNL A   1      45.915  28.162  28.601  1.00  0.00     0.135 A 
ATOM     83  F   UNL A   1      43.024  29.658  26.977  1.00  0.00    -0.206 F 
ATOM     84  C   UNL A   1      44.910  28.636  26.035  1.00  0.00     0.059 A 
ATOM     85  C   UNL A   1      46.650  27.761  27.481  1.00  0.00     0.059 A 
ATOM     86  F   UNL A   1      46.462  27.985  29.812  1.00  0.00    -0.206 F 
ATOM     87  C   UNL A   1      46.179  28.087  26.208  1.00  0.00     0.060 A 
BRANCH  87  88
ATOM     88  S   UNL A   1      47.264  27.994  24.763  1.00  0.00     0.124 S 
ATOM     89  O   UNL A   1      47.098  26.609  24.338  1.00  0.00    -0.237 OA
ATOM     90  O   UNL A   1      46.678  29.003  23.876  1.00  0.00    -0.237 OA
ATOM     91  O   UNL A   1      48.577  28.337  25.296  1.00  0.00    -0.744 OA
ENDBRANCH  87  88
ENDBRANCH  55  80
BRANCH  67  92
ATOM     92  C   UNL A   1      42.614  35.834  28.852  1.00  0.00     0.058 A 
ATOM     93  C   UNL A   1      43.298  36.861  29.526  1.00  0.00     0.135 A 
ATOM     94  C   UNL A   1      42.132  36.181  27.563  1.00  0.00     0.135 A 
ATOM     95  F   UNL A   1      43.918  36.644  30.693  1.00  0.00    -0.206 F 
ATOM     96  C   UNL A   1      43.424  38.153  29.003  1.00  0.00     0.059 A 
ATOM     97  C   UNL A   1      42.300  37.443  26.997  1.00  0.00     0.059 A 
ATOM     98  F   UNL A   1      41.487  35.293  26.792  1.00  0.00    -0.206 F 
ATOM     99  C   UNL A   1      42.921  38.435  27.739  1.00  0.00     0.060 A 
BRANCH  99 100
ATOM    100  S   UNL A   1      43.141  40.079  27.034  1.00  0.00     0.124 S 
ATOM    101  O   UNL A   1      43.199  40.905  28.237  1.00  0.00    -0.237 OA
ATOM    102  O   UNL A   1      44.394  39.952  26.297  1.00  0.00    -0.237 OA
ATOM    103  O   UNL A   1      41.951  40.249  26.205  1.00  0.00    -0.744 OA
ENDBRANCH  99 100
ENDBRANCH  67  92
ENDBRANCH  41  42
ENDBRANCH  33  36
ENDBRANCH  31  32
ENDBRANCH   1  31
TORSDOF 16
ENDMDL
MODEL 3
REMARK VINA RESULT:     -14.9      4.611     11.560
REMARK SMILES Cc1ccc(-c2nc(NC(=O)[C@H]3[C@@H](C(=O)NCCCNC(=O)c4ccc(-c5c6nc(c(-c7c(F)cc(S(=O)(=O)[O-])cc7F)c7ccc([nH]7)c(-c7c(F)cc(S(=O)(=O)[O-])cc7F)c7nc(c(-c8c(F)cc(S(=O)(=O)[O-])cc8F)c8ccc5[nH]8)C=C7)C=C6)cc4)[C@@H]4CC[C@H]3O4)sc2C)cc1
REMARK SMILES IDX 18 1 17 2 16 3 14 4 15 5 13 7 12 8 92 9 89 10 91 11 93 12
REMARK SMILES IDX 90 13 10 14 9 15 11 17 8 18 6 19 7 20 95 21 94 22 96 23 5 24
REMARK SMILES IDX 1 25 2 26 3 27 98 28 4 29 97 30 19 31 20 32 21 33 22 35
REMARK SMILES IDX 23 36 24 37 88 38 25 39 87 40 26 41 27 42 28 43 81 44 29 45
REMARK SMILES IDX 86 46 80 47 82 48 30 49 85 50 79 51 78 52 31 54 65 55 44 56
REMARK SMILES IDX 64 57 45 58 48 59 63 60 83 61 46 62 47 63 62 65 84 66 49 67
REMARK SMILES IDX 32 68 33 69 42 70 34 71 35 72 41 73 43 74 36 75 37 76 38 77
REMARK SMILES IDX 39 78 40 79 66 80 67 81 76 82 68 83 69 84 75 85 77 86 70 87
REMARK SMILES IDX 71 88 72 89 73 90 74 91 50 92 51 93 60 94 52 95 53 96 59 97
REMARK SMILES IDX 61 98 54 99 55 100 56 101 57 102 58 103
REMARK H PARENT 16 6 9 16 20 34 82 53 48 64
REMARK Flexibility Score: inf
ROOT
ATOM      1  C   UNL A   1      37.720  22.001  25.297  1.00  0.00     0.042 C 
ENDROOT
BRANCH   1   2
ATOM      2  C   UNL A   1      37.010  22.190  23.970  1.00  0.00     0.117 C 
BRANCH   2   3
ATOM      3  N   UNL A   1      35.897  23.135  23.964  1.00  0.00    -0.356 N 
ATOM      4  C   UNL A   1      34.744  23.003  24.678  1.00  0.00     0.226 C 
ATOM      5  O   UNL A   1      34.497  23.854  25.535  1.00  0.00    -0.275 OA
ATOM      6  H   UNL A   1      35.987  23.934  23.397  1.00  0.00     0.163 HD
BRANCH   4   7
ATOM      7  C   UNL A   1      33.899  21.761  24.512  1.00  0.00     0.122 C 
ATOM      8  C   UNL A   1      32.365  21.676  24.577  1.00  0.00     0.123 C 
ATOM      9  C   UNL A   1      32.216  20.216  25.054  1.00  0.00     0.132 C 
ATOM     10  C   UNL A   1      34.312  20.594  25.464  1.00  0.00     0.132 C 
ATOM     11  C   UNL A   1      32.964  19.207  24.143  1.00  0.00     0.035 C 
ATOM     12  O   UNL A   1      33.094  20.277  26.195  1.00  0.00    -0.373 OA
ATOM     13  C   UNL A   1      34.408  19.308  24.655  1.00  0.00     0.035 C 
BRANCH   8  14
ATOM     14  C   UNL A   1      31.228  22.489  25.256  1.00  0.00     0.232 C 
ATOM     15  N   UNL A   1      30.938  23.799  25.407  1.00  0.00    -0.302 N 
ATOM     16  H   UNL A   1      30.132  23.923  25.957  1.00  0.00     0.172 HD
ATOM     17  O   UNL A   1      30.407  21.765  25.868  1.00  0.00    -0.274 OA
BRANCH  15  18
ATOM     18  C   UNL A   1      31.455  24.998  25.011  1.00  0.00     0.190 A 
ATOM     19  C   UNL A   1      32.205  27.101  25.111  1.00  0.00     0.086 A 
ATOM     20  N   UNL A   1      31.835  25.956  25.838  1.00  0.00    -0.220 NA
ATOM     21  C   UNL A   1      32.184  26.910  23.734  1.00  0.00     0.031 A 
ATOM     22  S   UNL A   1      31.718  25.314  23.395  1.00  0.00    -0.101 S 
ATOM     23  C   UNL A   1      32.497  27.779  22.571  1.00  0.00     0.059 C 
BRANCH  19  24
ATOM     24  C   UNL A   1      32.599  28.377  25.729  1.00  0.00     0.001 A 
ATOM     25  C   UNL A   1      33.735  31.895  28.016  1.00  0.00     0.044 C 
ATOM     26  C   UNL A   1      33.345  30.693  27.205  1.00  0.00    -0.051 A 
ATOM     27  C   UNL A   1      32.083  30.599  26.599  1.00  0.00     0.004 A 
ATOM     28  C   UNL A   1      34.250  29.651  27.016  1.00  0.00     0.004 A 
ATOM     29  C   UNL A   1      31.711  29.451  25.869  1.00  0.00     0.010 A 
ATOM     30  C   UNL A   1      33.888  28.524  26.271  1.00  0.00     0.010 A 
ENDBRANCH  19  24
ENDBRANCH  15  18
ENDBRANCH   8  14
ENDBRANCH   4   7
ENDBRANCH   2   3
ENDBRANCH   1   2
BRANCH   1  31
ATOM     31  C   UNL A   1      38.586  23.186  25.673  1.00  0.00     0.118 C 
BRANCH  31  32
ATOM     32  N   UNL A   1      38.739  23.366  27.102  1.00  0.00    -0.352 N 
ATOM     33  C   UNL A   1      39.910  23.967  27.546  1.00  0.00     0.251 C 
ATOM     34  H   UNL A   1      38.042  23.075  27.733  1.00  0.00     0.163 HD
ATOM     35  O   UNL A   1      41.024  23.484  27.461  1.00  0.00    -0.269 OA
BRANCH  33  36
ATOM     36  C   UNL A   1      39.724  25.426  27.698  1.00  0.00     0.039 A 
ATOM     37  C   UNL A   1      40.288  26.363  26.835  1.00  0.00     0.014 A 
ATOM     38  C   UNL A   1      39.190  25.796  28.935  1.00  0.00     0.014 A 
ATOM     39  C   UNL A   1      40.400  27.688  27.264  1.00  0.00     0.010 A 
ATOM     40  C   UNL A   1      39.379  27.078  29.388  1.00  0.00     0.010 A 
ATOM     41  C   UNL A   1      40.008  28.017  28.564  1.00  0.00    -0.014 A 
BRANCH  41  42
ATOM     42  C   UNL A   1      40.201  29.312  29.198  1.00  0.00     0.031 A 
ATOM     43  C   UNL A   1      39.120  30.317  29.144  1.00  0.00     0.074 A 
ATOM     44  C   UNL A   1      41.264  29.480  30.012  1.00  0.00     0.049 A 
ATOM     45  N   UNL A   1      39.244  31.555  29.480  1.00  0.00    -0.248 NA
ATOM     46  C   UNL A   1      37.792  29.993  28.639  1.00  0.00     0.031 C 
ATOM     47  C   UNL A   1      41.441  30.494  31.047  1.00  0.00     0.029 A 
ATOM     48  N   UNL A   1      42.512  28.857  29.916  1.00  0.00    -0.354 N 
ATOM     49  C   UNL A   1      37.984  32.119  29.508  1.00  0.00     0.074 A 
ATOM     50  C   UNL A   1      37.137  31.131  28.885  1.00  0.00     0.031 C 
ATOM     51  C   UNL A   1      42.752  30.626  31.302  1.00  0.00     0.029 A 
ATOM     52  C   UNL A   1      43.459  29.824  30.316  1.00  0.00     0.049 A 
ATOM     53  H   UNL A   1      42.694  27.934  29.627  1.00  0.00     0.167 HD
ATOM     54  C   UNL A   1      37.808  33.298  30.176  1.00  0.00     0.037 A 
ATOM     55  C   UNL A   1      44.359  30.326  29.420  1.00  0.00     0.037 A 
ATOM     56  C   UNL A   1      39.109  33.845  30.582  1.00  0.00     0.049 A 
ATOM     57  C   UNL A   1      44.234  31.815  29.200  1.00  0.00     0.074 A 
ATOM     58  C   UNL A   1      39.806  33.826  31.779  1.00  0.00     0.029 A 
ATOM     59  N   UNL A   1      40.014  34.252  29.606  1.00  0.00    -0.354 N 
ATOM     60  N   UNL A   1      43.162  32.512  29.465  1.00  0.00    -0.248 NA
ATOM     61  C   UNL A   1      45.319  32.640  28.680  1.00  0.00     0.031 C 
ATOM     62  C   UNL A   1      41.161  34.142  31.500  1.00  0.00     0.029 A 
ATOM     63  C   UNL A   1      41.281  34.385  30.143  1.00  0.00     0.049 A 
ATOM     64  H   UNL A   1      39.785  34.421  28.664  1.00  0.00     0.167 HD
ATOM     65  C   UNL A   1      43.380  33.831  29.157  1.00  0.00     0.074 A 
ATOM     66  C   UNL A   1      44.755  33.861  28.692  1.00  0.00     0.031 C 
ATOM     67  C   UNL A   1      42.411  34.785  29.310  1.00  0.00     0.037 A 
BRANCH  54  68
ATOM     68  C   UNL A   1      36.479  33.833  30.708  1.00  0.00     0.058 A 
ATOM     69  C   UNL A   1      35.513  34.366  29.820  1.00  0.00     0.135 A 
ATOM     70  C   UNL A   1      36.113  33.934  32.066  1.00  0.00     0.135 A 
ATOM     71  F   UNL A   1      35.659  34.276  28.490  1.00  0.00    -0.206 F 
ATOM     72  C   UNL A   1      34.352  35.026  30.245  1.00  0.00     0.059 A 
ATOM     73  C   UNL A   1      34.979  34.617  32.518  1.00  0.00     0.059 A 
ATOM     74  F   UNL A   1      36.802  33.331  33.036  1.00  0.00    -0.206 F 
ATOM     75  C   UNL A   1      34.108  35.176  31.602  1.00  0.00     0.060 A 
BRANCH  75  76
ATOM     76  S   UNL A   1      32.646  36.077  32.148  1.00  0.00     0.124 S 
ATOM     77  O   UNL A   1      31.754  34.995  32.554  1.00  0.00    -0.237 OA
ATOM     78  O   UNL A   1      33.178  36.901  33.229  1.00  0.00    -0.237 OA
ATOM     79  O   UNL A   1      32.230  36.809  30.956  1.00  0.00    -0.744 OA
ENDBRANCH  75  76
ENDBRANCH  54  68
BRANCH  55  80
ATOM     80  C   UNL A   1      44.780  29.320  28.402  1.00  0.00     0.058 A 
ATOM     81  C   UNL A   1      45.706  28.339  28.810  1.00  0.00     0.135 A 
ATOM     82  C   UNL A   1      43.971  29.021  27.296  1.00  0.00     0.135 A 
ATOM     83  F   UNL A   1      46.528  28.583  29.844  1.00  0.00    -0.206 F 
ATOM     84  C   UNL A   1      45.692  27.052  28.281  1.00  0.00     0.059 A 
ATOM     85  C   UNL A   1      43.953  27.740  26.737  1.00  0.00     0.059 A 
ATOM     86  F   UNL A   1      43.079  29.918  26.848  1.00  0.00    -0.206 F 
ATOM     87  C   UNL A   1      44.751  26.743  27.300  1.00  0.00     0.060 A 
BRANCH  87  88
ATOM     88  S   UNL A   1      44.463  24.997  26.925  1.00  0.00     0.124 S 
ATOM     89  O   UNL A   1      44.047  24.465  28.217  1.00  0.00    -0.237 OA
ATOM     90  O   UNL A   1      43.414  25.073  25.904  1.00  0.00    -0.237 OA
ATOM     91  O   UNL A   1      45.756  24.532  26.438  1.00  0.00    -0.744 OA
ENDBRANCH  87  88
ENDBRANCH  55  80
BRANCH  67  92
ATOM     92  C   UNL A   1      42.462  36.209  28.789  1.00  0.00     0.058 A 
ATOM     93  C   UNL A   1      43.078  37.279  29.461  1.00  0.00     0.135 A 
ATOM     94  C   UNL A   1      41.989  36.514  27.486  1.00  0.00     0.135 A 
ATOM     95  F   UNL A   1      43.685  37.110  30.644  1.00  0.00    -0.206 F 
ATOM     96  C   UNL A   1      43.147  38.568  28.923  1.00  0.00     0.059 A 
ATOM     97  C   UNL A   1      42.104  37.775  26.905  1.00  0.00     0.059 A 
ATOM     98  F   UNL A   1      41.408  35.582  26.715  1.00  0.00    -0.206 F 
ATOM     99  C   UNL A   1      42.657  38.807  27.645  1.00  0.00     0.060 A 
BRANCH  99 100
ATOM    100  S   UNL A   1      42.805  40.452  26.921  1.00  0.00     0.124 S 
ATOM    101  O   UNL A   1      43.407  41.199  28.021  1.00  0.00    -0.237 OA
ATOM    102  O   UNL A   1      43.669  40.222  25.768  1.00  0.00    -0.237 OA
ATOM    103  O   UNL A   1      41.425  40.800  26.598  1.00  0.00    -0.744 OA
ENDBRANCH  99 100
ENDBRANCH  67  92
ENDBRANCH  41  42
ENDBRANCH  33  36
ENDBRANCH  31  32
ENDBRANCH   1  31
TORSDOF 16
ENDMDL
