MODEL 1
REMARK VINA RESULT:      -9.9      0.000      0.000
REMARK SMILES C=CCN1C(=O)/C(=C\c2cccn2-c2ccc(C(=O)NCCCNC(=O)c3ccc(-c4c5nc(c(-c6c(F)cc(S(=O)(=O)[O-])cc6F)c6ccc([nH]6)c(-c6c(F)cc(S(=O)(=O)[O-])cc6F)c6nc(c(-c7c(F)cc(S(=O)(=O)[O-])cc7F)c7ccc4[nH]7)C=C6)C=C5)cc3)cc2)C(O)=NC1=S
REMARK SMILES IDX 21 1 20 2 18 3 19 4 17 6 14 7 15 8 94 9 16 10 93 11 13 12
REMARK SMILES IDX 9 13 10 14 11 15 12 16 8 17 4 18 5 19 98 20 6 21 7 22 97 23
REMARK SMILES IDX 99 24 95 25 3 26 2 27 1 28 96 29 22 31 23 32 24 33 25 34
REMARK SMILES IDX 26 36 27 37 28 38 92 39 29 40 91 41 30 42 31 43 32 44 85 45
REMARK SMILES IDX 33 46 90 47 84 48 86 49 34 50 89 51 83 52 82 53 35 55 69 56
REMARK SMILES IDX 48 57 68 58 49 59 52 60 67 61 87 62 50 63 51 64 66 66 88 67
REMARK SMILES IDX 53 68 36 69 37 70 46 71 38 72 39 73 45 74 47 75 40 76 41 77
REMARK SMILES IDX 42 78 43 79 44 80 70 81 71 82 80 83 72 84 73 85 79 86 81 87
REMARK SMILES IDX 74 88 75 89 76 90 77 91 78 92 54 93 55 94 64 95 56 96 57 97
REMARK SMILES IDX 63 98 65 99 58 100 59 101 60 102 61 103 62 104
REMARK H PARENT 20 5 96 30 24 35 86 54 52 65
REMARK Flexibility Score: inf
ROOT
ATOM      1  C   UNL A   1      43.409  39.665  33.968  1.00  0.00     0.118 C 
ENDROOT
BRANCH   1   2
ATOM      2  N   UNL A   1      44.257  38.920  34.879  1.00  0.00    -0.352 N 
ATOM      3  C   UNL A   1      44.105  37.695  35.479  1.00  0.00     0.251 C 
ATOM      4  O   UNL A   1      45.027  37.268  36.169  1.00  0.00    -0.269 OA
ATOM      5  H   UNL A   1      45.098  39.378  35.109  1.00  0.00     0.163 HD
BRANCH   3   6
ATOM      6  C   UNL A   1      42.904  36.834  35.280  1.00  0.00     0.039 A 
ATOM      7  C   UNL A   1      40.669  35.161  35.110  1.00  0.00     0.046 A 
ATOM      8  C   UNL A   1      40.864  35.927  36.260  1.00  0.00     0.027 A 
ATOM      9  C   UNL A   1      41.528  35.281  34.020  1.00  0.00     0.027 A 
ATOM     10  C   UNL A   1      41.997  36.739  36.349  1.00  0.00     0.016 A 
ATOM     11  C   UNL A   1      42.613  36.149  34.098  1.00  0.00     0.016 A 
BRANCH   7  12
ATOM     12  N   UNL A   1      39.555  34.303  35.000  1.00  0.00    -0.317 N 
ATOM     13  C   UNL A   1      39.527  32.924  35.189  1.00  0.00     0.047 A 
ATOM     14  C   UNL A   1      38.278  32.477  34.792  1.00  0.00     0.028 A 
ATOM     15  C   UNL A   1      37.519  33.601  34.395  1.00  0.00     0.020 A 
ATOM     16  C   UNL A   1      38.307  34.715  34.584  1.00  0.00     0.092 A 
BRANCH  13  17
ATOM     17  C   UNL A   1      40.610  32.242  35.815  1.00  0.00     0.046 C 
ATOM     18  N   UNL A   1      40.576  33.206  39.362  1.00  0.00    -0.279 N 
ATOM     19  C   UNL A   1      39.973  32.900  38.142  1.00  0.00     0.265 C 
ATOM     20  C   UNL A   1      41.829  32.706  39.750  1.00  0.00     0.206 C 
ATOM     21  O   UNL A   1      38.780  33.087  37.915  1.00  0.00    -0.268 OA
ATOM     22  C   UNL A   1      40.865  32.254  37.139  1.00  0.00     0.104 C 
ATOM     23  N   UNL A   1      42.506  31.874  38.896  1.00  0.00    -0.184 NA
ATOM     24  S   UNL A   1      42.566  33.051  41.239  1.00  0.00    -0.038 S 
ATOM     25  C   UNL A   1      42.079  31.665  37.708  1.00  0.00     0.226 C 
BRANCH  18  26
ATOM     26  C   UNL A   1      39.765  34.047  40.249  1.00  0.00     0.155 C 
BRANCH  26  27
ATOM     27  C   UNL A   1      39.954  35.488  39.851  1.00  0.00    -0.013 C 
ATOM     28  C   UNL A   1      39.082  36.469  40.121  1.00  0.00     0.006 C 
ENDBRANCH  26  27
ENDBRANCH  18  26
BRANCH  25  29
ATOM     29  O   UNL A   1      42.810  30.827  36.954  1.00  0.00    -0.493 OA
ATOM     30  H   UNL A   1      43.183  31.127  36.148  1.00  0.00     0.295 HD
ENDBRANCH  25  29
ENDBRANCH  13  17
ENDBRANCH   7  12
ENDBRANCH   3   6
ENDBRANCH   1   2
BRANCH   1  31
ATOM     31  C   UNL A   1      44.080  39.831  32.599  1.00  0.00     0.042 C 
BRANCH  31  32
ATOM     32  C   UNL A   1      44.061  38.536  31.801  1.00  0.00     0.118 C 
BRANCH  32  33
ATOM     33  N   UNL A   1      45.389  37.943  31.791  1.00  0.00    -0.352 N 
ATOM     34  C   UNL A   1      45.795  36.640  31.680  1.00  0.00     0.251 C 
ATOM     35  H   UNL A   1      46.125  38.592  31.881  1.00  0.00     0.163 HD
ATOM     36  O   UNL A   1      46.922  36.353  32.066  1.00  0.00    -0.269 OA
BRANCH  34  37
ATOM     37  C   UNL A   1      44.916  35.586  31.127  1.00  0.00     0.039 A 
ATOM     38  C   UNL A   1      44.719  34.437  31.909  1.00  0.00     0.014 A 
ATOM     39  C   UNL A   1      44.372  35.661  29.843  1.00  0.00     0.014 A 
ATOM     40  C   UNL A   1      43.932  33.396  31.433  1.00  0.00     0.010 A 
ATOM     41  C   UNL A   1      43.554  34.645  29.377  1.00  0.00     0.010 A 
ATOM     42  C   UNL A   1      43.328  33.522  30.180  1.00  0.00    -0.014 A 
BRANCH  42  43
ATOM     43  C   UNL A   1      42.325  32.537  29.737  1.00  0.00     0.031 A 
ATOM     44  C   UNL A   1      42.976  31.385  28.931  1.00  0.00     0.074 A 
ATOM     45  C   UNL A   1      41.050  32.773  30.174  1.00  0.00     0.049 A 
ATOM     46  N   UNL A   1      42.443  30.495  28.151  1.00  0.00    -0.248 NA
ATOM     47  C   UNL A   1      44.462  31.223  28.964  1.00  0.00     0.031 C 
ATOM     48  C   UNL A   1      40.639  33.955  30.970  1.00  0.00     0.029 A 
ATOM     49  N   UNL A   1      39.854  32.094  30.072  1.00  0.00    -0.354 N 
ATOM     50  C   UNL A   1      43.450  29.554  27.822  1.00  0.00     0.074 A 
ATOM     51  C   UNL A   1      44.690  30.122  28.246  1.00  0.00     0.031 C 
ATOM     52  C   UNL A   1      39.311  33.944  31.210  1.00  0.00     0.029 A 
ATOM     53  C   UNL A   1      38.724  32.752  30.634  1.00  0.00     0.049 A 
ATOM     54  H   UNL A   1      39.787  31.213  29.640  1.00  0.00     0.167 HD
ATOM     55  C   UNL A   1      43.184  28.295  27.358  1.00  0.00     0.037 A 
ATOM     56  C   UNL A   1      37.408  32.372  30.611  1.00  0.00     0.037 A 
ATOM     57  C   UNL A   1      41.777  28.115  27.242  1.00  0.00     0.049 A 
ATOM     58  C   UNL A   1      37.428  30.992  30.103  1.00  0.00     0.074 A 
ATOM     59  C   UNL A   1      40.858  28.628  26.367  1.00  0.00     0.029 A 
ATOM     60  N   UNL A   1      41.126  27.614  28.345  1.00  0.00    -0.354 N 
ATOM     61  N   UNL A   1      37.874  29.969  30.770  1.00  0.00    -0.248 NA
ATOM     62  C   UNL A   1      37.024  30.743  28.715  1.00  0.00     0.031 C 
ATOM     63  C   UNL A   1      39.739  28.871  27.187  1.00  0.00     0.029 A 
ATOM     64  C   UNL A   1      39.935  28.288  28.445  1.00  0.00     0.049 A 
ATOM     65  H   UNL A   1      41.453  26.907  28.947  1.00  0.00     0.167 HD
ATOM     66  C   UNL A   1      38.123  29.055  29.778  1.00  0.00     0.074 A 
ATOM     67  C   UNL A   1      37.316  29.448  28.641  1.00  0.00     0.031 C 
ATOM     68  C   UNL A   1      39.317  28.410  29.747  1.00  0.00     0.037 A 
BRANCH  55  69
ATOM     69  C   UNL A   1      44.028  27.059  27.194  1.00  0.00     0.058 A 
ATOM     70  C   UNL A   1      44.627  26.836  25.929  1.00  0.00     0.135 A 
ATOM     71  C   UNL A   1      43.955  25.951  28.049  1.00  0.00     0.135 A 
ATOM     72  F   UNL A   1      44.805  27.852  25.068  1.00  0.00    -0.206 F 
ATOM     73  C   UNL A   1      44.975  25.568  25.477  1.00  0.00     0.059 A 
ATOM     74  C   UNL A   1      44.339  24.671  27.630  1.00  0.00     0.059 A 
ATOM     75  F   UNL A   1      43.428  26.063  29.277  1.00  0.00    -0.206 F 
ATOM     76  C   UNL A   1      44.786  24.482  26.322  1.00  0.00     0.060 A 
BRANCH  76  77
ATOM     77  S   UNL A   1      45.080  22.828  25.658  1.00  0.00     0.124 S 
ATOM     78  O   UNL A   1      44.752  23.011  24.249  1.00  0.00    -0.237 OA
ATOM     79  O   UNL A   1      46.496  22.621  25.954  1.00  0.00    -0.237 OA
ATOM     80  O   UNL A   1      44.161  21.990  26.422  1.00  0.00    -0.744 OA
ENDBRANCH  76  77
ENDBRANCH  55  69
BRANCH  56  81
ATOM     81  C   UNL A   1      36.038  32.979  30.846  1.00  0.00     0.058 A 
ATOM     82  C   UNL A   1      35.232  32.797  31.977  1.00  0.00     0.135 A 
ATOM     83  C   UNL A   1      35.562  33.985  29.953  1.00  0.00     0.135 A 
ATOM     84  F   UNL A   1      35.458  31.798  32.838  1.00  0.00    -0.206 F 
ATOM     85  C   UNL A   1      34.164  33.661  32.289  1.00  0.00     0.059 A 
ATOM     86  C   UNL A   1      34.549  34.888  30.265  1.00  0.00     0.059 A 
ATOM     87  F   UNL A   1      36.111  34.173  28.744  1.00  0.00    -0.206 F 
ATOM     88  C   UNL A   1      33.876  34.745  31.461  1.00  0.00     0.060 A 
BRANCH  88  89
ATOM     89  S   UNL A   1      32.749  36.050  31.998  1.00  0.00     0.124 S 
ATOM     90  O   UNL A   1      33.551  36.759  32.988  1.00  0.00    -0.237 OA
ATOM     91  O   UNL A   1      32.487  36.771  30.756  1.00  0.00    -0.237 OA
ATOM     92  O   UNL A   1      31.607  35.307  32.526  1.00  0.00    -0.744 OA
ENDBRANCH  88  89
ENDBRANCH  56  81
BRANCH  68  93
ATOM     93  C   UNL A   1      40.007  28.266  31.098  1.00  0.00     0.058 A 
ATOM     94  C   UNL A   1      39.381  27.561  32.140  1.00  0.00     0.135 A 
ATOM     95  C   UNL A   1      41.235  28.866  31.431  1.00  0.00     0.135 A 
ATOM     96  F   UNL A   1      38.211  26.940  31.917  1.00  0.00    -0.206 F 
ATOM     97  C   UNL A   1      39.932  27.466  33.423  1.00  0.00     0.059 A 
ATOM     98  C   UNL A   1      41.815  28.781  32.699  1.00  0.00     0.059 A 
ATOM     99  F   UNL A   1      41.917  29.561  30.522  1.00  0.00    -0.206 F 
ATOM    100  C   UNL A   1      41.154  28.078  33.695  1.00  0.00     0.060 A 
BRANCH 100 101
ATOM    101  S   UNL A   1      41.871  27.922  35.347  1.00  0.00     0.124 S 
ATOM    102  O   UNL A   1      40.904  28.633  36.178  1.00  0.00    -0.237 OA
ATOM    103  O   UNL A   1      41.914  26.475  35.526  1.00  0.00    -0.237 OA
ATOM    104  O   UNL A   1      43.173  28.574  35.220  1.00  0.00    -0.744 OA
ENDBRANCH 100 101
ENDBRANCH  68  93
ENDBRANCH  42  43
ENDBRANCH  34  37
ENDBRANCH  32  33
ENDBRANCH  31  32
ENDBRANCH   1  31
TORSDOF 18
ENDMDL
MODEL 2
REMARK VINA RESULT:      -9.8      5.629      9.329
REMARK SMILES C=CCN1C(=O)/C(=C\c2cccn2-c2ccc(C(=O)NCCCNC(=O)c3ccc(-c4c5nc(c(-c6c(F)cc(S(=O)(=O)[O-])cc6F)c6ccc([nH]6)c(-c6c(F)cc(S(=O)(=O)[O-])cc6F)c6nc(c(-c7c(F)cc(S(=O)(=O)[O-])cc7F)c7ccc4[nH]7)C=C6)C=C5)cc3)cc2)C(O)=NC1=S
REMARK SMILES IDX 21 1 20 2 18 3 19 4 17 6 14 7 15 8 94 9 16 10 93 11 13 12
REMARK SMILES IDX 9 13 10 14 11 15 12 16 8 17 4 18 5 19 98 20 6 21 7 22 97 23
REMARK SMILES IDX 99 24 95 25 3 26 2 27 1 28 96 29 22 31 23 32 24 33 25 34
REMARK SMILES IDX 26 36 27 37 28 38 92 39 29 40 91 41 30 42 31 43 32 44 85 45
REMARK SMILES IDX 33 46 90 47 84 48 86 49 34 50 89 51 83 52 82 53 35 55 69 56
REMARK SMILES IDX 48 57 68 58 49 59 52 60 67 61 87 62 50 63 51 64 66 66 88 67
REMARK SMILES IDX 53 68 36 69 37 70 46 71 38 72 39 73 45 74 47 75 40 76 41 77
REMARK SMILES IDX 42 78 43 79 44 80 70 81 71 82 80 83 72 84 73 85 79 86 81 87
REMARK SMILES IDX 74 88 75 89 76 90 77 91 78 92 54 93 55 94 64 95 56 96 57 97
REMARK SMILES IDX 63 98 65 99 58 100 59 101 60 102 61 103 62 104
REMARK H PARENT 20 5 96 30 24 35 86 54 52 65
REMARK Flexibility Score: inf
ROOT
ATOM      1  C   UNL A   1      45.458  39.113  29.777  1.00  0.00     0.118 C 
ENDROOT
BRANCH   1   2
ATOM      2  N   UNL A   1      44.569  38.456  28.837  1.00  0.00    -0.352 N 
ATOM      3  C   UNL A   1      44.201  38.769  27.553  1.00  0.00     0.251 C 
ATOM      4  O   UNL A   1      43.468  37.987  26.952  1.00  0.00    -0.269 OA
ATOM      5  H   UNL A   1      44.155  37.633  29.185  1.00  0.00     0.163 HD
BRANCH   3   6
ATOM      6  C   UNL A   1      44.699  39.976  26.833  1.00  0.00     0.039 A 
ATOM      7  C   UNL A   1      45.436  42.318  25.494  1.00  0.00     0.046 A 
ATOM      8  C   UNL A   1      44.542  42.394  26.562  1.00  0.00     0.027 A 
ATOM      9  C   UNL A   1      46.024  41.105  25.141  1.00  0.00     0.027 A 
ATOM     10  C   UNL A   1      44.157  41.217  27.209  1.00  0.00     0.016 A 
ATOM     11  C   UNL A   1      45.683  39.953  25.842  1.00  0.00     0.016 A 
BRANCH   7  12
ATOM     12  N   UNL A   1      45.820  43.483  24.796  1.00  0.00    -0.317 N 
ATOM     13  C   UNL A   1      45.113  44.138  23.791  1.00  0.00     0.047 A 
ATOM     14  C   UNL A   1      45.947  45.109  23.265  1.00  0.00     0.028 A 
ATOM     15  C   UNL A   1      47.164  45.075  23.983  1.00  0.00     0.020 A 
ATOM     16  C   UNL A   1      47.040  44.105  24.952  1.00  0.00     0.092 A 
BRANCH  13  17
ATOM     17  C   UNL A   1      43.739  43.851  23.548  1.00  0.00     0.046 C 
ATOM     18  N   UNL A   1      43.298  43.743  19.900  1.00  0.00    -0.279 N 
ATOM     19  C   UNL A   1      44.010  43.538  21.082  1.00  0.00     0.265 C 
ATOM     20  C   UNL A   1      41.895  43.748  19.836  1.00  0.00     0.206 C 
ATOM     21  O   UNL A   1      45.204  43.247  21.106  1.00  0.00    -0.268 OA
ATOM     22  C   UNL A   1      43.204  43.625  22.330  1.00  0.00     0.104 C 
ATOM     23  N   UNL A   1      41.177  43.542  20.985  1.00  0.00    -0.184 NA
ATOM     24  S   UNL A   1      41.013  43.975  18.404  1.00  0.00    -0.038 S 
ATOM     25  C   UNL A   1      41.761  43.489  22.123  1.00  0.00     0.226 C 
BRANCH  18  26
ATOM     26  C   UNL A   1      44.132  43.890  18.703  1.00  0.00     0.155 C 
BRANCH  26  27
ATOM     27  C   UNL A   1      44.319  45.359  18.425  1.00  0.00    -0.013 C 
ATOM     28  C   UNL A   1      45.216  45.859  17.562  1.00  0.00     0.006 C 
ENDBRANCH  26  27
ENDBRANCH  18  26
BRANCH  25  29
ATOM     29  O   UNL A   1      40.968  43.275  23.187  1.00  0.00    -0.493 OA
ATOM     30  H   UNL A   1      40.752  42.399  23.441  1.00  0.00     0.295 HD
ENDBRANCH  25  29
ENDBRANCH  13  17
ENDBRANCH   7  12
ENDBRANCH   3   6
ENDBRANCH   1   2
BRANCH   1  31
ATOM     31  C   UNL A   1      44.785  39.287  31.144  1.00  0.00     0.042 C 
BRANCH  31  32
ATOM     32  C   UNL A   1      45.128  38.145  32.090  1.00  0.00     0.118 C 
BRANCH  32  33
ATOM     33  N   UNL A   1      46.297  37.433  31.600  1.00  0.00    -0.352 N 
ATOM     34  C   UNL A   1      46.477  36.117  31.265  1.00  0.00     0.251 C 
ATOM     35  H   UNL A   1      47.098  37.994  31.490  1.00  0.00     0.163 HD
ATOM     36  O   UNL A   1      47.622  35.683  31.235  1.00  0.00    -0.269 OA
BRANCH  34  37
ATOM     37  C   UNL A   1      45.341  35.221  30.955  1.00  0.00     0.039 A 
ATOM     38  C   UNL A   1      44.716  35.383  29.709  1.00  0.00     0.014 A 
ATOM     39  C   UNL A   1      44.830  34.310  31.883  1.00  0.00     0.014 A 
ATOM     40  C   UNL A   1      43.622  34.595  29.370  1.00  0.00     0.010 A 
ATOM     41  C   UNL A   1      43.766  33.494  31.538  1.00  0.00     0.010 A 
ATOM     42  C   UNL A   1      43.174  33.632  30.277  1.00  0.00    -0.014 A 
BRANCH  42  43
ATOM     43  C   UNL A   1      42.159  32.645  29.870  1.00  0.00     0.031 A 
ATOM     44  C   UNL A   1      42.784  31.497  29.038  1.00  0.00     0.074 A 
ATOM     45  C   UNL A   1      40.899  32.876  30.353  1.00  0.00     0.049 A 
ATOM     46  N   UNL A   1      42.226  30.607  28.275  1.00  0.00    -0.248 NA
ATOM     47  C   UNL A   1      44.271  31.340  29.016  1.00  0.00     0.031 C 
ATOM     48  C   UNL A   1      40.514  34.054  31.167  1.00  0.00     0.029 A 
ATOM     49  N   UNL A   1      39.703  32.193  30.293  1.00  0.00    -0.354 N 
ATOM     50  C   UNL A   1      43.224  29.670  27.909  1.00  0.00     0.074 A 
ATOM     51  C   UNL A   1      44.477  30.241  28.288  1.00  0.00     0.031 C 
ATOM     52  C   UNL A   1      39.195  34.037  31.455  1.00  0.00     0.029 A 
ATOM     53  C   UNL A   1      38.592  32.845  30.898  1.00  0.00     0.049 A 
ATOM     54  H   UNL A   1      39.624  31.311  29.862  1.00  0.00     0.167 HD
ATOM     55  C   UNL A   1      42.946  28.411  27.451  1.00  0.00     0.037 A 
ATOM     56  C   UNL A   1      37.277  32.460  30.921  1.00  0.00     0.037 A 
ATOM     57  C   UNL A   1      41.536  28.226  27.386  1.00  0.00     0.049 A 
ATOM     58  C   UNL A   1      37.284  31.082  30.411  1.00  0.00     0.074 A 
ATOM     59  C   UNL A   1      40.584  28.738  26.546  1.00  0.00     0.029 A 
ATOM     60  N   UNL A   1      40.928  27.720  28.511  1.00  0.00    -0.354 N 
ATOM     61  N   UNL A   1      37.757  30.059  31.059  1.00  0.00    -0.248 NA
ATOM     62  C   UNL A   1      36.831  30.833  29.038  1.00  0.00     0.031 C 
ATOM     63  C   UNL A   1      39.495  28.975  27.407  1.00  0.00     0.029 A 
ATOM     64  C   UNL A   1      39.739  28.389  28.656  1.00  0.00     0.049 A 
ATOM     65  H   UNL A   1      41.279  27.013  29.100  1.00  0.00     0.167 HD
ATOM     66  C   UNL A   1      37.973  29.148  30.056  1.00  0.00     0.074 A 
ATOM     67  C   UNL A   1      37.124  29.540  28.950  1.00  0.00     0.031 C 
ATOM     68  C   UNL A   1      39.168  28.507  29.980  1.00  0.00     0.037 A 
BRANCH  55  69
ATOM     69  C   UNL A   1      43.787  27.178  27.254  1.00  0.00     0.058 A 
ATOM     70  C   UNL A   1      44.084  26.791  25.923  1.00  0.00     0.135 A 
ATOM     71  C   UNL A   1      43.970  26.198  28.239  1.00  0.00     0.135 A 
ATOM     72  F   UNL A   1      44.005  27.682  24.919  1.00  0.00    -0.206 F 
ATOM     73  C   UNL A   1      44.378  25.479  25.571  1.00  0.00     0.059 A 
ATOM     74  C   UNL A   1      44.308  24.879  27.911  1.00  0.00     0.059 A 
ATOM     75  F   UNL A   1      43.742  26.471  29.531  1.00  0.00    -0.206 F 
ATOM     76  C   UNL A   1      44.445  24.518  26.571  1.00  0.00     0.060 A 
BRANCH  76  77
ATOM     77  S   UNL A   1      44.657  22.793  26.079  1.00  0.00     0.124 S 
ATOM     78  O   UNL A   1      43.771  22.107  27.014  1.00  0.00    -0.237 OA
ATOM     79  O   UNL A   1      44.214  22.810  24.687  1.00  0.00    -0.237 OA
ATOM     80  O   UNL A   1      46.085  22.561  26.269  1.00  0.00    -0.744 OA
ENDBRANCH  76  77
ENDBRANCH  55  69
BRANCH  56  81
ATOM     81  C   UNL A   1      35.914  33.062  31.208  1.00  0.00     0.058 A 
ATOM     82  C   UNL A   1      35.261  33.085  32.446  1.00  0.00     0.135 A 
ATOM     83  C   UNL A   1      35.282  33.856  30.206  1.00  0.00     0.135 A 
ATOM     84  F   UNL A   1      35.641  32.284  33.448  1.00  0.00    -0.206 F 
ATOM     85  C   UNL A   1      34.193  33.962  32.719  1.00  0.00     0.059 A 
ATOM     86  C   UNL A   1      34.267  34.773  30.464  1.00  0.00     0.059 A 
ATOM     87  F   UNL A   1      35.672  33.816  28.923  1.00  0.00    -0.206 F 
ATOM     88  C   UNL A   1      33.751  34.851  31.741  1.00  0.00     0.060 A 
BRANCH  88  89
ATOM     89  S   UNL A   1      32.627  36.203  32.155  1.00  0.00     0.124 S 
ATOM     90  O   UNL A   1      33.329  36.859  33.252  1.00  0.00    -0.237 OA
ATOM     91  O   UNL A   1      32.560  36.952  30.903  1.00  0.00    -0.237 OA
ATOM     92  O   UNL A   1      31.393  35.511  32.519  1.00  0.00    -0.744 OA
ENDBRANCH  88  89
ENDBRANCH  56  81
BRANCH  68  93
ATOM     93  C   UNL A   1      39.907  28.362  31.305  1.00  0.00     0.058 A 
ATOM     94  C   UNL A   1      39.354  27.594  32.343  1.00  0.00     0.135 A 
ATOM     95  C   UNL A   1      41.110  29.020  31.618  1.00  0.00     0.135 A 
ATOM     96  F   UNL A   1      38.213  26.915  32.137  1.00  0.00    -0.206 F 
ATOM     97  C   UNL A   1      39.950  27.493  33.605  1.00  0.00     0.059 A 
ATOM     98  C   UNL A   1      41.734  28.931  32.866  1.00  0.00     0.059 A 
ATOM     99  F   UNL A   1      41.724  29.778  30.711  1.00  0.00    -0.206 F 
ATOM    100  C   UNL A   1      41.144  28.164  33.860  1.00  0.00     0.060 A 
BRANCH 100 101
ATOM    101  S   UNL A   1      41.921  28.000  35.484  1.00  0.00     0.124 S 
ATOM    102  O   UNL A   1      43.261  28.528  35.245  1.00  0.00    -0.237 OA
ATOM    103  O   UNL A   1      41.057  28.825  36.320  1.00  0.00    -0.237 OA
ATOM    104  O   UNL A   1      41.861  26.564  35.750  1.00  0.00    -0.744 OA
ENDBRANCH 100 101
ENDBRANCH  68  93
ENDBRANCH  42  43
ENDBRANCH  34  37
ENDBRANCH  32  33
ENDBRANCH  31  32
ENDBRANCH   1  31
TORSDOF 18
ENDMDL
MODEL 3
REMARK VINA RESULT:      -9.7      1.405      2.041
REMARK SMILES C=CCN1C(=O)/C(=C\c2cccn2-c2ccc(C(=O)NCCCNC(=O)c3ccc(-c4c5nc(c(-c6c(F)cc(S(=O)(=O)[O-])cc6F)c6ccc([nH]6)c(-c6c(F)cc(S(=O)(=O)[O-])cc6F)c6nc(c(-c7c(F)cc(S(=O)(=O)[O-])cc7F)c7ccc4[nH]7)C=C6)C=C5)cc3)cc2)C(O)=NC1=S
REMARK SMILES IDX 21 1 20 2 18 3 19 4 17 6 14 7 15 8 94 9 16 10 93 11 13 12
REMARK SMILES IDX 9 13 10 14 11 15 12 16 8 17 4 18 5 19 98 20 6 21 7 22 97 23
REMARK SMILES IDX 99 24 95 25 3 26 2 27 1 28 96 29 22 31 23 32 24 33 25 34
REMARK SMILES IDX 26 36 27 37 28 38 92 39 29 40 91 41 30 42 31 43 32 44 85 45
REMARK SMILES IDX 33 46 90 47 84 48 86 49 34 50 89 51 83 52 82 53 35 55 69 56
REMARK SMILES IDX 48 57 68 58 49 59 52 60 67 61 87 62 50 63 51 64 66 66 88 67
REMARK SMILES IDX 53 68 36 69 37 70 46 71 38 72 39 73 45 74 47 75 40 76 41 77
REMARK SMILES IDX 42 78 43 79 44 80 70 81 71 82 80 83 72 84 73 85 79 86 81 87
REMARK SMILES IDX 74 88 75 89 76 90 77 91 78 92 54 93 55 94 64 95 56 96 57 97
REMARK SMILES IDX 63 98 65 99 58 100 59 101 60 102 61 103 62 104
REMARK H PARENT 20 5 96 30 24 35 86 54 52 65
REMARK Flexibility Score: inf
ROOT
ATOM      1  C   UNL A   1      45.417  37.070  35.553  1.00  0.00     0.118 C 
ENDROOT
BRANCH   1   2
ATOM      2  N   UNL A   1      46.121  35.803  35.497  1.00  0.00    -0.352 N 
ATOM      3  C   UNL A   1      45.673  34.510  35.396  1.00  0.00     0.251 C 
ATOM      4  O   UNL A   1      46.507  33.612  35.302  1.00  0.00    -0.269 OA
ATOM      5  H   UNL A   1      47.102  35.886  35.540  1.00  0.00     0.163 HD
BRANCH   3   6
ATOM      6  C   UNL A   1      44.228  34.151  35.329  1.00  0.00     0.039 A 
ATOM      7  C   UNL A   1      41.575  33.273  35.199  1.00  0.00     0.046 A 
ATOM      8  C   UNL A   1      42.489  32.574  35.988  1.00  0.00     0.027 A 
ATOM      9  C   UNL A   1      41.950  34.444  34.542  1.00  0.00     0.027 A 
ATOM     10  C   UNL A   1      43.818  33.001  36.026  1.00  0.00     0.016 A 
ATOM     11  C   UNL A   1      43.261  34.896  34.649  1.00  0.00     0.016 A 
BRANCH   7  12
ATOM     12  N   UNL A   1      40.233  32.849  35.109  1.00  0.00    -0.317 N 
ATOM     13  C   UNL A   1      39.149  33.308  35.852  1.00  0.00     0.047 A 
ATOM     14  C   UNL A   1      38.074  32.483  35.571  1.00  0.00     0.028 A 
ATOM     15  C   UNL A   1      38.494  31.533  34.613  1.00  0.00     0.020 A 
ATOM     16  C   UNL A   1      39.806  31.813  34.306  1.00  0.00     0.092 A 
BRANCH  13  17
ATOM     17  C   UNL A   1      39.234  34.507  36.619  1.00  0.00     0.046 C 
ATOM     18  N   UNL A   1      39.029  33.533  40.157  1.00  0.00    -0.279 N 
ATOM     19  C   UNL A   1      39.408  33.348  38.828  1.00  0.00     0.265 C 
ATOM     20  C   UNL A   1      38.834  34.798  40.734  1.00  0.00     0.206 C 
ATOM     21  O   UNL A   1      39.856  32.288  38.397  1.00  0.00    -0.268 OA
ATOM     22  C   UNL A   1      39.302  34.557  37.965  1.00  0.00     0.104 C 
ATOM     23  N   UNL A   1      39.022  35.916  39.965  1.00  0.00    -0.184 NA
ATOM     24  S   UNL A   1      38.393  35.040  42.356  1.00  0.00    -0.038 S 
ATOM     25  C   UNL A   1      39.231  35.818  38.706  1.00  0.00     0.226 C 
BRANCH  18  26
ATOM     26  C   UNL A   1      38.910  32.295  40.935  1.00  0.00     0.155 C 
BRANCH  26  27
ATOM     27  C   UNL A   1      37.456  31.903  40.997  1.00  0.00    -0.013 C 
ATOM     28  C   UNL A   1      36.609  31.972  39.960  1.00  0.00     0.006 C 
ENDBRANCH  26  27
ENDBRANCH  18  26
BRANCH  25  29
ATOM     29  O   UNL A   1      39.412  36.972  38.043  1.00  0.00    -0.493 OA
ATOM     30  H   UNL A   1      39.726  37.729  38.498  1.00  0.00     0.295 HD
ENDBRANCH  25  29
ENDBRANCH  13  17
ENDBRANCH   7  12
ENDBRANCH   3   6
ENDBRANCH   1   2
BRANCH   1  31
ATOM     31  C   UNL A   1      45.901  38.020  34.450  1.00  0.00     0.042 C 
BRANCH  31  32
ATOM     32  C   UNL A   1      45.253  37.703  33.110  1.00  0.00     0.118 C 
BRANCH  32  33
ATOM     33  N   UNL A   1      46.278  37.366  32.135  1.00  0.00    -0.352 N 
ATOM     34  C   UNL A   1      46.444  36.259  31.346  1.00  0.00     0.251 C 
ATOM     35  H   UNL A   1      46.975  38.053  32.023  1.00  0.00     0.163 HD
ATOM     36  O   UNL A   1      47.559  36.040  30.889  1.00  0.00    -0.269 OA
BRANCH  34  37
ATOM     37  C   UNL A   1      45.332  35.331  31.049  1.00  0.00     0.039 A 
ATOM     38  C   UNL A   1      44.474  35.673  29.991  1.00  0.00     0.014 A 
ATOM     39  C   UNL A   1      45.064  34.205  31.831  1.00  0.00     0.014 A 
ATOM     40  C   UNL A   1      43.390  34.861  29.682  1.00  0.00     0.010 A 
ATOM     41  C   UNL A   1      44.010  33.368  31.504  1.00  0.00     0.010 A 
ATOM     42  C   UNL A   1      43.184  33.695  30.422  1.00  0.00    -0.014 A 
BRANCH  42  43
ATOM     43  C   UNL A   1      42.177  32.710  29.990  1.00  0.00     0.031 A 
ATOM     44  C   UNL A   1      42.817  31.570  29.157  1.00  0.00     0.074 A 
ATOM     45  C   UNL A   1      40.909  32.934  30.455  1.00  0.00     0.049 A 
ATOM     46  N   UNL A   1      42.272  30.687  28.378  1.00  0.00    -0.248 NA
ATOM     47  C   UNL A   1      44.304  31.416  29.158  1.00  0.00     0.031 C 
ATOM     48  C   UNL A   1      40.509  34.105  31.273  1.00  0.00     0.029 A 
ATOM     49  N   UNL A   1      39.716  32.250  30.370  1.00  0.00    -0.354 N 
ATOM     50  C   UNL A   1      43.277  29.754  28.019  1.00  0.00     0.074 A 
ATOM     51  C   UNL A   1      44.523  30.324  28.422  1.00  0.00     0.031 C 
ATOM     52  C   UNL A   1      39.187  34.084  31.540  1.00  0.00     0.029 A 
ATOM     53  C   UNL A   1      38.593  32.896  30.963  1.00  0.00     0.049 A 
ATOM     54  H   UNL A   1      39.644  31.373  29.930  1.00  0.00     0.167 HD
ATOM     55  C   UNL A   1      43.008  28.500  27.545  1.00  0.00     0.037 A 
ATOM     56  C   UNL A   1      37.279  32.508  30.963  1.00  0.00     0.037 A 
ATOM     57  C   UNL A   1      41.600  28.313  27.456  1.00  0.00     0.049 A 
ATOM     58  C   UNL A   1      37.297  31.135  30.440  1.00  0.00     0.074 A 
ATOM     59  C   UNL A   1      40.660  28.831  26.606  1.00  0.00     0.029 A 
ATOM     60  N   UNL A   1      40.975  27.796  28.567  1.00  0.00    -0.354 N 
ATOM     61  N   UNL A   1      37.761  30.107  31.085  1.00  0.00    -0.248 NA
ATOM     62  C   UNL A   1      36.865  30.899  29.057  1.00  0.00     0.031 C 
ATOM     63  C   UNL A   1      39.557  29.059  27.452  1.00  0.00     0.029 A 
ATOM     64  C   UNL A   1      39.782  28.462  28.699  1.00  0.00     0.049 A 
ATOM     65  H   UNL A   1      41.317  27.084  29.154  1.00  0.00     0.167 HD
ATOM     66  C   UNL A   1      37.994  29.205  30.078  1.00  0.00     0.074 A 
ATOM     67  C   UNL A   1      37.161  29.606  28.962  1.00  0.00     0.031 C 
ATOM     68  C   UNL A   1      39.191  28.567  30.015  1.00  0.00     0.037 A 
BRANCH  55  69
ATOM     69  C   UNL A   1      43.854  27.269  27.350  1.00  0.00     0.058 A 
ATOM     70  C   UNL A   1      44.214  26.924  26.023  1.00  0.00     0.135 A 
ATOM     71  C   UNL A   1      43.986  26.258  28.311  1.00  0.00     0.135 A 
ATOM     72  F   UNL A   1      44.187  27.846  25.045  1.00  0.00    -0.206 F 
ATOM     73  C   UNL A   1      44.521  25.622  25.645  1.00  0.00     0.059 A 
ATOM     74  C   UNL A   1      44.336  24.949  27.959  1.00  0.00     0.059 A 
ATOM     75  F   UNL A   1      43.696  26.491  29.599  1.00  0.00    -0.206 F 
ATOM     76  C   UNL A   1      44.537  24.629  26.616  1.00  0.00     0.060 A 
BRANCH  76  77
ATOM     77  S   UNL A   1      44.767  22.919  26.080  1.00  0.00     0.124 S 
ATOM     78  O   UNL A   1      46.152  22.672  26.466  1.00  0.00    -0.237 OA
ATOM     79  O   UNL A   1      43.758  22.210  26.861  1.00  0.00    -0.237 OA
ATOM     80  O   UNL A   1      44.507  22.979  24.645  1.00  0.00    -0.744 OA
ENDBRANCH  76  77
ENDBRANCH  55  69
BRANCH  56  81
ATOM     81  C   UNL A   1      35.911  33.106  31.233  1.00  0.00     0.058 A 
ATOM     82  C   UNL A   1      35.207  33.053  32.443  1.00  0.00     0.135 A 
ATOM     83  C   UNL A   1      35.329  33.973  30.262  1.00  0.00     0.135 A 
ATOM     84  F   UNL A   1      35.538  32.182  33.402  1.00  0.00    -0.206 F 
ATOM     85  C   UNL A   1      34.136  33.922  32.730  1.00  0.00     0.059 A 
ATOM     86  C   UNL A   1      34.312  34.883  30.540  1.00  0.00     0.059 A 
ATOM     87  F   UNL A   1      35.771  34.015  28.996  1.00  0.00    -0.206 F 
ATOM     88  C   UNL A   1      33.743  34.881  31.797  1.00  0.00     0.060 A 
BRANCH  88  89
ATOM     89  S   UNL A   1      32.616  36.215  32.255  1.00  0.00     0.124 S 
ATOM     90  O   UNL A   1      33.334  36.860  33.348  1.00  0.00    -0.237 OA
ATOM     91  O   UNL A   1      32.517  36.983  31.017  1.00  0.00    -0.237 OA
ATOM     92  O   UNL A   1      31.396  35.506  32.632  1.00  0.00    -0.744 OA
ENDBRANCH  88  89
ENDBRANCH  56  81
BRANCH  68  93
ATOM     93  C   UNL A   1      39.909  28.411  31.350  1.00  0.00     0.058 A 
ATOM     94  C   UNL A   1      39.339  27.635  32.373  1.00  0.00     0.135 A 
ATOM     95  C   UNL A   1      41.108  29.066  31.687  1.00  0.00     0.135 A 
ATOM     96  F   UNL A   1      38.201  26.959  32.144  1.00  0.00    -0.206 F 
ATOM     97  C   UNL A   1      39.915  27.523  33.644  1.00  0.00     0.059 A 
ATOM     98  C   UNL A   1      41.712  28.966  32.944  1.00  0.00     0.059 A 
ATOM     99  F   UNL A   1      41.736  29.830  30.796  1.00  0.00    -0.206 F 
ATOM    100  C   UNL A   1      41.107  28.192  33.922  1.00  0.00     0.060 A 
BRANCH 100 101
ATOM    101  S   UNL A   1      41.858  28.014  35.556  1.00  0.00     0.124 S 
ATOM    102  O   UNL A   1      41.448  29.246  36.225  1.00  0.00    -0.237 OA
ATOM    103  O   UNL A   1      41.234  26.791  36.048  1.00  0.00    -0.237 OA
ATOM    104  O   UNL A   1      43.288  27.914  35.269  1.00  0.00    -0.744 OA
ENDBRANCH 100 101
ENDBRANCH  68  93
ENDBRANCH  42  43
ENDBRANCH  34  37
ENDBRANCH  32  33
ENDBRANCH  31  32
ENDBRANCH   1  31
TORSDOF 18
ENDMDL
