MODEL 1
REMARK VINA RESULT:     -15.2      0.000      0.000
REMARK SMILES Cc1c(NCc2ccccn2)cccc1C(=O)N1CCOC[C@@H]1CC(=O)NCCCNC(=O)c1ccc(-c2c3nc(c(-c4c(F)cc(S(=O)(=O)[O-])cc4F)c4ccc([nH]4)c(-c4c(F)cc(S(=O)(=O)[O-])cc4F)c4nc(c(-c5c(F)cc(S(=O)(=O)[O-])cc5F)c5ccc2[nH]5)C=C4)C=C3)cc1
REMARK SMILES IDX 25 1 26 2 27 3 24 5 23 6 18 7 19 8 20 9 22 10 21 11 16 12
REMARK SMILES IDX 17 13 15 14 1 15 2 16 3 17 12 18 14 19 13 20 4 21 5 23 6 24
REMARK SMILES IDX 7 25 11 26 8 27 10 28 9 29 28 30 29 31 30 32 31 33 32 34
REMARK SMILES IDX 33 36 34 37 35 38 99 39 36 40 98 41 37 42 38 43 39 44 92 45
REMARK SMILES IDX 40 46 97 47 91 48 93 49 41 50 96 51 90 52 89 53 42 55 76 56
REMARK SMILES IDX 55 57 75 58 56 59 59 60 74 61 94 62 57 63 58 64 73 66 95 67
REMARK SMILES IDX 60 68 43 69 44 70 53 71 45 72 46 73 52 74 54 75 47 76 48 77
REMARK SMILES IDX 49 78 50 79 51 80 77 81 78 82 87 83 79 84 80 85 86 86 88 87
REMARK SMILES IDX 81 88 82 89 83 90 84 91 85 92 61 93 62 94 71 95 63 96 64 97
REMARK SMILES IDX 70 98 72 99 65 100 66 101 67 102 68 103 69 104
REMARK H PARENT 27 4 4 22 31 35 93 54 59 65
REMARK Flexibility Score: inf
ROOT
ATOM      1  C   UNL A   1      36.149  22.465  25.308  1.00  0.00     0.222 C 
ATOM      2  O   UNL A   1      37.040  21.873  24.711  1.00  0.00    -0.275 OA
ATOM      3  N   UNL A   1      36.178  23.858  25.486  1.00  0.00    -0.356 N 
ATOM      4  H   UNL A   1      36.979  24.340  25.797  1.00  0.00     0.163 HD
ENDROOT
BRANCH   1   5
ATOM      5  C   UNL A   1      34.927  21.743  25.875  1.00  0.00     0.127 C 
BRANCH   5   6
ATOM      6  C   UNL A   1      34.246  20.860  24.831  1.00  0.00     0.120 C 
ATOM      7  N   UNL A   1      32.743  21.074  24.483  1.00  0.00    -0.331 N 
ATOM      8  C   UNL A   1      32.392  20.037  23.439  1.00  0.00     0.148 C 
ATOM      9  C   UNL A   1      32.711  18.597  23.992  1.00  0.00     0.181 C 
ATOM     10  C   UNL A   1      34.592  19.329  25.135  1.00  0.00     0.185 C 
ATOM     11  O   UNL A   1      34.134  18.445  24.111  1.00  0.00    -0.377 OA
BRANCH   7  12
ATOM     12  C   UNL A   1      31.706  22.251  24.812  1.00  0.00     0.254 C 
ATOM     13  O   UNL A   1      31.007  22.036  25.772  1.00  0.00    -0.269 OA
BRANCH  12  14
ATOM     14  C   UNL A   1      31.498  23.892  23.952  1.00  0.00     0.045 A 
ATOM     15  C   UNL A   1      29.931  26.112  25.462  1.00  0.00     0.047 C 
ATOM     16  C   UNL A   1      30.686  25.351  24.171  1.00  0.00    -0.015 A 
ATOM     17  C   UNL A   1      30.733  26.425  23.301  1.00  0.00     0.038 A 
ATOM     18  C   UNL A   1      31.717  26.252  22.335  1.00  0.00     0.026 A 
ATOM     19  C   UNL A   1      32.238  23.840  22.781  1.00  0.00     0.014 A 
ATOM     20  C   UNL A   1      32.370  25.015  22.026  1.00  0.00     0.003 A 
BRANCH  17  21
ATOM     21  N   UNL A   1      29.981  27.590  23.459  1.00  0.00    -0.379 N 
ATOM     22  H   UNL A   1      30.241  28.030  24.301  1.00  0.00     0.160 HD
BRANCH  21  23
ATOM     23  C   UNL A   1      28.866  28.437  22.761  1.00  0.00     0.169 C 
BRANCH  23  24
ATOM     24  C   UNL A   1      28.604  29.971  22.538  1.00  0.00     0.059 A 
ATOM     25  C   UNL A   1      28.833  31.033  23.408  1.00  0.00     0.026 A 
ATOM     26  N   UNL A   1      28.315  30.317  21.249  1.00  0.00    -0.259 NA
ATOM     27  C   UNL A   1      28.557  32.374  23.063  1.00  0.00     0.004 A 
ATOM     28  C   UNL A   1      28.149  31.624  20.890  1.00  0.00     0.111 A 
ATOM     29  C   UNL A   1      28.214  32.684  21.765  1.00  0.00     0.020 A 
ENDBRANCH  23  24
ENDBRANCH  21  23
ENDBRANCH  17  21
ENDBRANCH  12  14
ENDBRANCH   7  12
ENDBRANCH   5   6
ENDBRANCH   1   5
BRANCH   3  30
ATOM     30  C   UNL A   1      34.942  24.518  25.175  1.00  0.00     0.117 C 
BRANCH  30  31
ATOM     31  C   UNL A   1      34.059  26.136  25.733  1.00  0.00     0.042 C 
BRANCH  31  32
ATOM     32  C   UNL A   1      33.712  27.793  25.002  1.00  0.00     0.118 C 
BRANCH  32  33
ATOM     33  N   UNL A   1      33.862  29.280  25.422  1.00  0.00    -0.352 N 
ATOM     34  C   UNL A   1      33.652  29.818  26.779  1.00  0.00     0.251 C 
ATOM     35  H   UNL A   1      34.119  29.921  24.720  1.00  0.00     0.163 HD
ATOM     36  O   UNL A   1      32.620  29.632  27.415  1.00  0.00    -0.269 OA
BRANCH  34  37
ATOM     37  C   UNL A   1      34.925  30.380  27.498  1.00  0.00     0.039 A 
ATOM     38  C   UNL A   1      35.491  31.609  27.912  1.00  0.00     0.014 A 
ATOM     39  C   UNL A   1      35.565  29.331  28.057  1.00  0.00     0.014 A 
ATOM     40  C   UNL A   1      36.764  31.689  28.689  1.00  0.00     0.010 A 
ATOM     41  C   UNL A   1      36.746  29.419  28.764  1.00  0.00     0.010 A 
ATOM     42  C   UNL A   1      37.444  30.543  29.080  1.00  0.00    -0.014 A 
BRANCH  42  43
ATOM     43  C   UNL A   1      38.716  30.055  29.739  1.00  0.00     0.031 A 
ATOM     44  C   UNL A   1      39.498  28.878  29.177  1.00  0.00     0.074 A 
ATOM     45  C   UNL A   1      39.526  31.064  30.185  1.00  0.00     0.049 A 
ATOM     46  N   UNL A   1      40.730  28.591  29.459  1.00  0.00    -0.248 NA
ATOM     47  C   UNL A   1      38.960  27.966  28.178  1.00  0.00     0.031 C 
ATOM     48  C   UNL A   1      40.995  31.236  30.096  1.00  0.00     0.029 A 
ATOM     49  N   UNL A   1      39.144  32.245  30.799  1.00  0.00    -0.354 N 
ATOM     50  C   UNL A   1      41.224  27.684  28.533  1.00  0.00     0.074 A 
ATOM     51  C   UNL A   1      40.047  27.268  27.808  1.00  0.00     0.031 C 
ATOM     52  C   UNL A   1      41.379  32.275  30.859  1.00  0.00     0.029 A 
ATOM     53  C   UNL A   1      40.209  32.692  31.602  1.00  0.00     0.049 A 
ATOM     54  H   UNL A   1      38.276  32.696  30.691  1.00  0.00     0.167 HD
ATOM     55  C   UNL A   1      42.579  27.455  28.455  1.00  0.00     0.037 A 
ATOM     56  C   UNL A   1      40.047  32.529  32.956  1.00  0.00     0.037 A 
ATOM     57  C   UNL A   1      43.284  28.192  29.509  1.00  0.00     0.049 A 
ATOM     58  C   UNL A   1      40.885  31.389  33.528  1.00  0.00     0.074 A 
ATOM     59  C   UNL A   1      44.144  29.274  29.578  1.00  0.00     0.029 A 
ATOM     60  N   UNL A   1      42.970  27.875  30.815  1.00  0.00    -0.354 N 
ATOM     61  N   UNL A   1      41.821  30.745  32.878  1.00  0.00    -0.248 NA
ATOM     62  C   UNL A   1      40.694  30.848  34.873  1.00  0.00     0.031 C 
ATOM     63  C   UNL A   1      44.222  29.674  30.953  1.00  0.00     0.029 A 
ATOM     64  C   UNL A   1      43.459  28.801  31.709  1.00  0.00     0.049 A 
ATOM     65  H   UNL A   1      42.456  27.079  31.077  1.00  0.00     0.167 HD
ATOM     66  C   UNL A   1      42.223  29.652  33.600  1.00  0.00     0.074 A 
ATOM     67  C   UNL A   1      41.521  29.787  34.865  1.00  0.00     0.031 C 
ATOM     68  C   UNL A   1      43.052  28.683  33.104  1.00  0.00     0.037 A 
BRANCH  55  69
ATOM     69  C   UNL A   1      43.372  26.612  27.449  1.00  0.00     0.058 A 
ATOM     70  C   UNL A   1      43.628  25.240  27.719  1.00  0.00     0.135 A 
ATOM     71  C   UNL A   1      43.968  27.077  26.259  1.00  0.00     0.135 A 
ATOM     72  F   UNL A   1      43.104  24.634  28.795  1.00  0.00    -0.206 F 
ATOM     73  C   UNL A   1      44.436  24.424  26.915  1.00  0.00     0.059 A 
ATOM     74  C   UNL A   1      44.752  26.268  25.417  1.00  0.00     0.059 A 
ATOM     75  F   UNL A   1      43.862  28.353  25.873  1.00  0.00    -0.206 F 
ATOM     76  C   UNL A   1      45.007  24.949  25.766  1.00  0.00     0.060 A 
BRANCH  76  77
ATOM     77  S   UNL A   1      46.105  23.909  24.777  1.00  0.00     0.124 S 
ATOM     78  O   UNL A   1      47.050  24.886  24.248  1.00  0.00    -0.237 OA
ATOM     79  O   UNL A   1      46.639  22.980  25.766  1.00  0.00    -0.237 OA
ATOM     80  O   UNL A   1      45.210  23.314  23.786  1.00  0.00    -0.744 OA
ENDBRANCH  76  77
ENDBRANCH  55  69
BRANCH  56  81
ATOM     81  C   UNL A   1      38.617  32.884  33.307  1.00  0.00     0.058 A 
ATOM     82  C   UNL A   1      38.260  34.236  33.083  1.00  0.00     0.135 A 
ATOM     83  C   UNL A   1      37.604  31.917  33.139  1.00  0.00     0.135 A 
ATOM     84  F   UNL A   1      39.187  35.201  33.216  1.00  0.00    -0.206 F 
ATOM     85  C   UNL A   1      37.047  34.583  32.493  1.00  0.00     0.059 A 
ATOM     86  C   UNL A   1      36.377  32.252  32.552  1.00  0.00     0.059 A 
ATOM     87  F   UNL A   1      37.883  30.617  33.312  1.00  0.00    -0.206 F 
ATOM     88  C   UNL A   1      36.144  33.573  32.165  1.00  0.00     0.060 A 
BRANCH  88  89
ATOM     89  S   UNL A   1      34.769  34.003  31.065  1.00  0.00     0.124 S 
ATOM     90  O   UNL A   1      34.106  32.714  30.894  1.00  0.00    -0.237 OA
ATOM     91  O   UNL A   1      34.045  34.982  31.873  1.00  0.00    -0.237 OA
ATOM     92  O   UNL A   1      35.432  34.527  29.875  1.00  0.00    -0.744 OA
ENDBRANCH  88  89
ENDBRANCH  56  81
BRANCH  68  93
ATOM     93  C   UNL A   1      43.504  27.502  33.926  1.00  0.00     0.058 A 
ATOM     94  C   UNL A   1      44.866  27.267  34.171  1.00  0.00     0.135 A 
ATOM     95  C   UNL A   1      42.613  26.513  34.401  1.00  0.00     0.135 A 
ATOM     96  F   UNL A   1      45.801  28.106  33.696  1.00  0.00    -0.206 F 
ATOM     97  C   UNL A   1      45.312  26.168  34.903  1.00  0.00     0.059 A 
ATOM     98  C   UNL A   1      43.040  25.374  35.079  1.00  0.00     0.059 A 
ATOM     99  F   UNL A   1      41.285  26.634  34.262  1.00  0.00    -0.206 F 
ATOM    100  C   UNL A   1      44.391  25.228  35.357  1.00  0.00     0.060 A 
BRANCH 100 101
ATOM    101  S   UNL A   1      44.971  23.815  36.312  1.00  0.00     0.124 S 
ATOM    102  O   UNL A   1      44.267  22.699  35.686  1.00  0.00    -0.237 OA
ATOM    103  O   UNL A   1      46.408  23.872  36.065  1.00  0.00    -0.237 OA
ATOM    104  O   UNL A   1      44.553  24.127  37.674  1.00  0.00    -0.744 OA
ENDBRANCH 100 101
ENDBRANCH  68  93
ENDBRANCH  42  43
ENDBRANCH  34  37
ENDBRANCH  32  33
ENDBRANCH  31  32
ENDBRANCH  30  31
ENDBRANCH   3  30
TORSDOF 19
ENDMDL
MODEL 2
REMARK VINA RESULT:     -14.4      2.416      6.178
REMARK SMILES Cc1c(NCc2ccccn2)cccc1C(=O)N1CCOC[C@@H]1CC(=O)NCCCNC(=O)c1ccc(-c2c3nc(c(-c4c(F)cc(S(=O)(=O)[O-])cc4F)c4ccc([nH]4)c(-c4c(F)cc(S(=O)(=O)[O-])cc4F)c4nc(c(-c5c(F)cc(S(=O)(=O)[O-])cc5F)c5ccc2[nH]5)C=C4)C=C3)cc1
REMARK SMILES IDX 25 1 26 2 27 3 24 5 23 6 18 7 19 8 20 9 22 10 21 11 16 12
REMARK SMILES IDX 17 13 15 14 1 15 2 16 3 17 12 18 14 19 13 20 4 21 5 23 6 24
REMARK SMILES IDX 7 25 11 26 8 27 10 28 9 29 28 30 29 31 30 32 31 33 32 34
REMARK SMILES IDX 33 36 34 37 35 38 99 39 36 40 98 41 37 42 38 43 39 44 92 45
REMARK SMILES IDX 40 46 97 47 91 48 93 49 41 50 96 51 90 52 89 53 42 55 76 56
REMARK SMILES IDX 55 57 75 58 56 59 59 60 74 61 94 62 57 63 58 64 73 66 95 67
REMARK SMILES IDX 60 68 43 69 44 70 53 71 45 72 46 73 52 74 54 75 47 76 48 77
REMARK SMILES IDX 49 78 50 79 51 80 77 81 78 82 87 83 79 84 80 85 86 86 88 87
REMARK SMILES IDX 81 88 82 89 83 90 84 91 85 92 61 93 62 94 71 95 63 96 64 97
REMARK SMILES IDX 70 98 72 99 65 100 66 101 67 102 68 103 69 104
REMARK H PARENT 27 4 4 22 31 35 93 54 59 65
REMARK Flexibility Score: inf
ROOT
ATOM      1  C   UNL A   1      32.360  27.976  24.166  1.00  0.00     0.222 C 
ATOM      2  O   UNL A   1      32.081  27.170  23.287  1.00  0.00    -0.275 OA
ATOM      3  N   UNL A   1      31.949  29.317  24.096  1.00  0.00    -0.356 N 
ATOM      4  H   UNL A   1      32.052  29.866  23.285  1.00  0.00     0.163 HD
ENDROOT
BRANCH   1   5
ATOM      5  C   UNL A   1      33.145  27.581  25.417  1.00  0.00     0.127 C 
BRANCH   5   6
ATOM      6  C   UNL A   1      32.641  26.271  26.020  1.00  0.00     0.120 C 
ATOM      7  N   UNL A   1      33.171  24.908  25.487  1.00  0.00    -0.331 N 
ATOM      8  C   UNL A   1      32.464  23.831  26.281  1.00  0.00     0.148 C 
ATOM      9  C   UNL A   1      30.905  24.000  26.137  1.00  0.00     0.181 C 
ATOM     10  C   UNL A   1      31.045  26.316  26.107  1.00  0.00     0.185 C 
ATOM     11  O   UNL A   1      30.499  25.200  26.812  1.00  0.00    -0.377 OA
BRANCH   7  12
ATOM     12  C   UNL A   1      34.399  24.513  24.535  1.00  0.00     0.254 C 
ATOM     13  O   UNL A   1      34.419  25.108  23.486  1.00  0.00    -0.269 OA
BRANCH  12  14
ATOM     14  C   UNL A   1      35.795  23.323  24.872  1.00  0.00     0.045 A 
ATOM     15  C   UNL A   1      38.252  24.406  26.439  1.00  0.00     0.047 C 
ATOM     16  C   UNL A   1      37.354  23.337  25.507  1.00  0.00    -0.015 A 
ATOM     17  C   UNL A   1      38.177  22.231  25.617  1.00  0.00     0.038 A 
ATOM     18  C   UNL A   1      37.484  21.056  25.357  1.00  0.00     0.026 A 
ATOM     19  C   UNL A   1      35.385  22.072  24.438  1.00  0.00     0.014 A 
ATOM     20  C   UNL A   1      36.203  20.969  24.722  1.00  0.00     0.003 A 
BRANCH  17  21
ATOM     21  N   UNL A   1      39.498  22.284  26.065  1.00  0.00    -0.379 N 
ATOM     22  H   UNL A   1      39.953  23.047  25.641  1.00  0.00     0.160 HD
BRANCH  21  23
ATOM     23  C   UNL A   1      40.504  21.547  27.010  1.00  0.00     0.169 C 
BRANCH  23  24
ATOM     24  C   UNL A   1      41.586  20.420  26.829  1.00  0.00     0.059 A 
ATOM     25  C   UNL A   1      41.774  19.260  27.575  1.00  0.00     0.026 A 
ATOM     26  N   UNL A   1      42.288  20.490  25.660  1.00  0.00    -0.259 NA
ATOM     27  C   UNL A   1      42.790  18.325  27.284  1.00  0.00     0.004 A 
ATOM     28  C   UNL A   1      43.200  19.529  25.327  1.00  0.00     0.111 A 
ATOM     29  C   UNL A   1      43.520  18.453  26.123  1.00  0.00     0.020 A 
ENDBRANCH  23  24
ENDBRANCH  21  23
ENDBRANCH  17  21
ENDBRANCH  12  14
ENDBRANCH   7  12
ENDBRANCH   5   6
ENDBRANCH   1   5
BRANCH   3  30
ATOM     30  C   UNL A   1      31.364  29.818  25.308  1.00  0.00     0.117 C 
BRANCH  30  31
ATOM     31  C   UNL A   1      31.722  31.273  26.517  1.00  0.00     0.042 C 
BRANCH  31  32
ATOM     32  C   UNL A   1      33.215  32.146  27.157  1.00  0.00     0.118 C 
BRANCH  32  33
ATOM     33  N   UNL A   1      34.740  31.874  27.261  1.00  0.00    -0.352 N 
ATOM     34  C   UNL A   1      35.667  32.510  28.215  1.00  0.00     0.251 C 
ATOM     35  H   UNL A   1      35.122  31.218  26.634  1.00  0.00     0.163 HD
ATOM     36  O   UNL A   1      35.770  33.727  28.331  1.00  0.00    -0.269 OA
BRANCH  34  37
ATOM     37  C   UNL A   1      36.295  31.565  29.294  1.00  0.00     0.039 A 
ATOM     38  C   UNL A   1      35.921  30.796  30.422  1.00  0.00     0.014 A 
ATOM     39  C   UNL A   1      37.539  31.250  28.875  1.00  0.00     0.014 A 
ATOM     40  C   UNL A   1      36.885  29.922  31.157  1.00  0.00     0.010 A 
ATOM     41  C   UNL A   1      38.421  30.447  29.568  1.00  0.00     0.010 A 
ATOM     42  C   UNL A   1      38.202  29.790  30.738  1.00  0.00    -0.014 A 
BRANCH  42  43
ATOM     43  C   UNL A   1      39.536  29.178  31.111  1.00  0.00     0.031 A 
ATOM     44  C   UNL A   1      40.111  28.002  30.338  1.00  0.00     0.074 A 
ATOM     45  C   UNL A   1      40.487  30.100  31.456  1.00  0.00     0.049 A 
ATOM     46  N   UNL A   1      41.350  27.620  30.362  1.00  0.00    -0.248 NA
ATOM     47  C   UNL A   1      39.330  27.201  29.406  1.00  0.00     0.031 C 
ATOM     48  C   UNL A   1      41.922  30.190  31.098  1.00  0.00     0.029 A 
ATOM     49  N   UNL A   1      40.314  31.253  32.203  1.00  0.00    -0.354 N 
ATOM     50  C   UNL A   1      41.594  26.756  29.304  1.00  0.00     0.074 A 
ATOM     51  C   UNL A   1      40.276  26.467  28.793  1.00  0.00     0.031 C 
ATOM     52  C   UNL A   1      42.517  31.143  31.837  1.00  0.00     0.029 A 
ATOM     53  C   UNL A   1      41.540  31.574  32.814  1.00  0.00     0.049 A 
ATOM     54  H   UNL A   1      39.476  31.763  32.290  1.00  0.00     0.167 HD
ATOM     55  C   UNL A   1      42.890  26.452  28.955  1.00  0.00     0.037 A 
ATOM     56  C   UNL A   1      41.621  31.321  34.161  1.00  0.00     0.037 A 
ATOM     57  C   UNL A   1      43.831  27.064  29.899  1.00  0.00     0.049 A 
ATOM     58  C   UNL A   1      42.465  30.093  34.491  1.00  0.00     0.074 A 
ATOM     59  C   UNL A   1      44.766  28.084  29.869  1.00  0.00     0.029 A 
ATOM     60  N   UNL A   1      43.744  26.671  31.219  1.00  0.00    -0.354 N 
ATOM     61  N   UNL A   1      43.213  29.444  33.636  1.00  0.00    -0.248 NA
ATOM     62  C   UNL A   1      42.489  29.466  35.812  1.00  0.00     0.031 C 
ATOM     63  C   UNL A   1      45.129  28.375  31.226  1.00  0.00     0.029 A 
ATOM     64  C   UNL A   1      44.458  27.496  32.059  1.00  0.00     0.049 A 
ATOM     65  H   UNL A   1      43.230  25.890  31.525  1.00  0.00     0.167 HD
ATOM     66  C   UNL A   1      43.661  28.278  34.199  1.00  0.00     0.074 A 
ATOM     67  C   UNL A   1      43.219  28.361  35.581  1.00  0.00     0.031 C 
ATOM     68  C   UNL A   1      44.310  27.300  33.495  1.00  0.00     0.037 A 
BRANCH  55  69
ATOM     69  C   UNL A   1      43.418  25.640  27.766  1.00  0.00     0.058 A 
ATOM     70  C   UNL A   1      43.359  24.219  27.795  1.00  0.00     0.135 A 
ATOM     71  C   UNL A   1      44.051  26.159  26.618  1.00  0.00     0.135 A 
ATOM     72  F   UNL A   1      42.758  23.569  28.803  1.00  0.00    -0.206 F 
ATOM     73  C   UNL A   1      43.917  23.395  26.808  1.00  0.00     0.059 A 
ATOM     74  C   UNL A   1      44.585  25.352  25.597  1.00  0.00     0.059 A 
ATOM     75  F   UNL A   1      44.228  27.473  26.448  1.00  0.00    -0.206 F 
ATOM     76  C   UNL A   1      44.541  23.970  25.713  1.00  0.00     0.060 A 
BRANCH  76  77
ATOM     77  S   UNL A   1      45.319  22.897  24.484  1.00  0.00     0.124 S 
ATOM     78  O   UNL A   1      45.886  21.843  25.319  1.00  0.00    -0.237 OA
ATOM     79  O   UNL A   1      44.193  22.507  23.644  1.00  0.00    -0.237 OA
ATOM     80  O   UNL A   1      46.299  23.771  23.840  1.00  0.00    -0.744 OA
ENDBRANCH  76  77
ENDBRANCH  55  69
BRANCH  56  81
ATOM     81  C   UNL A   1      40.312  31.735  34.800  1.00  0.00     0.058 A 
ATOM     82  C   UNL A   1      40.101  33.132  34.889  1.00  0.00     0.135 A 
ATOM     83  C   UNL A   1      39.171  30.924  34.625  1.00  0.00     0.135 A 
ATOM     84  F   UNL A   1      41.151  33.957  35.043  1.00  0.00    -0.206 F 
ATOM     85  C   UNL A   1      38.870  33.706  34.578  1.00  0.00     0.059 A 
ATOM     86  C   UNL A   1      37.925  31.487  34.317  1.00  0.00     0.059 A 
ATOM     87  F   UNL A   1      39.305  29.594  34.508  1.00  0.00    -0.206 F 
ATOM     88  C   UNL A   1      37.809  32.875  34.223  1.00  0.00     0.060 A 
BRANCH  88  89
ATOM     89  S   UNL A   1      36.358  33.647  33.459  1.00  0.00     0.124 S 
ATOM     90  O   UNL A   1      35.303  32.692  33.781  1.00  0.00    -0.237 OA
ATOM     91  O   UNL A   1      36.296  34.920  34.175  1.00  0.00    -0.237 OA
ATOM     92  O   UNL A   1      36.716  33.730  32.047  1.00  0.00    -0.744 OA
ENDBRANCH  88  89
ENDBRANCH  56  81
BRANCH  68  93
ATOM     93  C   UNL A   1      44.819  26.036  34.142  1.00  0.00     0.058 A 
ATOM     94  C   UNL A   1      46.194  25.758  34.210  1.00  0.00     0.135 A 
ATOM     95  C   UNL A   1      43.961  25.016  34.612  1.00  0.00     0.135 A 
ATOM     96  F   UNL A   1      47.091  26.628  33.720  1.00  0.00    -0.206 F 
ATOM     97  C   UNL A   1      46.689  24.585  34.777  1.00  0.00     0.059 A 
ATOM     98  C   UNL A   1      44.430  23.808  35.122  1.00  0.00     0.059 A 
ATOM     99  F   UNL A   1      42.628  25.168  34.632  1.00  0.00    -0.206 F 
ATOM    100  C   UNL A   1      45.799  23.617  35.234  1.00  0.00     0.060 A 
BRANCH 100 101
ATOM    101  S   UNL A   1      46.445  22.107  35.974  1.00  0.00     0.124 S 
ATOM    102  O   UNL A   1      46.004  22.221  37.362  1.00  0.00    -0.237 OA
ATOM    103  O   UNL A   1      45.771  21.085  35.180  1.00  0.00    -0.237 OA
ATOM    104  O   UNL A   1      47.886  22.215  35.770  1.00  0.00    -0.744 OA
ENDBRANCH 100 101
ENDBRANCH  68  93
ENDBRANCH  42  43
ENDBRANCH  34  37
ENDBRANCH  32  33
ENDBRANCH  31  32
ENDBRANCH  30  31
ENDBRANCH   3  30
TORSDOF 19
ENDMDL
MODEL 3
REMARK VINA RESULT:     -14.0      1.366      2.195
REMARK SMILES Cc1c(NCc2ccccn2)cccc1C(=O)N1CCOC[C@@H]1CC(=O)NCCCNC(=O)c1ccc(-c2c3nc(c(-c4c(F)cc(S(=O)(=O)[O-])cc4F)c4ccc([nH]4)c(-c4c(F)cc(S(=O)(=O)[O-])cc4F)c4nc(c(-c5c(F)cc(S(=O)(=O)[O-])cc5F)c5ccc2[nH]5)C=C4)C=C3)cc1
REMARK SMILES IDX 25 1 26 2 27 3 24 5 23 6 18 7 19 8 20 9 22 10 21 11 16 12
REMARK SMILES IDX 17 13 15 14 1 15 2 16 3 17 12 18 14 19 13 20 4 21 5 23 6 24
REMARK SMILES IDX 7 25 11 26 8 27 10 28 9 29 28 30 29 31 30 32 31 33 32 34
REMARK SMILES IDX 33 36 34 37 35 38 99 39 36 40 98 41 37 42 38 43 39 44 92 45
REMARK SMILES IDX 40 46 97 47 91 48 93 49 41 50 96 51 90 52 89 53 42 55 76 56
REMARK SMILES IDX 55 57 75 58 56 59 59 60 74 61 94 62 57 63 58 64 73 66 95 67
REMARK SMILES IDX 60 68 43 69 44 70 53 71 45 72 46 73 52 74 54 75 47 76 48 77
REMARK SMILES IDX 49 78 50 79 51 80 77 81 78 82 87 83 79 84 80 85 86 86 88 87
REMARK SMILES IDX 81 88 82 89 83 90 84 91 85 92 61 93 62 94 71 95 63 96 64 97
REMARK SMILES IDX 70 98 72 99 65 100 66 101 67 102 68 103 69 104
REMARK H PARENT 27 4 4 22 31 35 93 54 59 65
REMARK Flexibility Score: inf
ROOT
ATOM      1  C   UNL A   1      35.594  22.314  25.811  1.00  0.00     0.222 C 
ATOM      2  O   UNL A   1      36.442  21.443  25.664  1.00  0.00    -0.275 OA
ATOM      3  N   UNL A   1      35.942  23.670  25.931  1.00  0.00    -0.356 N 
ATOM      4  H   UNL A   1      36.658  23.987  26.529  1.00  0.00     0.163 HD
ENDROOT
BRANCH   1   5
ATOM      5  C   UNL A   1      34.099  22.002  25.844  1.00  0.00     0.127 C 
BRANCH   5   6
ATOM      6  C   UNL A   1      33.748  20.786  24.988  1.00  0.00     0.120 C 
ATOM      7  N   UNL A   1      32.804  20.939  23.759  1.00  0.00    -0.331 N 
ATOM      8  C   UNL A   1      32.657  19.559  23.155  1.00  0.00     0.148 C 
ATOM      9  C   UNL A   1      32.117  18.557  24.243  1.00  0.00     0.181 C 
ATOM     10  C   UNL A   1      33.316  19.580  25.945  1.00  0.00     0.185 C 
ATOM     11  O   UNL A   1      33.131  18.353  25.238  1.00  0.00    -0.377 OA
BRANCH   7  12
ATOM     12  C   UNL A   1      32.248  22.215  22.964  1.00  0.00     0.254 C 
ATOM     13  O   UNL A   1      32.259  22.090  21.764  1.00  0.00    -0.269 OA
BRANCH  12  14
ATOM     14  C   UNL A   1      31.549  23.800  23.654  1.00  0.00     0.045 A 
ATOM     15  C   UNL A   1      31.342  26.232  21.728  1.00  0.00     0.047 C 
ATOM     16  C   UNL A   1      31.324  25.402  23.187  1.00  0.00    -0.015 A 
ATOM     17  C   UNL A   1      30.753  26.386  23.973  1.00  0.00     0.038 A 
ATOM     18  C   UNL A   1      30.170  25.848  25.114  1.00  0.00     0.026 A 
ATOM     19  C   UNL A   1      31.114  23.532  24.943  1.00  0.00     0.014 A 
ATOM     20  C   UNL A   1      30.403  24.531  25.625  1.00  0.00     0.003 A 
BRANCH  17  21
ATOM     21  N   UNL A   1      30.657  27.726  23.597  1.00  0.00    -0.379 N 
ATOM     22  H   UNL A   1      31.328  27.916  22.902  1.00  0.00     0.160 HD
BRANCH  21  23
ATOM     23  C   UNL A   1      29.850  29.032  23.900  1.00  0.00     0.169 C 
BRANCH  23  24
ATOM     24  C   UNL A   1      29.174  30.155  23.030  1.00  0.00     0.059 A 
ATOM     25  C   UNL A   1      29.061  31.516  23.293  1.00  0.00     0.026 A 
ATOM     26  N   UNL A   1      28.848  29.770  21.761  1.00  0.00    -0.259 NA
ATOM     27  C   UNL A   1      28.431  32.414  22.405  1.00  0.00     0.004 A 
ATOM     28  C   UNL A   1      28.333  30.663  20.864  1.00  0.00     0.111 A 
ATOM     29  C   UNL A   1      28.064  31.982  21.150  1.00  0.00     0.020 A 
ENDBRANCH  23  24
ENDBRANCH  21  23
ENDBRANCH  17  21
ENDBRANCH  12  14
ENDBRANCH   7  12
ENDBRANCH   5   6
ENDBRANCH   1   5
BRANCH   3  30
ATOM     30  C   UNL A   1      35.166  24.553  25.107  1.00  0.00     0.117 C 
BRANCH  30  31
ATOM     31  C   UNL A   1      33.958  26.021  25.410  1.00  0.00     0.042 C 
BRANCH  31  32
ATOM     32  C   UNL A   1      33.963  27.578  26.399  1.00  0.00     0.118 C 
BRANCH  32  33
ATOM     33  N   UNL A   1      34.387  29.058  26.196  1.00  0.00    -0.352 N 
ATOM     34  C   UNL A   1      34.160  30.159  27.150  1.00  0.00     0.251 C 
ATOM     35  H   UNL A   1      34.849  29.280  25.356  1.00  0.00     0.163 HD
ATOM     36  O   UNL A   1      33.052  30.428  27.602  1.00  0.00    -0.269 OA
BRANCH  34  37
ATOM     37  C   UNL A   1      35.443  30.778  27.801  1.00  0.00     0.039 A 
ATOM     38  C   UNL A   1      36.031  32.036  28.069  1.00  0.00     0.014 A 
ATOM     39  C   UNL A   1      36.063  29.790  28.481  1.00  0.00     0.014 A 
ATOM     40  C   UNL A   1      37.306  32.184  28.835  1.00  0.00     0.010 A 
ATOM     41  C   UNL A   1      37.245  29.939  29.177  1.00  0.00     0.010 A 
ATOM     42  C   UNL A   1      37.963  31.079  29.360  1.00  0.00    -0.014 A 
BRANCH  42  43
ATOM     43  C   UNL A   1      39.226  30.648  30.076  1.00  0.00     0.031 A 
ATOM     44  C   UNL A   1      40.265  29.775  29.390  1.00  0.00     0.074 A 
ATOM     45  C   UNL A   1      39.786  31.633  30.844  1.00  0.00     0.049 A 
ATOM     46  N   UNL A   1      41.493  29.620  29.780  1.00  0.00    -0.248 NA
ATOM     47  C   UNL A   1      40.012  29.057  28.149  1.00  0.00     0.031 C 
ATOM     48  C   UNL A   1      41.199  32.045  31.008  1.00  0.00     0.029 A 
ATOM     49  N   UNL A   1      39.131  32.560  31.637  1.00  0.00    -0.354 N 
ATOM     50  C   UNL A   1      42.239  29.048  28.760  1.00  0.00     0.074 A 
ATOM     51  C   UNL A   1      41.243  28.642  27.799  1.00  0.00     0.031 C 
ATOM     52  C   UNL A   1      41.303  32.917  32.028  1.00  0.00     0.029 A 
ATOM     53  C   UNL A   1      40.005  32.960  32.665  1.00  0.00     0.049 A 
ATOM     54  H   UNL A   1      38.212  32.885  31.505  1.00  0.00     0.167 HD
ATOM     55  C   UNL A   1      43.613  29.056  28.833  1.00  0.00     0.037 A 
ATOM     56  C   UNL A   1      39.732  32.455  33.912  1.00  0.00     0.037 A 
ATOM     57  C   UNL A   1      44.056  29.618  30.114  1.00  0.00     0.049 A 
ATOM     58  C   UNL A   1      40.699  31.353  34.338  1.00  0.00     0.074 A 
ATOM     59  C   UNL A   1      44.691  30.770  30.541  1.00  0.00     0.029 A 
ATOM     60  N   UNL A   1      43.668  28.953  31.259  1.00  0.00    -0.354 N 
ATOM     61  N   UNL A   1      41.800  31.035  33.707  1.00  0.00    -0.248 NA
ATOM     62  C   UNL A   1      40.469  30.483  35.491  1.00  0.00     0.031 C 
ATOM     63  C   UNL A   1      44.548  30.837  31.966  1.00  0.00     0.029 A 
ATOM     64  C   UNL A   1      43.882  29.702  32.395  1.00  0.00     0.049 A 
ATOM     65  H   UNL A   1      43.283  28.048  31.264  1.00  0.00     0.167 HD
ATOM     66  C   UNL A   1      42.317  29.876  34.225  1.00  0.00     0.074 A 
ATOM     67  C   UNL A   1      41.472  29.595  35.373  1.00  0.00     0.031 C 
ATOM     68  C   UNL A   1      43.358  29.193  33.656  1.00  0.00     0.037 A 
BRANCH  55  69
ATOM     69  C   UNL A   1      44.650  28.610  27.794  1.00  0.00     0.058 A 
ATOM     70  C   UNL A   1      45.173  29.550  26.864  1.00  0.00     0.135 A 
ATOM     71  C   UNL A   1      45.119  27.295  27.597  1.00  0.00     0.135 A 
ATOM     72  F   UNL A   1      44.852  30.850  26.937  1.00  0.00    -0.206 F 
ATOM     73  C   UNL A   1      46.035  29.210  25.812  1.00  0.00     0.059 A 
ATOM     74  C   UNL A   1      46.014  26.937  26.572  1.00  0.00     0.059 A 
ATOM     75  F   UNL A   1      44.698  26.278  28.357  1.00  0.00    -0.206 F 
ATOM     76  C   UNL A   1      46.444  27.894  25.664  1.00  0.00     0.060 A 
BRANCH  76  77
ATOM     77  S   UNL A   1      47.498  27.456  24.263  1.00  0.00     0.124 S 
ATOM     78  O   UNL A   1      47.316  26.009  24.189  1.00  0.00    -0.237 OA
ATOM     79  O   UNL A   1      46.912  28.225  23.172  1.00  0.00    -0.237 OA
ATOM     80  O   UNL A   1      48.827  27.892  24.686  1.00  0.00    -0.744 OA
ENDBRANCH  76  77
ENDBRANCH  55  69
BRANCH  56  81
ATOM     81  C   UNL A   1      38.233  32.492  34.120  1.00  0.00     0.058 A 
ATOM     82  C   UNL A   1      37.670  33.788  34.216  1.00  0.00     0.135 A 
ATOM     83  C   UNL A   1      37.431  31.486  33.543  1.00  0.00     0.135 A 
ATOM     84  F   UNL A   1      38.392  34.791  34.746  1.00  0.00    -0.206 F 
ATOM     85  C   UNL A   1      36.487  34.121  33.561  1.00  0.00     0.059 A 
ATOM     86  C   UNL A   1      36.235  31.804  32.885  1.00  0.00     0.059 A 
ATOM     87  F   UNL A   1      37.913  30.242  33.400  1.00  0.00    -0.206 F 
ATOM     88  C   UNL A   1      35.817  33.136  32.837  1.00  0.00     0.060 A 
BRANCH  88  89
ATOM     89  S   UNL A   1      34.518  33.673  31.694  1.00  0.00     0.124 S 
ATOM     90  O   UNL A   1      35.189  34.735  30.952  1.00  0.00    -0.237 OA
ATOM     91  O   UNL A   1      34.263  32.444  30.945  1.00  0.00    -0.237 OA
ATOM     92  O   UNL A   1      33.442  34.112  32.577  1.00  0.00    -0.744 OA
ENDBRANCH  88  89
ENDBRANCH  56  81
BRANCH  68  93
ATOM     93  C   UNL A   1      43.928  27.933  34.259  1.00  0.00     0.058 A 
ATOM     94  C   UNL A   1      43.163  26.759  34.345  1.00  0.00     0.135 A 
ATOM     95  C   UNL A   1      45.204  27.883  34.865  1.00  0.00     0.135 A 
ATOM     96  F   UNL A   1      41.908  26.725  33.868  1.00  0.00    -0.206 F 
ATOM     97  C   UNL A   1      43.655  25.591  34.922  1.00  0.00     0.059 A 
ATOM     98  C   UNL A   1      45.692  26.747  35.505  1.00  0.00     0.059 A 
ATOM     99  F   UNL A   1      46.046  28.925  34.825  1.00  0.00    -0.206 F 
ATOM    100  C   UNL A   1      44.924  25.592  35.497  1.00  0.00     0.060 A 
BRANCH 100 101
ATOM    101  S   UNL A   1      45.559  24.076  36.233  1.00  0.00     0.124 S 
ATOM    102  O   UNL A   1      45.699  24.441  37.640  1.00  0.00    -0.237 OA
ATOM    103  O   UNL A   1      44.485  23.136  35.930  1.00  0.00    -0.237 OA
ATOM    104  O   UNL A   1      46.814  23.850  35.523  1.00  0.00    -0.744 OA
ENDBRANCH 100 101
ENDBRANCH  68  93
ENDBRANCH  42  43
ENDBRANCH  34  37
ENDBRANCH  32  33
ENDBRANCH  31  32
ENDBRANCH  30  31
ENDBRANCH   3  30
TORSDOF 19
ENDMDL
