MODEL 1
REMARK VINA RESULT:     -10.5      0.000      0.000
REMARK SMILES CCCN(CC(=O)OC)C(=O)N1CC[C@H](C(=O)NCCCNC(=O)c2ccc(-c3c4nc(c(-c5c(F)cc(S(=O)(=O)[O-])cc5F)c5ccc([nH]5)c(-c5c(F)cc(S(=O)(=O)[O-])cc5F)c5nc(c(-c6c(F)cc(S(=O)(=O)[O-])cc6F)c6ccc3[nH]6)C=C5)C=C4)cc2)[C@H]1C
REMARK SMILES IDX 19 1 18 2 16 3 17 4 15 6 12 7 13 8 91 9 14 10 92 11 10 12
REMARK SMILES IDX 11 13 4 14 3 15 2 16 1 17 5 18 6 19 7 20 8 21 9 22 20 23
REMARK SMILES IDX 21 24 22 25 23 26 24 28 25 29 26 30 90 31 27 32 89 33 28 34
REMARK SMILES IDX 29 35 30 36 83 37 31 38 88 39 82 40 84 41 32 42 87 43 81 44
REMARK SMILES IDX 80 45 33 47 67 48 46 49 66 50 47 51 50 52 65 53 85 54 48 55
REMARK SMILES IDX 49 56 64 58 86 59 51 60 34 61 35 62 44 63 36 64 37 65 43 66
REMARK SMILES IDX 45 67 38 68 39 69 40 70 41 71 42 72 68 73 69 74 78 75 70 76
REMARK SMILES IDX 71 77 77 78 79 79 72 80 73 81 74 82 75 83 76 84 52 85 53 86
REMARK SMILES IDX 62 87 54 88 55 89 61 90 63 91 56 92 57 93 58 94 59 95 60 96
REMARK H PARENT 18 5 22 27 84 46 50 57
REMARK Flexibility Score: inf
ROOT
ATOM      1  C   UNL A   1      33.731  29.933  26.913  1.00  0.00     0.117 C 
ENDROOT
BRANCH   1   2
ATOM      2  N   UNL A   1      32.734  29.115  27.582  1.00  0.00    -0.356 N 
ATOM      3  C   UNL A   1      31.820  28.240  27.077  1.00  0.00     0.225 C 
ATOM      4  O   UNL A   1      31.171  27.570  27.878  1.00  0.00    -0.275 OA
ATOM      5  H   UNL A   1      32.716  29.208  28.562  1.00  0.00     0.163 HD
BRANCH   3   6
ATOM      6  C   UNL A   1      31.650  28.114  25.573  1.00  0.00     0.102 C 
ATOM      7  N   UNL A   1      31.960  25.819  24.936  1.00  0.00    -0.321 N 
ATOM      8  C   UNL A   1      33.258  26.493  24.881  1.00  0.00     0.122 C 
ATOM      9  C   UNL A   1      30.897  26.823  25.180  1.00  0.00     0.096 C 
ATOM     10  C   UNL A   1      32.980  27.979  24.844  1.00  0.00     0.037 C 
ATOM     11  C   UNL A   1      30.075  27.161  23.927  1.00  0.00     0.032 C 
BRANCH   7  12
ATOM     12  C   UNL A   1      32.012  24.551  25.509  1.00  0.00     0.320 C 
ATOM     13  O   UNL A   1      31.843  24.402  26.722  1.00  0.00    -0.248 OA
BRANCH  12  14
ATOM     14  N   UNL A   1      32.447  23.485  24.744  1.00  0.00    -0.314 N 
BRANCH  14  15
ATOM     15  C   UNL A   1      33.407  22.557  25.349  1.00  0.00     0.122 C 
BRANCH  15  16
ATOM     16  C   UNL A   1      33.519  21.234  24.570  1.00  0.00     0.018 C 
ATOM     17  C   UNL A   1      32.659  20.107  25.132  1.00  0.00     0.006 C 
ENDBRANCH  15  16
ENDBRANCH  14  15
BRANCH  14  18
ATOM     18  C   UNL A   1      32.075  23.214  23.359  1.00  0.00     0.243 C 
BRANCH  18  19
ATOM     19  C   UNL A   1      32.905  23.985  22.326  1.00  0.00     0.325 C 
ATOM     20  O   UNL A   1      34.099  23.772  22.142  1.00  0.00    -0.250 OA
BRANCH  19  21
ATOM     21  O   UNL A   1      32.171  24.917  21.662  1.00  0.00    -0.468 OA
ATOM     22  C   UNL A   1      32.813  26.148  21.312  1.00  0.00     0.282 C 
ENDBRANCH  19  21
ENDBRANCH  18  19
ENDBRANCH  14  18
ENDBRANCH  12  14
ENDBRANCH   7  12
ENDBRANCH   3   6
ENDBRANCH   1   2
BRANCH   1  23
ATOM     23  C   UNL A   1      35.126  29.726  27.484  1.00  0.00     0.042 C 
BRANCH  23  24
ATOM     24  C   UNL A   1      35.693  30.933  28.223  1.00  0.00     0.118 C 
BRANCH  24  25
ATOM     25  N   UNL A   1      35.493  30.866  29.665  1.00  0.00    -0.352 N 
ATOM     26  C   UNL A   1      36.372  30.495  30.655  1.00  0.00     0.251 C 
ATOM     27  H   UNL A   1      34.595  31.124  29.976  1.00  0.00     0.163 HD
ATOM     28  O   UNL A   1      35.964  30.347  31.805  1.00  0.00    -0.269 OA
BRANCH  26  29
ATOM     29  C   UNL A   1      37.795  30.246  30.334  1.00  0.00     0.039 A 
ATOM     30  C   UNL A   1      38.648  29.783  31.340  1.00  0.00     0.014 A 
ATOM     31  C   UNL A   1      38.288  30.459  29.045  1.00  0.00     0.014 A 
ATOM     32  C   UNL A   1      39.972  29.456  31.033  1.00  0.00     0.010 A 
ATOM     33  C   UNL A   1      39.580  30.056  28.722  1.00  0.00     0.010 A 
ATOM     34  C   UNL A   1      40.436  29.546  29.710  1.00  0.00    -0.014 A 
BRANCH  34  35
ATOM     35  C   UNL A   1      41.804  29.106  29.326  1.00  0.00     0.031 A 
ATOM     36  C   UNL A   1      42.924  30.111  29.265  1.00  0.00     0.074 A 
ATOM     37  C   UNL A   1      42.014  27.832  28.933  1.00  0.00     0.049 A 
ATOM     38  N   UNL A   1      44.142  29.962  28.813  1.00  0.00    -0.248 NA
ATOM     39  C   UNL A   1      42.628  31.471  29.748  1.00  0.00     0.031 C 
ATOM     40  C   UNL A   1      41.000  26.774  28.910  1.00  0.00     0.029 A 
ATOM     41  N   UNL A   1      43.143  27.215  28.452  1.00  0.00    -0.354 N 
ATOM     42  C   UNL A   1      44.744  31.210  28.924  1.00  0.00     0.074 A 
ATOM     43  C   UNL A   1      43.751  32.114  29.461  1.00  0.00     0.031 C 
ATOM     44  C   UNL A   1      41.552  25.643  28.442  1.00  0.00     0.029 A 
ATOM     45  C   UNL A   1      42.944  25.903  28.083  1.00  0.00     0.049 A 
ATOM     46  H   UNL A   1      44.014  27.668  28.377  1.00  0.00     0.167 HD
ATOM     47  C   UNL A   1      46.014  31.565  28.618  1.00  0.00     0.037 A 
ATOM     48  C   UNL A   1      43.775  25.018  27.498  1.00  0.00     0.037 A 
ATOM     49  C   UNL A   1      47.010  30.646  28.131  1.00  0.00     0.049 A 
ATOM     50  C   UNL A   1      45.185  25.442  27.170  1.00  0.00     0.074 A 
ATOM     51  C   UNL A   1      48.349  30.891  27.883  1.00  0.00     0.029 A 
ATOM     52  N   UNL A   1      46.779  29.317  27.814  1.00  0.00    -0.354 N 
ATOM     53  N   UNL A   1      45.760  26.605  27.363  1.00  0.00    -0.248 NA
ATOM     54  C   UNL A   1      46.060  24.437  26.547  1.00  0.00     0.031 C 
ATOM     55  C   UNL A   1      48.915  29.727  27.358  1.00  0.00     0.029 A 
ATOM     56  C   UNL A   1      47.944  28.738  27.342  1.00  0.00     0.049 A 
ATOM     57  H   UNL A   1      45.916  28.854  27.911  1.00  0.00     0.167 HD
ATOM     58  C   UNL A   1      47.073  26.457  26.925  1.00  0.00     0.074 A 
ATOM     59  C   UNL A   1      47.208  25.094  26.459  1.00  0.00     0.031 C 
ATOM     60  C   UNL A   1      48.074  27.368  26.915  1.00  0.00     0.037 A 
BRANCH  47  61
ATOM     61  C   UNL A   1      46.418  33.002  28.791  1.00  0.00     0.058 A 
ATOM     62  C   UNL A   1      46.331  33.928  27.741  1.00  0.00     0.135 A 
ATOM     63  C   UNL A   1      46.803  33.478  30.055  1.00  0.00     0.135 A 
ATOM     64  F   UNL A   1      45.983  33.525  26.508  1.00  0.00    -0.206 F 
ATOM     65  C   UNL A   1      46.612  35.276  27.937  1.00  0.00     0.059 A 
ATOM     66  C   UNL A   1      47.064  34.827  30.281  1.00  0.00     0.059 A 
ATOM     67  F   UNL A   1      46.907  32.633  31.093  1.00  0.00    -0.206 F 
ATOM     68  C   UNL A   1      46.970  35.717  29.213  1.00  0.00     0.060 A 
BRANCH  68  69
ATOM     69  S   UNL A   1      47.278  37.479  29.460  1.00  0.00     0.124 S 
ATOM     70  O   UNL A   1      46.008  38.059  29.035  1.00  0.00    -0.237 OA
ATOM     71  O   UNL A   1      47.559  37.547  30.891  1.00  0.00    -0.237 OA
ATOM     72  O   UNL A   1      48.416  37.752  28.587  1.00  0.00    -0.744 OA
ENDBRANCH  68  69
ENDBRANCH  47  61
BRANCH  48  73
ATOM     73  C   UNL A   1      43.305  23.645  27.164  1.00  0.00     0.058 A 
ATOM     74  C   UNL A   1      43.201  22.654  28.153  1.00  0.00     0.135 A 
ATOM     75  C   UNL A   1      42.983  23.285  25.846  1.00  0.00     0.135 A 
ATOM     76  F   UNL A   1      43.502  22.944  29.427  1.00  0.00    -0.206 F 
ATOM     77  C   UNL A   1      42.836  21.348  27.842  1.00  0.00     0.059 A 
ATOM     78  C   UNL A   1      42.584  21.993  25.515  1.00  0.00     0.059 A 
ATOM     79  F   UNL A   1      43.044  24.198  24.864  1.00  0.00    -0.206 F 
ATOM     80  C   UNL A   1      42.534  21.026  26.518  1.00  0.00     0.060 A 
BRANCH  80  81
ATOM     81  S   UNL A   1      42.061  19.328  26.123  1.00  0.00     0.124 S 
ATOM     82  O   UNL A   1      42.454  18.626  27.339  1.00  0.00    -0.237 OA
ATOM     83  O   UNL A   1      40.625  19.455  25.894  1.00  0.00    -0.237 OA
ATOM     84  O   UNL A   1      42.854  19.028  24.935  1.00  0.00    -0.744 OA
ENDBRANCH  80  81
ENDBRANCH  48  73
BRANCH  60  85
ATOM     85  C   UNL A   1      49.432  26.922  26.447  1.00  0.00     0.058 A 
ATOM     86  C   UNL A   1      50.297  26.188  27.270  1.00  0.00     0.135 A 
ATOM     87  C   UNL A   1      49.823  27.145  25.115  1.00  0.00     0.135 A 
ATOM     88  F   UNL A   1      49.974  25.955  28.552  1.00  0.00    -0.206 F 
ATOM     89  C   UNL A   1      51.505  25.690  26.791  1.00  0.00     0.059 A 
ATOM     90  C   UNL A   1      51.011  26.633  24.607  1.00  0.00     0.059 A 
ATOM     91  F   UNL A   1      49.026  27.836  24.284  1.00  0.00    -0.206 F 
ATOM     92  C   UNL A   1      51.848  25.907  25.455  1.00  0.00     0.060 A 
BRANCH  92  93
ATOM     93  S   UNL A   1      53.379  25.188  24.826  1.00  0.00     0.124 S 
ATOM     94  O   UNL A   1      54.384  26.045  25.445  1.00  0.00    -0.237 OA
ATOM     95  O   UNL A   1      53.312  23.821  25.333  1.00  0.00    -0.237 OA
ATOM     96  O   UNL A   1      53.248  25.320  23.378  1.00  0.00    -0.744 OA
ENDBRANCH  92  93
ENDBRANCH  60  85
ENDBRANCH  34  35
ENDBRANCH  26  29
ENDBRANCH  24  25
ENDBRANCH  23  24
ENDBRANCH   1  23
TORSDOF 20
ENDMDL
MODEL 2
REMARK VINA RESULT:     -10.1      0.990      8.368
REMARK SMILES CCCN(CC(=O)OC)C(=O)N1CC[C@H](C(=O)NCCCNC(=O)c2ccc(-c3c4nc(c(-c5c(F)cc(S(=O)(=O)[O-])cc5F)c5ccc([nH]5)c(-c5c(F)cc(S(=O)(=O)[O-])cc5F)c5nc(c(-c6c(F)cc(S(=O)(=O)[O-])cc6F)c6ccc3[nH]6)C=C5)C=C4)cc2)[C@H]1C
REMARK SMILES IDX 19 1 18 2 16 3 17 4 15 6 12 7 13 8 91 9 14 10 92 11 10 12
REMARK SMILES IDX 11 13 4 14 3 15 2 16 1 17 5 18 6 19 7 20 8 21 9 22 20 23
REMARK SMILES IDX 21 24 22 25 23 26 24 28 25 29 26 30 90 31 27 32 89 33 28 34
REMARK SMILES IDX 29 35 30 36 83 37 31 38 88 39 82 40 84 41 32 42 87 43 81 44
REMARK SMILES IDX 80 45 33 47 67 48 46 49 66 50 47 51 50 52 65 53 85 54 48 55
REMARK SMILES IDX 49 56 64 58 86 59 51 60 34 61 35 62 44 63 36 64 37 65 43 66
REMARK SMILES IDX 45 67 38 68 39 69 40 70 41 71 42 72 68 73 69 74 78 75 70 76
REMARK SMILES IDX 71 77 77 78 79 79 72 80 73 81 74 82 75 83 76 84 52 85 53 86
REMARK SMILES IDX 62 87 54 88 55 89 61 90 63 91 56 92 57 93 58 94 59 95 60 96
REMARK H PARENT 18 5 22 27 84 46 50 57
REMARK Flexibility Score: inf
ROOT
ATOM      1  C   UNL A   1      34.622  30.444  27.398  1.00  0.00     0.117 C 
ENDROOT
BRANCH   1   2
ATOM      2  N   UNL A   1      33.339  29.871  27.770  1.00  0.00    -0.356 N 
ATOM      3  C   UNL A   1      32.432  29.173  27.032  1.00  0.00     0.225 C 
ATOM      4  O   UNL A   1      31.473  28.682  27.625  1.00  0.00    -0.275 OA
ATOM      5  H   UNL A   1      33.084  30.011  28.710  1.00  0.00     0.163 HD
BRANCH   3   6
ATOM      6  C   UNL A   1      32.641  29.015  25.536  1.00  0.00     0.102 C 
ATOM      7  N   UNL A   1      32.114  26.759  24.902  1.00  0.00    -0.321 N 
ATOM      8  C   UNL A   1      33.535  26.822  25.243  1.00  0.00     0.122 C 
ATOM      9  C   UNL A   1      31.551  28.130  24.888  1.00  0.00     0.096 C 
ATOM     10  C   UNL A   1      33.933  28.281  25.201  1.00  0.00     0.037 C 
ATOM     11  C   UNL A   1      31.325  28.684  23.473  1.00  0.00     0.032 C 
BRANCH   7  12
ATOM     12  C   UNL A   1      31.468  25.633  25.406  1.00  0.00     0.320 C 
ATOM     13  O   UNL A   1      30.861  25.684  26.479  1.00  0.00    -0.248 OA
BRANCH  12  14
ATOM     14  N   UNL A   1      31.675  24.410  24.796  1.00  0.00    -0.314 N 
BRANCH  14  15
ATOM     15  C   UNL A   1      32.052  23.277  25.647  1.00  0.00     0.122 C 
BRANCH  15  16
ATOM     16  C   UNL A   1      30.920  22.242  25.786  1.00  0.00     0.018 C 
ATOM     17  C   UNL A   1      29.904  22.575  26.872  1.00  0.00     0.006 C 
ENDBRANCH  15  16
ENDBRANCH  14  15
BRANCH  14  18
ATOM     18  C   UNL A   1      31.601  24.141  23.364  1.00  0.00     0.243 C 
BRANCH  18  19
ATOM     19  C   UNL A   1      32.967  23.996  22.682  1.00  0.00     0.325 C 
ATOM     20  O   UNL A   1      33.591  22.940  22.667  1.00  0.00    -0.250 OA
BRANCH  19  21
ATOM     21  O   UNL A   1      33.391  25.158  22.118  1.00  0.00    -0.468 OA
ATOM     22  C   UNL A   1      32.547  25.773  21.140  1.00  0.00     0.282 C 
ENDBRANCH  19  21
ENDBRANCH  18  19
ENDBRANCH  14  18
ENDBRANCH  12  14
ENDBRANCH   7  12
ENDBRANCH   3   6
ENDBRANCH   1   2
BRANCH   1  23
ATOM     23  C   UNL A   1      34.835  31.825  28.002  1.00  0.00     0.042 C 
BRANCH  23  24
ATOM     24  C   UNL A   1      36.081  31.949  28.870  1.00  0.00     0.118 C 
BRANCH  24  25
ATOM     25  N   UNL A   1      35.916  31.364  30.195  1.00  0.00    -0.352 N 
ATOM     26  C   UNL A   1      36.668  30.403  30.828  1.00  0.00     0.251 C 
ATOM     27  H   UNL A   1      35.153  31.708  30.713  1.00  0.00     0.163 HD
ATOM     28  O   UNL A   1      36.271  29.921  31.887  1.00  0.00    -0.269 OA
BRANCH  26  29
ATOM     29  C   UNL A   1      37.934  29.929  30.225  1.00  0.00     0.039 A 
ATOM     30  C   UNL A   1      38.034  29.843  28.834  1.00  0.00     0.014 A 
ATOM     31  C   UNL A   1      39.023  29.578  31.027  1.00  0.00     0.014 A 
ATOM     32  C   UNL A   1      39.251  29.484  28.245  1.00  0.00     0.010 A 
ATOM     33  C   UNL A   1      40.254  29.302  30.439  1.00  0.00     0.010 A 
ATOM     34  C   UNL A   1      40.384  29.256  29.042  1.00  0.00    -0.014 A 
BRANCH  34  35
ATOM     35  C   UNL A   1      41.719  28.978  28.448  1.00  0.00     0.031 A 
ATOM     36  C   UNL A   1      42.066  27.580  28.008  1.00  0.00     0.074 A 
ATOM     37  C   UNL A   1      42.650  29.954  28.404  1.00  0.00     0.049 A 
ATOM     38  N   UNL A   1      43.216  27.104  27.608  1.00  0.00    -0.248 NA
ATOM     39  C   UNL A   1      40.985  26.580  28.049  1.00  0.00     0.031 C 
ATOM     40  C   UNL A   1      42.448  31.339  28.838  1.00  0.00     0.029 A 
ATOM     41  N   UNL A   1      43.962  29.926  27.997  1.00  0.00    -0.354 N 
ATOM     42  C   UNL A   1      43.008  25.747  27.384  1.00  0.00     0.074 A 
ATOM     43  C   UNL A   1      41.629  25.469  27.718  1.00  0.00     0.031 C 
ATOM     44  C   UNL A   1      43.591  32.025  28.674  1.00  0.00     0.029 A 
ATOM     45  C   UNL A   1      44.622  31.122  28.170  1.00  0.00     0.049 A 
ATOM     46  H   UNL A   1      44.391  29.125  27.617  1.00  0.00     0.167 HD
ATOM     47  C   UNL A   1      43.886  24.822  26.930  1.00  0.00     0.037 A 
ATOM     48  C   UNL A   1      45.915  31.450  27.974  1.00  0.00     0.037 A 
ATOM     49  C   UNL A   1      45.243  25.119  26.553  1.00  0.00     0.049 A 
ATOM     50  C   UNL A   1      46.869  30.398  27.466  1.00  0.00     0.074 A 
ATOM     51  C   UNL A   1      46.179  24.269  25.992  1.00  0.00     0.029 A 
ATOM     52  N   UNL A   1      45.858  26.352  26.702  1.00  0.00    -0.354 N 
ATOM     53  N   UNL A   1      46.631  29.140  27.179  1.00  0.00    -0.248 NA
ATOM     54  C   UNL A   1      48.266  30.806  27.252  1.00  0.00     0.031 C 
ATOM     55  C   UNL A   1      47.380  24.970  25.857  1.00  0.00     0.029 A 
ATOM     56  C   UNL A   1      47.172  26.275  26.273  1.00  0.00     0.049 A 
ATOM     57  H   UNL A   1      45.426  27.161  27.058  1.00  0.00     0.167 HD
ATOM     58  C   UNL A   1      47.834  28.622  26.712  1.00  0.00     0.074 A 
ATOM     59  C   UNL A   1      48.799  29.699  26.754  1.00  0.00     0.031 C 
ATOM     60  C   UNL A   1      48.112  27.367  26.285  1.00  0.00     0.037 A 
BRANCH  47  61
ATOM     61  C   UNL A   1      43.427  23.397  26.810  1.00  0.00     0.058 A 
ATOM     62  C   UNL A   1      43.234  22.582  27.936  1.00  0.00     0.135 A 
ATOM     63  C   UNL A   1      43.078  22.872  25.553  1.00  0.00     0.135 A 
ATOM     64  F   UNL A   1      43.565  23.027  29.158  1.00  0.00    -0.206 F 
ATOM     65  C   UNL A   1      42.714  21.296  27.822  1.00  0.00     0.059 A 
ATOM     66  C   UNL A   1      42.531  21.600  25.418  1.00  0.00     0.059 A 
ATOM     67  F   UNL A   1      43.246  23.608  24.444  1.00  0.00    -0.206 F 
ATOM     68  C   UNL A   1      42.357  20.818  26.559  1.00  0.00     0.060 A 
BRANCH  68  69
ATOM     69  S   UNL A   1      41.633  19.168  26.437  1.00  0.00     0.124 S 
ATOM     70  O   UNL A   1      42.648  18.462  25.660  1.00  0.00    -0.237 OA
ATOM     71  O   UNL A   1      41.520  18.775  27.838  1.00  0.00    -0.237 OA
ATOM     72  O   UNL A   1      40.367  19.401  25.749  1.00  0.00    -0.744 OA
ENDBRANCH  68  69
ENDBRANCH  47  61
BRANCH  48  73
ATOM     73  C   UNL A   1      46.400  32.826  28.271  1.00  0.00     0.058 A 
ATOM     74  C   UNL A   1      46.416  33.819  27.279  1.00  0.00     0.135 A 
ATOM     75  C   UNL A   1      46.891  33.168  29.542  1.00  0.00     0.135 A 
ATOM     76  F   UNL A   1      45.963  33.543  26.047  1.00  0.00    -0.206 F 
ATOM     77  C   UNL A   1      46.936  35.086  27.523  1.00  0.00     0.059 A 
ATOM     78  C   UNL A   1      47.387  34.439  29.819  1.00  0.00     0.059 A 
ATOM     79  F   UNL A   1      46.880  32.264  30.534  1.00  0.00    -0.206 F 
ATOM     80  C   UNL A   1      47.424  35.385  28.796  1.00  0.00     0.060 A 
BRANCH  80  81
ATOM     81  S   UNL A   1      48.098  37.032  29.102  1.00  0.00     0.124 S 
ATOM     82  O   UNL A   1      49.001  37.193  27.969  1.00  0.00    -0.237 OA
ATOM     83  O   UNL A   1      46.899  37.862  29.087  1.00  0.00    -0.237 OA
ATOM     84  O   UNL A   1      48.739  36.893  30.407  1.00  0.00    -0.744 OA
ENDBRANCH  80  81
ENDBRANCH  48  73
BRANCH  60  85
ATOM     85  C   UNL A   1      49.494  27.088  25.762  1.00  0.00     0.058 A 
ATOM     86  C   UNL A   1      49.821  27.243  24.408  1.00  0.00     0.135 A 
ATOM     87  C   UNL A   1      50.529  26.763  26.655  1.00  0.00     0.135 A 
ATOM     88  F   UNL A   1      48.867  27.544  23.512  1.00  0.00    -0.206 F 
ATOM     89  C   UNL A   1      51.127  27.084  23.954  1.00  0.00     0.059 A 
ATOM     90  C   UNL A   1      51.846  26.628  26.230  1.00  0.00     0.059 A 
ATOM     91  F   UNL A   1      50.271  26.611  27.964  1.00  0.00    -0.206 F 
ATOM     92  C   UNL A   1      52.135  26.788  24.875  1.00  0.00     0.060 A 
BRANCH  92  93
ATOM     93  S   UNL A   1      53.836  26.664  24.285  1.00  0.00     0.124 S 
ATOM     94  O   UNL A   1      54.559  27.408  25.310  1.00  0.00    -0.237 OA
ATOM     95  O   UNL A   1      54.057  25.221  24.275  1.00  0.00    -0.237 OA
ATOM     96  O   UNL A   1      53.787  27.293  22.968  1.00  0.00    -0.744 OA
ENDBRANCH  92  93
ENDBRANCH  60  85
ENDBRANCH  34  35
ENDBRANCH  26  29
ENDBRANCH  24  25
ENDBRANCH  23  24
ENDBRANCH   1  23
TORSDOF 20
ENDMDL
MODEL 3
REMARK VINA RESULT:     -10.0      1.126      2.536
REMARK SMILES CCCN(CC(=O)OC)C(=O)N1CC[C@H](C(=O)NCCCNC(=O)c2ccc(-c3c4nc(c(-c5c(F)cc(S(=O)(=O)[O-])cc5F)c5ccc([nH]5)c(-c5c(F)cc(S(=O)(=O)[O-])cc5F)c5nc(c(-c6c(F)cc(S(=O)(=O)[O-])cc6F)c6ccc3[nH]6)C=C5)C=C4)cc2)[C@H]1C
REMARK SMILES IDX 19 1 18 2 16 3 17 4 15 6 12 7 13 8 91 9 14 10 92 11 10 12
REMARK SMILES IDX 11 13 4 14 3 15 2 16 1 17 5 18 6 19 7 20 8 21 9 22 20 23
REMARK SMILES IDX 21 24 22 25 23 26 24 28 25 29 26 30 90 31 27 32 89 33 28 34
REMARK SMILES IDX 29 35 30 36 83 37 31 38 88 39 82 40 84 41 32 42 87 43 81 44
REMARK SMILES IDX 80 45 33 47 67 48 46 49 66 50 47 51 50 52 65 53 85 54 48 55
REMARK SMILES IDX 49 56 64 58 86 59 51 60 34 61 35 62 44 63 36 64 37 65 43 66
REMARK SMILES IDX 45 67 38 68 39 69 40 70 41 71 42 72 68 73 69 74 78 75 70 76
REMARK SMILES IDX 71 77 77 78 79 79 72 80 73 81 74 82 75 83 76 84 52 85 53 86
REMARK SMILES IDX 62 87 54 88 55 89 61 90 63 91 56 92 57 93 58 94 59 95 60 96
REMARK H PARENT 18 5 22 27 84 46 50 57
REMARK Flexibility Score: inf
ROOT
ATOM      1  C   UNL A   1      34.564  32.348  27.953  1.00  0.00     0.117 C 
ENDROOT
BRANCH   1   2
ATOM      2  N   UNL A   1      35.163  31.083  27.561  1.00  0.00    -0.356 N 
ATOM      3  C   UNL A   1      34.588  29.918  27.154  1.00  0.00     0.225 C 
ATOM      4  O   UNL A   1      35.333  29.026  26.752  1.00  0.00    -0.275 OA
ATOM      5  H   UNL A   1      36.147  31.066  27.596  1.00  0.00     0.163 HD
BRANCH   3   6
ATOM      6  C   UNL A   1      33.077  29.770  27.195  1.00  0.00     0.102 C 
ATOM      7  N   UNL A   1      32.392  28.218  25.496  1.00  0.00    -0.321 N 
ATOM      8  C   UNL A   1      32.392  29.562  24.919  1.00  0.00     0.122 C 
ATOM      9  C   UNL A   1      32.630  28.310  26.956  1.00  0.00     0.096 C 
ATOM     10  C   UNL A   1      32.384  30.537  26.076  1.00  0.00     0.037 C 
ATOM     11  C   UNL A   1      31.361  28.098  27.797  1.00  0.00     0.032 C 
BRANCH   7  12
ATOM     12  C   UNL A   1      32.934  27.249  24.655  1.00  0.00     0.320 C 
ATOM     13  O   UNL A   1      33.950  27.486  23.995  1.00  0.00    -0.248 OA
BRANCH  12  14
ATOM     14  N   UNL A   1      32.219  26.091  24.415  1.00  0.00    -0.314 N 
BRANCH  14  15
ATOM     15  C   UNL A   1      30.822  26.226  23.988  1.00  0.00     0.122 C 
BRANCH  15  16
ATOM     16  C   UNL A   1      30.685  26.958  22.641  1.00  0.00     0.018 C 
ATOM     17  C   UNL A   1      29.721  28.139  22.671  1.00  0.00     0.006 C 
ENDBRANCH  15  16
ENDBRANCH  14  15
BRANCH  14  18
ATOM     18  C   UNL A   1      32.708  24.728  24.591  1.00  0.00     0.243 C 
BRANCH  18  19
ATOM     19  C   UNL A   1      31.652  23.646  24.331  1.00  0.00     0.325 C 
ATOM     20  O   UNL A   1      30.750  23.396  25.122  1.00  0.00    -0.250 OA
BRANCH  19  21
ATOM     21  O   UNL A   1      31.844  23.009  23.144  1.00  0.00    -0.468 OA
ATOM     22  C   UNL A   1      33.113  23.160  22.502  1.00  0.00     0.282 C 
ENDBRANCH  19  21
ENDBRANCH  18  19
ENDBRANCH  14  18
ENDBRANCH  12  14
ENDBRANCH   7  12
ENDBRANCH   3   6
ENDBRANCH   1   2
BRANCH   1  23
ATOM     23  C   UNL A   1      35.609  33.415  28.249  1.00  0.00     0.042 C 
BRANCH  23  24
ATOM     24  C   UNL A   1      36.661  33.002  29.271  1.00  0.00     0.118 C 
BRANCH  24  25
ATOM     25  N   UNL A   1      36.110  32.242  30.385  1.00  0.00    -0.352 N 
ATOM     26  C   UNL A   1      36.553  31.069  30.951  1.00  0.00     0.251 C 
ATOM     27  H   UNL A   1      35.299  32.624  30.793  1.00  0.00     0.163 HD
ATOM     28  O   UNL A   1      35.855  30.495  31.784  1.00  0.00    -0.269 OA
BRANCH  26  29
ATOM     29  C   UNL A   1      37.849  30.486  30.540  1.00  0.00     0.039 A 
ATOM     30  C   UNL A   1      38.132  30.349  29.178  1.00  0.00     0.014 A 
ATOM     31  C   UNL A   1      38.788  30.082  31.492  1.00  0.00     0.014 A 
ATOM     32  C   UNL A   1      39.387  29.885  28.772  1.00  0.00     0.010 A 
ATOM     33  C   UNL A   1      40.064  29.699  31.087  1.00  0.00     0.010 A 
ATOM     34  C   UNL A   1      40.380  29.600  29.723  1.00  0.00    -0.014 A 
BRANCH  34  35
ATOM     35  C   UNL A   1      41.758  29.208  29.326  1.00  0.00     0.031 A 
ATOM     36  C   UNL A   1      42.836  30.255  29.229  1.00  0.00     0.074 A 
ATOM     37  C   UNL A   1      42.013  27.937  28.952  1.00  0.00     0.049 A 
ATOM     38  N   UNL A   1      44.052  30.146  28.762  1.00  0.00    -0.248 NA
ATOM     39  C   UNL A   1      42.493  31.611  29.693  1.00  0.00     0.031 C 
ATOM     40  C   UNL A   1      41.042  26.839  28.963  1.00  0.00     0.029 A 
ATOM     41  N   UNL A   1      43.158  27.355  28.464  1.00  0.00    -0.354 N 
ATOM     42  C   UNL A   1      44.606  31.419  28.842  1.00  0.00     0.074 A 
ATOM     43  C   UNL A   1      43.586  32.292  29.377  1.00  0.00     0.031 C 
ATOM     44  C   UNL A   1      41.631  25.722  28.506  1.00  0.00     0.029 A 
ATOM     45  C   UNL A   1      43.006  26.030  28.122  1.00  0.00     0.049 A 
ATOM     46  H   UNL A   1      44.009  27.842  28.368  1.00  0.00     0.167 HD
ATOM     47  C   UNL A   1      45.856  31.818  28.510  1.00  0.00     0.037 A 
ATOM     48  C   UNL A   1      43.864  25.168  27.540  1.00  0.00     0.037 A 
ATOM     49  C   UNL A   1      46.881  30.931  28.024  1.00  0.00     0.049 A 
ATOM     50  C   UNL A   1      45.250  25.642  27.183  1.00  0.00     0.074 A 
ATOM     51  C   UNL A   1      48.205  31.223  27.751  1.00  0.00     0.029 A 
ATOM     52  N   UNL A   1      46.698  29.588  27.734  1.00  0.00    -0.354 N 
ATOM     53  N   UNL A   1      45.782  26.830  27.346  1.00  0.00    -0.248 NA
ATOM     54  C   UNL A   1      46.155  24.661  26.564  1.00  0.00     0.031 C 
ATOM     55  C   UNL A   1      48.809  30.073  27.238  1.00  0.00     0.029 A 
ATOM     56  C   UNL A   1      47.878  29.047  27.255  1.00  0.00     0.049 A 
ATOM     57  H   UNL A   1      45.856  29.093  27.852  1.00  0.00     0.167 HD
ATOM     58  C   UNL A   1      47.092  26.726  26.891  1.00  0.00     0.074 A 
ATOM     59  C   UNL A   1      47.275  25.361  26.447  1.00  0.00     0.031 C 
ATOM     60  C   UNL A   1      48.057  27.676  26.850  1.00  0.00     0.037 A 
BRANCH  47  61
ATOM     61  C   UNL A   1      46.206  33.272  28.651  1.00  0.00     0.058 A 
ATOM     62  C   UNL A   1      46.767  33.789  29.828  1.00  0.00     0.135 A 
ATOM     63  C   UNL A   1      46.069  34.140  27.554  1.00  0.00     0.135 A 
ATOM     64  F   UNL A   1      46.906  33.009  30.912  1.00  0.00    -0.206 F 
ATOM     65  C   UNL A   1      47.179  35.115  29.915  1.00  0.00     0.059 A 
ATOM     66  C   UNL A   1      46.499  35.462  27.609  1.00  0.00     0.059 A 
ATOM     67  F   UNL A   1      45.535  33.697  26.405  1.00  0.00    -0.206 F 
ATOM     68  C   UNL A   1      47.049  35.942  28.797  1.00  0.00     0.060 A 
BRANCH  68  69
ATOM     69  S   UNL A   1      47.639  37.644  28.911  1.00  0.00     0.124 S 
ATOM     70  O   UNL A   1      49.084  37.458  28.821  1.00  0.00    -0.237 OA
ATOM     71  O   UNL A   1      47.008  38.269  27.753  1.00  0.00    -0.237 OA
ATOM     72  O   UNL A   1      47.144  38.091  30.209  1.00  0.00    -0.744 OA
ENDBRANCH  68  69
ENDBRANCH  47  61
BRANCH  48  73
ATOM     73  C   UNL A   1      43.443  23.772  27.237  1.00  0.00     0.058 A 
ATOM     74  C   UNL A   1      43.206  23.356  25.918  1.00  0.00     0.135 A 
ATOM     75  C   UNL A   1      43.235  22.835  28.262  1.00  0.00     0.135 A 
ATOM     76  F   UNL A   1      43.385  24.213  24.902  1.00  0.00    -0.206 F 
ATOM     77  C   UNL A   1      42.740  22.078  25.628  1.00  0.00     0.059 A 
ATOM     78  C   UNL A   1      42.800  21.540  27.995  1.00  0.00     0.059 A 
ATOM     79  F   UNL A   1      43.466  23.172  29.541  1.00  0.00    -0.206 F 
ATOM     80  C   UNL A   1      42.535  21.177  26.675  1.00  0.00     0.060 A 
BRANCH  80  81
ATOM     81  S   UNL A   1      41.930  19.521  26.290  1.00  0.00     0.124 S 
ATOM     82  O   UNL A   1      42.389  19.354  24.916  1.00  0.00    -0.237 OA
ATOM     83  O   UNL A   1      42.607  18.705  27.293  1.00  0.00    -0.237 OA
ATOM     84  O   UNL A   1      40.486  19.643  26.463  1.00  0.00    -0.744 OA
ENDBRANCH  80  81
ENDBRANCH  48  73
BRANCH  60  85
ATOM     85  C   UNL A   1      49.424  27.275  26.369  1.00  0.00     0.058 A 
ATOM     86  C   UNL A   1      50.406  26.791  27.243  1.00  0.00     0.135 A 
ATOM     87  C   UNL A   1      49.712  27.278  24.993  1.00  0.00     0.135 A 
ATOM     88  F   UNL A   1      50.184  26.775  28.567  1.00  0.00    -0.206 F 
ATOM     89  C   UNL A   1      51.630  26.324  26.773  1.00  0.00     0.059 A 
ATOM     90  C   UNL A   1      50.916  26.790  24.498  1.00  0.00     0.059 A 
ATOM     91  F   UNL A   1      48.802  27.725  24.112  1.00  0.00    -0.206 F 
ATOM     92  C   UNL A   1      51.871  26.317  25.397  1.00  0.00     0.060 A 
BRANCH  92  93
ATOM     93  S   UNL A   1      53.430  25.634  24.795  1.00  0.00     0.124 S 
ATOM     94  O   UNL A   1      53.333  24.246  25.232  1.00  0.00    -0.237 OA
ATOM     95  O   UNL A   1      53.330  25.855  23.355  1.00  0.00    -0.237 OA
ATOM     96  O   UNL A   1      54.439  26.439  25.477  1.00  0.00    -0.744 OA
ENDBRANCH  92  93
ENDBRANCH  60  85
ENDBRANCH  34  35
ENDBRANCH  26  29
ENDBRANCH  24  25
ENDBRANCH  23  24
ENDBRANCH   1  23
TORSDOF 20
ENDMDL
