MODEL 1
REMARK VINA RESULT:     -12.2      0.000      0.000
REMARK SMILES CC[C@@H](NS(=O)(=O)c1cc(C)ccc1C)C(=O)NCCCNC(=O)c1ccc(-c2c3nc(c(-c4c(F)cc(S(=O)(=O)[O-])cc4F)c4ccc([nH]4)c(-c4c(F)cc(S(=O)(=O)[O-])cc4F)c4nc(c(-c5c(F)cc(S(=O)(=O)[O-])cc5F)c5ccc2[nH]5)C=C4)C=C3)cc1
REMARK SMILES IDX 20 1 19 2 18 3 16 4 17 5 3 7 2 8 1 9 4 10 5 12 6 13 7 14
REMARK SMILES IDX 8 15 9 16 14 17 10 18 13 19 15 20 11 21 12 22 21 23 22 24
REMARK SMILES IDX 23 25 24 27 25 28 26 29 90 30 27 31 89 32 28 33 29 34 30 35
REMARK SMILES IDX 83 36 31 37 88 38 82 39 84 40 32 41 87 42 81 43 80 44 33 46
REMARK SMILES IDX 67 47 46 48 66 49 47 50 50 51 65 52 85 53 48 54 49 55 64 57
REMARK SMILES IDX 86 58 51 59 34 60 35 61 44 62 36 63 37 64 43 65 45 66 38 67
REMARK SMILES IDX 39 68 40 69 41 70 42 71 68 72 69 73 78 74 70 75 71 76 77 77
REMARK SMILES IDX 79 78 72 79 73 80 74 81 75 82 76 83 52 84 53 85 62 86 54 87
REMARK SMILES IDX 55 88 61 89 63 90 56 91 57 92 58 93 59 94 60 95
REMARK H PARENT 18 6 4 11 22 26 84 45 50 56
REMARK Flexibility Score: inf
ROOT
ATOM      1  C   UNL A   1      32.491  30.086  25.977  1.00  0.00     0.042 C 
ENDROOT
BRANCH   1   2
ATOM      2  C   UNL A   1      32.646  29.411  24.606  1.00  0.00     0.117 C 
BRANCH   2   3
ATOM      3  N   UNL A   1      31.474  29.543  23.753  1.00  0.00    -0.355 N 
ATOM      4  C   UNL A   1      30.807  28.658  22.965  1.00  0.00     0.238 C 
ATOM      5  O   UNL A   1      29.926  29.114  22.231  1.00  0.00    -0.273 OA
ATOM      6  H   UNL A   1      31.090  30.450  23.746  1.00  0.00     0.163 HD
BRANCH   4   7
ATOM      7  C   UNL A   1      31.160  27.173  22.926  1.00  0.00     0.158 C 
BRANCH   7   8
ATOM      8  C   UNL A   1      29.930  26.429  23.464  1.00  0.00     0.027 C 
ATOM      9  C   UNL A   1      29.939  26.186  24.960  1.00  0.00     0.006 C 
ENDBRANCH   7   8
BRANCH   7  10
ATOM     10  N   UNL A   1      31.565  26.717  21.580  1.00  0.00    -0.199 NA
ATOM     11  H   UNL A   1      31.582  27.548  20.989  1.00  0.00     0.142 HD
BRANCH  10  12
ATOM     12  S   UNL A   1      33.028  25.917  21.315  1.00  0.00     0.241 S 
ATOM     13  O   UNL A   1      32.975  25.336  19.994  1.00  0.00    -0.207 OA
ATOM     14  O   UNL A   1      34.038  26.905  21.633  1.00  0.00    -0.207 OA
BRANCH  12  15
ATOM     15  C   UNL A   1      33.065  24.602  22.521  1.00  0.00     0.085 A 
ATOM     16  C   UNL A   1      32.717  23.348  22.002  1.00  0.00     0.025 A 
ATOM     17  C   UNL A   1      33.417  24.710  23.880  1.00  0.00    -0.031 A 
ATOM     18  C   UNL A   1      32.566  22.233  22.822  1.00  0.00    -0.050 A 
ATOM     19  C   UNL A   1      33.308  23.556  24.690  1.00  0.00     0.005 A 
ATOM     20  C   UNL A   1      34.010  25.914  24.551  1.00  0.00     0.046 C 
ATOM     21  C   UNL A   1      31.996  20.981  22.245  1.00  0.00     0.044 C 
ATOM     22  C   UNL A   1      32.852  22.341  24.178  1.00  0.00     0.004 A 
ENDBRANCH  12  15
ENDBRANCH  10  12
ENDBRANCH   7  10
ENDBRANCH   4   7
ENDBRANCH   2   3
ENDBRANCH   1   2
BRANCH   1  23
ATOM     23  C   UNL A   1      33.741  30.170  26.858  1.00  0.00     0.118 C 
BRANCH  23  24
ATOM     24  N   UNL A   1      33.678  31.256  27.844  1.00  0.00    -0.352 N 
ATOM     25  C   UNL A   1      34.516  31.653  28.872  1.00  0.00     0.251 C 
ATOM     26  H   UNL A   1      32.875  31.819  27.755  1.00  0.00     0.163 HD
ATOM     27  O   UNL A   1      34.063  32.393  29.742  1.00  0.00    -0.269 OA
BRANCH  25  28
ATOM     28  C   UNL A   1      35.931  31.218  28.940  1.00  0.00     0.039 A 
ATOM     29  C   UNL A   1      37.003  32.115  28.857  1.00  0.00     0.014 A 
ATOM     30  C   UNL A   1      36.203  29.868  29.058  1.00  0.00     0.014 A 
ATOM     31  C   UNL A   1      38.312  31.623  28.930  1.00  0.00     0.010 A 
ATOM     32  C   UNL A   1      37.454  29.405  29.353  1.00  0.00     0.010 A 
ATOM     33  C   UNL A   1      38.523  30.261  29.183  1.00  0.00    -0.014 A 
BRANCH  33  34
ATOM     34  C   UNL A   1      39.835  29.672  29.391  1.00  0.00     0.031 A 
ATOM     35  C   UNL A   1      40.171  29.461  30.805  1.00  0.00     0.074 A 
ATOM     36  C   UNL A   1      40.563  29.085  28.415  1.00  0.00     0.049 A 
ATOM     37  N   UNL A   1      40.921  30.219  31.529  1.00  0.00    -0.248 NA
ATOM     38  C   UNL A   1      39.463  28.415  31.555  1.00  0.00     0.031 C 
ATOM     39  C   UNL A   1      40.189  28.928  27.009  1.00  0.00     0.029 A 
ATOM     40  N   UNL A   1      41.742  28.404  28.493  1.00  0.00    -0.354 N 
ATOM     41  C   UNL A   1      41.032  29.548  32.735  1.00  0.00     0.074 A 
ATOM     42  C   UNL A   1      39.905  28.654  32.794  1.00  0.00     0.031 C 
ATOM     43  C   UNL A   1      41.015  28.034  26.422  1.00  0.00     0.029 A 
ATOM     44  C   UNL A   1      42.058  27.672  27.352  1.00  0.00     0.049 A 
ATOM     45  H   UNL A   1      42.321  28.426  29.289  1.00  0.00     0.167 HD
ATOM     46  C   UNL A   1      42.221  29.524  33.399  1.00  0.00     0.037 A 
ATOM     47  C   UNL A   1      43.112  26.842  27.148  1.00  0.00     0.037 A 
ATOM     48  C   UNL A   1      43.165  30.448  32.800  1.00  0.00     0.049 A 
ATOM     49  C   UNL A   1      44.162  27.271  28.098  1.00  0.00     0.074 A 
ATOM     50  C   UNL A   1      43.166  31.798  32.508  1.00  0.00     0.029 A 
ATOM     51  N   UNL A   1      44.171  29.894  32.045  1.00  0.00    -0.354 N 
ATOM     52  N   UNL A   1      44.781  28.418  28.022  1.00  0.00    -0.248 NA
ATOM     53  C   UNL A   1      44.243  26.604  29.388  1.00  0.00     0.031 C 
ATOM     54  C   UNL A   1      43.900  31.927  31.293  1.00  0.00     0.029 A 
ATOM     55  C   UNL A   1      44.374  30.666  30.931  1.00  0.00     0.049 A 
ATOM     56  H   UNL A   1      44.667  29.073  32.269  1.00  0.00     0.167 HD
ATOM     57  C   UNL A   1      44.909  28.826  29.339  1.00  0.00     0.074 A 
ATOM     58  C   UNL A   1      44.706  27.614  30.129  1.00  0.00     0.031 C 
ATOM     59  C   UNL A   1      44.859  30.151  29.665  1.00  0.00     0.037 A 
BRANCH  46  60
ATOM     60  C   UNL A   1      42.683  28.403  34.300  1.00  0.00     0.058 A 
ATOM     61  C   UNL A   1      42.980  28.703  35.645  1.00  0.00     0.135 A 
ATOM     62  C   UNL A   1      43.092  27.125  33.858  1.00  0.00     0.135 A 
ATOM     63  F   UNL A   1      42.649  29.895  36.167  1.00  0.00    -0.206 F 
ATOM     64  C   UNL A   1      43.690  27.830  36.466  1.00  0.00     0.059 A 
ATOM     65  C   UNL A   1      43.743  26.213  34.679  1.00  0.00     0.059 A 
ATOM     66  F   UNL A   1      42.978  26.727  32.586  1.00  0.00    -0.206 F 
ATOM     67  C   UNL A   1      44.077  26.590  35.968  1.00  0.00     0.060 A 
BRANCH  67  68
ATOM     68  S   UNL A   1      45.070  25.496  36.992  1.00  0.00     0.124 S 
ATOM     69  O   UNL A   1      46.203  26.356  37.315  1.00  0.00    -0.237 OA
ATOM     70  O   UNL A   1      44.157  25.199  38.090  1.00  0.00    -0.237 OA
ATOM     71  O   UNL A   1      45.357  24.376  36.102  1.00  0.00    -0.744 OA
ENDBRANCH  67  68
ENDBRANCH  46  60
BRANCH  47  72
ATOM     72  C   UNL A   1      43.213  25.598  26.339  1.00  0.00     0.058 A 
ATOM     73  C   UNL A   1      44.224  25.446  25.370  1.00  0.00     0.135 A 
ATOM     74  C   UNL A   1      42.526  24.423  26.703  1.00  0.00     0.135 A 
ATOM     75  F   UNL A   1      44.930  26.510  24.958  1.00  0.00    -0.206 F 
ATOM     76  C   UNL A   1      44.593  24.196  24.863  1.00  0.00     0.059 A 
ATOM     77  C   UNL A   1      42.871  23.165  26.202  1.00  0.00     0.059 A 
ATOM     78  F   UNL A   1      41.561  24.448  27.634  1.00  0.00    -0.206 F 
ATOM     79  C   UNL A   1      43.932  23.054  25.310  1.00  0.00     0.060 A 
BRANCH  79  80
ATOM     80  S   UNL A   1      44.564  21.426  24.839  1.00  0.00     0.124 S 
ATOM     81  O   UNL A   1      44.609  21.525  23.385  1.00  0.00    -0.237 OA
ATOM     82  O   UNL A   1      45.857  21.389  25.515  1.00  0.00    -0.237 OA
ATOM     83  O   UNL A   1      43.563  20.506  25.372  1.00  0.00    -0.744 OA
ENDBRANCH  79  80
ENDBRANCH  47  72
BRANCH  59  84
ATOM     84  C   UNL A   1      45.143  31.158  28.579  1.00  0.00     0.058 A 
ATOM     85  C   UNL A   1      44.235  31.567  27.587  1.00  0.00     0.135 A 
ATOM     86  C   UNL A   1      46.373  31.833  28.634  1.00  0.00     0.135 A 
ATOM     87  F   UNL A   1      43.003  31.042  27.514  1.00  0.00    -0.206 F 
ATOM     88  C   UNL A   1      44.552  32.576  26.672  1.00  0.00     0.059 A 
ATOM     89  C   UNL A   1      46.698  32.861  27.756  1.00  0.00     0.059 A 
ATOM     90  F   UNL A   1      47.266  31.524  29.590  1.00  0.00    -0.206 F 
ATOM     91  C   UNL A   1      45.786  33.220  26.767  1.00  0.00     0.060 A 
BRANCH  91  92
ATOM     92  S   UNL A   1      46.164  34.580  25.640  1.00  0.00     0.124 S 
ATOM     93  O   UNL A   1      45.282  34.299  24.512  1.00  0.00    -0.237 OA
ATOM     94  O   UNL A   1      45.822  35.757  26.434  1.00  0.00    -0.237 OA
ATOM     95  O   UNL A   1      47.591  34.414  25.372  1.00  0.00    -0.744 OA
ENDBRANCH  91  92
ENDBRANCH  59  84
ENDBRANCH  33  34
ENDBRANCH  25  28
ENDBRANCH  23  24
ENDBRANCH   1  23
TORSDOF 17
ENDMDL
MODEL 2
REMARK VINA RESULT:     -12.2      1.669      2.328
REMARK SMILES CC[C@@H](NS(=O)(=O)c1cc(C)ccc1C)C(=O)NCCCNC(=O)c1ccc(-c2c3nc(c(-c4c(F)cc(S(=O)(=O)[O-])cc4F)c4ccc([nH]4)c(-c4c(F)cc(S(=O)(=O)[O-])cc4F)c4nc(c(-c5c(F)cc(S(=O)(=O)[O-])cc5F)c5ccc2[nH]5)C=C4)C=C3)cc1
REMARK SMILES IDX 20 1 19 2 18 3 16 4 17 5 3 7 2 8 1 9 4 10 5 12 6 13 7 14
REMARK SMILES IDX 8 15 9 16 14 17 10 18 13 19 15 20 11 21 12 22 21 23 22 24
REMARK SMILES IDX 23 25 24 27 25 28 26 29 90 30 27 31 89 32 28 33 29 34 30 35
REMARK SMILES IDX 83 36 31 37 88 38 82 39 84 40 32 41 87 42 81 43 80 44 33 46
REMARK SMILES IDX 67 47 46 48 66 49 47 50 50 51 65 52 85 53 48 54 49 55 64 57
REMARK SMILES IDX 86 58 51 59 34 60 35 61 44 62 36 63 37 64 43 65 45 66 38 67
REMARK SMILES IDX 39 68 40 69 41 70 42 71 68 72 69 73 78 74 70 75 71 76 77 77
REMARK SMILES IDX 79 78 72 79 73 80 74 81 75 82 76 83 52 84 53 85 62 86 54 87
REMARK SMILES IDX 55 88 61 89 63 90 56 91 57 92 58 93 59 94 60 95
REMARK H PARENT 18 6 4 11 22 26 84 45 50 56
REMARK Flexibility Score: inf
ROOT
ATOM      1  C   UNL A   1      32.431  28.109  27.325  1.00  0.00     0.042 C 
ENDROOT
BRANCH   1   2
ATOM      2  C   UNL A   1      31.781  27.377  26.141  1.00  0.00     0.117 C 
BRANCH   2   3
ATOM      3  N   UNL A   1      30.867  26.317  26.541  1.00  0.00    -0.355 N 
ATOM      4  C   UNL A   1      30.965  24.960  26.512  1.00  0.00     0.238 C 
ATOM      5  O   UNL A   1      29.946  24.319  26.779  1.00  0.00    -0.273 OA
ATOM      6  H   UNL A   1      30.012  26.646  26.901  1.00  0.00     0.163 HD
BRANCH   4   7
ATOM      7  C   UNL A   1      32.250  24.243  26.106  1.00  0.00     0.158 C 
BRANCH   7   8
ATOM      8  C   UNL A   1      32.239  22.899  26.845  1.00  0.00     0.027 C 
ATOM      9  C   UNL A   1      33.417  22.674  27.773  1.00  0.00     0.006 C 
ENDBRANCH   7   8
BRANCH   7  10
ATOM     10  N   UNL A   1      32.382  24.093  24.641  1.00  0.00    -0.199 NA
ATOM     11  H   UNL A   1      31.674  24.698  24.226  1.00  0.00     0.142 HD
BRANCH  10  12
ATOM     12  S   UNL A   1      33.828  24.435  23.839  1.00  0.00     0.241 S 
ATOM     13  O   UNL A   1      33.649  24.086  22.450  1.00  0.00    -0.207 OA
ATOM     14  O   UNL A   1      34.127  25.803  24.211  1.00  0.00    -0.207 OA
BRANCH  12  15
ATOM     15  C   UNL A   1      35.033  23.334  24.559  1.00  0.00     0.085 A 
ATOM     16  C   UNL A   1      36.072  23.993  25.229  1.00  0.00     0.025 A 
ATOM     17  C   UNL A   1      35.018  21.926  24.528  1.00  0.00    -0.031 A 
ATOM     18  C   UNL A   1      37.168  23.301  25.739  1.00  0.00    -0.050 A 
ATOM     19  C   UNL A   1      36.114  21.236  25.096  1.00  0.00     0.005 A 
ATOM     20  C   UNL A   1      33.892  21.060  24.044  1.00  0.00     0.046 C 
ATOM     21  C   UNL A   1      38.335  24.073  26.257  1.00  0.00     0.044 C 
ATOM     22  C   UNL A   1      37.194  21.914  25.661  1.00  0.00     0.004 A 
ENDBRANCH  12  15
ENDBRANCH  10  12
ENDBRANCH   7  10
ENDBRANCH   4   7
ENDBRANCH   2   3
ENDBRANCH   1   2
BRANCH   1  23
ATOM     23  C   UNL A   1      33.771  28.803  27.064  1.00  0.00     0.118 C 
BRANCH  23  24
ATOM     24  N   UNL A   1      33.724  30.251  27.298  1.00  0.00    -0.352 N 
ATOM     25  C   UNL A   1      34.583  31.139  27.923  1.00  0.00     0.251 C 
ATOM     26  H   UNL A   1      32.915  30.681  26.936  1.00  0.00     0.163 HD
ATOM     27  O   UNL A   1      34.146  32.238  28.259  1.00  0.00    -0.269 OA
BRANCH  25  28
ATOM     28  C   UNL A   1      36.003  30.802  28.184  1.00  0.00     0.039 A 
ATOM     29  C   UNL A   1      36.873  31.664  28.860  1.00  0.00     0.014 A 
ATOM     30  C   UNL A   1      36.494  29.599  27.712  1.00  0.00     0.014 A 
ATOM     31  C   UNL A   1      38.201  31.271  29.067  1.00  0.00     0.010 A 
ATOM     32  C   UNL A   1      37.710  29.113  28.099  1.00  0.00     0.010 A 
ATOM     33  C   UNL A   1      38.606  29.985  28.683  1.00  0.00    -0.014 A 
BRANCH  33  34
ATOM     34  C   UNL A   1      39.925  29.438  28.955  1.00  0.00     0.031 A 
ATOM     35  C   UNL A   1      40.189  29.216  30.382  1.00  0.00     0.074 A 
ATOM     36  C   UNL A   1      40.725  28.893  28.013  1.00  0.00     0.049 A 
ATOM     37  N   UNL A   1      40.870  29.988  31.159  1.00  0.00    -0.248 NA
ATOM     38  C   UNL A   1      39.477  28.134  31.077  1.00  0.00     0.031 C 
ATOM     39  C   UNL A   1      40.436  28.747  26.586  1.00  0.00     0.029 A 
ATOM     40  N   UNL A   1      41.921  28.252  28.147  1.00  0.00    -0.354 N 
ATOM     41  C   UNL A   1      40.938  29.301  32.359  1.00  0.00     0.074 A 
ATOM     42  C   UNL A   1      39.842  28.368  32.341  1.00  0.00     0.031 C 
ATOM     43  C   UNL A   1      41.324  27.892  26.033  1.00  0.00     0.029 A 
ATOM     44  C   UNL A   1      42.327  27.550  27.015  1.00  0.00     0.049 A 
ATOM     45  H   UNL A   1      42.454  28.282  28.975  1.00  0.00     0.167 HD
ATOM     46  C   UNL A   1      42.088  29.307  33.088  1.00  0.00     0.037 A 
ATOM     47  C   UNL A   1      43.418  26.761  26.859  1.00  0.00     0.037 A 
ATOM     48  C   UNL A   1      43.030  30.273  32.556  1.00  0.00     0.049 A 
ATOM     49  C   UNL A   1      44.399  27.211  27.872  1.00  0.00     0.074 A 
ATOM     50  C   UNL A   1      42.999  31.627  32.285  1.00  0.00     0.029 A 
ATOM     51  N   UNL A   1      44.096  29.766  31.851  1.00  0.00    -0.354 N 
ATOM     52  N   UNL A   1      44.980  28.380  27.847  1.00  0.00    -0.248 NA
ATOM     53  C   UNL A   1      44.432  26.526  29.154  1.00  0.00     0.031 C 
ATOM     54  C   UNL A   1      43.795  31.801  31.114  1.00  0.00     0.029 A 
ATOM     55  C   UNL A   1      44.333  30.563  30.761  1.00  0.00     0.049 A 
ATOM     56  H   UNL A   1      44.607  28.960  32.090  1.00  0.00     0.167 HD
ATOM     57  C   UNL A   1      45.020  28.770  29.175  1.00  0.00     0.074 A 
ATOM     58  C   UNL A   1      44.817  27.539  29.935  1.00  0.00     0.031 C 
ATOM     59  C   UNL A   1      44.905  30.086  29.518  1.00  0.00     0.037 A 
BRANCH  46  60
ATOM     60  C   UNL A   1      42.539  28.188  33.997  1.00  0.00     0.058 A 
ATOM     61  C   UNL A   1      42.583  28.429  35.385  1.00  0.00     0.135 A 
ATOM     62  C   UNL A   1      43.167  26.998  33.566  1.00  0.00     0.135 A 
ATOM     63  F   UNL A   1      42.029  29.537  35.904  1.00  0.00    -0.206 F 
ATOM     64  C   UNL A   1      43.259  27.588  36.268  1.00  0.00     0.059 A 
ATOM     65  C   UNL A   1      43.789  26.113  34.437  1.00  0.00     0.059 A 
ATOM     66  F   UNL A   1      43.302  26.676  32.275  1.00  0.00    -0.206 F 
ATOM     67  C   UNL A   1      43.869  26.438  35.781  1.00  0.00     0.060 A 
BRANCH  67  68
ATOM     68  S   UNL A   1      44.817  25.398  36.898  1.00  0.00     0.124 S 
ATOM     69  O   UNL A   1      44.366  25.886  38.196  1.00  0.00    -0.237 OA
ATOM     70  O   UNL A   1      44.367  24.062  36.524  1.00  0.00    -0.237 OA
ATOM     71  O   UNL A   1      46.201  25.708  36.550  1.00  0.00    -0.744 OA
ENDBRANCH  67  68
ENDBRANCH  46  60
BRANCH  47  72
ATOM     72  C   UNL A   1      43.609  25.535  26.038  1.00  0.00     0.058 A 
ATOM     73  C   UNL A   1      44.815  25.306  25.349  1.00  0.00     0.135 A 
ATOM     74  C   UNL A   1      42.746  24.427  26.155  1.00  0.00     0.135 A 
ATOM     75  F   UNL A   1      45.699  26.303  25.185  1.00  0.00    -0.206 F 
ATOM     76  C   UNL A   1      45.185  24.038  24.888  1.00  0.00     0.059 A 
ATOM     77  C   UNL A   1      43.090  23.154  25.694  1.00  0.00     0.059 A 
ATOM     78  F   UNL A   1      41.581  24.527  26.813  1.00  0.00    -0.206 F 
ATOM     79  C   UNL A   1      44.329  22.959  25.095  1.00  0.00     0.060 A 
BRANCH  79  80
ATOM     80  S   UNL A   1      44.908  21.287  24.715  1.00  0.00     0.124 S 
ATOM     81  O   UNL A   1      46.337  21.390  24.988  1.00  0.00    -0.237 OA
ATOM     82  O   UNL A   1      44.138  20.474  25.650  1.00  0.00    -0.237 OA
ATOM     83  O   UNL A   1      44.551  21.115  23.309  1.00  0.00    -0.744 OA
ENDBRANCH  79  80
ENDBRANCH  47  72
BRANCH  59  84
ATOM     84  C   UNL A   1      45.213  31.121  28.464  1.00  0.00     0.058 A 
ATOM     85  C   UNL A   1      44.349  31.510  27.425  1.00  0.00     0.135 A 
ATOM     86  C   UNL A   1      46.411  31.841  28.601  1.00  0.00     0.135 A 
ATOM     87  F   UNL A   1      43.145  30.940  27.272  1.00  0.00    -0.206 F 
ATOM     88  C   UNL A   1      44.681  32.545  26.544  1.00  0.00     0.059 A 
ATOM     89  C   UNL A   1      46.746  32.894  27.758  1.00  0.00     0.059 A 
ATOM     90  F   UNL A   1      47.257  31.551  29.604  1.00  0.00    -0.206 F 
ATOM     91  C   UNL A   1      45.880  33.234  26.721  1.00  0.00     0.060 A 
BRANCH  91  92
ATOM     92  S   UNL A   1      46.271  34.625  25.637  1.00  0.00     0.124 S 
ATOM     93  O   UNL A   1      45.905  35.771  26.463  1.00  0.00    -0.237 OA
ATOM     94  O   UNL A   1      47.701  34.449  25.396  1.00  0.00    -0.237 OA
ATOM     95  O   UNL A   1      45.419  34.399  24.471  1.00  0.00    -0.744 OA
ENDBRANCH  91  92
ENDBRANCH  59  84
ENDBRANCH  33  34
ENDBRANCH  25  28
ENDBRANCH  23  24
ENDBRANCH   1  23
TORSDOF 17
ENDMDL
MODEL 3
REMARK VINA RESULT:     -12.1      1.584      1.969
REMARK SMILES CC[C@@H](NS(=O)(=O)c1cc(C)ccc1C)C(=O)NCCCNC(=O)c1ccc(-c2c3nc(c(-c4c(F)cc(S(=O)(=O)[O-])cc4F)c4ccc([nH]4)c(-c4c(F)cc(S(=O)(=O)[O-])cc4F)c4nc(c(-c5c(F)cc(S(=O)(=O)[O-])cc5F)c5ccc2[nH]5)C=C4)C=C3)cc1
REMARK SMILES IDX 20 1 19 2 18 3 16 4 17 5 3 7 2 8 1 9 4 10 5 12 6 13 7 14
REMARK SMILES IDX 8 15 9 16 14 17 10 18 13 19 15 20 11 21 12 22 21 23 22 24
REMARK SMILES IDX 23 25 24 27 25 28 26 29 90 30 27 31 89 32 28 33 29 34 30 35
REMARK SMILES IDX 83 36 31 37 88 38 82 39 84 40 32 41 87 42 81 43 80 44 33 46
REMARK SMILES IDX 67 47 46 48 66 49 47 50 50 51 65 52 85 53 48 54 49 55 64 57
REMARK SMILES IDX 86 58 51 59 34 60 35 61 44 62 36 63 37 64 43 65 45 66 38 67
REMARK SMILES IDX 39 68 40 69 41 70 42 71 68 72 69 73 78 74 70 75 71 76 77 77
REMARK SMILES IDX 79 78 72 79 73 80 74 81 75 82 76 83 52 84 53 85 62 86 54 87
REMARK SMILES IDX 55 88 61 89 63 90 56 91 57 92 58 93 59 94 60 95
REMARK H PARENT 18 6 4 11 22 26 84 45 50 56
REMARK Flexibility Score: inf
ROOT
ATOM      1  C   UNL A   1      32.204  30.030  26.315  1.00  0.00     0.042 C 
ENDROOT
BRANCH   1   2
ATOM      2  C   UNL A   1      31.699  28.580  26.305  1.00  0.00     0.117 C 
BRANCH   2   3
ATOM      3  N   UNL A   1      32.090  27.833  25.119  1.00  0.00    -0.355 N 
ATOM      4  C   UNL A   1      31.500  26.812  24.440  1.00  0.00     0.238 C 
ATOM      5  O   UNL A   1      32.162  26.277  23.546  1.00  0.00    -0.273 OA
ATOM      6  H   UNL A   1      32.948  28.124  24.732  1.00  0.00     0.163 HD
BRANCH   4   7
ATOM      7  C   UNL A   1      30.110  26.291  24.797  1.00  0.00     0.158 C 
BRANCH   7   8
ATOM      8  C   UNL A   1      29.198  26.681  23.626  1.00  0.00     0.027 C 
ATOM      9  C   UNL A   1      29.133  28.169  23.339  1.00  0.00     0.006 C 
ENDBRANCH   7   8
BRANCH   7  10
ATOM     10  N   UNL A   1      30.098  24.840  25.076  1.00  0.00    -0.199 NA
ATOM     11  H   UNL A   1      30.492  24.386  24.252  1.00  0.00     0.142 HD
BRANCH  10  12
ATOM     12  S   UNL A   1      30.902  24.185  26.408  1.00  0.00     0.241 S 
ATOM     13  O   UNL A   1      31.758  25.214  26.950  1.00  0.00    -0.207 OA
ATOM     14  O   UNL A   1      29.844  23.619  27.221  1.00  0.00    -0.207 OA
BRANCH  12  15
ATOM     15  C   UNL A   1      31.920  22.879  25.744  1.00  0.00     0.085 A 
ATOM     16  C   UNL A   1      31.748  22.672  24.369  1.00  0.00     0.025 A 
ATOM     17  C   UNL A   1      32.850  22.091  26.448  1.00  0.00    -0.031 A 
ATOM     18  C   UNL A   1      32.362  21.612  23.707  1.00  0.00    -0.050 A 
ATOM     19  C   UNL A   1      33.505  21.051  25.748  1.00  0.00     0.005 A 
ATOM     20  C   UNL A   1      33.312  22.308  27.859  1.00  0.00     0.046 C 
ATOM     21  C   UNL A   1      31.980  21.322  22.294  1.00  0.00     0.044 C 
ATOM     22  C   UNL A   1      33.237  20.788  24.405  1.00  0.00     0.004 A 
ENDBRANCH  12  15
ENDBRANCH  10  12
ENDBRANCH   7  10
ENDBRANCH   4   7
ENDBRANCH   2   3
ENDBRANCH   1   2
BRANCH   1  23
ATOM     23  C   UNL A   1      32.989  30.487  27.549  1.00  0.00     0.118 C 
BRANCH  23  24
ATOM     24  N   UNL A   1      33.512  31.853  27.424  1.00  0.00    -0.352 N 
ATOM     25  C   UNL A   1      34.688  32.458  27.834  1.00  0.00     0.251 C 
ATOM     26  H   UNL A   1      32.901  32.464  26.952  1.00  0.00     0.163 HD
ATOM     27  O   UNL A   1      34.725  33.686  27.884  1.00  0.00    -0.269 OA
BRANCH  25  28
ATOM     28  C   UNL A   1      35.888  31.670  28.199  1.00  0.00     0.039 A 
ATOM     29  C   UNL A   1      36.023  30.311  27.893  1.00  0.00     0.014 A 
ATOM     30  C   UNL A   1      36.903  32.297  28.898  1.00  0.00     0.014 A 
ATOM     31  C   UNL A   1      37.190  29.638  28.273  1.00  0.00     0.010 A 
ATOM     32  C   UNL A   1      38.127  31.716  29.073  1.00  0.00     0.010 A 
ATOM     33  C   UNL A   1      38.240  30.357  28.861  1.00  0.00    -0.014 A 
BRANCH  33  34
ATOM     34  C   UNL A   1      39.533  29.778  29.186  1.00  0.00     0.031 A 
ATOM     35  C   UNL A   1      39.768  29.628  30.628  1.00  0.00     0.074 A 
ATOM     36  C   UNL A   1      40.325  29.151  28.289  1.00  0.00     0.049 A 
ATOM     37  N   UNL A   1      40.467  30.417  31.371  1.00  0.00    -0.248 NA
ATOM     38  C   UNL A   1      39.006  28.615  31.370  1.00  0.00     0.031 C 
ATOM     39  C   UNL A   1      40.052  28.934  26.868  1.00  0.00     0.029 A 
ATOM     40  N   UNL A   1      41.494  28.474  28.479  1.00  0.00    -0.354 N 
ATOM     41  C   UNL A   1      40.491  29.797  32.608  1.00  0.00     0.074 A 
ATOM     42  C   UNL A   1      39.361  28.906  32.625  1.00  0.00     0.031 C 
ATOM     43  C   UNL A   1      40.915  28.017  26.380  1.00  0.00     0.029 A 
ATOM     44  C   UNL A   1      41.889  27.695  27.395  1.00  0.00     0.049 A 
ATOM     45  H   UNL A   1      42.016  28.532  29.313  1.00  0.00     0.167 HD
ATOM     46  C   UNL A   1      41.630  29.803  33.355  1.00  0.00     0.037 A 
ATOM     47  C   UNL A   1      42.952  26.858  27.302  1.00  0.00     0.037 A 
ATOM     48  C   UNL A   1      42.616  30.701  32.785  1.00  0.00     0.049 A 
ATOM     49  C   UNL A   1      43.934  27.328  28.304  1.00  0.00     0.074 A 
ATOM     50  C   UNL A   1      42.640  32.038  32.437  1.00  0.00     0.029 A 
ATOM     51  N   UNL A   1      43.671  30.115  32.127  1.00  0.00    -0.354 N 
ATOM     52  N   UNL A   1      44.560  28.471  28.223  1.00  0.00    -0.248 NA
ATOM     53  C   UNL A   1      43.922  26.717  29.623  1.00  0.00     0.031 C 
ATOM     54  C   UNL A   1      43.458  32.115  31.272  1.00  0.00     0.029 A 
ATOM     55  C   UNL A   1      43.954  30.840  30.999  1.00  0.00     0.049 A 
ATOM     56  H   UNL A   1      44.148  29.305  32.420  1.00  0.00     0.167 HD
ATOM     57  C   UNL A   1      44.595  28.934  29.528  1.00  0.00     0.074 A 
ATOM     58  C   UNL A   1      44.335  27.757  30.352  1.00  0.00     0.031 C 
ATOM     59  C   UNL A   1      44.526  30.272  29.793  1.00  0.00     0.037 A 
BRANCH  46  60
ATOM     60  C   UNL A   1      42.025  28.721  34.333  1.00  0.00     0.058 A 
ATOM     61  C   UNL A   1      42.211  29.075  35.685  1.00  0.00     0.135 A 
ATOM     62  C   UNL A   1      42.475  27.431  33.975  1.00  0.00     0.135 A 
ATOM     63  F   UNL A   1      41.832  30.283  36.132  1.00  0.00    -0.206 F 
ATOM     64  C   UNL A   1      42.858  28.240  36.593  1.00  0.00     0.059 A 
ATOM     65  C   UNL A   1      43.063  26.557  34.880  1.00  0.00     0.059 A 
ATOM     66  F   UNL A   1      42.465  26.983  32.715  1.00  0.00    -0.206 F 
ATOM     67  C   UNL A   1      43.291  26.986  36.177  1.00  0.00     0.060 A 
BRANCH  67  68
ATOM     68  S   UNL A   1      44.205  25.941  37.318  1.00  0.00     0.124 S 
ATOM     69  O   UNL A   1      43.747  24.614  36.922  1.00  0.00    -0.237 OA
ATOM     70  O   UNL A   1      45.587  26.268  36.988  1.00  0.00    -0.237 OA
ATOM     71  O   UNL A   1      43.753  26.402  38.628  1.00  0.00    -0.744 OA
ENDBRANCH  67  68
ENDBRANCH  46  60
BRANCH  47  72
ATOM     72  C   UNL A   1      43.108  25.581  26.555  1.00  0.00     0.058 A 
ATOM     73  C   UNL A   1      43.995  25.483  25.466  1.00  0.00     0.135 A 
ATOM     74  C   UNL A   1      42.631  24.360  27.073  1.00  0.00     0.135 A 
ATOM     75  F   UNL A   1      44.498  26.593  24.904  1.00  0.00    -0.206 F 
ATOM     76  C   UNL A   1      44.454  24.254  24.982  1.00  0.00     0.059 A 
ATOM     77  C   UNL A   1      43.067  23.121  26.599  1.00  0.00     0.059 A 
ATOM     78  F   UNL A   1      41.800  24.335  28.126  1.00  0.00    -0.206 F 
ATOM     79  C   UNL A   1      44.009  23.076  25.577  1.00  0.00     0.060 A 
BRANCH  79  80
ATOM     80  S   UNL A   1      44.780  21.506  25.113  1.00  0.00     0.124 S 
ATOM     81  O   UNL A   1      44.752  21.572  23.656  1.00  0.00    -0.237 OA
ATOM     82  O   UNL A   1      46.097  21.615  25.730  1.00  0.00    -0.237 OA
ATOM     83  O   UNL A   1      43.899  20.505  25.711  1.00  0.00    -0.744 OA
ENDBRANCH  79  80
ENDBRANCH  47  72
BRANCH  59  84
ATOM     84  C   UNL A   1      44.887  31.233  28.688  1.00  0.00     0.058 A 
ATOM     85  C   UNL A   1      44.070  31.563  27.593  1.00  0.00     0.135 A 
ATOM     86  C   UNL A   1      46.089  31.948  28.826  1.00  0.00     0.135 A 
ATOM     87  F   UNL A   1      42.866  30.997  27.429  1.00  0.00    -0.206 F 
ATOM     88  C   UNL A   1      44.449  32.535  26.661  1.00  0.00     0.059 A 
ATOM     89  C   UNL A   1      46.470  32.940  27.930  1.00  0.00     0.059 A 
ATOM     90  F   UNL A   1      46.891  31.714  29.878  1.00  0.00    -0.206 F 
ATOM     91  C   UNL A   1      45.650  33.221  26.841  1.00  0.00     0.060 A 
BRANCH  91  92
ATOM     92  S   UNL A   1      46.101  34.535  25.685  1.00  0.00     0.124 S 
ATOM     93  O   UNL A   1      45.217  34.268  24.556  1.00  0.00    -0.237 OA
ATOM     94  O   UNL A   1      45.806  35.745  26.448  1.00  0.00    -0.237 OA
ATOM     95  O   UNL A   1      47.521  34.297  25.435  1.00  0.00    -0.744 OA
ENDBRANCH  91  92
ENDBRANCH  59  84
ENDBRANCH  33  34
ENDBRANCH  25  28
ENDBRANCH  23  24
ENDBRANCH   1  23
TORSDOF 17
ENDMDL
