MODEL 1
REMARK VINA RESULT:     -12.6      0.000      0.000
REMARK SMILES O=C(Cc1ccc(F)c(F)c1)NC1(C(=O)NCCCNC(=O)c2ccc(-c3c4nc(c(-c5c(F)cc(S(=O)(=O)[O-])cc5F)c5ccc([nH]5)c(-c5c(F)cc(S(=O)(=O)[O-])cc5F)c5nc(c(-c6c(F)cc(S(=O)(=O)[O-])cc6F)c6ccc3[nH]6)C=C5)C=C4)cc2)CCCC1
REMARK SMILES IDX 18 1 17 2 16 3 14 4 15 5 13 7 89 8 92 9 90 10 91 11 12 12
REMARK SMILES IDX 1 13 2 14 3 16 4 17 5 18 11 19 6 20 9 21 7 22 10 23 8 24
REMARK SMILES IDX 19 25 20 26 21 27 22 29 23 30 24 31 88 32 25 33 87 34 26 35
REMARK SMILES IDX 27 36 28 37 81 38 29 39 86 40 80 41 82 42 30 43 85 44 79 45
REMARK SMILES IDX 78 46 31 48 65 49 44 50 64 51 45 52 48 53 63 54 83 55 46 56
REMARK SMILES IDX 47 57 62 59 84 60 49 61 32 62 33 63 42 64 34 65 35 66 41 67
REMARK SMILES IDX 43 68 36 69 37 70 38 71 39 72 40 73 66 74 67 75 76 76 68 77
REMARK SMILES IDX 69 78 75 79 77 80 70 81 71 82 72 83 73 84 74 85 50 86 51 87
REMARK SMILES IDX 60 88 52 89 53 90 59 91 61 92 54 93 55 94 56 95 57 96 58 97
REMARK H PARENT 16 6 12 15 20 28 82 47 48 58
REMARK Flexibility Score: inf
ROOT
ATOM      1  C   UNL A   1      33.702  28.914  27.212  1.00  0.00     0.042 C 
ENDROOT
BRANCH   1   2
ATOM      2  C   UNL A   1      33.080  29.415  25.923  1.00  0.00     0.117 C 
BRANCH   2   3
ATOM      3  N   UNL A   1      33.910  29.239  24.756  1.00  0.00    -0.354 N 
ATOM      4  C   UNL A   1      33.753  28.401  23.696  1.00  0.00     0.245 C 
ATOM      5  O   UNL A   1      34.207  28.823  22.621  1.00  0.00    -0.272 OA
ATOM      6  H   UNL A   1      34.710  29.812  24.722  1.00  0.00     0.163 HD
BRANCH   4   7
ATOM      7  C   UNL A   1      32.969  27.039  23.768  1.00  0.00     0.119 C 
ATOM      8  C   UNL A   1      33.429  26.188  24.965  1.00  0.00     0.038 C 
ATOM      9  C   UNL A   1      33.064  26.113  22.545  1.00  0.00     0.038 C 
ATOM     10  C   UNL A   1      34.161  24.967  24.431  1.00  0.00     0.003 C 
ATOM     11  C   UNL A   1      33.866  24.877  22.942  1.00  0.00     0.003 C 
BRANCH   7  12
ATOM     12  N   UNL A   1      31.553  27.420  23.988  1.00  0.00    -0.341 N 
ATOM     13  O   UNL A   1      31.081  27.850  21.778  1.00  0.00    -0.275 OA
ATOM     14  C   UNL A   1      30.726  27.808  22.952  1.00  0.00     0.225 C 
ATOM     15  H   UNL A   1      31.191  27.395  24.903  1.00  0.00     0.164 HD
BRANCH  14  16
ATOM     16  C   UNL A   1      29.298  28.098  23.383  1.00  0.00     0.135 C 
BRANCH  16  17
ATOM     17  C   UNL A   1      28.903  29.498  22.980  1.00  0.00    -0.036 A 
ATOM     18  C   UNL A   1      29.204  30.590  23.805  1.00  0.00     0.007 A 
ATOM     19  C   UNL A   1      28.301  29.724  21.730  1.00  0.00     0.046 A 
ATOM     20  C   UNL A   1      28.937  31.892  23.374  1.00  0.00     0.043 A 
ATOM     21  C   UNL A   1      28.048  31.024  21.307  1.00  0.00     0.159 A 
ATOM     22  C   UNL A   1      28.368  32.101  22.122  1.00  0.00     0.158 A 
ATOM     23  F   UNL A   1      27.504  31.223  20.099  1.00  0.00    -0.204 F 
ATOM     24  F   UNL A   1      28.136  33.354  21.706  1.00  0.00    -0.204 F 
ENDBRANCH  16  17
ENDBRANCH  14  16
ENDBRANCH   7  12
ENDBRANCH   4   7
ENDBRANCH   2   3
ENDBRANCH   1   2
BRANCH   1  25
ATOM     25  C   UNL A   1      35.093  29.475  27.466  1.00  0.00     0.118 C 
BRANCH  25  26
ATOM     26  N   UNL A   1      35.172  30.223  28.718  1.00  0.00    -0.352 N 
ATOM     27  C   UNL A   1      36.177  30.286  29.656  1.00  0.00     0.251 C 
ATOM     28  H   UNL A   1      34.379  30.770  28.924  1.00  0.00     0.163 HD
ATOM     29  O   UNL A   1      35.959  30.780  30.753  1.00  0.00    -0.269 OA
BRANCH  27  30
ATOM     30  C   UNL A   1      37.511  29.743  29.328  1.00  0.00     0.039 A 
ATOM     31  C   UNL A   1      37.966  29.772  28.008  1.00  0.00     0.014 A 
ATOM     32  C   UNL A   1      38.315  29.213  30.338  1.00  0.00     0.014 A 
ATOM     33  C   UNL A   1      39.266  29.349  27.719  1.00  0.00     0.010 A 
ATOM     34  C   UNL A   1      39.637  28.896  30.068  1.00  0.00     0.010 A 
ATOM     35  C   UNL A   1      40.126  28.953  28.755  1.00  0.00    -0.014 A 
BRANCH  35  36
ATOM     36  C   UNL A   1      41.539  28.569  28.514  1.00  0.00     0.031 A 
ATOM     37  C   UNL A   1      42.598  29.637  28.499  1.00  0.00     0.074 A 
ATOM     38  C   UNL A   1      41.844  27.296  28.195  1.00  0.00     0.049 A 
ATOM     39  N   UNL A   1      43.850  29.556  28.130  1.00  0.00    -0.248 NA
ATOM     40  C   UNL A   1      42.182  30.989  28.913  1.00  0.00     0.031 C 
ATOM     41  C   UNL A   1      40.894  26.183  28.135  1.00  0.00     0.029 A 
ATOM     42  N   UNL A   1      43.041  26.726  27.835  1.00  0.00    -0.354 N 
ATOM     43  C   UNL A   1      44.357  30.845  28.238  1.00  0.00     0.074 A 
ATOM     44  C   UNL A   1      43.268  31.699  28.650  1.00  0.00     0.031 C 
ATOM     45  C   UNL A   1      41.545  25.065  27.775  1.00  0.00     0.029 A 
ATOM     46  C   UNL A   1      42.946  25.389  27.528  1.00  0.00     0.049 A 
ATOM     47  H   UNL A   1      43.887  27.228  27.800  1.00  0.00     0.167 HD
ATOM     48  C   UNL A   1      45.625  31.273  28.034  1.00  0.00     0.037 A 
ATOM     49  C   UNL A   1      43.879  24.527  27.077  1.00  0.00     0.037 A 
ATOM     50  C   UNL A   1      46.708  30.403  27.661  1.00  0.00     0.049 A 
ATOM     51  C   UNL A   1      45.283  25.023  26.855  1.00  0.00     0.074 A 
ATOM     52  C   UNL A   1      48.045  30.719  27.491  1.00  0.00     0.029 A 
ATOM     53  N   UNL A   1      46.580  29.045  27.402  1.00  0.00    -0.354 N 
ATOM     54  N   UNL A   1      45.762  26.235  27.017  1.00  0.00    -0.248 NA
ATOM     55  C   UNL A   1      46.275  24.043  26.393  1.00  0.00     0.031 C 
ATOM     56  C   UNL A   1      48.715  29.563  27.083  1.00  0.00     0.029 A 
ATOM     57  C   UNL A   1      47.809  28.514  27.055  1.00  0.00     0.049 A 
ATOM     58  H   UNL A   1      45.738  28.537  27.456  1.00  0.00     0.167 HD
ATOM     59  C   UNL A   1      47.116  26.153  26.712  1.00  0.00     0.074 A 
ATOM     60  C   UNL A   1      47.381  24.775  26.356  1.00  0.00     0.031 C 
ATOM     61  C   UNL A   1      48.055  27.130  26.731  1.00  0.00     0.037 A 
BRANCH  48  62
ATOM     62  C   UNL A   1      45.909  32.738  28.214  1.00  0.00     0.058 A 
ATOM     63  C   UNL A   1      46.303  33.269  29.454  1.00  0.00     0.135 A 
ATOM     64  C   UNL A   1      45.816  33.623  27.127  1.00  0.00     0.135 A 
ATOM     65  F   UNL A   1      46.393  32.472  30.532  1.00  0.00    -0.206 F 
ATOM     66  C   UNL A   1      46.561  34.625  29.618  1.00  0.00     0.059 A 
ATOM     67  C   UNL A   1      46.100  34.979  27.261  1.00  0.00     0.059 A 
ATOM     68  F   UNL A   1      45.442  33.173  25.919  1.00  0.00    -0.206 F 
ATOM     69  C   UNL A   1      46.457  35.472  28.514  1.00  0.00     0.060 A 
BRANCH  69  70
ATOM     70  S   UNL A   1      46.802  37.229  28.744  1.00  0.00     0.124 S 
ATOM     71  O   UNL A   1      45.697  37.840  28.011  1.00  0.00    -0.237 OA
ATOM     72  O   UNL A   1      46.751  37.369  30.196  1.00  0.00    -0.237 OA
ATOM     73  O   UNL A   1      48.122  37.399  28.147  1.00  0.00    -0.744 OA
ENDBRANCH  69  70
ENDBRANCH  48  62
BRANCH  49  74
ATOM     74  C   UNL A   1      43.519  23.105  26.825  1.00  0.00     0.058 A 
ATOM     75  C   UNL A   1      43.243  22.234  27.888  1.00  0.00     0.135 A 
ATOM     76  C   UNL A   1      43.423  22.594  25.520  1.00  0.00     0.135 A 
ATOM     77  F   UNL A   1      43.327  22.672  29.153  1.00  0.00    -0.206 F 
ATOM     78  C   UNL A   1      42.899  20.903  27.671  1.00  0.00     0.059 A 
ATOM     79  C   UNL A   1      43.054  21.274  25.277  1.00  0.00     0.059 A 
ATOM     80  F   UNL A   1      43.658  23.391  24.466  1.00  0.00    -0.206 F 
ATOM     81  C   UNL A   1      42.804  20.433  26.360  1.00  0.00     0.060 A 
BRANCH  81  82
ATOM     82  S   UNL A   1      42.308  18.717  26.090  1.00  0.00     0.124 S 
ATOM     83  O   UNL A   1      40.907  18.871  25.719  1.00  0.00    -0.237 OA
ATOM     84  O   UNL A   1      43.211  18.303  25.020  1.00  0.00    -0.237 OA
ATOM     85  O   UNL A   1      42.554  18.089  27.385  1.00  0.00    -0.744 OA
ENDBRANCH  81  82
ENDBRANCH  49  74
BRANCH  61  86
ATOM     86  C   UNL A   1      49.473  26.749  26.414  1.00  0.00     0.058 A 
ATOM     87  C   UNL A   1      50.297  26.112  27.354  1.00  0.00     0.135 A 
ATOM     88  C   UNL A   1      49.971  26.922  25.111  1.00  0.00     0.135 A 
ATOM     89  F   UNL A   1      49.872  25.932  28.613  1.00  0.00    -0.206 F 
ATOM     90  C   UNL A   1      51.566  25.656  27.012  1.00  0.00     0.059 A 
ATOM     91  C   UNL A   1      51.225  26.449  24.741  1.00  0.00     0.059 A 
ATOM     92  F   UNL A   1      49.218  27.518  24.173  1.00  0.00    -0.206 F 
ATOM     93  C   UNL A   1      52.016  25.818  25.699  1.00  0.00     0.060 A 
BRANCH  93  94
ATOM     94  S   UNL A   1      53.628  25.142  25.249  1.00  0.00     0.124 S 
ATOM     95  O   UNL A   1      53.759  25.589  23.866  1.00  0.00    -0.237 OA
ATOM     96  O   UNL A   1      54.516  25.789  26.210  1.00  0.00    -0.237 OA
ATOM     97  O   UNL A   1      53.458  23.704  25.431  1.00  0.00    -0.744 OA
ENDBRANCH  93  94
ENDBRANCH  61  86
ENDBRANCH  35  36
ENDBRANCH  27  30
ENDBRANCH  25  26
ENDBRANCH   1  25
TORSDOF 16
ENDMDL
MODEL 2
REMARK VINA RESULT:     -12.4      3.946      5.421
REMARK SMILES O=C(Cc1ccc(F)c(F)c1)NC1(C(=O)NCCCNC(=O)c2ccc(-c3c4nc(c(-c5c(F)cc(S(=O)(=O)[O-])cc5F)c5ccc([nH]5)c(-c5c(F)cc(S(=O)(=O)[O-])cc5F)c5nc(c(-c6c(F)cc(S(=O)(=O)[O-])cc6F)c6ccc3[nH]6)C=C5)C=C4)cc2)CCCC1
REMARK SMILES IDX 18 1 17 2 16 3 14 4 15 5 13 7 89 8 92 9 90 10 91 11 12 12
REMARK SMILES IDX 1 13 2 14 3 16 4 17 5 18 11 19 6 20 9 21 7 22 10 23 8 24
REMARK SMILES IDX 19 25 20 26 21 27 22 29 23 30 24 31 88 32 25 33 87 34 26 35
REMARK SMILES IDX 27 36 28 37 81 38 29 39 86 40 80 41 82 42 30 43 85 44 79 45
REMARK SMILES IDX 78 46 31 48 65 49 44 50 64 51 45 52 48 53 63 54 83 55 46 56
REMARK SMILES IDX 47 57 62 59 84 60 49 61 32 62 33 63 42 64 34 65 35 66 41 67
REMARK SMILES IDX 43 68 36 69 37 70 38 71 39 72 40 73 66 74 67 75 76 76 68 77
REMARK SMILES IDX 69 78 75 79 77 80 70 81 71 82 72 83 73 84 74 85 50 86 51 87
REMARK SMILES IDX 60 88 52 89 53 90 59 91 61 92 54 93 55 94 56 95 57 96 58 97
REMARK H PARENT 16 6 12 15 20 28 82 47 48 58
REMARK Flexibility Score: inf
ROOT
ATOM      1  C   UNL A   1      32.127  27.750  27.420  1.00  0.00     0.042 C 
ENDROOT
BRANCH   1   2
ATOM      2  C   UNL A   1      31.456  27.406  26.104  1.00  0.00     0.117 C 
BRANCH   2   3
ATOM      3  N   UNL A   1      30.655  26.206  26.143  1.00  0.00    -0.354 N 
ATOM      4  C   UNL A   1      31.013  24.914  25.914  1.00  0.00     0.245 C 
ATOM      5  O   UNL A   1      30.367  24.069  26.551  1.00  0.00    -0.272 OA
ATOM      6  H   UNL A   1      29.707  26.344  26.371  1.00  0.00     0.163 HD
BRANCH   4   7
ATOM      7  C   UNL A   1      32.218  24.493  24.995  1.00  0.00     0.119 C 
ATOM      8  C   UNL A   1      33.466  24.148  25.828  1.00  0.00     0.038 C 
ATOM      9  C   UNL A   1      32.691  25.515  23.950  1.00  0.00     0.038 C 
ATOM     10  C   UNL A   1      34.519  25.217  25.575  1.00  0.00     0.003 C 
ATOM     11  C   UNL A   1      34.075  26.012  24.358  1.00  0.00     0.003 C 
BRANCH   7  12
ATOM     12  N   UNL A   1      31.767  23.260  24.307  1.00  0.00    -0.341 N 
ATOM     13  O   UNL A   1      33.679  22.973  23.061  1.00  0.00    -0.275 OA
ATOM     14  C   UNL A   1      32.551  22.606  23.377  1.00  0.00     0.225 C 
ATOM     15  H   UNL A   1      30.878  22.894  24.521  1.00  0.00     0.164 HD
BRANCH  14  16
ATOM     16  C   UNL A   1      31.926  21.330  22.835  1.00  0.00     0.135 C 
BRANCH  16  17
ATOM     17  C   UNL A   1      32.373  20.142  23.652  1.00  0.00    -0.036 A 
ATOM     18  C   UNL A   1      32.523  20.247  25.042  1.00  0.00     0.007 A 
ATOM     19  C   UNL A   1      32.562  18.896  23.031  1.00  0.00     0.046 A 
ATOM     20  C   UNL A   1      32.826  19.115  25.804  1.00  0.00     0.043 A 
ATOM     21  C   UNL A   1      32.855  17.775  23.799  1.00  0.00     0.159 A 
ATOM     22  C   UNL A   1      32.982  17.883  25.177  1.00  0.00     0.158 A 
ATOM     23  F   UNL A   1      33.000  16.588  23.194  1.00  0.00    -0.204 F 
ATOM     24  F   UNL A   1      33.250  16.799  25.917  1.00  0.00    -0.204 F 
ENDBRANCH  16  17
ENDBRANCH  14  16
ENDBRANCH   7  12
ENDBRANCH   4   7
ENDBRANCH   2   3
ENDBRANCH   1   2
BRANCH   1  25
ATOM     25  C   UNL A   1      33.491  28.402  27.247  1.00  0.00     0.118 C 
BRANCH  25  26
ATOM     26  N   UNL A   1      33.468  29.831  27.550  1.00  0.00    -0.352 N 
ATOM     27  C   UNL A   1      34.412  30.627  28.157  1.00  0.00     0.251 C 
ATOM     28  H   UNL A   1      32.646  30.299  27.277  1.00  0.00     0.163 HD
ATOM     29  O   UNL A   1      34.112  31.750  28.537  1.00  0.00    -0.269 OA
BRANCH  27  30
ATOM     30  C   UNL A   1      35.782  30.109  28.354  1.00  0.00     0.039 A 
ATOM     31  C   UNL A   1      36.684  30.116  27.288  1.00  0.00     0.014 A 
ATOM     32  C   UNL A   1      36.171  29.624  29.603  1.00  0.00     0.014 A 
ATOM     33  C   UNL A   1      38.007  29.719  27.504  1.00  0.00     0.010 A 
ATOM     34  C   UNL A   1      37.505  29.333  29.841  1.00  0.00     0.010 A 
ATOM     35  C   UNL A   1      38.437  29.370  28.793  1.00  0.00    -0.014 A 
BRANCH  35  36
ATOM     36  C   UNL A   1      39.846  29.015  29.094  1.00  0.00     0.031 A 
ATOM     37  C   UNL A   1      40.771  30.072  29.632  1.00  0.00     0.074 A 
ATOM     38  C   UNL A   1      40.314  27.792  28.774  1.00  0.00     0.049 A 
ATOM     39  N   UNL A   1      42.068  30.035  29.789  1.00  0.00    -0.248 NA
ATOM     40  C   UNL A   1      40.160  31.361  30.004  1.00  0.00     0.031 C 
ATOM     41  C   UNL A   1      39.521  26.700  28.206  1.00  0.00     0.029 A 
ATOM     42  N   UNL A   1      41.581  27.269  28.858  1.00  0.00    -0.354 N 
ATOM     43  C   UNL A   1      42.429  31.297  30.244  1.00  0.00     0.074 A 
ATOM     44  C   UNL A   1      41.225  32.095  30.285  1.00  0.00     0.031 C 
ATOM     45  C   UNL A   1      40.314  25.635  28.006  1.00  0.00     0.029 A 
ATOM     46  C   UNL A   1      41.681  25.983  28.381  1.00  0.00     0.049 A 
ATOM     47  H   UNL A   1      42.346  27.768  29.225  1.00  0.00     0.167 HD
ATOM     48  C   UNL A   1      43.651  31.743  30.617  1.00  0.00     0.037 A 
ATOM     49  C   UNL A   1      42.756  25.183  28.242  1.00  0.00     0.037 A 
ATOM     50  C   UNL A   1      44.833  30.924  30.608  1.00  0.00     0.049 A 
ATOM     51  C   UNL A   1      44.107  25.699  28.661  1.00  0.00     0.074 A 
ATOM     52  C   UNL A   1      46.110  31.255  31.026  1.00  0.00     0.029 A 
ATOM     53  N   UNL A   1      44.884  29.612  30.158  1.00  0.00    -0.354 N 
ATOM     54  N   UNL A   1      44.423  26.878  29.145  1.00  0.00    -0.248 NA
ATOM     55  C   UNL A   1      45.247  24.782  28.521  1.00  0.00     0.031 C 
ATOM     56  C   UNL A   1      46.943  30.158  30.786  1.00  0.00     0.029 A 
ATOM     57  C   UNL A   1      46.174  29.125  30.272  1.00  0.00     0.049 A 
ATOM     58  H   UNL A   1      44.116  29.104  29.810  1.00  0.00     0.167 HD
ATOM     59  C   UNL A   1      45.789  26.831  29.400  1.00  0.00     0.074 A 
ATOM     60  C   UNL A   1      46.240  25.509  29.018  1.00  0.00     0.031 C 
ATOM     61  C   UNL A   1      46.595  27.794  29.911  1.00  0.00     0.037 A 
BRANCH  48  62
ATOM     62  C   UNL A   1      43.769  33.172  31.070  1.00  0.00     0.058 A 
ATOM     63  C   UNL A   1      43.644  33.532  32.422  1.00  0.00     0.135 A 
ATOM     64  C   UNL A   1      44.040  34.194  30.146  1.00  0.00     0.135 A 
ATOM     65  F   UNL A   1      43.368  32.599  33.348  1.00  0.00    -0.206 F 
ATOM     66  C   UNL A   1      43.750  34.854  32.837  1.00  0.00     0.059 A 
ATOM     67  C   UNL A   1      44.182  35.520  30.542  1.00  0.00     0.059 A 
ATOM     68  F   UNL A   1      44.167  33.909  28.840  1.00  0.00    -0.206 F 
ATOM     69  C   UNL A   1      44.019  35.842  31.889  1.00  0.00     0.060 A 
BRANCH  69  70
ATOM     70  S   UNL A   1      44.160  37.553  32.445  1.00  0.00     0.124 S 
ATOM     71  O   UNL A   1      45.557  37.608  32.866  1.00  0.00    -0.237 OA
ATOM     72  O   UNL A   1      43.834  38.302  31.236  1.00  0.00    -0.237 OA
ATOM     73  O   UNL A   1      43.177  37.644  33.520  1.00  0.00    -0.744 OA
ENDBRANCH  69  70
ENDBRANCH  48  62
BRANCH  49  74
ATOM     74  C   UNL A   1      42.595  23.807  27.698  1.00  0.00     0.058 A 
ATOM     75  C   UNL A   1      42.457  22.707  28.556  1.00  0.00     0.135 A 
ATOM     76  C   UNL A   1      42.555  23.566  26.315  1.00  0.00     0.135 A 
ATOM     77  F   UNL A   1      42.495  22.884  29.885  1.00  0.00    -0.206 F 
ATOM     78  C   UNL A   1      42.299  21.414  28.066  1.00  0.00     0.059 A 
ATOM     79  C   UNL A   1      42.371  22.285  25.802  1.00  0.00     0.059 A 
ATOM     80  F   UNL A   1      42.664  24.586  25.450  1.00  0.00    -0.206 F 
ATOM     81  C   UNL A   1      42.254  21.213  26.685  1.00  0.00     0.060 A 
BRANCH  81  82
ATOM     82  S   UNL A   1      41.999  19.538  26.063  1.00  0.00     0.124 S 
ATOM     83  O   UNL A   1      42.476  18.733  27.181  1.00  0.00    -0.237 OA
ATOM     84  O   UNL A   1      40.559  19.515  25.828  1.00  0.00    -0.237 OA
ATOM     85  O   UNL A   1      42.823  19.497  24.858  1.00  0.00    -0.744 OA
ENDBRANCH  81  82
ENDBRANCH  49  74
BRANCH  61  86
ATOM     86  C   UNL A   1      48.039  27.451  30.144  1.00  0.00     0.058 A 
ATOM     87  C   UNL A   1      49.040  27.793  29.223  1.00  0.00     0.135 A 
ATOM     88  C   UNL A   1      48.435  26.874  31.364  1.00  0.00     0.135 A 
ATOM     89  F   UNL A   1      48.714  28.337  28.041  1.00  0.00    -0.206 F 
ATOM     90  C   UNL A   1      50.385  27.579  29.504  1.00  0.00     0.059 A 
ATOM     91  C   UNL A   1      49.775  26.676  31.675  1.00  0.00     0.059 A 
ATOM     92  F   UNL A   1      47.515  26.536  32.281  1.00  0.00    -0.206 F 
ATOM     93  C   UNL A   1      50.743  27.031  30.739  1.00  0.00     0.060 A 
BRANCH  93  94
ATOM     94  S   UNL A   1      52.497  26.840  31.123  1.00  0.00     0.124 S 
ATOM     95  O   UNL A   1      52.939  25.953  30.052  1.00  0.00    -0.237 OA
ATOM     96  O   UNL A   1      52.983  28.214  31.049  1.00  0.00    -0.237 OA
ATOM     97  O   UNL A   1      52.491  26.255  32.461  1.00  0.00    -0.744 OA
ENDBRANCH  93  94
ENDBRANCH  61  86
ENDBRANCH  35  36
ENDBRANCH  27  30
ENDBRANCH  25  26
ENDBRANCH   1  25
TORSDOF 16
ENDMDL
MODEL 3
REMARK VINA RESULT:     -12.3      2.334      3.796
REMARK SMILES O=C(Cc1ccc(F)c(F)c1)NC1(C(=O)NCCCNC(=O)c2ccc(-c3c4nc(c(-c5c(F)cc(S(=O)(=O)[O-])cc5F)c5ccc([nH]5)c(-c5c(F)cc(S(=O)(=O)[O-])cc5F)c5nc(c(-c6c(F)cc(S(=O)(=O)[O-])cc6F)c6ccc3[nH]6)C=C5)C=C4)cc2)CCCC1
REMARK SMILES IDX 18 1 17 2 16 3 14 4 15 5 13 7 89 8 92 9 90 10 91 11 12 12
REMARK SMILES IDX 1 13 2 14 3 16 4 17 5 18 11 19 6 20 9 21 7 22 10 23 8 24
REMARK SMILES IDX 19 25 20 26 21 27 22 29 23 30 24 31 88 32 25 33 87 34 26 35
REMARK SMILES IDX 27 36 28 37 81 38 29 39 86 40 80 41 82 42 30 43 85 44 79 45
REMARK SMILES IDX 78 46 31 48 65 49 44 50 64 51 45 52 48 53 63 54 83 55 46 56
REMARK SMILES IDX 47 57 62 59 84 60 49 61 32 62 33 63 42 64 34 65 35 66 41 67
REMARK SMILES IDX 43 68 36 69 37 70 38 71 39 72 40 73 66 74 67 75 76 76 68 77
REMARK SMILES IDX 69 78 75 79 77 80 70 81 71 82 72 83 73 84 74 85 50 86 51 87
REMARK SMILES IDX 60 88 52 89 53 90 59 91 61 92 54 93 55 94 56 95 57 96 58 97
REMARK H PARENT 16 6 12 15 20 28 82 47 48 58
REMARK Flexibility Score: inf
ROOT
ATOM      1  C   UNL A   1      33.643  28.953  27.392  1.00  0.00     0.042 C 
ENDROOT
BRANCH   1   2
ATOM      2  C   UNL A   1      33.532  27.822  26.387  1.00  0.00     0.117 C 
BRANCH   2   3
ATOM      3  N   UNL A   1      34.053  28.138  25.079  1.00  0.00    -0.354 N 
ATOM      4  C   UNL A   1      33.401  28.276  23.894  1.00  0.00     0.245 C 
ATOM      5  O   UNL A   1      33.914  29.081  23.102  1.00  0.00    -0.272 OA
ATOM      6  H   UNL A   1      35.028  28.274  25.039  1.00  0.00     0.163 HD
BRANCH   4   7
ATOM      7  C   UNL A   1      32.040  27.562  23.557  1.00  0.00     0.119 C 
ATOM      8  C   UNL A   1      31.548  27.927  22.145  1.00  0.00     0.038 C 
ATOM      9  C   UNL A   1      30.854  27.846  24.492  1.00  0.00     0.038 C 
ATOM     10  C   UNL A   1      30.296  28.779  22.281  1.00  0.00     0.003 C 
ATOM     11  C   UNL A   1      29.820  28.662  23.719  1.00  0.00     0.003 C 
BRANCH   7  12
ATOM     12  N   UNL A   1      32.348  26.112  23.580  1.00  0.00    -0.341 N 
ATOM     13  O   UNL A   1      33.645  26.119  21.680  1.00  0.00    -0.275 OA
ATOM     14  C   UNL A   1      33.130  25.511  22.614  1.00  0.00     0.225 C 
ATOM     15  H   UNL A   1      31.983  25.560  24.309  1.00  0.00     0.164 HD
BRANCH  14  16
ATOM     16  C   UNL A   1      33.373  24.030  22.855  1.00  0.00     0.135 C 
BRANCH  16  17
ATOM     17  C   UNL A   1      34.593  23.834  23.723  1.00  0.00    -0.036 A 
ATOM     18  C   UNL A   1      34.706  24.495  24.954  1.00  0.00     0.007 A 
ATOM     19  C   UNL A   1      35.588  22.920  23.338  1.00  0.00     0.046 A 
ATOM     20  C   UNL A   1      35.783  24.223  25.802  1.00  0.00     0.043 A 
ATOM     21  C   UNL A   1      36.650  22.650  24.192  1.00  0.00     0.159 A 
ATOM     22  C   UNL A   1      36.745  23.294  25.418  1.00  0.00     0.158 A 
ATOM     23  F   UNL A   1      37.574  21.752  23.823  1.00  0.00    -0.204 F 
ATOM     24  F   UNL A   1      37.762  23.022  26.247  1.00  0.00    -0.204 F 
ENDBRANCH  16  17
ENDBRANCH  14  16
ENDBRANCH   7  12
ENDBRANCH   4   7
ENDBRANCH   2   3
ENDBRANCH   1   2
BRANCH   1  25
ATOM     25  C   UNL A   1      35.078  29.383  27.657  1.00  0.00     0.118 C 
BRANCH  25  26
ATOM     26  N   UNL A   1      35.194  30.245  28.831  1.00  0.00    -0.352 N 
ATOM     27  C   UNL A   1      36.232  30.404  29.720  1.00  0.00     0.251 C 
ATOM     28  H   UNL A   1      34.403  30.802  29.015  1.00  0.00     0.163 HD
ATOM     29  O   UNL A   1      36.049  30.996  30.774  1.00  0.00    -0.269 OA
BRANCH  27  30
ATOM     30  C   UNL A   1      37.560  29.845  29.394  1.00  0.00     0.039 A 
ATOM     31  C   UNL A   1      38.013  29.863  28.072  1.00  0.00     0.014 A 
ATOM     32  C   UNL A   1      38.359  29.311  30.405  1.00  0.00     0.014 A 
ATOM     33  C   UNL A   1      39.308  29.425  27.784  1.00  0.00     0.010 A 
ATOM     34  C   UNL A   1      39.677  28.979  30.135  1.00  0.00     0.010 A 
ATOM     35  C   UNL A   1      40.165  29.024  28.821  1.00  0.00    -0.014 A 
BRANCH  35  36
ATOM     36  C   UNL A   1      41.573  28.624  28.580  1.00  0.00     0.031 A 
ATOM     37  C   UNL A   1      42.646  29.679  28.573  1.00  0.00     0.074 A 
ATOM     38  C   UNL A   1      41.864  27.349  28.256  1.00  0.00     0.049 A 
ATOM     39  N   UNL A   1      43.897  29.584  28.206  1.00  0.00    -0.248 NA
ATOM     40  C   UNL A   1      42.246  31.034  28.993  1.00  0.00     0.031 C 
ATOM     41  C   UNL A   1      40.900  26.248  28.188  1.00  0.00     0.029 A 
ATOM     42  N   UNL A   1      43.054  26.766  27.895  1.00  0.00    -0.354 N 
ATOM     43  C   UNL A   1      44.421  30.866  28.321  1.00  0.00     0.074 A 
ATOM     44  C   UNL A   1      43.341  31.732  28.736  1.00  0.00     0.031 C 
ATOM     45  C   UNL A   1      41.537  25.124  27.824  1.00  0.00     0.029 A 
ATOM     46  C   UNL A   1      42.943  25.432  27.581  1.00  0.00     0.049 A 
ATOM     47  H   UNL A   1      43.906  27.257  27.864  1.00  0.00     0.167 HD
ATOM     48  C   UNL A   1      45.695  31.279  28.121  1.00  0.00     0.037 A 
ATOM     49  C   UNL A   1      43.866  24.561  27.127  1.00  0.00     0.037 A 
ATOM     50  C   UNL A   1      46.767  30.398  27.746  1.00  0.00     0.049 A 
ATOM     51  C   UNL A   1      45.276  25.040  26.910  1.00  0.00     0.074 A 
ATOM     52  C   UNL A   1      48.108  30.698  27.580  1.00  0.00     0.029 A 
ATOM     53  N   UNL A   1      46.622  29.043  27.479  1.00  0.00    -0.354 N 
ATOM     54  N   UNL A   1      45.770  26.245  27.078  1.00  0.00    -0.248 NA
ATOM     55  C   UNL A   1      46.256  24.050  26.445  1.00  0.00     0.031 C 
ATOM     56  C   UNL A   1      48.764  29.536  27.167  1.00  0.00     0.029 A 
ATOM     57  C   UNL A   1      47.845  28.498  27.132  1.00  0.00     0.049 A 
ATOM     58  H   UNL A   1      45.774  28.545  27.529  1.00  0.00     0.167 HD
ATOM     59  C   UNL A   1      47.124  26.148  26.776  1.00  0.00     0.074 A 
ATOM     60  C   UNL A   1      47.371  24.768  26.413  1.00  0.00     0.031 C 
ATOM     61  C   UNL A   1      48.075  27.113  26.802  1.00  0.00     0.037 A 
BRANCH  48  62
ATOM     62  C   UNL A   1      45.996  32.740  28.309  1.00  0.00     0.058 A 
ATOM     63  C   UNL A   1      46.349  33.267  29.563  1.00  0.00     0.135 A 
ATOM     64  C   UNL A   1      45.962  33.623  27.218  1.00  0.00     0.135 A 
ATOM     65  F   UNL A   1      46.381  32.472  30.645  1.00  0.00    -0.206 F 
ATOM     66  C   UNL A   1      46.624  34.619  29.735  1.00  0.00     0.059 A 
ATOM     67  C   UNL A   1      46.265  34.974  27.359  1.00  0.00     0.059 A 
ATOM     68  F   UNL A   1      45.630  33.176  25.997  1.00  0.00    -0.206 F 
ATOM     69  C   UNL A   1      46.579  35.464  28.626  1.00  0.00     0.060 A 
BRANCH  69  70
ATOM     70  S   UNL A   1      46.945  37.216  28.865  1.00  0.00     0.124 S 
ATOM     71  O   UNL A   1      46.953  37.314  30.322  1.00  0.00    -0.237 OA
ATOM     72  O   UNL A   1      48.245  37.355  28.215  1.00  0.00    -0.237 OA
ATOM     73  O   UNL A   1      45.837  37.890  28.197  1.00  0.00    -0.744 OA
ENDBRANCH  69  70
ENDBRANCH  48  62
BRANCH  49  74
ATOM     74  C   UNL A   1      43.489  23.144  26.867  1.00  0.00     0.058 A 
ATOM     75  C   UNL A   1      43.405  22.651  25.557  1.00  0.00     0.135 A 
ATOM     76  C   UNL A   1      43.226  22.252  27.919  1.00  0.00     0.135 A 
ATOM     77  F   UNL A   1      43.642  23.465  24.518  1.00  0.00    -0.206 F 
ATOM     78  C   UNL A   1      43.061  21.328  25.296  1.00  0.00     0.059 A 
ATOM     79  C   UNL A   1      42.906  20.918  27.683  1.00  0.00     0.059 A 
ATOM     80  F   UNL A   1      43.310  22.667  29.192  1.00  0.00    -0.206 F 
ATOM     81  C   UNL A   1      42.816  20.467  26.367  1.00  0.00     0.060 A 
BRANCH  81  82
ATOM     82  S   UNL A   1      42.419  18.741  26.015  1.00  0.00     0.124 S 
ATOM     83  O   UNL A   1      41.006  18.830  25.665  1.00  0.00    -0.237 OA
ATOM     84  O   UNL A   1      43.331  18.435  24.918  1.00  0.00    -0.237 OA
ATOM     85  O   UNL A   1      42.716  18.065  27.274  1.00  0.00    -0.744 OA
ENDBRANCH  81  82
ENDBRANCH  49  74
BRANCH  61  86
ATOM     86  C   UNL A   1      49.489  26.715  26.485  1.00  0.00     0.058 A 
ATOM     87  C   UNL A   1      50.305  26.069  27.424  1.00  0.00     0.135 A 
ATOM     88  C   UNL A   1      49.989  26.884  25.182  1.00  0.00     0.135 A 
ATOM     89  F   UNL A   1      49.877  25.893  28.684  1.00  0.00    -0.206 F 
ATOM     90  C   UNL A   1      51.568  25.598  27.082  1.00  0.00     0.059 A 
ATOM     91  C   UNL A   1      51.238  26.397  24.812  1.00  0.00     0.059 A 
ATOM     92  F   UNL A   1      49.243  27.489  24.244  1.00  0.00    -0.206 F 
ATOM     93  C   UNL A   1      52.021  25.756  25.770  1.00  0.00     0.060 A 
BRANCH  93  94
ATOM     94  S   UNL A   1      53.625  25.062  25.320  1.00  0.00     0.124 S 
ATOM     95  O   UNL A   1      53.853  25.670  24.013  1.00  0.00    -0.237 OA
ATOM     96  O   UNL A   1      54.484  25.539  26.400  1.00  0.00    -0.237 OA
ATOM     97  O   UNL A   1      53.383  23.623  25.310  1.00  0.00    -0.744 OA
ENDBRANCH  93  94
ENDBRANCH  61  86
ENDBRANCH  35  36
ENDBRANCH  27  30
ENDBRANCH  25  26
ENDBRANCH   1  25
TORSDOF 16
ENDMDL
