MODEL 1
REMARK VINA RESULT:     -11.4      0.000      0.000
REMARK SMILES CC(C)[NH2+][C@](C)(C[N@H+]1CCC(C)(C)C1)C(=O)NCCCNC(=O)c1ccc(-c2c3nc(c(-c4c(F)cc(S(=O)(=O)[O-])cc4F)c4ccc([nH]4)c(-c4c(F)cc(S(=O)(=O)[O-])cc4F)c4nc(c(-c5c(F)cc(S(=O)(=O)[O-])cc5F)c5ccc2[nH]5)C=C4)C=C3)cc1
REMARK SMILES IDX 19 1 18 2 17 3 15 4 16 5 5 7 6 8 4 9 2 12 1 13 3 14 7 15
REMARK SMILES IDX 8 16 9 17 14 18 10 20 11 21 12 22 13 23 20 24 21 25 22 26
REMARK SMILES IDX 23 28 24 29 25 30 89 31 26 32 88 33 27 34 28 35 29 36 82 37
REMARK SMILES IDX 30 38 87 39 81 40 83 41 31 42 86 43 80 44 79 45 32 47 66 48
REMARK SMILES IDX 45 49 65 50 46 51 49 52 64 53 84 54 47 55 48 56 63 58 85 59
REMARK SMILES IDX 50 60 33 61 34 62 43 63 35 64 36 65 42 66 44 67 37 68 38 69
REMARK SMILES IDX 39 70 40 71 41 72 67 73 68 74 77 75 69 76 70 77 76 78 78 79
REMARK SMILES IDX 71 80 72 81 73 82 74 83 75 84 51 85 52 86 61 87 53 88 54 89
REMARK SMILES IDX 60 90 62 91 55 92 56 93 57 94 58 95 59 96
REMARK H PARENT 17 6 4 10 4 11 8 19 21 27 83 46 49 57
REMARK Flexibility Score: inf
ROOT
ATOM      1  C   UNL A   1      37.509  23.323  25.287  1.00  0.00     0.042 C 
ENDROOT
BRANCH   1   2
ATOM      2  C   UNL A   1      36.895  21.994  25.669  1.00  0.00     0.118 C 
BRANCH   2   3
ATOM      3  N   UNL A   1      35.747  22.073  26.547  1.00  0.00    -0.350 N 
ATOM      4  C   UNL A   1      34.497  21.528  26.444  1.00  0.00     0.287 C 
ATOM      5  O   UNL A   1      33.857  21.499  27.505  1.00  0.00    -0.268 OA
ATOM      6  H   UNL A   1      35.890  22.611  27.359  1.00  0.00     0.163 HD
BRANCH   4   7
ATOM      7  C   UNL A   1      33.871  21.020  25.095  1.00  0.00     0.221 C 
ATOM      8  C   UNL A   1      32.320  20.966  25.285  1.00  0.00     0.097 C 
BRANCH   7   9
ATOM      9  N   UNL A   1      34.165  19.563  24.868  1.00  0.00    -0.327 N 
ATOM     10  H   UNL A   1      34.815  19.527  24.082  1.00  0.00     0.347 HD
ATOM     11  H   UNL A   1      34.466  19.273  25.798  1.00  0.00     0.347 HD
BRANCH   9  12
ATOM     12  C   UNL A   1      33.138  18.572  24.580  1.00  0.00     0.177 C 
ATOM     13  C   UNL A   1      33.659  17.647  23.472  1.00  0.00     0.075 C 
ATOM     14  C   UNL A   1      32.770  17.714  25.792  1.00  0.00     0.075 C 
ENDBRANCH   9  12
ENDBRANCH   7   9
BRANCH   7  15
ATOM     15  C   UNL A   1      34.175  21.993  23.896  1.00  0.00     0.341 C 
BRANCH  15  16
ATOM     16  N   UNL A   1      33.442  23.243  23.690  1.00  0.00    -0.329 N 
ATOM     17  C   UNL A   1      33.997  24.447  24.284  1.00  0.00     0.263 C 
ATOM     18  C   UNL A   1      32.758  23.527  22.438  1.00  0.00     0.269 C 
ATOM     19  H   UNL A   1      32.668  22.924  24.274  1.00  0.00     0.348 HD
ATOM     20  C   UNL A   1      33.793  25.534  23.245  1.00  0.00     0.073 C 
ATOM     21  C   UNL A   1      32.600  25.058  22.408  1.00  0.00     0.019 C 
ATOM     22  C   UNL A   1      31.271  25.492  23.047  1.00  0.00     0.017 C 
ATOM     23  C   UNL A   1      32.685  25.611  20.981  1.00  0.00     0.017 C 
ENDBRANCH  15  16
ENDBRANCH   7  15
ENDBRANCH   4   7
ENDBRANCH   2   3
ENDBRANCH   1   2
BRANCH   1  24
ATOM     24  C   UNL A   1      38.322  23.965  26.394  1.00  0.00     0.118 C 
BRANCH  24  25
ATOM     25  N   UNL A   1      39.763  23.855  26.183  1.00  0.00    -0.352 N 
ATOM     26  C   UNL A   1      40.808  24.651  26.594  1.00  0.00     0.251 C 
ATOM     27  H   UNL A   1      40.036  23.073  25.652  1.00  0.00     0.163 HD
ATOM     28  O   UNL A   1      41.925  24.465  26.123  1.00  0.00    -0.269 OA
BRANCH  26  29
ATOM     29  C   UNL A   1      40.587  25.738  27.572  1.00  0.00     0.039 A 
ATOM     30  C   UNL A   1      39.617  25.581  28.567  1.00  0.00     0.014 A 
ATOM     31  C   UNL A   1      41.328  26.916  27.511  1.00  0.00     0.014 A 
ATOM     32  C   UNL A   1      39.462  26.566  29.545  1.00  0.00     0.010 A 
ATOM     33  C   UNL A   1      41.270  27.827  28.556  1.00  0.00     0.010 A 
ATOM     34  C   UNL A   1      40.327  27.673  29.579  1.00  0.00    -0.014 A 
BRANCH  34  35
ATOM     35  C   UNL A   1      40.253  28.700  30.651  1.00  0.00     0.031 A 
ATOM     36  C   UNL A   1      41.127  28.572  31.873  1.00  0.00     0.074 A 
ATOM     37  C   UNL A   1      39.341  29.689  30.568  1.00  0.00     0.049 A 
ATOM     38  N   UNL A   1      41.135  29.296  32.962  1.00  0.00    -0.248 NA
ATOM     39  C   UNL A   1      42.092  27.459  31.889  1.00  0.00     0.031 C 
ATOM     40  C   UNL A   1      38.395  29.881  29.466  1.00  0.00     0.029 A 
ATOM     41  N   UNL A   1      39.052  30.716  31.431  1.00  0.00    -0.354 N 
ATOM     42  C   UNL A   1      42.083  28.712  33.796  1.00  0.00     0.074 A 
ATOM     43  C   UNL A   1      42.578  27.536  33.118  1.00  0.00     0.031 C 
ATOM     44  C   UNL A   1      37.654  30.975  29.704  1.00  0.00     0.029 A 
ATOM     45  C   UNL A   1      38.037  31.536  30.996  1.00  0.00     0.049 A 
ATOM     46  H   UNL A   1      39.526  30.852  32.283  1.00  0.00     0.167 HD
ATOM     47  C   UNL A   1      42.525  29.136  35.004  1.00  0.00     0.037 A 
ATOM     48  C   UNL A   1      37.473  32.614  31.576  1.00  0.00     0.037 A 
ATOM     49  C   UNL A   1      42.053  30.330  35.652  1.00  0.00     0.049 A 
ATOM     50  C   UNL A   1      37.987  33.072  32.914  1.00  0.00     0.074 A 
ATOM     51  C   UNL A   1      42.482  30.888  36.844  1.00  0.00     0.029 A 
ATOM     52  N   UNL A   1      41.049  31.153  35.163  1.00  0.00    -0.354 N 
ATOM     53  N   UNL A   1      38.933  32.547  33.657  1.00  0.00    -0.248 NA
ATOM     54  C   UNL A   1      37.364  34.271  33.489  1.00  0.00     0.031 C 
ATOM     55  C   UNL A   1      41.701  32.020  37.100  1.00  0.00     0.029 A 
ATOM     56  C   UNL A   1      40.827  32.201  36.040  1.00  0.00     0.049 A 
ATOM     57  H   UNL A   1      40.564  31.011  34.318  1.00  0.00     0.167 HD
ATOM     58  C   UNL A   1      39.039  33.370  34.774  1.00  0.00     0.074 A 
ATOM     59  C   UNL A   1      38.069  34.432  34.601  1.00  0.00     0.031 C 
ATOM     60  C   UNL A   1      39.863  33.256  35.844  1.00  0.00     0.037 A 
BRANCH  47  61
ATOM     61  C   UNL A   1      43.578  28.310  35.693  1.00  0.00     0.058 A 
ATOM     62  C   UNL A   1      44.947  28.505  35.449  1.00  0.00     0.135 A 
ATOM     63  C   UNL A   1      43.216  27.331  36.632  1.00  0.00     0.135 A 
ATOM     64  F   UNL A   1      45.352  29.414  34.549  1.00  0.00    -0.206 F 
ATOM     65  C   UNL A   1      45.917  27.738  36.085  1.00  0.00     0.059 A 
ATOM     66  C   UNL A   1      44.171  26.573  37.306  1.00  0.00     0.059 A 
ATOM     67  F   UNL A   1      41.922  27.100  36.903  1.00  0.00    -0.206 F 
ATOM     68  C   UNL A   1      45.519  26.774  37.014  1.00  0.00     0.060 A 
BRANCH  68  69
ATOM     69  S   UNL A   1      46.792  25.795  37.837  1.00  0.00     0.124 S 
ATOM     70  O   UNL A   1      45.984  24.812  38.555  1.00  0.00    -0.237 OA
ATOM     71  O   UNL A   1      47.563  25.279  36.711  1.00  0.00    -0.237 OA
ATOM     72  O   UNL A   1      47.485  26.769  38.674  1.00  0.00    -0.744 OA
ENDBRANCH  68  69
ENDBRANCH  47  61
BRANCH  48  73
ATOM     73  C   UNL A   1      36.378  33.347  30.883  1.00  0.00     0.058 A 
ATOM     74  C   UNL A   1      35.053  33.260  31.335  1.00  0.00     0.135 A 
ATOM     75  C   UNL A   1      36.634  34.158  29.766  1.00  0.00     0.135 A 
ATOM     76  F   UNL A   1      34.757  32.495  32.396  1.00  0.00    -0.206 F 
ATOM     77  C   UNL A   1      34.018  33.934  30.696  1.00  0.00     0.059 A 
ATOM     78  C   UNL A   1      35.619  34.864  29.126  1.00  0.00     0.059 A 
ATOM     79  F   UNL A   1      37.886  34.291  29.303  1.00  0.00    -0.206 F 
ATOM     80  C   UNL A   1      34.312  34.737  29.594  1.00  0.00     0.060 A 
BRANCH  80  81
ATOM     81  S   UNL A   1      32.967  35.644  28.799  1.00  0.00     0.124 S 
ATOM     82  O   UNL A   1      32.206  36.112  29.952  1.00  0.00    -0.237 OA
ATOM     83  O   UNL A   1      33.688  36.668  28.051  1.00  0.00    -0.237 OA
ATOM     84  O   UNL A   1      32.313  34.626  27.982  1.00  0.00    -0.744 OA
ENDBRANCH  80  81
ENDBRANCH  48  73
BRANCH  60  85
ATOM     85  C   UNL A   1      39.785  34.328  36.897  1.00  0.00     0.058 A 
ATOM     86  C   UNL A   1      39.005  34.174  38.053  1.00  0.00     0.135 A 
ATOM     87  C   UNL A   1      40.548  35.500  36.770  1.00  0.00     0.135 A 
ATOM     88  F   UNL A   1      38.252  33.075  38.219  1.00  0.00    -0.206 F 
ATOM     89  C   UNL A   1      38.964  35.156  39.036  1.00  0.00     0.059 A 
ATOM     90  C   UNL A   1      40.548  36.481  37.757  1.00  0.00     0.059 A 
ATOM     91  F   UNL A   1      41.321  35.692  35.689  1.00  0.00    -0.206 F 
ATOM     92  C   UNL A   1      39.742  36.305  38.880  1.00  0.00     0.060 A 
BRANCH  92  93
ATOM     93  S   UNL A   1      39.709  37.555  40.183  1.00  0.00     0.124 S 
ATOM     94  O   UNL A   1      39.225  36.779  41.321  1.00  0.00    -0.237 OA
ATOM     95  O   UNL A   1      41.105  37.975  40.248  1.00  0.00    -0.237 OA
ATOM     96  O   UNL A   1      38.781  38.558  39.668  1.00  0.00    -0.744 OA
ENDBRANCH  92  93
ENDBRANCH  60  85
ENDBRANCH  34  35
ENDBRANCH  26  29
ENDBRANCH  24  25
ENDBRANCH   1  24
TORSDOF 17
ENDMDL
MODEL 2
REMARK VINA RESULT:     -11.1      5.696     12.477
REMARK SMILES CC(C)[NH2+][C@](C)(C[N@H+]1CCC(C)(C)C1)C(=O)NCCCNC(=O)c1ccc(-c2c3nc(c(-c4c(F)cc(S(=O)(=O)[O-])cc4F)c4ccc([nH]4)c(-c4c(F)cc(S(=O)(=O)[O-])cc4F)c4nc(c(-c5c(F)cc(S(=O)(=O)[O-])cc5F)c5ccc2[nH]5)C=C4)C=C3)cc1
REMARK SMILES IDX 19 1 18 2 17 3 15 4 16 5 5 7 6 8 4 9 2 12 1 13 3 14 7 15
REMARK SMILES IDX 8 16 9 17 14 18 10 20 11 21 12 22 13 23 20 24 21 25 22 26
REMARK SMILES IDX 23 28 24 29 25 30 89 31 26 32 88 33 27 34 28 35 29 36 82 37
REMARK SMILES IDX 30 38 87 39 81 40 83 41 31 42 86 43 80 44 79 45 32 47 66 48
REMARK SMILES IDX 45 49 65 50 46 51 49 52 64 53 84 54 47 55 48 56 63 58 85 59
REMARK SMILES IDX 50 60 33 61 34 62 43 63 35 64 36 65 42 66 44 67 37 68 38 69
REMARK SMILES IDX 39 70 40 71 41 72 67 73 68 74 77 75 69 76 70 77 76 78 78 79
REMARK SMILES IDX 71 80 72 81 73 82 74 83 75 84 51 85 52 86 61 87 53 88 54 89
REMARK SMILES IDX 60 90 62 91 55 92 56 93 57 94 58 95 59 96
REMARK H PARENT 17 6 4 10 4 11 8 19 21 27 83 46 49 57
REMARK Flexibility Score: inf
ROOT
ATOM      1  C   UNL A   1      34.908  34.042  28.634  1.00  0.00     0.042 C 
ENDROOT
BRANCH   1   2
ATOM      2  C   UNL A   1      35.728  33.955  29.902  1.00  0.00     0.118 C 
BRANCH   2   3
ATOM      3  N   UNL A   1      35.128  33.193  30.977  1.00  0.00    -0.350 N 
ATOM      4  C   UNL A   1      34.806  33.545  32.258  1.00  0.00     0.287 C 
ATOM      5  O   UNL A   1      34.007  32.781  32.819  1.00  0.00    -0.268 OA
ATOM      6  H   UNL A   1      34.913  32.260  30.745  1.00  0.00     0.163 HD
BRANCH   4   7
ATOM      7  C   UNL A   1      35.423  34.780  33.009  1.00  0.00     0.221 C 
ATOM      8  C   UNL A   1      34.664  34.935  34.367  1.00  0.00     0.097 C 
BRANCH   7   9
ATOM      9  N   UNL A   1      35.043  36.073  32.341  1.00  0.00    -0.327 N 
ATOM     10  H   UNL A   1      35.700  36.772  32.691  1.00  0.00     0.347 HD
ATOM     11  H   UNL A   1      35.055  35.801  31.359  1.00  0.00     0.347 HD
BRANCH   9  12
ATOM     12  C   UNL A   1      33.723  36.677  32.452  1.00  0.00     0.177 C 
ATOM     13  C   UNL A   1      33.899  38.192  32.620  1.00  0.00     0.075 C 
ATOM     14  C   UNL A   1      32.840  36.427  31.228  1.00  0.00     0.075 C 
ENDBRANCH   9  12
ENDBRANCH   7   9
BRANCH   7  15
ATOM     15  C   UNL A   1      36.950  34.579  33.331  1.00  0.00     0.341 C 
BRANCH  15  16
ATOM     16  N   UNL A   1      37.597  33.266  33.291  1.00  0.00    -0.329 N 
ATOM     17  C   UNL A   1      38.964  33.211  32.804  1.00  0.00     0.263 C 
ATOM     18  C   UNL A   1      37.351  32.265  34.319  1.00  0.00     0.269 C 
ATOM     19  H   UNL A   1      36.977  32.946  32.547  1.00  0.00     0.348 HD
ATOM     20  C   UNL A   1      39.670  32.220  33.711  1.00  0.00     0.073 C 
ATOM     21  C   UNL A   1      38.556  31.311  34.241  1.00  0.00     0.019 C 
ATOM     22  C   UNL A   1      38.283  30.150  33.271  1.00  0.00     0.017 C 
ATOM     23  C   UNL A   1      38.925  30.748  35.619  1.00  0.00     0.017 C 
ENDBRANCH  15  16
ENDBRANCH   7  15
ENDBRANCH   4   7
ENDBRANCH   2   3
ENDBRANCH   1   2
BRANCH   1  24
ATOM     24  C   UNL A   1      35.195  32.934  27.640  1.00  0.00     0.118 C 
BRANCH  24  25
ATOM     25  N   UNL A   1      34.274  31.807  27.757  1.00  0.00    -0.352 N 
ATOM     26  C   UNL A   1      34.498  30.456  27.894  1.00  0.00     0.251 C 
ATOM     27  H   UNL A   1      33.323  32.058  27.736  1.00  0.00     0.163 HD
ATOM     28  O   UNL A   1      33.561  29.677  27.772  1.00  0.00    -0.269 OA
BRANCH  26  29
ATOM     29  C   UNL A   1      35.860  29.942  28.155  1.00  0.00     0.039 A 
ATOM     30  C   UNL A   1      36.800  29.924  27.119  1.00  0.00     0.014 A 
ATOM     31  C   UNL A   1      36.217  29.471  29.417  1.00  0.00     0.014 A 
ATOM     32  C   UNL A   1      38.111  29.521  27.381  1.00  0.00     0.010 A 
ATOM     33  C   UNL A   1      37.547  29.203  29.708  1.00  0.00     0.010 A 
ATOM     34  C   UNL A   1      38.510  29.209  28.691  1.00  0.00    -0.014 A 
BRANCH  34  35
ATOM     35  C   UNL A   1      39.914  28.859  29.027  1.00  0.00     0.031 A 
ATOM     36  C   UNL A   1      40.813  29.890  29.660  1.00  0.00     0.074 A 
ATOM     37  C   UNL A   1      40.403  27.651  28.682  1.00  0.00     0.049 A 
ATOM     38  N   UNL A   1      42.091  29.820  29.928  1.00  0.00    -0.248 NA
ATOM     39  C   UNL A   1      40.203  31.188  30.000  1.00  0.00     0.031 C 
ATOM     40  C   UNL A   1      39.650  26.591  28.006  1.00  0.00     0.029 A 
ATOM     41  N   UNL A   1      41.656  27.112  28.841  1.00  0.00    -0.354 N 
ATOM     42  C   UNL A   1      42.438  31.064  30.442  1.00  0.00     0.074 A 
ATOM     43  C   UNL A   1      41.256  31.893  30.384  1.00  0.00     0.031 C 
ATOM     44  C   UNL A   1      40.444  25.522  27.839  1.00  0.00     0.029 A 
ATOM     45  C   UNL A   1      41.774  25.833  28.351  1.00  0.00     0.049 A 
ATOM     46  H   UNL A   1      42.399  27.597  29.267  1.00  0.00     0.167 HD
ATOM     47  C   UNL A   1      43.627  31.471  30.948  1.00  0.00     0.037 A 
ATOM     48  C   UNL A   1      42.839  25.007  28.309  1.00  0.00     0.037 A 
ATOM     49  C   UNL A   1      44.787  30.626  31.038  1.00  0.00     0.049 A 
ATOM     50  C   UNL A   1      44.147  25.477  28.886  1.00  0.00     0.074 A 
ATOM     51  C   UNL A   1      46.021  30.915  31.594  1.00  0.00     0.029 A 
ATOM     52  N   UNL A   1      44.858  29.325  30.560  1.00  0.00    -0.354 N 
ATOM     53  N   UNL A   1      44.438  26.634  29.431  1.00  0.00    -0.248 NA
ATOM     54  C   UNL A   1      45.268  24.529  28.849  1.00  0.00     0.031 C 
ATOM     55  C   UNL A   1      46.853  29.806  31.409  1.00  0.00     0.029 A 
ATOM     56  C   UNL A   1      46.121  28.805  30.789  1.00  0.00     0.049 A 
ATOM     57  H   UNL A   1      44.119  28.843  30.123  1.00  0.00     0.167 HD
ATOM     58  C   UNL A   1      45.768  26.542  29.829  1.00  0.00     0.074 A 
ATOM     59  C   UNL A   1      46.217  25.212  29.472  1.00  0.00     0.031 C 
ATOM     60  C   UNL A   1      46.546  27.473  30.435  1.00  0.00     0.037 A 
BRANCH  47  61
ATOM     61  C   UNL A   1      43.726  32.885  31.453  1.00  0.00     0.058 A 
ATOM     62  C   UNL A   1      44.069  33.952  30.606  1.00  0.00     0.135 A 
ATOM     63  C   UNL A   1      43.444  33.185  32.796  1.00  0.00     0.135 A 
ATOM     64  F   UNL A   1      44.367  33.723  29.317  1.00  0.00    -0.206 F 
ATOM     65  C   UNL A   1      44.162  35.257  31.077  1.00  0.00     0.059 A 
ATOM     66  C   UNL A   1      43.498  34.489  33.282  1.00  0.00     0.059 A 
ATOM     67  F   UNL A   1      43.112  32.206  33.652  1.00  0.00    -0.206 F 
ATOM     68  C   UNL A   1      43.873  35.516  32.418  1.00  0.00     0.060 A 
BRANCH  68  69
ATOM     69  S   UNL A   1      43.989  37.217  33.010  1.00  0.00     0.124 S 
ATOM     70  O   UNL A   1      42.803  37.313  33.855  1.00  0.00    -0.237 OA
ATOM     71  O   UNL A   1      45.269  37.215  33.712  1.00  0.00    -0.237 OA
ATOM     72  O   UNL A   1      43.951  38.008  31.784  1.00  0.00    -0.744 OA
ENDBRANCH  68  69
ENDBRANCH  47  61
BRANCH  48  73
ATOM     73  C   UNL A   1      42.703  23.645  27.724  1.00  0.00     0.058 A 
ATOM     74  C   UNL A   1      42.446  22.532  28.539  1.00  0.00     0.135 A 
ATOM     75  C   UNL A   1      42.811  23.429  26.341  1.00  0.00     0.135 A 
ATOM     76  F   UNL A   1      42.338  22.686  29.867  1.00  0.00    -0.206 F 
ATOM     77  C   UNL A   1      42.321  21.253  28.009  1.00  0.00     0.059 A 
ATOM     78  C   UNL A   1      42.662  22.162  25.784  1.00  0.00     0.059 A 
ATOM     79  F   UNL A   1      43.037  24.461  25.514  1.00  0.00    -0.206 F 
ATOM     80  C   UNL A   1      42.427  21.078  26.629  1.00  0.00     0.060 A 
BRANCH  80  81
ATOM     81  S   UNL A   1      42.218  19.419  25.947  1.00  0.00     0.124 S 
ATOM     82  O   UNL A   1      43.014  19.498  24.728  1.00  0.00    -0.237 OA
ATOM     83  O   UNL A   1      42.761  18.580  27.011  1.00  0.00    -0.237 OA
ATOM     84  O   UNL A   1      40.774  19.315  25.754  1.00  0.00    -0.744 OA
ENDBRANCH  80  81
ENDBRANCH  48  73
BRANCH  60  85
ATOM     85  C   UNL A   1      47.953  27.077  30.789  1.00  0.00     0.058 A 
ATOM     86  C   UNL A   1      48.251  26.378  31.969  1.00  0.00     0.135 A 
ATOM     87  C   UNL A   1      49.009  27.352  29.905  1.00  0.00     0.135 A 
ATOM     88  F   UNL A   1      47.279  26.095  32.850  1.00  0.00    -0.206 F 
ATOM     89  C   UNL A   1      49.550  25.987  32.272  1.00  0.00     0.059 A 
ATOM     90  C   UNL A   1      50.311  26.942  30.173  1.00  0.00     0.059 A 
ATOM     91  F   UNL A   1      48.777  28.008  28.757  1.00  0.00    -0.206 F 
ATOM     92  C   UNL A   1      50.573  26.271  31.365  1.00  0.00     0.060 A 
BRANCH  92  93
ATOM     93  S   UNL A   1      52.249  25.725  31.754  1.00  0.00     0.124 S 
ATOM     94  O   UNL A   1      52.596  26.609  32.863  1.00  0.00    -0.237 OA
ATOM     95  O   UNL A   1      52.047  24.322  32.102  1.00  0.00    -0.237 OA
ATOM     96  O   UNL A   1      52.980  25.958  30.512  1.00  0.00    -0.744 OA
ENDBRANCH  92  93
ENDBRANCH  60  85
ENDBRANCH  34  35
ENDBRANCH  26  29
ENDBRANCH  24  25
ENDBRANCH   1  24
TORSDOF 17
ENDMDL
MODEL 3
REMARK VINA RESULT:     -11.0      6.574     11.332
REMARK SMILES CC(C)[NH2+][C@](C)(C[N@H+]1CCC(C)(C)C1)C(=O)NCCCNC(=O)c1ccc(-c2c3nc(c(-c4c(F)cc(S(=O)(=O)[O-])cc4F)c4ccc([nH]4)c(-c4c(F)cc(S(=O)(=O)[O-])cc4F)c4nc(c(-c5c(F)cc(S(=O)(=O)[O-])cc5F)c5ccc2[nH]5)C=C4)C=C3)cc1
REMARK SMILES IDX 19 1 18 2 17 3 15 4 16 5 5 7 6 8 4 9 2 12 1 13 3 14 7 15
REMARK SMILES IDX 8 16 9 17 14 18 10 20 11 21 12 22 13 23 20 24 21 25 22 26
REMARK SMILES IDX 23 28 24 29 25 30 89 31 26 32 88 33 27 34 28 35 29 36 82 37
REMARK SMILES IDX 30 38 87 39 81 40 83 41 31 42 86 43 80 44 79 45 32 47 66 48
REMARK SMILES IDX 45 49 65 50 46 51 49 52 64 53 84 54 47 55 48 56 63 58 85 59
REMARK SMILES IDX 50 60 33 61 34 62 43 63 35 64 36 65 42 66 44 67 37 68 38 69
REMARK SMILES IDX 39 70 40 71 41 72 67 73 68 74 77 75 69 76 70 77 76 78 78 79
REMARK SMILES IDX 71 80 72 81 73 82 74 83 75 84 51 85 52 86 61 87 53 88 54 89
REMARK SMILES IDX 60 90 62 91 55 92 56 93 57 94 58 95 59 96
REMARK H PARENT 17 6 4 10 4 11 8 19 21 27 83 46 49 57
REMARK Flexibility Score: inf
ROOT
ATOM      1  C   UNL A   1      37.998  20.131  25.134  1.00  0.00     0.042 C 
ENDROOT
BRANCH   1   2
ATOM      2  C   UNL A   1      36.965  21.228  25.008  1.00  0.00     0.118 C 
BRANCH   2   3
ATOM      3  N   UNL A   1      36.193  21.492  26.204  1.00  0.00    -0.350 N 
ATOM      4  C   UNL A   1      34.884  21.852  26.368  1.00  0.00     0.287 C 
ATOM      5  O   UNL A   1      34.439  21.675  27.511  1.00  0.00    -0.268 OA
ATOM      6  H   UNL A   1      36.696  21.394  27.045  1.00  0.00     0.163 HD
BRANCH   4   7
ATOM      7  C   UNL A   1      34.002  22.492  25.236  1.00  0.00     0.221 C 
ATOM      8  C   UNL A   1      34.753  23.760  24.713  1.00  0.00     0.097 C 
BRANCH   7   9
ATOM      9  N   UNL A   1      32.762  23.128  25.800  1.00  0.00    -0.327 N 
ATOM     10  H   UNL A   1      32.033  22.416  25.748  1.00  0.00     0.347 HD
ATOM     11  H   UNL A   1      33.100  23.455  26.705  1.00  0.00     0.347 HD
BRANCH   9  12
ATOM     12  C   UNL A   1      32.168  24.344  25.264  1.00  0.00     0.177 C 
ATOM     13  C   UNL A   1      30.941  23.954  24.429  1.00  0.00     0.075 C 
ATOM     14  C   UNL A   1      31.721  25.327  26.348  1.00  0.00     0.075 C 
ENDBRANCH   9  12
ENDBRANCH   7   9
BRANCH   7  15
ATOM     15  C   UNL A   1      33.799  21.517  24.017  1.00  0.00     0.341 C 
BRANCH  15  16
ATOM     16  N   UNL A   1      33.244  20.171  24.170  1.00  0.00    -0.329 N 
ATOM     17  C   UNL A   1      32.147  19.799  23.294  1.00  0.00     0.263 C 
ATOM     18  C   UNL A   1      34.091  19.030  24.486  1.00  0.00     0.269 C 
ATOM     19  H   UNL A   1      32.861  20.397  25.088  1.00  0.00     0.348 HD
ATOM     20  C   UNL A   1      32.424  18.360  22.897  1.00  0.00     0.073 C 
ATOM     21  C   UNL A   1      33.286  17.799  24.034  1.00  0.00     0.019 C 
ATOM     22  C   UNL A   1      32.408  17.260  25.176  1.00  0.00     0.017 C 
ATOM     23  C   UNL A   1      34.198  16.680  23.520  1.00  0.00     0.017 C 
ENDBRANCH  15  16
ENDBRANCH   7  15
ENDBRANCH   4   7
ENDBRANCH   2   3
ENDBRANCH   1   2
BRANCH   1  24
ATOM     24  C   UNL A   1      39.283  20.571  25.809  1.00  0.00     0.118 C 
BRANCH  24  25
ATOM     25  N   UNL A   1      40.250  19.488  25.959  1.00  0.00    -0.352 N 
ATOM     26  C   UNL A   1      41.616  19.502  26.126  1.00  0.00     0.251 C 
ATOM     27  H   UNL A   1      39.855  18.587  25.938  1.00  0.00     0.163 HD
ATOM     28  O   UNL A   1      42.243  18.453  26.029  1.00  0.00    -0.269 OA
BRANCH  26  29
ATOM     29  C   UNL A   1      42.329  20.770  26.392  1.00  0.00     0.039 A 
ATOM     30  C   UNL A   1      42.813  21.525  25.319  1.00  0.00     0.014 A 
ATOM     31  C   UNL A   1      42.529  21.218  27.696  1.00  0.00     0.014 A 
ATOM     32  C   UNL A   1      43.410  22.765  25.558  1.00  0.00     0.010 A 
ATOM     33  C   UNL A   1      42.995  22.506  27.924  1.00  0.00     0.010 A 
ATOM     34  C   UNL A   1      43.457  23.290  26.860  1.00  0.00    -0.014 A 
BRANCH  34  35
ATOM     35  C   UNL A   1      44.005  24.642  27.147  1.00  0.00     0.031 A 
ATOM     36  C   UNL A   1      43.082  25.746  27.595  1.00  0.00     0.074 A 
ATOM     37  C   UNL A   1      45.309  24.896  26.918  1.00  0.00     0.049 A 
ATOM     38  N   UNL A   1      43.343  27.012  27.789  1.00  0.00    -0.248 NA
ATOM     39  C   UNL A   1      41.671  25.386  27.816  1.00  0.00     0.031 C 
ATOM     40  C   UNL A   1      46.290  23.926  26.422  1.00  0.00     0.029 A 
ATOM     41  N   UNL A   1      46.036  26.052  27.062  1.00  0.00    -0.354 N 
ATOM     42  C   UNL A   1      42.129  27.600  28.128  1.00  0.00     0.074 A 
ATOM     43  C   UNL A   1      41.121  26.568  28.046  1.00  0.00     0.031 C 
ATOM     44  C   UNL A   1      47.491  24.518  26.334  1.00  0.00     0.029 A 
ATOM     45  C   UNL A   1      47.361  25.919  26.721  1.00  0.00     0.049 A 
ATOM     46  H   UNL A   1      45.643  26.897  27.379  1.00  0.00     0.167 HD
ATOM     47  C   UNL A   1      41.881  28.877  28.507  1.00  0.00     0.037 A 
ATOM     48  C   UNL A   1      48.358  26.827  26.712  1.00  0.00     0.037 A 
ATOM     49  C   UNL A   1      42.899  29.886  28.624  1.00  0.00     0.049 A 
ATOM     50  C   UNL A   1      48.061  28.236  27.145  1.00  0.00     0.074 A 
ATOM     51  C   UNL A   1      42.769  31.191  29.064  1.00  0.00     0.029 A 
ATOM     52  N   UNL A   1      44.236  29.703  28.301  1.00  0.00    -0.354 N 
ATOM     53  N   UNL A   1      46.920  28.758  27.529  1.00  0.00    -0.248 NA
ATOM     54  C   UNL A   1      49.186  29.180  27.151  1.00  0.00     0.031 C 
ATOM     55  C   UNL A   1      44.018  31.812  28.960  1.00  0.00     0.029 A 
ATOM     56  C   UNL A   1      44.938  30.878  28.511  1.00  0.00     0.049 A 
ATOM     57  H   UNL A   1      44.628  28.862  27.972  1.00  0.00     0.167 HD
ATOM     58  C   UNL A   1      47.196  30.082  27.852  1.00  0.00     0.074 A 
ATOM     59  C   UNL A   1      48.614  30.277  27.629  1.00  0.00     0.031 C 
ATOM     60  C   UNL A   1      46.354  31.049  28.293  1.00  0.00     0.037 A 
BRANCH  47  61
ATOM     61  C   UNL A   1      40.459  29.246  28.833  1.00  0.00     0.058 A 
ATOM     62  C   UNL A   1      40.021  29.404  30.158  1.00  0.00     0.135 A 
ATOM     63  C   UNL A   1      39.528  29.476  27.807  1.00  0.00     0.135 A 
ATOM     64  F   UNL A   1      40.862  29.181  31.180  1.00  0.00    -0.206 F 
ATOM     65  C   UNL A   1      38.705  29.743  30.455  1.00  0.00     0.059 A 
ATOM     66  C   UNL A   1      38.214  29.848  28.081  1.00  0.00     0.059 A 
ATOM     67  F   UNL A   1      39.890  29.338  26.522  1.00  0.00    -0.206 F 
ATOM     68  C   UNL A   1      37.809  29.965  29.409  1.00  0.00     0.060 A 
BRANCH  68  69
ATOM     69  S   UNL A   1      36.108  30.413  29.813  1.00  0.00     0.124 S 
ATOM     70  O   UNL A   1      35.938  29.768  31.112  1.00  0.00    -0.237 OA
ATOM     71  O   UNL A   1      36.168  31.872  29.833  1.00  0.00    -0.237 OA
ATOM     72  O   UNL A   1      35.334  29.835  28.719  1.00  0.00    -0.744 OA
ENDBRANCH  68  69
ENDBRANCH  47  61
BRANCH  48  73
ATOM     73  C   UNL A   1      49.730  26.422  26.303  1.00  0.00     0.058 A 
ATOM     74  C   UNL A   1      50.205  26.686  25.009  1.00  0.00     0.135 A 
ATOM     75  C   UNL A   1      50.601  25.779  27.197  1.00  0.00     0.135 A 
ATOM     76  F   UNL A   1      49.411  27.295  24.116  1.00  0.00    -0.206 F 
ATOM     77  C   UNL A   1      51.483  26.311  24.609  1.00  0.00     0.059 A 
ATOM     78  C   UNL A   1      51.894  25.418  26.830  1.00  0.00     0.059 A 
ATOM     79  F   UNL A   1      50.204  25.519  28.452  1.00  0.00    -0.206 F 
ATOM     80  C   UNL A   1      52.322  25.680  25.529  1.00  0.00     0.060 A 
BRANCH  80  81
ATOM     81  S   UNL A   1      53.995  25.238  25.013  1.00  0.00     0.124 S 
ATOM     82  O   UNL A   1      54.794  25.784  26.104  1.00  0.00    -0.237 OA
ATOM     83  O   UNL A   1      53.919  23.782  24.943  1.00  0.00    -0.237 OA
ATOM     84  O   UNL A   1      54.139  25.912  23.726  1.00  0.00    -0.744 OA
ENDBRANCH  80  81
ENDBRANCH  48  73
BRANCH  60  85
ATOM     85  C   UNL A   1      46.946  32.396  28.603  1.00  0.00     0.058 A 
ATOM     86  C   UNL A   1      47.469  32.701  29.868  1.00  0.00     0.135 A 
ATOM     87  C   UNL A   1      47.041  33.375  27.599  1.00  0.00     0.135 A 
ATOM     88  F   UNL A   1      47.397  31.803  30.864  1.00  0.00    -0.206 F 
ATOM     89  C   UNL A   1      48.044  33.938  30.136  1.00  0.00     0.059 A 
ATOM     90  C   UNL A   1      47.642  34.607  27.836  1.00  0.00     0.059 A 
ATOM     91  F   UNL A   1      46.566  33.130  26.368  1.00  0.00    -0.206 F 
ATOM     92  C   UNL A   1      48.129  34.883  29.112  1.00  0.00     0.060 A 
BRANCH  92  93
ATOM     93  S   UNL A   1      48.912  36.471  29.464  1.00  0.00     0.124 S 
ATOM     94  O   UNL A   1      49.595  36.189  30.724  1.00  0.00    -0.237 OA
ATOM     95  O   UNL A   1      49.776  36.658  28.303  1.00  0.00    -0.237 OA
ATOM     96  O   UNL A   1      47.785  37.394  29.555  1.00  0.00    -0.744 OA
ENDBRANCH  92  93
ENDBRANCH  60  85
ENDBRANCH  34  35
ENDBRANCH  26  29
ENDBRANCH  24  25
ENDBRANCH   1  24
TORSDOF 17
ENDMDL
