MODEL 1
REMARK VINA RESULT:     -10.8      0.000      0.000
REMARK SMILES O=C(NCCCNC(=O)c1cc(SCC(=O)N2CCOCC2)ccn1)c1ccc(-c2c3nc(c(-c4c(F)cc(S(=O)(=O)[O-])cc4F)c4ccc([nH]4)c(-c4c(F)cc(S(=O)(=O)[O-])cc4F)c4nc(c(-c5c(F)cc(S(=O)(=O)[O-])cc5F)c5ccc2[nH]5)C=C4)C=C3)cc1
REMARK SMILES IDX 5 1 4 2 3 3 1 4 2 5 26 7 27 8 91 9 28 10 90 11 29 12 30 13
REMARK SMILES IDX 31 14 84 15 32 16 89 17 83 18 85 19 33 20 88 21 82 22 81 23
REMARK SMILES IDX 34 25 68 26 47 27 67 28 48 29 51 30 66 31 86 32 49 33 50 34
REMARK SMILES IDX 65 36 87 37 52 38 35 39 36 40 45 41 37 42 38 43 44 44 46 45
REMARK SMILES IDX 39 46 40 47 41 48 42 49 43 50 69 51 70 52 79 53 71 54 72 55
REMARK SMILES IDX 78 56 80 57 73 58 74 59 75 60 76 61 77 62 53 63 54 64 63 65
REMARK SMILES IDX 55 66 56 67 62 68 64 69 57 70 58 71 59 72 60 73 61 74 6 75
REMARK SMILES IDX 7 76 8 77 9 79 10 80 11 81 25 82 12 83 24 84 23 85 13 86
REMARK SMILES IDX 14 87 15 88 16 89 17 90 18 91 22 92 19 93 21 94 20 95
REMARK H PARENT 3 6 85 24 51 35 7 78
REMARK Flexibility Score: inf
ROOT
ATOM      1  C   UNL A   1      35.077  33.364  27.905  1.00  0.00     0.042 C 
ENDROOT
BRANCH   1   2
ATOM      2  C   UNL A   1      34.480  32.395  28.911  1.00  0.00     0.118 C 
BRANCH   2   3
ATOM      3  N   UNL A   1      33.924  31.203  28.283  1.00  0.00    -0.352 N 
ATOM      4  O   UNL A   1      33.907  29.238  27.189  1.00  0.00    -0.269 OA
ATOM      5  C   UNL A   1      34.537  30.049  27.865  1.00  0.00     0.251 C 
ATOM      6  H   UNL A   1      32.951  31.231  28.134  1.00  0.00     0.163 HD
BRANCH   5   7
ATOM      7  C   UNL A   1      35.954  29.788  28.198  1.00  0.00     0.039 A 
ATOM      8  C   UNL A   1      36.967  30.028  27.269  1.00  0.00     0.014 A 
ATOM      9  C   UNL A   1      36.278  29.319  29.475  1.00  0.00     0.014 A 
ATOM     10  C   UNL A   1      38.273  29.649  27.552  1.00  0.00     0.010 A 
ATOM     11  C   UNL A   1      37.609  29.038  29.797  1.00  0.00     0.010 A 
ATOM     12  C   UNL A   1      38.614  29.174  28.827  1.00  0.00    -0.014 A 
BRANCH  12  13
ATOM     13  C   UNL A   1      40.039  28.914  29.146  1.00  0.00     0.031 A 
ATOM     14  C   UNL A   1      40.885  29.943  29.840  1.00  0.00     0.074 A 
ATOM     15  C   UNL A   1      40.560  27.716  28.810  1.00  0.00     0.049 A 
ATOM     16  N   UNL A   1      42.147  29.876  30.179  1.00  0.00    -0.248 NA
ATOM     17  C   UNL A   1      40.238  31.217  30.192  1.00  0.00     0.031 C 
ATOM     18  C   UNL A   1      39.832  26.647  28.118  1.00  0.00     0.029 A 
ATOM     19  N   UNL A   1      41.809  27.189  29.009  1.00  0.00    -0.354 N 
ATOM     20  C   UNL A   1      42.454  31.100  30.762  1.00  0.00     0.074 A 
ATOM     21  C   UNL A   1      41.249  31.900  30.715  1.00  0.00     0.031 C 
ATOM     22  C   UNL A   1      40.634  25.581  27.986  1.00  0.00     0.029 A 
ATOM     23  C   UNL A   1      41.949  25.912  28.520  1.00  0.00     0.049 A 
ATOM     24  H   UNL A   1      42.535  27.678  29.458  1.00  0.00     0.167 HD
ATOM     25  C   UNL A   1      43.632  31.509  31.291  1.00  0.00     0.037 A 
ATOM     26  C   UNL A   1      43.024  25.104  28.477  1.00  0.00     0.037 A 
ATOM     27  C   UNL A   1      44.817  30.691  31.350  1.00  0.00     0.049 A 
ATOM     28  C   UNL A   1      44.320  25.590  29.053  1.00  0.00     0.074 A 
ATOM     29  C   UNL A   1      46.045  30.996  31.912  1.00  0.00     0.029 A 
ATOM     30  N   UNL A   1      44.927  29.411  30.824  1.00  0.00    -0.354 N 
ATOM     31  N   UNL A   1      44.580  26.736  29.636  1.00  0.00    -0.248 NA
ATOM     32  C   UNL A   1      45.470  24.682  28.961  1.00  0.00     0.031 C 
ATOM     33  C   UNL A   1      46.910  29.919  31.685  1.00  0.00     0.029 A 
ATOM     34  C   UNL A   1      46.208  28.924  31.023  1.00  0.00     0.049 A 
ATOM     35  H   UNL A   1      44.199  28.921  30.375  1.00  0.00     0.167 HD
ATOM     36  C   UNL A   1      45.923  26.685  29.988  1.00  0.00     0.074 A 
ATOM     37  C   UNL A   1      46.414  25.387  29.572  1.00  0.00     0.031 C 
ATOM     38  C   UNL A   1      46.680  27.629  30.598  1.00  0.00     0.037 A 
BRANCH  25  39
ATOM     39  C   UNL A   1      43.711  32.909  31.835  1.00  0.00     0.058 A 
ATOM     40  C   UNL A   1      43.500  33.189  33.195  1.00  0.00     0.135 A 
ATOM     41  C   UNL A   1      44.058  33.980  30.994  1.00  0.00     0.135 A 
ATOM     42  F   UNL A   1      43.154  32.207  34.042  1.00  0.00    -0.206 F 
ATOM     43  C   UNL A   1      43.609  34.482  33.696  1.00  0.00     0.059 A 
ATOM     44  C   UNL A   1      44.195  35.277  31.478  1.00  0.00     0.059 A 
ATOM     45  F   UNL A   1      44.271  33.768  29.686  1.00  0.00    -0.206 F 
ATOM     46  C   UNL A   1      43.956  35.521  32.830  1.00  0.00     0.060 A 
BRANCH  46  47
ATOM     47  S   UNL A   1      44.101  37.192  33.498  1.00  0.00     0.124 S 
ATOM     48  O   UNL A   1      44.552  37.936  32.326  1.00  0.00    -0.237 OA
ATOM     49  O   UNL A   1      42.737  37.473  33.938  1.00  0.00    -0.237 OA
ATOM     50  O   UNL A   1      45.084  37.049  34.567  1.00  0.00    -0.744 OA
ENDBRANCH  46  47
ENDBRANCH  25  39
BRANCH  26  51
ATOM     51  C   UNL A   1      42.911  23.764  27.844  1.00  0.00     0.058 A 
ATOM     52  C   UNL A   1      42.646  22.620  28.609  1.00  0.00     0.135 A 
ATOM     53  C   UNL A   1      43.028  23.610  26.452  1.00  0.00     0.135 A 
ATOM     54  F   UNL A   1      42.527  22.718  29.942  1.00  0.00    -0.206 F 
ATOM     55  C   UNL A   1      42.512  21.367  28.020  1.00  0.00     0.059 A 
ATOM     56  C   UNL A   1      42.872  22.373  25.839  1.00  0.00     0.059 A 
ATOM     57  F   UNL A   1      43.262  24.679  25.674  1.00  0.00    -0.206 F 
ATOM     58  C   UNL A   1      42.623  21.255  26.633  1.00  0.00     0.060 A 
BRANCH  58  59
ATOM     59  S   UNL A   1      42.396  19.635  25.870  1.00  0.00     0.124 S 
ATOM     60  O   UNL A   1      43.407  19.662  24.820  1.00  0.00    -0.237 OA
ATOM     61  O   UNL A   1      42.657  18.729  26.985  1.00  0.00    -0.237 OA
ATOM     62  O   UNL A   1      41.010  19.670  25.416  1.00  0.00    -0.744 OA
ENDBRANCH  58  59
ENDBRANCH  26  51
BRANCH  38  63
ATOM     63  C   UNL A   1      48.117  27.286  30.863  1.00  0.00     0.058 A 
ATOM     64  C   UNL A   1      48.531  26.765  32.098  1.00  0.00     0.135 A 
ATOM     65  C   UNL A   1      49.082  27.433  29.853  1.00  0.00     0.135 A 
ATOM     66  F   UNL A   1      47.648  26.617  33.098  1.00  0.00    -0.206 F 
ATOM     67  C   UNL A   1      49.857  26.418  32.332  1.00  0.00     0.059 A 
ATOM     68  C   UNL A   1      50.409  27.069  30.057  1.00  0.00     0.059 A 
ATOM     69  F   UNL A   1      48.736  27.921  28.652  1.00  0.00    -0.206 F 
ATOM     70  C   UNL A   1      50.788  26.572  31.303  1.00  0.00     0.060 A 
BRANCH  70  71
ATOM     71  S   UNL A   1      52.498  26.077  31.603  1.00  0.00     0.124 S 
ATOM     72  O   UNL A   1      52.333  24.688  32.021  1.00  0.00    -0.237 OA
ATOM     73  O   UNL A   1      53.115  26.275  30.294  1.00  0.00    -0.237 OA
ATOM     74  O   UNL A   1      52.942  26.999  32.644  1.00  0.00    -0.744 OA
ENDBRANCH  70  71
ENDBRANCH  38  63
ENDBRANCH  12  13
ENDBRANCH   5   7
ENDBRANCH   2   3
ENDBRANCH   1   2
BRANCH   1  75
ATOM     75  C   UNL A   1      35.068  34.807  28.373  1.00  0.00     0.118 C 
BRANCH  75  76
ATOM     76  N   UNL A   1      33.783  35.467  28.192  1.00  0.00    -0.351 N 
ATOM     77  C   UNL A   1      32.970  36.059  29.133  1.00  0.00     0.269 C 
ATOM     78  H   UNL A   1      33.448  35.493  27.267  1.00  0.00     0.163 HD
ATOM     79  O   UNL A   1      31.895  36.545  28.789  1.00  0.00    -0.268 OA
BRANCH  77  80
ATOM     80  C   UNL A   1      33.405  36.106  30.556  1.00  0.00     0.129 A 
ATOM     81  C   UNL A   1      33.791  34.935  31.205  1.00  0.00     0.049 A 
ATOM     82  N   UNL A   1      33.339  37.322  31.152  1.00  0.00    -0.251 NA
ATOM     83  C   UNL A   1      34.019  34.997  32.572  1.00  0.00     0.012 A 
ATOM     84  C   UNL A   1      33.638  37.365  32.459  1.00  0.00     0.113 A 
ATOM     85  C   UNL A   1      33.964  36.245  33.203  1.00  0.00     0.035 A 
BRANCH  83  86
ATOM     86  S   UNL A   1      34.384  33.607  33.619  1.00  0.00    -0.116 SA
BRANCH  86  87
ATOM     87  C   UNL A   1      35.901  34.024  34.512  1.00  0.00     0.175 C 
BRANCH  87  88
ATOM     88  C   UNL A   1      37.255  33.942  33.825  1.00  0.00     0.233 C 
ATOM     89  O   UNL A   1      37.633  34.938  33.195  1.00  0.00    -0.274 OA
ATOM     90  N   UNL A   1      38.128  32.903  34.065  1.00  0.00    -0.337 N 
ATOM     91  C   UNL A   1      37.814  31.522  34.431  1.00  0.00     0.148 C 
ATOM     92  C   UNL A   1      39.576  33.153  34.033  1.00  0.00     0.148 C 
ATOM     93  C   UNL A   1      38.456  31.174  35.773  1.00  0.00     0.181 C 
ATOM     94  C   UNL A   1      40.175  32.773  35.398  1.00  0.00     0.181 C 
ATOM     95  O   UNL A   1      39.872  31.410  35.743  1.00  0.00    -0.378 OA
ENDBRANCH  87  88
ENDBRANCH  86  87
ENDBRANCH  83  86
ENDBRANCH  77  80
ENDBRANCH  75  76
ENDBRANCH   1  75
TORSDOF 16
ENDMDL
MODEL 2
REMARK VINA RESULT:     -10.8      0.724      8.340
REMARK SMILES O=C(NCCCNC(=O)c1cc(SCC(=O)N2CCOCC2)ccn1)c1ccc(-c2c3nc(c(-c4c(F)cc(S(=O)(=O)[O-])cc4F)c4ccc([nH]4)c(-c4c(F)cc(S(=O)(=O)[O-])cc4F)c4nc(c(-c5c(F)cc(S(=O)(=O)[O-])cc5F)c5ccc2[nH]5)C=C4)C=C3)cc1
REMARK SMILES IDX 5 1 4 2 3 3 1 4 2 5 26 7 27 8 91 9 28 10 90 11 29 12 30 13
REMARK SMILES IDX 31 14 84 15 32 16 89 17 83 18 85 19 33 20 88 21 82 22 81 23
REMARK SMILES IDX 34 25 68 26 47 27 67 28 48 29 51 30 66 31 86 32 49 33 50 34
REMARK SMILES IDX 65 36 87 37 52 38 35 39 36 40 45 41 37 42 38 43 44 44 46 45
REMARK SMILES IDX 39 46 40 47 41 48 42 49 43 50 69 51 70 52 79 53 71 54 72 55
REMARK SMILES IDX 78 56 80 57 73 58 74 59 75 60 76 61 77 62 53 63 54 64 63 65
REMARK SMILES IDX 55 66 56 67 62 68 64 69 57 70 58 71 59 72 60 73 61 74 6 75
REMARK SMILES IDX 7 76 8 77 9 79 10 80 11 81 25 82 12 83 24 84 23 85 13 86
REMARK SMILES IDX 14 87 15 88 16 89 17 90 18 91 22 92 19 93 21 94 20 95
REMARK H PARENT 3 6 85 24 51 35 7 78
REMARK Flexibility Score: inf
ROOT
ATOM      1  C   UNL A   1      35.441  33.259  28.231  1.00  0.00     0.042 C 
ENDROOT
BRANCH   1   2
ATOM      2  C   UNL A   1      34.862  32.295  29.253  1.00  0.00     0.118 C 
BRANCH   2   3
ATOM      3  N   UNL A   1      34.248  31.125  28.638  1.00  0.00    -0.352 N 
ATOM      4  O   UNL A   1      34.129  29.192  27.493  1.00  0.00    -0.269 OA
ATOM      5  C   UNL A   1      34.818  29.979  28.140  1.00  0.00     0.251 C 
ATOM      6  H   UNL A   1      33.267  31.163  28.566  1.00  0.00     0.163 HD
BRANCH   5   7
ATOM      7  C   UNL A   1      36.253  29.700  28.354  1.00  0.00     0.039 A 
ATOM      8  C   UNL A   1      37.187  29.919  27.339  1.00  0.00     0.014 A 
ATOM      9  C   UNL A   1      36.679  29.236  29.602  1.00  0.00     0.014 A 
ATOM     10  C   UNL A   1      38.507  29.523  27.513  1.00  0.00     0.010 A 
ATOM     11  C   UNL A   1      38.029  28.938  29.811  1.00  0.00     0.010 A 
ATOM     12  C   UNL A   1      38.949  29.053  28.758  1.00  0.00    -0.014 A 
BRANCH  12  13
ATOM     13  C   UNL A   1      40.393  28.774  28.956  1.00  0.00     0.031 A 
ATOM     14  C   UNL A   1      40.992  27.450  28.574  1.00  0.00     0.074 A 
ATOM     15  C   UNL A   1      41.166  29.749  29.478  1.00  0.00     0.049 A 
ATOM     16  N   UNL A   1      42.230  27.045  28.693  1.00  0.00    -0.248 NA
ATOM     17  C   UNL A   1      40.087  26.447  27.993  1.00  0.00     0.031 C 
ATOM     18  C   UNL A   1      40.684  31.068  29.899  1.00  0.00     0.029 A 
ATOM     19  N   UNL A   1      42.511  29.791  29.733  1.00  0.00    -0.354 N 
ATOM     20  C   UNL A   1      42.252  25.737  28.225  1.00  0.00     0.074 A 
ATOM     21  C   UNL A   1      40.898  25.407  27.836  1.00  0.00     0.031 C 
ATOM     22  C   UNL A   1      41.723  31.802  30.323  1.00  0.00     0.029 A 
ATOM     23  C   UNL A   1      42.929  30.986  30.268  1.00  0.00     0.049 A 
ATOM     24  H   UNL A   1      43.119  29.039  29.551  1.00  0.00     0.167 HD
ATOM     25  C   UNL A   1      43.309  24.895  28.126  1.00  0.00     0.037 A 
ATOM     26  C   UNL A   1      44.144  31.377  30.696  1.00  0.00     0.037 A 
ATOM     27  C   UNL A   1      44.657  25.246  28.497  1.00  0.00     0.049 A 
ATOM     28  C   UNL A   1      45.292  30.418  30.592  1.00  0.00     0.074 A 
ATOM     29  C   UNL A   1      45.806  24.482  28.386  1.00  0.00     0.029 A 
ATOM     30  N   UNL A   1      45.037  26.458  29.056  1.00  0.00    -0.354 N 
ATOM     31  N   UNL A   1      45.301  29.198  30.110  1.00  0.00    -0.248 NA
ATOM     32  C   UNL A   1      46.591  30.880  31.095  1.00  0.00     0.031 C 
ATOM     33  C   UNL A   1      46.872  25.214  28.921  1.00  0.00     0.029 A 
ATOM     34  C   UNL A   1      46.397  26.452  29.322  1.00  0.00     0.049 A 
ATOM     35  H   UNL A   1      44.430  27.212  29.237  1.00  0.00     0.167 HD
ATOM     36  C   UNL A   1      46.608  28.748  30.244  1.00  0.00     0.074 A 
ATOM     37  C   UNL A   1      47.365  29.835  30.832  1.00  0.00     0.031 C 
ATOM     38  C   UNL A   1      47.133  27.543  29.912  1.00  0.00     0.037 A 
BRANCH  25  39
ATOM     39  C   UNL A   1      43.057  23.504  27.612  1.00  0.00     0.058 A 
ATOM     40  C   UNL A   1      42.585  22.479  28.447  1.00  0.00     0.135 A 
ATOM     41  C   UNL A   1      43.237  23.206  26.250  1.00  0.00     0.135 A 
ATOM     42  F   UNL A   1      42.407  22.704  29.759  1.00  0.00    -0.206 F 
ATOM     43  C   UNL A   1      42.320  21.205  27.956  1.00  0.00     0.059 A 
ATOM     44  C   UNL A   1      42.957  21.945  25.734  1.00  0.00     0.059 A 
ATOM     45  F   UNL A   1      43.686  24.149  25.408  1.00  0.00    -0.206 F 
ATOM     46  C   UNL A   1      42.510  20.946  26.597  1.00  0.00     0.060 A 
BRANCH  46  47
ATOM     47  S   UNL A   1      42.156  19.289  25.975  1.00  0.00     0.124 S 
ATOM     48  O   UNL A   1      42.939  19.267  24.743  1.00  0.00    -0.237 OA
ATOM     49  O   UNL A   1      42.650  18.436  27.053  1.00  0.00    -0.237 OA
ATOM     50  O   UNL A   1      40.708  19.293  25.797  1.00  0.00    -0.744 OA
ENDBRANCH  46  47
ENDBRANCH  25  39
BRANCH  26  51
ATOM     51  C   UNL A   1      44.315  32.732  31.281  1.00  0.00     0.058 A 
ATOM     52  C   UNL A   1      44.585  33.843  30.470  1.00  0.00     0.135 A 
ATOM     53  C   UNL A   1      44.175  32.947  32.662  1.00  0.00     0.135 A 
ATOM     54  F   UNL A   1      44.730  33.687  29.145  1.00  0.00    -0.206 F 
ATOM     55  C   UNL A   1      44.721  35.119  31.007  1.00  0.00     0.059 A 
ATOM     56  C   UNL A   1      44.279  34.216  33.218  1.00  0.00     0.059 A 
ATOM     57  F   UNL A   1      43.896  31.917  33.478  1.00  0.00    -0.206 F 
ATOM     58  C   UNL A   1      44.562  35.295  32.383  1.00  0.00     0.060 A 
BRANCH  58  59
ATOM     59  S   UNL A   1      44.687  36.962  33.066  1.00  0.00     0.124 S 
ATOM     60  O   UNL A   1      45.278  36.697  34.373  1.00  0.00    -0.237 OA
ATOM     61  O   UNL A   1      45.552  37.629  32.097  1.00  0.00    -0.237 OA
ATOM     62  O   UNL A   1      43.303  37.423  33.079  1.00  0.00    -0.744 OA
ENDBRANCH  58  59
ENDBRANCH  26  51
BRANCH  38  63
ATOM     63  C   UNL A   1      48.599  27.343  30.166  1.00  0.00     0.058 A 
ATOM     64  C   UNL A   1      49.564  27.715  29.219  1.00  0.00     0.135 A 
ATOM     65  C   UNL A   1      49.043  26.820  31.391  1.00  0.00     0.135 A 
ATOM     66  F   UNL A   1      49.188  28.209  28.029  1.00  0.00    -0.206 F 
ATOM     67  C   UNL A   1      50.924  27.558  29.469  1.00  0.00     0.059 A 
ATOM     68  C   UNL A   1      50.399  26.677  31.672  1.00  0.00     0.059 A 
ATOM     69  F   UNL A   1      48.159  26.455  32.333  1.00  0.00    -0.206 F 
ATOM     70  C   UNL A   1      51.330  27.040  30.700  1.00  0.00     0.060 A 
BRANCH  70  71
ATOM     71  S   UNL A   1      53.098  26.882  31.031  1.00  0.00     0.124 S 
ATOM     72  O   UNL A   1      53.584  26.330  29.770  1.00  0.00    -0.237 OA
ATOM     73  O   UNL A   1      53.489  28.260  31.312  1.00  0.00    -0.237 OA
ATOM     74  O   UNL A   1      53.150  25.976  32.175  1.00  0.00    -0.744 OA
ENDBRANCH  70  71
ENDBRANCH  38  63
ENDBRANCH  12  13
ENDBRANCH   5   7
ENDBRANCH   2   3
ENDBRANCH   1   2
BRANCH   1  75
ATOM     75  C   UNL A   1      35.294  34.718  28.622  1.00  0.00     0.118 C 
BRANCH  75  76
ATOM     76  N   UNL A   1      33.970  35.260  28.351  1.00  0.00    -0.351 N 
ATOM     77  C   UNL A   1      33.093  35.882  29.211  1.00  0.00     0.269 C 
ATOM     78  H   UNL A   1      33.658  35.168  27.422  1.00  0.00     0.163 HD
ATOM     79  O   UNL A   1      31.995  36.250  28.800  1.00  0.00    -0.268 OA
BRANCH  77  80
ATOM     80  C   UNL A   1      33.486  36.103  30.630  1.00  0.00     0.129 A 
ATOM     81  C   UNL A   1      34.046  35.062  31.368  1.00  0.00     0.049 A 
ATOM     82  N   UNL A   1      33.209  37.331  31.133  1.00  0.00    -0.251 NA
ATOM     83  C   UNL A   1      34.234  35.260  32.728  1.00  0.00     0.012 A 
ATOM     84  C   UNL A   1      33.471  37.518  32.436  1.00  0.00     0.113 A 
ATOM     85  C   UNL A   1      33.962  36.524  33.263  1.00  0.00     0.035 A 
BRANCH  83  86
ATOM     86  S   UNL A   1      34.802  34.029  33.879  1.00  0.00    -0.116 SA
BRANCH  86  87
ATOM     87  C   UNL A   1      36.324  33.342  33.182  1.00  0.00     0.175 C 
BRANCH  87  88
ATOM     88  C   UNL A   1      37.683  33.768  33.713  1.00  0.00     0.233 C 
ATOM     89  O   UNL A   1      37.973  34.969  33.632  1.00  0.00    -0.274 OA
ATOM     90  N   UNL A   1      38.473  32.915  34.452  1.00  0.00    -0.337 N 
ATOM     91  C   UNL A   1      38.546  31.456  34.379  1.00  0.00     0.148 C 
ATOM     92  C   UNL A   1      39.331  33.460  35.513  1.00  0.00     0.148 C 
ATOM     93  C   UNL A   1      38.192  30.842  35.732  1.00  0.00     0.181 C 
ATOM     94  C   UNL A   1      38.947  32.801  36.849  1.00  0.00     0.181 C 
ATOM     95  O   UNL A   1      39.033  31.367  36.770  1.00  0.00    -0.378 OA
ENDBRANCH  87  88
ENDBRANCH  86  87
ENDBRANCH  83  86
ENDBRANCH  77  80
ENDBRANCH  75  76
ENDBRANCH   1  75
TORSDOF 16
ENDMDL
MODEL 3
REMARK VINA RESULT:     -10.8      4.374     12.910
REMARK SMILES O=C(NCCCNC(=O)c1cc(SCC(=O)N2CCOCC2)ccn1)c1ccc(-c2c3nc(c(-c4c(F)cc(S(=O)(=O)[O-])cc4F)c4ccc([nH]4)c(-c4c(F)cc(S(=O)(=O)[O-])cc4F)c4nc(c(-c5c(F)cc(S(=O)(=O)[O-])cc5F)c5ccc2[nH]5)C=C4)C=C3)cc1
REMARK SMILES IDX 5 1 4 2 3 3 1 4 2 5 26 7 27 8 91 9 28 10 90 11 29 12 30 13
REMARK SMILES IDX 31 14 84 15 32 16 89 17 83 18 85 19 33 20 88 21 82 22 81 23
REMARK SMILES IDX 34 25 68 26 47 27 67 28 48 29 51 30 66 31 86 32 49 33 50 34
REMARK SMILES IDX 65 36 87 37 52 38 35 39 36 40 45 41 37 42 38 43 44 44 46 45
REMARK SMILES IDX 39 46 40 47 41 48 42 49 43 50 69 51 70 52 79 53 71 54 72 55
REMARK SMILES IDX 78 56 80 57 73 58 74 59 75 60 76 61 77 62 53 63 54 64 63 65
REMARK SMILES IDX 55 66 56 67 62 68 64 69 57 70 58 71 59 72 60 73 61 74 6 75
REMARK SMILES IDX 7 76 8 77 9 79 10 80 11 81 25 82 12 83 24 84 23 85 13 86
REMARK SMILES IDX 14 87 15 88 16 89 17 90 18 91 22 92 19 93 21 94 20 95
REMARK H PARENT 3 6 85 24 51 35 7 78
REMARK Flexibility Score: inf
ROOT
ATOM      1  C   UNL A   1      40.854  21.455  27.562  1.00  0.00     0.042 C 
ENDROOT
BRANCH   1   2
ATOM      2  C   UNL A   1      41.388  22.852  27.828  1.00  0.00     0.118 C 
BRANCH   2   3
ATOM      3  N   UNL A   1      41.602  23.616  26.605  1.00  0.00    -0.352 N 
ATOM      4  O   UNL A   1      41.550  25.384  25.216  1.00  0.00    -0.269 OA
ATOM      5  C   UNL A   1      41.508  24.966  26.371  1.00  0.00     0.251 C 
ATOM      6  H   UNL A   1      41.852  23.077  25.820  1.00  0.00     0.163 HD
BRANCH   5   7
ATOM      7  C   UNL A   1      41.332  25.912  27.493  1.00  0.00     0.039 A 
ATOM      8  C   UNL A   1      42.256  26.934  27.723  1.00  0.00     0.014 A 
ATOM      9  C   UNL A   1      40.208  25.793  28.316  1.00  0.00     0.014 A 
ATOM     10  C   UNL A   1      42.146  27.725  28.859  1.00  0.00     0.010 A 
ATOM     11  C   UNL A   1      40.042  26.660  29.399  1.00  0.00     0.010 A 
ATOM     12  C   UNL A   1      41.026  27.616  29.696  1.00  0.00    -0.014 A 
BRANCH  12  13
ATOM     13  C   UNL A   1      40.865  28.571  30.820  1.00  0.00     0.031 A 
ATOM     14  C   UNL A   1      41.736  28.493  32.041  1.00  0.00     0.074 A 
ATOM     15  C   UNL A   1      39.921  29.528  30.714  1.00  0.00     0.049 A 
ATOM     16  N   UNL A   1      41.717  29.243  33.113  1.00  0.00    -0.248 NA
ATOM     17  C   UNL A   1      42.757  27.433  32.071  1.00  0.00     0.031 C 
ATOM     18  C   UNL A   1      39.007  29.686  29.578  1.00  0.00     0.029 A 
ATOM     19  N   UNL A   1      39.577  30.551  31.558  1.00  0.00    -0.354 N 
ATOM     20  C   UNL A   1      42.700  28.737  33.954  1.00  0.00     0.074 A 
ATOM     21  C   UNL A   1      43.288  27.602  33.277  1.00  0.00     0.031 C 
ATOM     22  C   UNL A   1      38.236  30.763  29.778  1.00  0.00     0.029 A 
ATOM     23  C   UNL A   1      38.550  31.331  31.083  1.00  0.00     0.049 A 
ATOM     24  H   UNL A   1      40.021  30.710  32.422  1.00  0.00     0.167 HD
ATOM     25  C   UNL A   1      43.076  29.186  35.176  1.00  0.00     0.037 A 
ATOM     26  C   UNL A   1      37.910  32.374  31.644  1.00  0.00     0.037 A 
ATOM     27  C   UNL A   1      42.495  30.332  35.828  1.00  0.00     0.049 A 
ATOM     28  C   UNL A   1      38.336  32.837  33.006  1.00  0.00     0.074 A 
ATOM     29  C   UNL A   1      42.842  30.899  37.043  1.00  0.00     0.029 A 
ATOM     30  N   UNL A   1      41.443  31.084  35.325  1.00  0.00    -0.354 N 
ATOM     31  N   UNL A   1      39.294  32.370  33.769  1.00  0.00    -0.248 NA
ATOM     32  C   UNL A   1      37.592  33.961  33.587  1.00  0.00     0.031 C 
ATOM     33  C   UNL A   1      41.970  31.963  37.295  1.00  0.00     0.029 A 
ATOM     34  C   UNL A   1      41.109  32.091  36.217  1.00  0.00     0.049 A 
ATOM     35  H   UNL A   1      40.998  30.926  34.460  1.00  0.00     0.167 HD
ATOM     36  C   UNL A   1      39.275  33.148  34.919  1.00  0.00     0.074 A 
ATOM     37  C   UNL A   1      38.223  34.130  34.742  1.00  0.00     0.031 C 
ATOM     38  C   UNL A   1      40.055  33.056  36.023  1.00  0.00     0.037 A 
BRANCH  25  39
ATOM     39  C   UNL A   1      44.156  28.431  35.902  1.00  0.00     0.058 A 
ATOM     40  C   UNL A   1      43.865  27.347  36.745  1.00  0.00     0.135 A 
ATOM     41  C   UNL A   1      45.508  28.763  35.707  1.00  0.00     0.135 A 
ATOM     42  F   UNL A   1      42.590  26.995  36.977  1.00  0.00    -0.206 F 
ATOM     43  C   UNL A   1      44.872  26.633  37.385  1.00  0.00     0.059 A 
ATOM     44  C   UNL A   1      46.533  28.048  36.319  1.00  0.00     0.059 A 
ATOM     45  F   UNL A   1      45.843  29.790  34.911  1.00  0.00    -0.206 F 
ATOM     46  C   UNL A   1      46.205  26.991  37.167  1.00  0.00     0.060 A 
BRANCH  46  47
ATOM     47  S   UNL A   1      47.500  26.049  38.000  1.00  0.00     0.124 S 
ATOM     48  O   UNL A   1      47.709  24.950  37.063  1.00  0.00    -0.237 OA
ATOM     49  O   UNL A   1      48.587  27.020  38.088  1.00  0.00    -0.237 OA
ATOM     50  O   UNL A   1      46.890  25.680  39.273  1.00  0.00    -0.744 OA
ENDBRANCH  46  47
ENDBRANCH  25  39
BRANCH  26  51
ATOM     51  C   UNL A   1      36.788  33.023  30.919  1.00  0.00     0.058 A 
ATOM     52  C   UNL A   1      35.455  32.768  31.269  1.00  0.00     0.135 A 
ATOM     53  C   UNL A   1      37.030  33.943  29.885  1.00  0.00     0.135 A 
ATOM     54  F   UNL A   1      35.173  31.897  32.249  1.00  0.00    -0.206 F 
ATOM     55  C   UNL A   1      34.399  33.393  30.613  1.00  0.00     0.059 A 
ATOM     56  C   UNL A   1      35.993  34.599  29.233  1.00  0.00     0.059 A 
ATOM     57  F   UNL A   1      38.291  34.235  29.527  1.00  0.00    -0.206 F 
ATOM     58  C   UNL A   1      34.680  34.310  29.598  1.00  0.00     0.060 A 
BRANCH  58  59
ATOM     59  S   UNL A   1      33.307  35.157  28.787  1.00  0.00     0.124 S 
ATOM     60  O   UNL A   1      32.523  35.604  29.932  1.00  0.00    -0.237 OA
ATOM     61  O   UNL A   1      33.991  36.203  28.034  1.00  0.00    -0.237 OA
ATOM     62  O   UNL A   1      32.699  34.108  27.975  1.00  0.00    -0.744 OA
ENDBRANCH  58  59
ENDBRANCH  26  51
BRANCH  38  63
ATOM     63  C   UNL A   1      39.808  34.052  37.120  1.00  0.00     0.058 A 
ATOM     64  C   UNL A   1      38.934  33.773  38.180  1.00  0.00     0.135 A 
ATOM     65  C   UNL A   1      40.492  35.279  37.133  1.00  0.00     0.135 A 
ATOM     66  F   UNL A   1      38.249  32.619  38.205  1.00  0.00    -0.206 F 
ATOM     67  C   UNL A   1      38.730  34.684  39.211  1.00  0.00     0.059 A 
ATOM     68  C   UNL A   1      40.322  36.194  38.168  1.00  0.00     0.059 A 
ATOM     69  F   UNL A   1      41.344  35.591  36.145  1.00  0.00    -0.206 F 
ATOM     70  C   UNL A   1      39.431  35.891  39.196  1.00  0.00     0.060 A 
BRANCH  70  71
ATOM     71  S   UNL A   1      39.192  37.048  40.562  1.00  0.00     0.124 S 
ATOM     72  O   UNL A   1      40.544  37.566  40.747  1.00  0.00    -0.237 OA
ATOM     73  O   UNL A   1      38.223  37.990  40.009  1.00  0.00    -0.237 OA
ATOM     74  O   UNL A   1      38.689  36.202  41.640  1.00  0.00    -0.744 OA
ENDBRANCH  70  71
ENDBRANCH  38  63
ENDBRANCH  12  13
ENDBRANCH   5   7
ENDBRANCH   2   3
ENDBRANCH   1   2
BRANCH   1  75
ATOM     75  C   UNL A   1      41.343  20.858  26.256  1.00  0.00     0.118 C 
BRANCH  75  76
ATOM     76  N   UNL A   1      41.468  19.408  26.293  1.00  0.00    -0.351 N 
ATOM     77  C   UNL A   1      42.556  18.621  25.988  1.00  0.00     0.269 C 
ATOM     78  H   UNL A   1      40.660  18.921  26.575  1.00  0.00     0.163 HD
ATOM     79  O   UNL A   1      42.461  17.398  26.051  1.00  0.00    -0.268 OA
BRANCH  77  80
ATOM     80  C   UNL A   1      43.838  19.264  25.587  1.00  0.00     0.129 A 
ATOM     81  C   UNL A   1      43.867  20.618  25.259  1.00  0.00     0.049 A 
ATOM     82  N   UNL A   1      44.913  18.440  25.516  1.00  0.00    -0.251 NA
ATOM     83  C   UNL A   1      45.040  21.131  24.725  1.00  0.00     0.012 A 
ATOM     84  C   UNL A   1      46.055  18.982  25.066  1.00  0.00     0.113 A 
ATOM     85  C   UNL A   1      46.161  20.297  24.652  1.00  0.00     0.035 A 
BRANCH  83  86
ATOM     86  S   UNL A   1      45.254  22.786  24.112  1.00  0.00    -0.116 SA
BRANCH  86  87
ATOM     87  C   UNL A   1      45.133  23.881  25.546  1.00  0.00     0.175 C 
BRANCH  87  88
ATOM     88  C   UNL A   1      46.297  24.031  26.511  1.00  0.00     0.233 C 
ATOM     89  O   UNL A   1      47.412  24.264  26.025  1.00  0.00    -0.274 OA
ATOM     90  N   UNL A   1      46.104  24.126  27.872  1.00  0.00    -0.337 N 
ATOM     91  C   UNL A   1      45.028  23.548  28.678  1.00  0.00     0.148 C 
ATOM     92  C   UNL A   1      47.016  24.952  28.677  1.00  0.00     0.148 C 
ATOM     93  C   UNL A   1      44.263  24.652  29.405  1.00  0.00     0.181 C 
ATOM     94  C   UNL A   1      46.197  26.035  29.400  1.00  0.00     0.181 C 
ATOM     95  O   UNL A   1      45.150  25.456  30.197  1.00  0.00    -0.378 OA
ENDBRANCH  87  88
ENDBRANCH  86  87
ENDBRANCH  83  86
ENDBRANCH  77  80
ENDBRANCH  75  76
ENDBRANCH   1  75
TORSDOF 16
ENDMDL
