MODEL 1
REMARK VINA RESULT:     -11.7      0.000      0.000
REMARK SMILES CC[C@@](C)(NC(=O)Nc1cccc(C[NH2+]C)c1)C(=O)NCCCNC(=O)c1ccc(-c2c3nc(c(-c4c(F)cc(S(=O)(=O)[O-])cc4F)c4ccc([nH]4)c(-c4c(F)cc(S(=O)(=O)[O-])cc4F)c4nc(c(-c5c(F)cc(S(=O)(=O)[O-])cc5F)c5ccc2[nH]5)C=C4)C=C3)cc1
REMARK SMILES IDX 21 1 20 2 18 3 19 4 3 6 4 7 2 8 1 9 5 10 6 11 7 13 8 14 9 16
REMARK SMILES IDX 10 17 17 18 11 19 13 20 12 21 14 22 15 23 16 24 22 27 23 28
REMARK SMILES IDX 24 29 25 30 26 32 27 33 28 34 92 35 29 36 91 37 30 38 31 39
REMARK SMILES IDX 32 40 85 41 33 42 90 43 84 44 86 45 34 46 89 47 83 48 82 49
REMARK SMILES IDX 35 51 69 52 48 53 68 54 49 55 52 56 67 57 87 58 50 59 51 60
REMARK SMILES IDX 66 62 88 63 53 64 36 65 37 66 46 67 38 68 39 69 45 70 47 71
REMARK SMILES IDX 40 72 41 73 42 74 43 75 44 76 70 77 71 78 80 79 72 80 73 81
REMARK SMILES IDX 79 82 81 83 74 84 75 85 76 86 77 87 78 88 54 89 55 90 64 91
REMARK SMILES IDX 56 92 57 93 63 94 65 95 58 96 59 97 60 98 61 99 62 100
REMARK H PARENT 20 5 5 12 8 15 15 25 15 26 24 31 86 50 52 61
REMARK Flexibility Score: inf
ROOT
ATOM      1  C   UNL A   1      36.276  22.399  25.851  1.00  0.00     0.117 C 
ENDROOT
BRANCH   1   2
ATOM      2  N   UNL A   1      34.959  22.969  25.956  1.00  0.00    -0.354 N 
ATOM      3  C   UNL A   1      33.884  22.610  26.751  1.00  0.00     0.245 C 
ATOM      4  O   UNL A   1      33.878  22.660  27.973  1.00  0.00    -0.272 OA
ATOM      5  H   UNL A   1      34.794  23.740  25.365  1.00  0.00     0.163 HD
BRANCH   3   6
ATOM      6  C   UNL A   1      32.819  21.883  25.883  1.00  0.00     0.117 C 
ATOM      7  C   UNL A   1      33.069  22.673  24.554  1.00  0.00     0.045 C 
BRANCH   6   8
ATOM      8  C   UNL A   1      32.830  20.389  25.510  1.00  0.00     0.035 C 
ATOM      9  C   UNL A   1      32.540  19.990  24.082  1.00  0.00     0.007 C 
ENDBRANCH   6   8
BRANCH   6  10
ATOM     10  N   UNL A   1      31.461  22.201  26.440  1.00  0.00    -0.324 N 
ATOM     11  C   UNL A   1      30.790  23.285  26.854  1.00  0.00     0.320 C 
ATOM     12  H   UNL A   1      30.912  21.388  26.525  1.00  0.00     0.166 HD
ATOM     13  O   UNL A   1      29.765  23.043  27.503  1.00  0.00    -0.248 OA
ATOM     14  N   UNL A   1      31.087  24.584  26.675  1.00  0.00    -0.308 N 
ATOM     15  H   UNL A   1      30.507  25.115  27.267  1.00  0.00     0.171 HD
BRANCH  14  16
ATOM     16  C   UNL A   1      31.918  25.474  25.955  1.00  0.00     0.043 A 
ATOM     17  C   UNL A   1      31.680  25.561  24.581  1.00  0.00     0.026 A 
ATOM     18  C   UNL A   1      32.995  26.220  26.419  1.00  0.00     0.035 A 
ATOM     19  C   UNL A   1      32.367  26.482  23.775  1.00  0.00     0.003 A 
ATOM     20  C   UNL A   1      33.574  27.277  25.691  1.00  0.00     0.008 A 
ATOM     21  C   UNL A   1      33.276  27.379  24.340  1.00  0.00     0.010 A 
BRANCH  20  22
ATOM     22  C   UNL A   1      34.260  28.386  26.465  1.00  0.00     0.297 C 
BRANCH  22  23
ATOM     23  N   UNL A   1      33.864  29.768  26.206  1.00  0.00    -0.345 N 
ATOM     24  C   UNL A   1      32.559  29.978  26.857  1.00  0.00     0.331 C 
ATOM     25  H   UNL A   1      33.782  29.925  25.200  1.00  0.00     0.346 HD
ATOM     26  H   UNL A   1      34.559  30.419  26.571  1.00  0.00     0.346 HD
ENDBRANCH  22  23
ENDBRANCH  20  22
ENDBRANCH  14  16
ENDBRANCH   6  10
ENDBRANCH   3   6
ENDBRANCH   1   2
BRANCH   1  27
ATOM     27  C   UNL A   1      37.267  23.504  25.430  1.00  0.00     0.042 C 
BRANCH  27  28
ATOM     28  C   UNL A   1      38.214  24.035  26.516  1.00  0.00     0.118 C 
BRANCH  28  29
ATOM     29  N   UNL A   1      39.612  23.788  26.225  1.00  0.00    -0.352 N 
ATOM     30  C   UNL A   1      40.736  24.474  26.629  1.00  0.00     0.251 C 
ATOM     31  H   UNL A   1      39.785  23.008  25.650  1.00  0.00     0.163 HD
ATOM     32  O   UNL A   1      41.820  24.189  26.147  1.00  0.00    -0.269 OA
BRANCH  30  33
ATOM     33  C   UNL A   1      40.630  25.577  27.615  1.00  0.00     0.039 A 
ATOM     34  C   UNL A   1      39.604  25.523  28.562  1.00  0.00     0.014 A 
ATOM     35  C   UNL A   1      41.496  26.674  27.592  1.00  0.00     0.014 A 
ATOM     36  C   UNL A   1      39.486  26.530  29.525  1.00  0.00     0.010 A 
ATOM     37  C   UNL A   1      41.408  27.654  28.588  1.00  0.00     0.010 A 
ATOM     38  C   UNL A   1      40.408  27.589  29.572  1.00  0.00    -0.014 A 
BRANCH  38  39
ATOM     39  C   UNL A   1      40.348  28.609  30.658  1.00  0.00     0.031 A 
ATOM     40  C   UNL A   1      41.237  28.501  31.870  1.00  0.00     0.074 A 
ATOM     41  C   UNL A   1      39.455  29.618  30.578  1.00  0.00     0.049 A 
ATOM     42  N   UNL A   1      41.285  29.267  32.931  1.00  0.00    -0.248 NA
ATOM     43  C   UNL A   1      42.185  27.377  31.899  1.00  0.00     0.031 C 
ATOM     44  C   UNL A   1      38.511  29.823  29.478  1.00  0.00     0.029 A 
ATOM     45  N   UNL A   1      39.187  30.655  31.439  1.00  0.00    -0.354 N 
ATOM     46  C   UNL A   1      42.257  28.713  33.759  1.00  0.00     0.074 A 
ATOM     47  C   UNL A   1      42.740  27.520  33.095  1.00  0.00     0.031 C 
ATOM     48  C   UNL A   1      37.781  30.925  29.722  1.00  0.00     0.029 A 
ATOM     49  C   UNL A   1      38.173  31.482  31.013  1.00  0.00     0.049 A 
ATOM     50  H   UNL A   1      39.674  30.793  32.283  1.00  0.00     0.167 HD
ATOM     51  C   UNL A   1      42.719  29.166  34.950  1.00  0.00     0.037 A 
ATOM     52  C   UNL A   1      37.608  32.558  31.598  1.00  0.00     0.037 A 
ATOM     53  C   UNL A   1      42.245  30.361  35.604  1.00  0.00     0.049 A 
ATOM     54  C   UNL A   1      38.119  33.027  32.934  1.00  0.00     0.074 A 
ATOM     55  C   UNL A   1      42.688  30.926  36.789  1.00  0.00     0.029 A 
ATOM     56  N   UNL A   1      41.220  31.171  35.138  1.00  0.00    -0.354 N 
ATOM     57  N   UNL A   1      39.081  32.524  33.671  1.00  0.00    -0.248 NA
ATOM     58  C   UNL A   1      37.472  34.211  33.517  1.00  0.00     0.031 C 
ATOM     59  C   UNL A   1      41.894  32.044  37.066  1.00  0.00     0.029 A 
ATOM     60  C   UNL A   1      40.997  32.214  36.024  1.00  0.00     0.049 A 
ATOM     61  H   UNL A   1      40.723  31.027  34.301  1.00  0.00     0.167 HD
ATOM     62  C   UNL A   1      39.174  33.348  34.788  1.00  0.00     0.074 A 
ATOM     63  C   UNL A   1      38.180  34.388  34.624  1.00  0.00     0.031 C 
ATOM     64  C   UNL A   1      40.010  33.251  35.852  1.00  0.00     0.037 A 
BRANCH  51  65
ATOM     65  C   UNL A   1      43.794  28.364  35.637  1.00  0.00     0.058 A 
ATOM     66  C   UNL A   1      43.485  27.335  36.541  1.00  0.00     0.135 A 
ATOM     67  C   UNL A   1      45.151  28.596  35.354  1.00  0.00     0.135 A 
ATOM     68  F   UNL A   1      42.207  27.074  36.858  1.00  0.00    -0.206 F 
ATOM     69  C   UNL A   1      44.480  26.587  37.163  1.00  0.00     0.059 A 
ATOM     70  C   UNL A   1      46.162  27.840  35.941  1.00  0.00     0.059 A 
ATOM     71  F   UNL A   1      45.506  29.563  34.494  1.00  0.00    -0.206 F 
ATOM     72  C   UNL A   1      45.816  26.848  36.857  1.00  0.00     0.060 A 
BRANCH  72  73
ATOM     73  S   UNL A   1      47.094  25.866  37.672  1.00  0.00     0.124 S 
ATOM     74  O   UNL A   1      46.623  24.508  37.417  1.00  0.00    -0.237 OA
ATOM     75  O   UNL A   1      48.299  26.265  36.952  1.00  0.00    -0.237 OA
ATOM     76  O   UNL A   1      47.024  26.303  39.063  1.00  0.00    -0.744 OA
ENDBRANCH  72  73
ENDBRANCH  51  65
BRANCH  52  77
ATOM     77  C   UNL A   1      36.494  33.276  30.916  1.00  0.00     0.058 A 
ATOM     78  C   UNL A   1      35.178  33.188  31.393  1.00  0.00     0.135 A 
ATOM     79  C   UNL A   1      36.723  34.065  29.779  1.00  0.00     0.135 A 
ATOM     80  F   UNL A   1      34.904  32.438  32.472  1.00  0.00    -0.206 F 
ATOM     81  C   UNL A   1      34.126  33.843  30.759  1.00  0.00     0.059 A 
ATOM     82  C   UNL A   1      35.693  34.753  29.144  1.00  0.00     0.059 A 
ATOM     83  F   UNL A   1      37.966  34.194  29.288  1.00  0.00    -0.206 F 
ATOM     84  C   UNL A   1      34.396  34.626  29.636  1.00  0.00     0.060 A 
BRANCH  84  85
ATOM     85  S   UNL A   1      33.031  35.512  28.851  1.00  0.00     0.124 S 
ATOM     86  O   UNL A   1      33.736  36.591  28.167  1.00  0.00    -0.237 OA
ATOM     87  O   UNL A   1      32.453  34.482  27.992  1.00  0.00    -0.237 OA
ATOM     88  O   UNL A   1      32.199  35.915  29.980  1.00  0.00    -0.744 OA
ENDBRANCH  84  85
ENDBRANCH  52  77
BRANCH  64  89
ATOM     89  C   UNL A   1      39.918  34.318  36.911  1.00  0.00     0.058 A 
ATOM     90  C   UNL A   1      40.626  35.527  36.812  1.00  0.00     0.135 A 
ATOM     91  C   UNL A   1      39.067  34.150  38.016  1.00  0.00     0.135 A 
ATOM     92  F   UNL A   1      41.459  35.740  35.781  1.00  0.00    -0.206 F 
ATOM     93  C   UNL A   1      40.513  36.518  37.783  1.00  0.00     0.059 A 
ATOM     94  C   UNL A   1      38.915  35.139  38.982  1.00  0.00     0.059 A 
ATOM     95  F   UNL A   1      38.358  33.018  38.157  1.00  0.00    -0.206 F 
ATOM     96  C   UNL A   1      39.652  36.317  38.863  1.00  0.00     0.060 A 
BRANCH  96  97
ATOM     97  S   UNL A   1      39.488  37.625  40.096  1.00  0.00     0.124 S 
ATOM     98  O   UNL A   1      40.822  38.217  40.077  1.00  0.00    -0.237 OA
ATOM     99  O   UNL A   1      38.421  38.450  39.536  1.00  0.00    -0.237 OA
ATOM    100  O   UNL A   1      39.139  36.904  41.316  1.00  0.00    -0.744 OA
ENDBRANCH  96  97
ENDBRANCH  64  89
ENDBRANCH  38  39
ENDBRANCH  30  33
ENDBRANCH  28  29
ENDBRANCH  27  28
ENDBRANCH   1  27
TORSDOF 18
ENDMDL
MODEL 2
REMARK VINA RESULT:     -11.7      4.613     10.452
REMARK SMILES CC[C@@](C)(NC(=O)Nc1cccc(C[NH2+]C)c1)C(=O)NCCCNC(=O)c1ccc(-c2c3nc(c(-c4c(F)cc(S(=O)(=O)[O-])cc4F)c4ccc([nH]4)c(-c4c(F)cc(S(=O)(=O)[O-])cc4F)c4nc(c(-c5c(F)cc(S(=O)(=O)[O-])cc5F)c5ccc2[nH]5)C=C4)C=C3)cc1
REMARK SMILES IDX 21 1 20 2 18 3 19 4 3 6 4 7 2 8 1 9 5 10 6 11 7 13 8 14 9 16
REMARK SMILES IDX 10 17 17 18 11 19 13 20 12 21 14 22 15 23 16 24 22 27 23 28
REMARK SMILES IDX 24 29 25 30 26 32 27 33 28 34 92 35 29 36 91 37 30 38 31 39
REMARK SMILES IDX 32 40 85 41 33 42 90 43 84 44 86 45 34 46 89 47 83 48 82 49
REMARK SMILES IDX 35 51 69 52 48 53 68 54 49 55 52 56 67 57 87 58 50 59 51 60
REMARK SMILES IDX 66 62 88 63 53 64 36 65 37 66 46 67 38 68 39 69 45 70 47 71
REMARK SMILES IDX 40 72 41 73 42 74 43 75 44 76 70 77 71 78 80 79 72 80 73 81
REMARK SMILES IDX 79 82 81 83 74 84 75 85 76 86 77 87 78 88 54 89 55 90 64 91
REMARK SMILES IDX 56 92 57 93 63 94 65 95 58 96 59 97 60 98 61 99 62 100
REMARK H PARENT 20 5 5 12 8 15 15 25 15 26 24 31 86 50 52 61
REMARK Flexibility Score: inf
ROOT
ATOM      1  C   UNL A   1      32.114  28.586  25.015  1.00  0.00     0.117 C 
ENDROOT
BRANCH   1   2
ATOM      2  N   UNL A   1      31.220  27.460  24.961  1.00  0.00    -0.354 N 
ATOM      3  C   UNL A   1      31.112  26.357  25.790  1.00  0.00     0.245 C 
ATOM      4  O   UNL A   1      30.797  26.405  26.971  1.00  0.00    -0.272 OA
ATOM      5  H   UNL A   1      30.580  27.476  24.212  1.00  0.00     0.163 HD
BRANCH   3   6
ATOM      6  C   UNL A   1      31.716  25.114  25.078  1.00  0.00     0.117 C 
ATOM      7  C   UNL A   1      32.962  24.933  26.009  1.00  0.00     0.045 C 
BRANCH   6   8
ATOM      8  C   UNL A   1      31.050  23.730  24.968  1.00  0.00     0.035 C 
ATOM      9  C   UNL A   1      30.569  23.047  26.227  1.00  0.00     0.007 C 
ENDBRANCH   6   8
BRANCH   6  10
ATOM     10  N   UNL A   1      32.142  25.522  23.697  1.00  0.00    -0.324 N 
ATOM     11  C   UNL A   1      33.126  25.227  22.837  1.00  0.00     0.320 C 
ATOM     12  H   UNL A   1      31.529  26.194  23.320  1.00  0.00     0.166 HD
ATOM     13  O   UNL A   1      33.246  26.019  21.895  1.00  0.00    -0.248 OA
ATOM     14  N   UNL A   1      34.001  24.207  22.871  1.00  0.00    -0.308 N 
ATOM     15  H   UNL A   1      34.709  24.389  22.212  1.00  0.00     0.171 HD
BRANCH  14  16
ATOM     16  C   UNL A   1      34.286  22.969  23.494  1.00  0.00     0.043 A 
ATOM     17  C   UNL A   1      35.614  22.764  23.876  1.00  0.00     0.026 A 
ATOM     18  C   UNL A   1      33.434  21.892  23.709  1.00  0.00     0.035 A 
ATOM     19  C   UNL A   1      36.003  21.622  24.595  1.00  0.00     0.003 A 
ATOM     20  C   UNL A   1      33.738  20.828  24.579  1.00  0.00     0.008 A 
ATOM     21  C   UNL A   1      35.054  20.679  24.994  1.00  0.00     0.010 A 
BRANCH  20  22
ATOM     22  C   UNL A   1      32.587  20.079  25.222  1.00  0.00     0.297 C 
BRANCH  22  23
ATOM     23  N   UNL A   1      32.891  18.989  26.147  1.00  0.00    -0.345 N 
ATOM     24  C   UNL A   1      32.680  17.727  25.417  1.00  0.00     0.331 C 
ATOM     25  H   UNL A   1      32.270  19.034  26.956  1.00  0.00     0.346 HD
ATOM     26  H   UNL A   1      33.852  19.057  26.482  1.00  0.00     0.346 HD
ENDBRANCH  22  23
ENDBRANCH  20  22
ENDBRANCH  14  16
ENDBRANCH   6  10
ENDBRANCH   3   6
ENDBRANCH   1   2
BRANCH   1  27
ATOM     27  C   UNL A   1      33.473  28.120  25.578  1.00  0.00     0.042 C 
BRANCH  27  28
ATOM     28  C   UNL A   1      33.733  28.390  27.068  1.00  0.00     0.118 C 
BRANCH  28  29
ATOM     29  N   UNL A   1      33.611  29.788  27.425  1.00  0.00    -0.352 N 
ATOM     30  C   UNL A   1      34.502  30.621  28.064  1.00  0.00     0.251 C 
ATOM     31  H   UNL A   1      32.757  30.208  27.172  1.00  0.00     0.163 HD
ATOM     32  O   UNL A   1      34.143  31.735  28.408  1.00  0.00    -0.269 OA
BRANCH  30  33
ATOM     33  C   UNL A   1      35.878  30.159  28.369  1.00  0.00     0.039 A 
ATOM     34  C   UNL A   1      36.838  30.225  27.356  1.00  0.00     0.014 A 
ATOM     35  C   UNL A   1      36.220  29.627  29.616  1.00  0.00     0.014 A 
ATOM     36  C   UNL A   1      38.153  29.823  27.611  1.00  0.00     0.010 A 
ATOM     37  C   UNL A   1      37.548  29.275  29.884  1.00  0.00     0.010 A 
ATOM     38  C   UNL A   1      38.533  29.376  28.887  1.00  0.00    -0.014 A 
BRANCH  38  39
ATOM     39  C   UNL A   1      39.954  29.045  29.192  1.00  0.00     0.031 A 
ATOM     40  C   UNL A   1      40.865  30.062  29.829  1.00  0.00     0.074 A 
ATOM     41  C   UNL A   1      40.444  27.834  28.853  1.00  0.00     0.049 A 
ATOM     42  N   UNL A   1      42.139  29.964  30.118  1.00  0.00    -0.248 NA
ATOM     43  C   UNL A   1      40.272  31.363  30.170  1.00  0.00     0.031 C 
ATOM     44  C   UNL A   1      39.682  26.768  28.201  1.00  0.00     0.029 A 
ATOM     45  N   UNL A   1      41.701  27.297  28.999  1.00  0.00    -0.354 N 
ATOM     46  C   UNL A   1      42.503  31.190  30.664  1.00  0.00     0.074 A 
ATOM     47  C   UNL A   1      41.325  32.031  30.622  1.00  0.00     0.031 C 
ATOM     48  C   UNL A   1      40.479  25.702  28.019  1.00  0.00     0.029 A 
ATOM     49  C   UNL A   1      41.820  26.019  28.501  1.00  0.00     0.049 A 
ATOM     50  H   UNL A   1      42.447  27.781  29.420  1.00  0.00     0.167 HD
ATOM     51  C   UNL A   1      43.700  31.575  31.172  1.00  0.00     0.037 A 
ATOM     52  C   UNL A   1      42.887  25.198  28.426  1.00  0.00     0.037 A 
ATOM     53  C   UNL A   1      44.869  30.732  31.224  1.00  0.00     0.049 A 
ATOM     54  C   UNL A   1      44.213  25.657  28.971  1.00  0.00     0.074 A 
ATOM     55  C   UNL A   1      46.112  31.018  31.765  1.00  0.00     0.029 A 
ATOM     56  N   UNL A   1      44.946  29.444  30.712  1.00  0.00    -0.354 N 
ATOM     57  N   UNL A   1      44.520  26.799  29.539  1.00  0.00    -0.248 NA
ATOM     58  C   UNL A   1      45.337  24.715  28.870  1.00  0.00     0.031 C 
ATOM     59  C   UNL A   1      46.955  29.926  31.531  1.00  0.00     0.029 A 
ATOM     60  C   UNL A   1      46.221  28.934  30.899  1.00  0.00     0.049 A 
ATOM     61  H   UNL A   1      44.204  28.964  30.279  1.00  0.00     0.167 HD
ATOM     62  C   UNL A   1      45.863  26.700  29.890  1.00  0.00     0.074 A 
ATOM     63  C   UNL A   1      46.305  25.384  29.482  1.00  0.00     0.031 C 
ATOM     64  C   UNL A   1      46.655  27.618  30.498  1.00  0.00     0.037 A 
BRANCH  51  65
ATOM     65  C   UNL A   1      43.815  32.977  31.711  1.00  0.00     0.058 A 
ATOM     66  C   UNL A   1      44.111  34.068  30.878  1.00  0.00     0.135 A 
ATOM     67  C   UNL A   1      43.584  33.241  33.072  1.00  0.00     0.135 A 
ATOM     68  F   UNL A   1      44.351  33.875  29.571  1.00  0.00    -0.206 F 
ATOM     69  C   UNL A   1      44.204  35.364  31.377  1.00  0.00     0.059 A 
ATOM     70  C   UNL A   1      43.641  34.533  33.588  1.00  0.00     0.059 A 
ATOM     71  F   UNL A   1      43.292  32.239  33.916  1.00  0.00    -0.206 F 
ATOM     72  C   UNL A   1      43.967  35.586  32.735  1.00  0.00     0.060 A 
BRANCH  72  73
ATOM     73  S   UNL A   1      44.090  37.273  33.365  1.00  0.00     0.124 S 
ATOM     74  O   UNL A   1      42.805  37.424  34.042  1.00  0.00    -0.237 OA
ATOM     75  O   UNL A   1      45.259  37.197  34.235  1.00  0.00    -0.237 OA
ATOM     76  O   UNL A   1      44.260  38.077  32.159  1.00  0.00    -0.744 OA
ENDBRANCH  72  73
ENDBRANCH  51  65
BRANCH  52  77
ATOM     77  C   UNL A   1      42.744  23.847  27.814  1.00  0.00     0.058 A 
ATOM     78  C   UNL A   1      42.875  23.663  26.429  1.00  0.00     0.135 A 
ATOM     79  C   UNL A   1      42.477  22.715  28.599  1.00  0.00     0.135 A 
ATOM     80  F   UNL A   1      43.120  24.715  25.632  1.00  0.00    -0.206 F 
ATOM     81  C   UNL A   1      42.731  22.409  25.842  1.00  0.00     0.059 A 
ATOM     82  C   UNL A   1      42.358  21.446  28.039  1.00  0.00     0.059 A 
ATOM     83  F   UNL A   1      42.355  22.833  29.930  1.00  0.00    -0.206 F 
ATOM     84  C   UNL A   1      42.476  21.306  26.658  1.00  0.00     0.060 A 
BRANCH  84  85
ATOM     85  S   UNL A   1      42.340  19.675  25.892  1.00  0.00     0.124 S 
ATOM     86  O   UNL A   1      43.309  19.779  24.806  1.00  0.00    -0.237 OA
ATOM     87  O   UNL A   1      42.707  18.790  26.993  1.00  0.00    -0.237 OA
ATOM     88  O   UNL A   1      40.940  19.611  25.486  1.00  0.00    -0.744 OA
ENDBRANCH  84  85
ENDBRANCH  52  77
BRANCH  64  89
ATOM     89  C   UNL A   1      48.077  27.224  30.797  1.00  0.00     0.058 A 
ATOM     90  C   UNL A   1      48.436  26.589  31.996  1.00  0.00     0.135 A 
ATOM     91  C   UNL A   1      49.088  27.438  29.845  1.00  0.00     0.135 A 
ATOM     92  F   UNL A   1      47.513  26.365  32.944  1.00  0.00    -0.206 F 
ATOM     93  C   UNL A   1      49.749  26.203  32.251  1.00  0.00     0.059 A 
ATOM     94  C   UNL A   1      50.401  27.034  30.065  1.00  0.00     0.059 A 
ATOM     95  F   UNL A   1      48.801  28.033  28.675  1.00  0.00    -0.206 F 
ATOM     96  C   UNL A   1      50.725  26.426  31.278  1.00  0.00     0.060 A 
BRANCH  96  97
ATOM     97  S   UNL A   1      52.416  25.889  31.608  1.00  0.00     0.124 S 
ATOM     98  O   UNL A   1      53.038  26.052  30.297  1.00  0.00    -0.237 OA
ATOM     99  O   UNL A   1      52.848  26.831  32.636  1.00  0.00    -0.237 OA
ATOM    100  O   UNL A   1      52.255  24.509  32.057  1.00  0.00    -0.744 OA
ENDBRANCH  96  97
ENDBRANCH  64  89
ENDBRANCH  38  39
ENDBRANCH  30  33
ENDBRANCH  28  29
ENDBRANCH  27  28
ENDBRANCH   1  27
TORSDOF 18
ENDMDL
MODEL 3
REMARK VINA RESULT:     -11.6      4.906      9.949
REMARK SMILES CC[C@@](C)(NC(=O)Nc1cccc(C[NH2+]C)c1)C(=O)NCCCNC(=O)c1ccc(-c2c3nc(c(-c4c(F)cc(S(=O)(=O)[O-])cc4F)c4ccc([nH]4)c(-c4c(F)cc(S(=O)(=O)[O-])cc4F)c4nc(c(-c5c(F)cc(S(=O)(=O)[O-])cc5F)c5ccc2[nH]5)C=C4)C=C3)cc1
REMARK SMILES IDX 21 1 20 2 18 3 19 4 3 6 4 7 2 8 1 9 5 10 6 11 7 13 8 14 9 16
REMARK SMILES IDX 10 17 17 18 11 19 13 20 12 21 14 22 15 23 16 24 22 27 23 28
REMARK SMILES IDX 24 29 25 30 26 32 27 33 28 34 92 35 29 36 91 37 30 38 31 39
REMARK SMILES IDX 32 40 85 41 33 42 90 43 84 44 86 45 34 46 89 47 83 48 82 49
REMARK SMILES IDX 35 51 69 52 48 53 68 54 49 55 52 56 67 57 87 58 50 59 51 60
REMARK SMILES IDX 66 62 88 63 53 64 36 65 37 66 46 67 38 68 39 69 45 70 47 71
REMARK SMILES IDX 40 72 41 73 42 74 43 75 44 76 70 77 71 78 80 79 72 80 73 81
REMARK SMILES IDX 79 82 81 83 74 84 75 85 76 86 77 87 78 88 54 89 55 90 64 91
REMARK SMILES IDX 56 92 57 93 63 94 65 95 58 96 59 97 60 98 61 99 62 100
REMARK H PARENT 20 5 5 12 8 15 15 25 15 26 24 31 86 50 52 61
REMARK Flexibility Score: inf
ROOT
ATOM      1  C   UNL A   1      31.987  28.275  25.445  1.00  0.00     0.117 C 
ENDROOT
BRANCH   1   2
ATOM      2  N   UNL A   1      32.138  27.276  24.421  1.00  0.00    -0.354 N 
ATOM      3  C   UNL A   1      31.274  26.277  24.005  1.00  0.00     0.245 C 
ATOM      4  O   UNL A   1      30.181  26.473  23.493  1.00  0.00    -0.272 OA
ATOM      5  H   UNL A   1      32.994  27.308  23.936  1.00  0.00     0.163 HD
BRANCH   3   6
ATOM      6  C   UNL A   1      31.776  24.906  24.539  1.00  0.00     0.117 C 
ATOM      7  C   UNL A   1      31.295  24.031  23.332  1.00  0.00     0.045 C 
BRANCH   6   8
ATOM      8  C   UNL A   1      33.246  24.524  24.794  1.00  0.00     0.035 C 
ATOM      9  C   UNL A   1      34.096  24.070  23.630  1.00  0.00     0.007 C 
ENDBRANCH   6   8
BRANCH   6  10
ATOM     10  N   UNL A   1      30.999  24.569  25.778  1.00  0.00    -0.324 N 
ATOM     11  C   UNL A   1      30.724  23.480  26.509  1.00  0.00     0.320 C 
ATOM     12  H   UNL A   1      30.574  25.371  26.160  1.00  0.00     0.166 HD
ATOM     13  O   UNL A   1      29.800  23.619  27.319  1.00  0.00    -0.248 OA
ATOM     14  N   UNL A   1      31.300  22.266  26.468  1.00  0.00    -0.308 N 
ATOM     15  H   UNL A   1      30.739  21.643  26.984  1.00  0.00     0.171 HD
BRANCH  14  16
ATOM     16  C   UNL A   1      32.409  21.547  25.963  1.00  0.00     0.043 A 
ATOM     17  C   UNL A   1      32.141  20.654  24.923  1.00  0.00     0.026 A 
ATOM     18  C   UNL A   1      33.723  21.552  26.418  1.00  0.00     0.035 A 
ATOM     19  C   UNL A   1      33.171  19.958  24.269  1.00  0.00     0.003 A 
ATOM     20  C   UNL A   1      34.798  21.020  25.680  1.00  0.00     0.008 A 
ATOM     21  C   UNL A   1      34.506  20.183  24.612  1.00  0.00     0.010 A 
BRANCH  20  22
ATOM     22  C   UNL A   1      36.180  21.598  25.915  1.00  0.00     0.297 C 
BRANCH  22  23
ATOM     23  N   UNL A   1      36.289  22.949  26.460  1.00  0.00    -0.345 N 
ATOM     24  C   UNL A   1      37.271  23.674  25.635  1.00  0.00     0.331 C 
ATOM     25  H   UNL A   1      36.607  22.911  27.429  1.00  0.00     0.346 HD
ATOM     26  H   UNL A   1      35.384  23.421  26.443  1.00  0.00     0.346 HD
ENDBRANCH  22  23
ENDBRANCH  20  22
ENDBRANCH  14  16
ENDBRANCH   6  10
ENDBRANCH   3   6
ENDBRANCH   1   2
BRANCH   1  27
ATOM     27  C   UNL A   1      32.682  27.782  26.731  1.00  0.00     0.042 C 
BRANCH  27  28
ATOM     28  C   UNL A   1      34.009  28.460  27.104  1.00  0.00     0.118 C 
BRANCH  28  29
ATOM     29  N   UNL A   1      33.836  29.784  27.667  1.00  0.00    -0.352 N 
ATOM     30  C   UNL A   1      34.716  30.563  28.385  1.00  0.00     0.251 C 
ATOM     31  H   UNL A   1      32.953  30.189  27.511  1.00  0.00     0.163 HD
ATOM     32  O   UNL A   1      34.320  31.595  28.902  1.00  0.00    -0.269 OA
BRANCH  30  33
ATOM     33  C   UNL A   1      36.125  30.137  28.564  1.00  0.00     0.039 A 
ATOM     34  C   UNL A   1      36.981  30.200  27.460  1.00  0.00     0.014 A 
ATOM     35  C   UNL A   1      36.599  29.643  29.782  1.00  0.00     0.014 A 
ATOM     36  C   UNL A   1      38.323  29.832  27.594  1.00  0.00     0.010 A 
ATOM     37  C   UNL A   1      37.954  29.325  29.927  1.00  0.00     0.010 A 
ATOM     38  C   UNL A   1      38.835  29.424  28.837  1.00  0.00    -0.014 A 
BRANCH  38  39
ATOM     39  C   UNL A   1      40.287  29.129  29.008  1.00  0.00     0.031 A 
ATOM     40  C   UNL A   1      40.849  27.778  28.651  1.00  0.00     0.074 A 
ATOM     41  C   UNL A   1      41.101  30.069  29.533  1.00  0.00     0.049 A 
ATOM     42  N   UNL A   1      42.074  27.331  28.781  1.00  0.00    -0.248 NA
ATOM     43  C   UNL A   1      39.910  26.796  28.088  1.00  0.00     0.031 C 
ATOM     44  C   UNL A   1      40.682  31.408  29.954  1.00  0.00     0.029 A 
ATOM     45  N   UNL A   1      42.446  30.044  29.811  1.00  0.00    -0.354 N 
ATOM     46  C   UNL A   1      42.051  26.016  28.328  1.00  0.00     0.074 A 
ATOM     47  C   UNL A   1      40.680  25.724  27.964  1.00  0.00     0.031 C 
ATOM     48  C   UNL A   1      41.749  32.079  30.419  1.00  0.00     0.029 A 
ATOM     49  C   UNL A   1      42.920  31.208  30.371  1.00  0.00     0.049 A 
ATOM     50  H   UNL A   1      43.019  29.264  29.628  1.00  0.00     0.167 HD
ATOM     51  C   UNL A   1      43.079  25.139  28.209  1.00  0.00     0.037 A 
ATOM     52  C   UNL A   1      44.151  31.538  30.812  1.00  0.00     0.037 A 
ATOM     53  C   UNL A   1      44.445  25.436  28.561  1.00  0.00     0.049 A 
ATOM     54  C   UNL A   1      45.271  30.539  30.694  1.00  0.00     0.074 A 
ATOM     55  C   UNL A   1      45.562  24.629  28.427  1.00  0.00     0.029 A 
ATOM     56  N   UNL A   1      44.883  26.628  29.121  1.00  0.00    -0.354 N 
ATOM     57  N   UNL A   1      45.241  29.321  30.206  1.00  0.00    -0.248 NA
ATOM     58  C   UNL A   1      46.593  30.958  31.180  1.00  0.00     0.031 C 
ATOM     59  C   UNL A   1      46.663  25.310  28.958  1.00  0.00     0.029 A 
ATOM     60  C   UNL A   1      46.246  26.566  29.366  1.00  0.00     0.049 A 
ATOM     61  H   UNL A   1      44.309  27.403  29.318  1.00  0.00     0.167 HD
ATOM     62  C   UNL A   1      46.543  28.842  30.299  1.00  0.00     0.074 A 
ATOM     63  C   UNL A   1      47.339  29.904  30.878  1.00  0.00     0.031 C 
ATOM     64  C   UNL A   1      47.035  27.631  29.936  1.00  0.00     0.037 A 
BRANCH  51  65
ATOM     65  C   UNL A   1      42.769  23.764  27.677  1.00  0.00     0.058 A 
ATOM     66  C   UNL A   1      42.734  23.494  26.300  1.00  0.00     0.135 A 
ATOM     67  C   UNL A   1      42.548  22.690  28.557  1.00  0.00     0.135 A 
ATOM     68  F   UNL A   1      42.928  24.482  25.412  1.00  0.00    -0.206 F 
ATOM     69  C   UNL A   1      42.461  22.219  25.812  1.00  0.00     0.059 A 
ATOM     70  C   UNL A   1      42.303  21.400  28.092  1.00  0.00     0.059 A 
ATOM     71  F   UNL A   1      42.574  22.887  29.884  1.00  0.00    -0.206 F 
ATOM     72  C   UNL A   1      42.246  21.179  26.718  1.00  0.00     0.060 A 
BRANCH  72  73
ATOM     73  S   UNL A   1      41.895  19.531  26.068  1.00  0.00     0.124 S 
ATOM     74  O   UNL A   1      42.249  18.689  27.207  1.00  0.00    -0.237 OA
ATOM     75  O   UNL A   1      40.471  19.614  25.761  1.00  0.00    -0.237 OA
ATOM     76  O   UNL A   1      42.779  19.425  24.912  1.00  0.00    -0.744 OA
ENDBRANCH  72  73
ENDBRANCH  51  65
BRANCH  52  77
ATOM     77  C   UNL A   1      44.395  32.884  31.401  1.00  0.00     0.058 A 
ATOM     78  C   UNL A   1      44.779  33.967  30.596  1.00  0.00     0.135 A 
ATOM     79  C   UNL A   1      44.245  33.116  32.777  1.00  0.00     0.135 A 
ATOM     80  F   UNL A   1      44.946  33.796  29.276  1.00  0.00    -0.206 F 
ATOM     81  C   UNL A   1      45.022  35.227  31.135  1.00  0.00     0.059 A 
ATOM     82  C   UNL A   1      44.454  34.374  33.336  1.00  0.00     0.059 A 
ATOM     83  F   UNL A   1      43.867  32.118  33.591  1.00  0.00    -0.206 F 
ATOM     84  C   UNL A   1      44.853  35.421  32.507  1.00  0.00     0.060 A 
BRANCH  84  85
ATOM     85  S   UNL A   1      45.123  37.072  33.188  1.00  0.00     0.124 S 
ATOM     86  O   UNL A   1      43.861  37.731  32.871  1.00  0.00    -0.237 OA
ATOM     87  O   UNL A   1      45.357  36.785  34.601  1.00  0.00    -0.237 OA
ATOM     88  O   UNL A   1      46.289  37.552  32.453  1.00  0.00    -0.744 OA
ENDBRANCH  84  85
ENDBRANCH  52  77
BRANCH  64  89
ATOM     89  C   UNL A   1      48.511  27.394  30.115  1.00  0.00     0.058 A 
ATOM     90  C   UNL A   1      49.031  26.774  31.263  1.00  0.00     0.135 A 
ATOM     91  C   UNL A   1      49.416  27.749  29.100  1.00  0.00     0.135 A 
ATOM     92  F   UNL A   1      48.214  26.420  32.267  1.00  0.00    -0.206 F 
ATOM     93  C   UNL A   1      50.394  26.535  31.407  1.00  0.00     0.059 A 
ATOM     94  C   UNL A   1      50.778  27.493  29.209  1.00  0.00     0.059 A 
ATOM     95  F   UNL A   1      48.974  28.337  27.976  1.00  0.00    -0.206 F 
ATOM     96  C   UNL A   1      51.261  26.895  30.373  1.00  0.00     0.060 A 
BRANCH  96  97
ATOM     97  S   UNL A   1      53.023  26.548  30.558  1.00  0.00     0.124 S 
ATOM     98  O   UNL A   1      53.526  27.828  31.047  1.00  0.00    -0.237 OA
ATOM     99  O   UNL A   1      53.025  25.455  31.526  1.00  0.00    -0.237 OA
ATOM    100  O   UNL A   1      53.443  26.184  29.209  1.00  0.00    -0.744 OA
ENDBRANCH  96  97
ENDBRANCH  64  89
ENDBRANCH  38  39
ENDBRANCH  30  33
ENDBRANCH  28  29
ENDBRANCH  27  28
ENDBRANCH   1  27
TORSDOF 18
ENDMDL
