MODEL 1
REMARK VINA RESULT:     -12.7      0.000      0.000
REMARK SMILES O=C(NCCCNC(=O)c1c(C(=O)N2CCc3ccccc32)cccc1[N+](=O)[O-])c1ccc(-c2c3nc(c(-c4c(F)cc(S(=O)(=O)[O-])cc4F)c4ccc([nH]4)c(-c4c(F)cc(S(=O)(=O)[O-])cc4F)c4nc(c(-c5c(F)cc(S(=O)(=O)[O-])cc5F)c5ccc2[nH]5)C=C4)C=C3)cc1
REMARK SMILES IDX 4 1 3 2 1 3 2 4 30 6 31 7 95 8 32 9 94 10 33 11 34 12 35 13
REMARK SMILES IDX 88 14 36 15 93 16 87 17 89 18 37 19 92 20 86 21 85 22 38 24
REMARK SMILES IDX 72 25 51 26 71 27 52 28 55 29 70 30 90 31 53 32 54 33 69 35
REMARK SMILES IDX 91 36 56 37 39 38 40 39 49 40 41 41 42 42 48 43 50 44 43 45
REMARK SMILES IDX 44 46 45 47 46 48 47 49 73 50 74 51 83 52 75 53 76 54 82 55
REMARK SMILES IDX 84 56 77 57 78 58 79 59 80 60 81 61 57 62 58 63 67 64 59 65
REMARK SMILES IDX 60 66 66 67 68 68 61 69 62 70 63 71 64 72 65 73 5 74 6 75
REMARK SMILES IDX 7 76 8 77 9 79 10 80 11 81 26 82 23 83 25 84 24 85 12 86
REMARK SMILES IDX 13 87 14 88 15 89 22 90 16 91 17 92 21 93 18 94 20 95 19 96
REMARK SMILES IDX 27 97 28 98 29 99
REMARK H PARENT 3 5 89 23 55 34 7 78
REMARK Flexibility Score: inf
ROOT
ATOM      1  C   UNL A   1      35.318  29.399  27.447  1.00  0.00     0.118 C 
ENDROOT
BRANCH   1   2
ATOM      2  N   UNL A   1      35.265  29.722  28.869  1.00  0.00    -0.352 N 
ATOM      3  O   UNL A   1      35.970  29.999  30.989  1.00  0.00    -0.269 OA
ATOM      4  C   UNL A   1      36.266  29.809  29.813  1.00  0.00     0.251 C 
ATOM      5  H   UNL A   1      34.361  29.909  29.212  1.00  0.00     0.163 HD
BRANCH   4   6
ATOM      6  C   UNL A   1      37.688  29.637  29.430  1.00  0.00     0.039 A 
ATOM      7  C   UNL A   1      38.091  29.771  28.104  1.00  0.00     0.014 A 
ATOM      8  C   UNL A   1      38.639  29.335  30.412  1.00  0.00     0.014 A 
ATOM      9  C   UNL A   1      39.369  29.382  27.730  1.00  0.00     0.010 A 
ATOM     10  C   UNL A   1      39.968  29.077  30.047  1.00  0.00     0.010 A 
ATOM     11  C   UNL A   1      40.335  29.049  28.695  1.00  0.00    -0.014 A 
BRANCH  11  12
ATOM     12  C   UNL A   1      41.717  28.739  28.234  1.00  0.00     0.031 A 
ATOM     13  C   UNL A   1      42.811  29.773  28.263  1.00  0.00     0.074 A 
ATOM     14  C   UNL A   1      41.996  27.471  27.867  1.00  0.00     0.049 A 
ATOM     15  N   UNL A   1      44.082  29.630  27.979  1.00  0.00    -0.248 NA
ATOM     16  C   UNL A   1      42.440  31.143  28.649  1.00  0.00     0.031 C 
ATOM     17  C   UNL A   1      41.011  26.389  27.769  1.00  0.00     0.029 A 
ATOM     18  N   UNL A   1      43.184  26.863  27.553  1.00  0.00    -0.354 N 
ATOM     19  C   UNL A   1      44.659  30.885  28.139  1.00  0.00     0.074 A 
ATOM     20  C   UNL A   1      43.593  31.788  28.516  1.00  0.00     0.031 C 
ATOM     21  C   UNL A   1      41.642  25.239  27.497  1.00  0.00     0.029 A 
ATOM     22  C   UNL A   1      43.063  25.511  27.327  1.00  0.00     0.049 A 
ATOM     23  H   UNL A   1      44.039  27.346  27.495  1.00  0.00     0.167 HD
ATOM     24  C   UNL A   1      45.958  31.246  27.995  1.00  0.00     0.037 A 
ATOM     25  C   UNL A   1      43.988  24.589  27.005  1.00  0.00     0.037 A 
ATOM     26  C   UNL A   1      47.016  30.338  27.629  1.00  0.00     0.049 A 
ATOM     27  C   UNL A   1      45.420  25.014  26.867  1.00  0.00     0.074 A 
ATOM     28  C   UNL A   1      48.363  30.609  27.456  1.00  0.00     0.029 A 
ATOM     29  N   UNL A   1      46.851  28.982  27.388  1.00  0.00    -0.354 N 
ATOM     30  N   UNL A   1      45.940  26.207  27.028  1.00  0.00    -0.248 NA
ATOM     31  C   UNL A   1      46.388  23.975  26.500  1.00  0.00     0.031 C 
ATOM     32  C   UNL A   1      49.006  29.424  27.081  1.00  0.00     0.029 A 
ATOM     33  C   UNL A   1      48.068  28.404  27.062  1.00  0.00     0.049 A 
ATOM     34  H   UNL A   1      45.994  28.499  27.440  1.00  0.00     0.167 HD
ATOM     35  C   UNL A   1      47.298  26.063  26.778  1.00  0.00     0.074 A 
ATOM     36  C   UNL A   1      47.524  24.659  26.494  1.00  0.00     0.031 C 
ATOM     37  C   UNL A   1      48.270  27.008  26.772  1.00  0.00     0.037 A 
BRANCH  24  38
ATOM     38  C   UNL A   1      46.314  32.690  28.230  1.00  0.00     0.058 A 
ATOM     39  C   UNL A   1      46.224  33.645  27.205  1.00  0.00     0.135 A 
ATOM     40  C   UNL A   1      46.692  33.137  29.508  1.00  0.00     0.135 A 
ATOM     41  F   UNL A   1      45.882  33.272  25.961  1.00  0.00    -0.206 F 
ATOM     42  C   UNL A   1      46.512  34.988  27.434  1.00  0.00     0.059 A 
ATOM     43  C   UNL A   1      46.963  34.479  29.764  1.00  0.00     0.059 A 
ATOM     44  F   UNL A   1      46.794  32.267  30.525  1.00  0.00    -0.206 F 
ATOM     45  C   UNL A   1      46.880  35.396  28.717  1.00  0.00     0.060 A 
BRANCH  45  46
ATOM     46  S   UNL A   1      47.236  37.143  28.997  1.00  0.00     0.124 S 
ATOM     47  O   UNL A   1      46.290  37.782  28.086  1.00  0.00    -0.237 OA
ATOM     48  O   UNL A   1      46.945  37.298  30.419  1.00  0.00    -0.237 OA
ATOM     49  O   UNL A   1      48.642  37.269  28.630  1.00  0.00    -0.744 OA
ENDBRANCH  45  46
ENDBRANCH  24  38
BRANCH  25  50
ATOM     50  C   UNL A   1      43.574  23.180  26.770  1.00  0.00     0.058 A 
ATOM     51  C   UNL A   1      43.561  22.629  25.481  1.00  0.00     0.135 A 
ATOM     52  C   UNL A   1      43.207  22.352  27.843  1.00  0.00     0.135 A 
ATOM     53  F   UNL A   1      43.902  23.380  24.425  1.00  0.00    -0.206 F 
ATOM     54  C   UNL A   1      43.183  21.308  25.261  1.00  0.00     0.059 A 
ATOM     55  C   UNL A   1      42.855  21.021  27.651  1.00  0.00     0.059 A 
ATOM     56  F   UNL A   1      43.226  22.828  29.097  1.00  0.00    -0.206 F 
ATOM     57  C   UNL A   1      42.833  20.512  26.354  1.00  0.00     0.060 A 
BRANCH  57  58
ATOM     58  S   UNL A   1      42.388  18.785  26.072  1.00  0.00     0.124 S 
ATOM     59  O   UNL A   1      42.641  18.201  27.383  1.00  0.00    -0.237 OA
ATOM     60  O   UNL A   1      40.987  18.887  25.677  1.00  0.00    -0.237 OA
ATOM     61  O   UNL A   1      43.302  18.376  25.009  1.00  0.00    -0.744 OA
ENDBRANCH  57  58
ENDBRANCH  25  50
BRANCH  37  62
ATOM     62  C   UNL A   1      49.662  26.542  26.453  1.00  0.00     0.058 A 
ATOM     63  C   UNL A   1      50.179  26.614  25.151  1.00  0.00     0.135 A 
ATOM     64  C   UNL A   1      50.488  26.021  27.462  1.00  0.00     0.135 A 
ATOM     65  F   UNL A   1      49.425  27.097  24.151  1.00  0.00    -0.206 F 
ATOM     66  C   UNL A   1      51.455  26.152  24.849  1.00  0.00     0.059 A 
ATOM     67  C   UNL A   1      51.777  25.576  27.188  1.00  0.00     0.059 A 
ATOM     68  F   UNL A   1      50.044  25.939  28.725  1.00  0.00    -0.206 F 
ATOM     69  C   UNL A   1      52.244  25.627  25.875  1.00  0.00     0.060 A 
BRANCH  69  70
ATOM     70  S   UNL A   1      53.899  25.027  25.476  1.00  0.00     0.124 S 
ATOM     71  O   UNL A   1      54.153  25.693  24.203  1.00  0.00    -0.237 OA
ATOM     72  O   UNL A   1      54.688  25.503  26.609  1.00  0.00    -0.237 OA
ATOM     73  O   UNL A   1      53.727  23.580  25.405  1.00  0.00    -0.744 OA
ENDBRANCH  69  70
ENDBRANCH  37  62
ENDBRANCH  11  12
ENDBRANCH   4   6
ENDBRANCH   1   2
BRANCH   1  74
ATOM     74  C   UNL A   1      33.959  29.368  26.769  1.00  0.00     0.042 C 
BRANCH  74  75
ATOM     75  C   UNL A   1      33.729  28.179  25.855  1.00  0.00     0.118 C 
BRANCH  75  76
ATOM     76  N   UNL A   1      34.006  28.446  24.447  1.00  0.00    -0.352 N 
ATOM     77  C   UNL A   1      33.314  28.122  23.299  1.00  0.00     0.259 C 
ATOM     78  H   UNL A   1      34.837  28.949  24.287  1.00  0.00     0.163 HD
ATOM     79  O   UNL A   1      33.750  28.478  22.216  1.00  0.00    -0.269 OA
BRANCH  77  80
ATOM     80  C   UNL A   1      32.085  27.307  23.381  1.00  0.00     0.130 A 
ATOM     81  C   UNL A   1      32.151  25.905  23.323  1.00  0.00     0.060 A 
ATOM     82  C   UNL A   1      30.831  27.900  23.573  1.00  0.00     0.282 A 
ATOM     83  C   UNL A   1      31.002  25.145  23.608  1.00  0.00     0.015 A 
ATOM     84  C   UNL A   1      29.700  27.145  23.913  1.00  0.00     0.086 A 
ATOM     85  C   UNL A   1      29.802  25.760  23.963  1.00  0.00     0.008 A 
BRANCH  81  86
ATOM     86  C   UNL A   1      33.366  25.187  22.849  1.00  0.00     0.259 C 
ATOM     87  O   UNL A   1      33.742  25.360  21.696  1.00  0.00    -0.269 OA
BRANCH  86  88
ATOM     88  N   UNL A   1      33.974  24.362  23.762  1.00  0.00    -0.308 N 
ATOM     89  C   UNL A   1      34.935  24.807  24.773  1.00  0.00     0.131 C 
ATOM     90  C   UNL A   1      33.646  23.026  24.002  1.00  0.00     0.047 A 
ATOM     91  C   UNL A   1      34.918  23.740  25.884  1.00  0.00     0.059 C 
ATOM     92  C   UNL A   1      34.098  22.652  25.262  1.00  0.00    -0.022 A 
ATOM     93  C   UNL A   1      32.971  22.145  23.178  1.00  0.00     0.026 A 
ATOM     94  C   UNL A   1      33.735  21.428  25.798  1.00  0.00     0.006 A 
ATOM     95  C   UNL A   1      32.622  20.900  23.696  1.00  0.00     0.002 A 
ATOM     96  C   UNL A   1      32.971  20.558  25.011  1.00  0.00     0.000 A 
ENDBRANCH  86  88
ENDBRANCH  81  86
BRANCH  82  97
ATOM     97  N   UNL A   1      30.647  29.328  23.367  1.00  0.00     0.063 N 
ATOM     98  O   UNL A   1      30.656  30.047  24.376  1.00  0.00    -0.258 OA
ATOM     99  O   UNL A   1      30.462  29.722  22.210  1.00  0.00    -0.258 OA
ENDBRANCH  82  97
ENDBRANCH  77  80
ENDBRANCH  75  76
ENDBRANCH  74  75
ENDBRANCH   1  74
TORSDOF 16
ENDMDL
MODEL 2
REMARK VINA RESULT:     -12.6      1.018      1.878
REMARK SMILES O=C(NCCCNC(=O)c1c(C(=O)N2CCc3ccccc32)cccc1[N+](=O)[O-])c1ccc(-c2c3nc(c(-c4c(F)cc(S(=O)(=O)[O-])cc4F)c4ccc([nH]4)c(-c4c(F)cc(S(=O)(=O)[O-])cc4F)c4nc(c(-c5c(F)cc(S(=O)(=O)[O-])cc5F)c5ccc2[nH]5)C=C4)C=C3)cc1
REMARK SMILES IDX 4 1 3 2 1 3 2 4 30 6 31 7 95 8 32 9 94 10 33 11 34 12 35 13
REMARK SMILES IDX 88 14 36 15 93 16 87 17 89 18 37 19 92 20 86 21 85 22 38 24
REMARK SMILES IDX 72 25 51 26 71 27 52 28 55 29 70 30 90 31 53 32 54 33 69 35
REMARK SMILES IDX 91 36 56 37 39 38 40 39 49 40 41 41 42 42 48 43 50 44 43 45
REMARK SMILES IDX 44 46 45 47 46 48 47 49 73 50 74 51 83 52 75 53 76 54 82 55
REMARK SMILES IDX 84 56 77 57 78 58 79 59 80 60 81 61 57 62 58 63 67 64 59 65
REMARK SMILES IDX 60 66 66 67 68 68 61 69 62 70 63 71 64 72 65 73 5 74 6 75
REMARK SMILES IDX 7 76 8 77 9 79 10 80 11 81 26 82 23 83 25 84 24 85 12 86
REMARK SMILES IDX 13 87 14 88 15 89 22 90 16 91 17 92 21 93 18 94 20 95 19 96
REMARK SMILES IDX 27 97 28 98 29 99
REMARK H PARENT 3 5 89 23 55 34 7 78
REMARK Flexibility Score: inf
ROOT
ATOM      1  C   UNL A   1      35.394  29.300  27.657  1.00  0.00     0.118 C 
ENDROOT
BRANCH   1   2
ATOM      2  N   UNL A   1      35.354  29.837  29.013  1.00  0.00    -0.352 N 
ATOM      3  O   UNL A   1      36.083  30.450  31.053  1.00  0.00    -0.269 OA
ATOM      4  C   UNL A   1      36.367  30.086  29.915  1.00  0.00     0.251 C 
ATOM      5  H   UNL A   1      34.452  30.060  29.338  1.00  0.00     0.163 HD
BRANCH   4   6
ATOM      6  C   UNL A   1      37.786  29.881  29.539  1.00  0.00     0.039 A 
ATOM      7  C   UNL A   1      38.213  30.074  28.229  1.00  0.00     0.014 A 
ATOM      8  C   UNL A   1      38.711  29.486  30.513  1.00  0.00     0.014 A 
ATOM      9  C   UNL A   1      39.480  29.658  27.847  1.00  0.00     0.010 A 
ATOM     10  C   UNL A   1      40.034  29.198  30.150  1.00  0.00     0.010 A 
ATOM     11  C   UNL A   1      40.418  29.232  28.803  1.00  0.00    -0.014 A 
BRANCH  11  12
ATOM     12  C   UNL A   1      41.794  28.896  28.341  1.00  0.00     0.031 A 
ATOM     13  C   UNL A   1      42.904  29.913  28.355  1.00  0.00     0.074 A 
ATOM     14  C   UNL A   1      42.052  27.620  27.988  1.00  0.00     0.049 A 
ATOM     15  N   UNL A   1      44.172  29.747  28.069  1.00  0.00    -0.248 NA
ATOM     16  C   UNL A   1      42.556  31.293  28.726  1.00  0.00     0.031 C 
ATOM     17  C   UNL A   1      41.050  26.551  27.905  1.00  0.00     0.029 A 
ATOM     18  N   UNL A   1      43.229  26.989  27.678  1.00  0.00    -0.354 N 
ATOM     19  C   UNL A   1      44.768  30.994  28.212  1.00  0.00     0.074 A 
ATOM     20  C   UNL A   1      43.718  31.918  28.582  1.00  0.00     0.031 C 
ATOM     21  C   UNL A   1      41.662  25.389  27.646  1.00  0.00     0.029 A 
ATOM     22  C   UNL A   1      43.087  25.637  27.467  1.00  0.00     0.049 A 
ATOM     23  H   UNL A   1      44.092  27.459  27.611  1.00  0.00     0.167 HD
ATOM     24  C   UNL A   1      46.072  31.334  28.059  1.00  0.00     0.037 A 
ATOM     25  C   UNL A   1      43.996  24.697  27.153  1.00  0.00     0.037 A 
ATOM     26  C   UNL A   1      47.115  30.405  27.701  1.00  0.00     0.049 A 
ATOM     27  C   UNL A   1      45.434  25.098  27.005  1.00  0.00     0.074 A 
ATOM     28  C   UNL A   1      48.466  30.653  27.520  1.00  0.00     0.029 A 
ATOM     29  N   UNL A   1      46.928  29.049  27.476  1.00  0.00    -0.354 N 
ATOM     30  N   UNL A   1      45.973  26.285  27.151  1.00  0.00    -0.248 NA
ATOM     31  C   UNL A   1      46.385  24.039  26.648  1.00  0.00     0.031 C 
ATOM     32  C   UNL A   1      49.089  29.453  27.157  1.00  0.00     0.029 A 
ATOM     33  C   UNL A   1      48.135  28.449  27.153  1.00  0.00     0.049 A 
ATOM     34  H   UNL A   1      46.064  28.580  27.537  1.00  0.00     0.167 HD
ATOM     35  C   UNL A   1      47.328  26.116  26.898  1.00  0.00     0.074 A 
ATOM     36  C   UNL A   1      47.531  24.706  26.630  1.00  0.00     0.031 C 
ATOM     37  C   UNL A   1      48.314  27.046  26.878  1.00  0.00     0.037 A 
BRANCH  24  38
ATOM     38  C   UNL A   1      46.452  32.774  28.277  1.00  0.00     0.058 A 
ATOM     39  C   UNL A   1      46.360  33.722  27.245  1.00  0.00     0.135 A 
ATOM     40  C   UNL A   1      46.855  33.227  29.545  1.00  0.00     0.135 A 
ATOM     41  F   UNL A   1      45.995  33.343  26.009  1.00  0.00    -0.206 F 
ATOM     42  C   UNL A   1      46.670  35.062  27.457  1.00  0.00     0.059 A 
ATOM     43  C   UNL A   1      47.148  34.567  29.785  1.00  0.00     0.059 A 
ATOM     44  F   UNL A   1      46.959  32.365  30.568  1.00  0.00    -0.206 F 
ATOM     45  C   UNL A   1      47.062  35.476  28.732  1.00  0.00     0.060 A 
BRANCH  45  46
ATOM     46  S   UNL A   1      47.446  37.221  28.991  1.00  0.00     0.124 S 
ATOM     47  O   UNL A   1      48.597  37.135  29.887  1.00  0.00    -0.237 OA
ATOM     48  O   UNL A   1      47.733  37.684  27.638  1.00  0.00    -0.237 OA
ATOM     49  O   UNL A   1      46.226  37.754  29.588  1.00  0.00    -0.744 OA
ENDBRANCH  45  46
ENDBRANCH  24  38
BRANCH  25  50
ATOM     50  C   UNL A   1      43.560  23.292  26.936  1.00  0.00     0.058 A 
ATOM     51  C   UNL A   1      43.207  22.463  28.009  1.00  0.00     0.135 A 
ATOM     52  C   UNL A   1      43.464  22.764  25.638  1.00  0.00     0.135 A 
ATOM     53  F   UNL A   1      43.283  22.922  29.266  1.00  0.00    -0.206 F 
ATOM     54  C   UNL A   1      42.789  21.151  27.805  1.00  0.00     0.059 A 
ATOM     55  C   UNL A   1      43.020  21.467  25.408  1.00  0.00     0.059 A 
ATOM     56  F   UNL A   1      43.769  23.526  24.577  1.00  0.00    -0.206 F 
ATOM     57  C   UNL A   1      42.698  20.664  26.500  1.00  0.00     0.060 A 
BRANCH  57  58
ATOM     58  S   UNL A   1      42.111  18.977  26.235  1.00  0.00     0.124 S 
ATOM     59  O   UNL A   1      42.271  18.401  27.565  1.00  0.00    -0.237 OA
ATOM     60  O   UNL A   1      40.737  19.193  25.793  1.00  0.00    -0.237 OA
ATOM     61  O   UNL A   1      43.017  18.466  25.211  1.00  0.00    -0.744 OA
ENDBRANCH  57  58
ENDBRANCH  25  50
BRANCH  37  62
ATOM     62  C   UNL A   1      49.698  26.555  26.561  1.00  0.00     0.058 A 
ATOM     63  C   UNL A   1      50.171  26.499  25.241  1.00  0.00     0.135 A 
ATOM     64  C   UNL A   1      50.561  26.139  27.588  1.00  0.00     0.135 A 
ATOM     65  F   UNL A   1      49.380  26.877  24.224  1.00  0.00    -0.206 F 
ATOM     66  C   UNL A   1      51.439  26.012  24.944  1.00  0.00     0.059 A 
ATOM     67  C   UNL A   1      51.842  25.673  27.316  1.00  0.00     0.059 A 
ATOM     68  F   UNL A   1      50.159  26.182  28.868  1.00  0.00    -0.206 F 
ATOM     69  C   UNL A   1      52.265  25.595  25.989  1.00  0.00     0.060 A 
BRANCH  69  70
ATOM     70  S   UNL A   1      53.910  24.963  25.596  1.00  0.00     0.124 S 
ATOM     71  O   UNL A   1      54.622  25.204  26.846  1.00  0.00    -0.237 OA
ATOM     72  O   UNL A   1      53.642  23.563  25.279  1.00  0.00    -0.237 OA
ATOM     73  O   UNL A   1      54.328  25.786  24.465  1.00  0.00    -0.744 OA
ENDBRANCH  69  70
ENDBRANCH  37  62
ENDBRANCH  11  12
ENDBRANCH   4   6
ENDBRANCH   1   2
BRANCH   1  74
ATOM     74  C   UNL A   1      34.085  29.437  26.899  1.00  0.00     0.042 C 
BRANCH  74  75
ATOM     75  C   UNL A   1      33.277  28.157  26.783  1.00  0.00     0.118 C 
BRANCH  75  76
ATOM     76  N   UNL A   1      33.955  27.086  26.059  1.00  0.00    -0.352 N 
ATOM     77  C   UNL A   1      33.609  26.387  24.922  1.00  0.00     0.259 C 
ATOM     78  H   UNL A   1      34.816  26.815  26.452  1.00  0.00     0.163 HD
ATOM     79  O   UNL A   1      34.364  25.531  24.492  1.00  0.00    -0.269 OA
BRANCH  77  80
ATOM     80  C   UNL A   1      32.310  26.638  24.264  1.00  0.00     0.130 A 
ATOM     81  C   UNL A   1      31.144  25.997  24.714  1.00  0.00     0.060 A 
ATOM     82  C   UNL A   1      32.193  27.560  23.217  1.00  0.00     0.282 A 
ATOM     83  C   UNL A   1      29.894  26.403  24.214  1.00  0.00     0.015 A 
ATOM     84  C   UNL A   1      30.945  28.005  22.759  1.00  0.00     0.086 A 
ATOM     85  C   UNL A   1      29.791  27.443  23.290  1.00  0.00     0.008 A 
BRANCH  81  86
ATOM     86  C   UNL A   1      31.188  24.813  25.615  1.00  0.00     0.259 C 
ATOM     87  O   UNL A   1      30.849  24.948  26.785  1.00  0.00    -0.269 OA
BRANCH  86  88
ATOM     88  N   UNL A   1      31.628  23.642  25.052  1.00  0.00    -0.308 N 
ATOM     89  C   UNL A   1      31.209  23.143  23.741  1.00  0.00     0.131 C 
ATOM     90  C   UNL A   1      32.668  22.843  25.532  1.00  0.00     0.047 A 
ATOM     91  C   UNL A   1      32.311  22.172  23.276  1.00  0.00     0.059 C 
ATOM     92  C   UNL A   1      33.153  22.039  24.507  1.00  0.00    -0.022 A 
ATOM     93  C   UNL A   1      33.203  22.802  26.806  1.00  0.00     0.026 A 
ATOM     94  C   UNL A   1      34.302  21.289  24.694  1.00  0.00     0.006 A 
ATOM     95  C   UNL A   1      34.344  22.031  27.013  1.00  0.00     0.002 A 
ATOM     96  C   UNL A   1      34.912  21.309  25.954  1.00  0.00     0.000 A 
ENDBRANCH  86  88
ENDBRANCH  81  86
BRANCH  82  97
ATOM     97  N   UNL A   1      33.374  28.047  22.521  1.00  0.00     0.063 N 
ATOM     98  O   UNL A   1      33.815  27.340  21.604  1.00  0.00    -0.258 OA
ATOM     99  O   UNL A   1      33.874  29.108  22.910  1.00  0.00    -0.258 OA
ENDBRANCH  82  97
ENDBRANCH  77  80
ENDBRANCH  75  76
ENDBRANCH  74  75
ENDBRANCH   1  74
TORSDOF 16
ENDMDL
MODEL 3
REMARK VINA RESULT:     -12.5      2.675      8.945
REMARK SMILES O=C(NCCCNC(=O)c1c(C(=O)N2CCc3ccccc32)cccc1[N+](=O)[O-])c1ccc(-c2c3nc(c(-c4c(F)cc(S(=O)(=O)[O-])cc4F)c4ccc([nH]4)c(-c4c(F)cc(S(=O)(=O)[O-])cc4F)c4nc(c(-c5c(F)cc(S(=O)(=O)[O-])cc5F)c5ccc2[nH]5)C=C4)C=C3)cc1
REMARK SMILES IDX 4 1 3 2 1 3 2 4 30 6 31 7 95 8 32 9 94 10 33 11 34 12 35 13
REMARK SMILES IDX 88 14 36 15 93 16 87 17 89 18 37 19 92 20 86 21 85 22 38 24
REMARK SMILES IDX 72 25 51 26 71 27 52 28 55 29 70 30 90 31 53 32 54 33 69 35
REMARK SMILES IDX 91 36 56 37 39 38 40 39 49 40 41 41 42 42 48 43 50 44 43 45
REMARK SMILES IDX 44 46 45 47 46 48 47 49 73 50 74 51 83 52 75 53 76 54 82 55
REMARK SMILES IDX 84 56 77 57 78 58 79 59 80 60 81 61 57 62 58 63 67 64 59 65
REMARK SMILES IDX 60 66 66 67 68 68 61 69 62 70 63 71 64 72 65 73 5 74 6 75
REMARK SMILES IDX 7 76 8 77 9 79 10 80 11 81 26 82 23 83 25 84 24 85 12 86
REMARK SMILES IDX 13 87 14 88 15 89 22 90 16 91 17 92 21 93 18 94 20 95 19 96
REMARK SMILES IDX 27 97 28 98 29 99
REMARK H PARENT 3 5 89 23 55 34 7 78
REMARK Flexibility Score: inf
ROOT
ATOM      1  C   UNL A   1      33.597  28.108  26.809  1.00  0.00     0.118 C 
ENDROOT
BRANCH   1   2
ATOM      2  N   UNL A   1      33.455  29.464  27.327  1.00  0.00    -0.352 N 
ATOM      3  O   UNL A   1      33.979  31.362  28.419  1.00  0.00    -0.269 OA
ATOM      4  C   UNL A   1      34.357  30.281  27.978  1.00  0.00     0.251 C 
ATOM      5  H   UNL A   1      32.567  29.864  27.188  1.00  0.00     0.163 HD
BRANCH   4   6
ATOM      6  C   UNL A   1      35.760  29.850  28.184  1.00  0.00     0.039 A 
ATOM      7  C   UNL A   1      36.172  29.317  29.402  1.00  0.00     0.014 A 
ATOM      8  C   UNL A   1      36.685  29.983  27.142  1.00  0.00     0.014 A 
ATOM      9  C   UNL A   1      37.524  29.137  29.654  1.00  0.00     0.010 A 
ATOM     10  C   UNL A   1      38.034  29.667  27.356  1.00  0.00     0.010 A 
ATOM     11  C   UNL A   1      38.476  29.289  28.631  1.00  0.00    -0.014 A 
BRANCH  11  12
ATOM     12  C   UNL A   1      39.900  28.982  28.940  1.00  0.00     0.031 A 
ATOM     13  C   UNL A   1      40.520  27.656  28.586  1.00  0.00     0.074 A 
ATOM     14  C   UNL A   1      40.661  29.961  29.473  1.00  0.00     0.049 A 
ATOM     15  N   UNL A   1      41.767  27.275  28.709  1.00  0.00    -0.248 NA
ATOM     16  C   UNL A   1      39.635  26.621  28.030  1.00  0.00     0.031 C 
ATOM     17  C   UNL A   1      40.165  31.278  29.888  1.00  0.00     0.029 A 
ATOM     18  N   UNL A   1      42.008  30.027  29.716  1.00  0.00    -0.354 N 
ATOM     19  C   UNL A   1      41.816  25.959  28.262  1.00  0.00     0.074 A 
ATOM     20  C   UNL A   1      40.466  25.595  27.891  1.00  0.00     0.031 C 
ATOM     21  C   UNL A   1      41.200  32.044  30.259  1.00  0.00     0.029 A 
ATOM     22  C   UNL A   1      42.421  31.254  30.181  1.00  0.00     0.049 A 
ATOM     23  H   UNL A   1      42.620  29.270  29.573  1.00  0.00     0.167 HD
ATOM     24  C   UNL A   1      42.889  25.137  28.161  1.00  0.00     0.037 A 
ATOM     25  C   UNL A   1      43.645  31.698  30.522  1.00  0.00     0.037 A 
ATOM     26  C   UNL A   1      44.233  25.511  28.523  1.00  0.00     0.049 A 
ATOM     27  C   UNL A   1      44.816  30.771  30.386  1.00  0.00     0.074 A 
ATOM     28  C   UNL A   1      45.388  24.748  28.459  1.00  0.00     0.029 A 
ATOM     29  N   UNL A   1      44.608  26.755  29.010  1.00  0.00    -0.354 N 
ATOM     30  N   UNL A   1      44.837  29.532  29.955  1.00  0.00    -0.248 NA
ATOM     31  C   UNL A   1      46.127  31.296  30.783  1.00  0.00     0.031 C 
ATOM     32  C   UNL A   1      46.454  25.521  28.935  1.00  0.00     0.029 A 
ATOM     33  C   UNL A   1      45.973  26.779  29.256  1.00  0.00     0.049 A 
ATOM     34  H   UNL A   1      43.995  27.511  29.159  1.00  0.00     0.167 HD
ATOM     35  C   UNL A   1      46.163  29.127  30.034  1.00  0.00     0.074 A 
ATOM     36  C   UNL A   1      46.919  30.267  30.517  1.00  0.00     0.031 C 
ATOM     37  C   UNL A   1      46.705  27.919  29.746  1.00  0.00     0.037 A 
BRANCH  24  38
ATOM     38  C   UNL A   1      42.659  23.744  27.639  1.00  0.00     0.058 A 
ATOM     39  C   UNL A   1      42.664  23.466  26.263  1.00  0.00     0.135 A 
ATOM     40  C   UNL A   1      42.492  22.664  28.522  1.00  0.00     0.135 A 
ATOM     41  F   UNL A   1      42.804  24.461  25.372  1.00  0.00    -0.206 F 
ATOM     42  C   UNL A   1      42.494  22.171  25.781  1.00  0.00     0.059 A 
ATOM     43  C   UNL A   1      42.343  21.358  28.063  1.00  0.00     0.059 A 
ATOM     44  F   UNL A   1      42.480  22.873  29.849  1.00  0.00    -0.206 F 
ATOM     45  C   UNL A   1      42.335  21.123  26.689  1.00  0.00     0.060 A 
BRANCH  45  46
ATOM     46  S   UNL A   1      42.131  19.448  26.046  1.00  0.00     0.124 S 
ATOM     47  O   UNL A   1      42.629  18.646  27.161  1.00  0.00    -0.237 OA
ATOM     48  O   UNL A   1      40.693  19.376  25.811  1.00  0.00    -0.237 OA
ATOM     49  O   UNL A   1      42.961  19.439  24.847  1.00  0.00    -0.744 OA
ENDBRANCH  45  46
ENDBRANCH  24  38
BRANCH  25  50
ATOM     50  C   UNL A   1      43.809  33.079  31.046  1.00  0.00     0.058 A 
ATOM     51  C   UNL A   1      44.081  34.156  30.192  1.00  0.00     0.135 A 
ATOM     52  C   UNL A   1      43.669  33.347  32.418  1.00  0.00     0.135 A 
ATOM     53  F   UNL A   1      44.225  33.950  28.875  1.00  0.00    -0.206 F 
ATOM     54  C   UNL A   1      44.226  35.451  30.681  1.00  0.00     0.059 A 
ATOM     55  C   UNL A   1      43.778  34.636  32.926  1.00  0.00     0.059 A 
ATOM     56  F   UNL A   1      43.386  32.352  33.272  1.00  0.00    -0.206 F 
ATOM     57  C   UNL A   1      44.071  35.680  32.050  1.00  0.00     0.060 A 
BRANCH  57  58
ATOM     58  S   UNL A   1      44.212  37.368  32.676  1.00  0.00     0.124 S 
ATOM     59  O   UNL A   1      45.567  37.366  33.213  1.00  0.00    -0.237 OA
ATOM     60  O   UNL A   1      44.003  38.163  31.470  1.00  0.00    -0.237 OA
ATOM     61  O   UNL A   1      43.139  37.447  33.663  1.00  0.00    -0.744 OA
ENDBRANCH  57  58
ENDBRANCH  25  50
BRANCH  37  62
ATOM     62  C   UNL A   1      48.188  27.781  29.941  1.00  0.00     0.058 A 
ATOM     63  C   UNL A   1      49.091  28.043  28.900  1.00  0.00     0.135 A 
ATOM     64  C   UNL A   1      48.710  27.384  31.182  1.00  0.00     0.135 A 
ATOM     65  F   UNL A   1      48.640  28.417  27.692  1.00  0.00    -0.206 F 
ATOM     66  C   UNL A   1      50.462  27.882  29.070  1.00  0.00     0.059 A 
ATOM     67  C   UNL A   1      50.079  27.241  31.382  1.00  0.00     0.059 A 
ATOM     68  F   UNL A   1      47.889  27.130  32.212  1.00  0.00    -0.206 F 
ATOM     69  C   UNL A   1      50.945  27.474  30.314  1.00  0.00     0.060 A 
BRANCH  69  70
ATOM     70  S   UNL A   1      52.726  27.266  30.527  1.00  0.00     0.124 S 
ATOM     71  O   UNL A   1      52.808  25.877  30.965  1.00  0.00    -0.237 OA
ATOM     72  O   UNL A   1      53.237  27.540  29.188  1.00  0.00    -0.237 OA
ATOM     73  O   UNL A   1      53.065  28.265  31.537  1.00  0.00    -0.744 OA
ENDBRANCH  69  70
ENDBRANCH  37  62
ENDBRANCH  11  12
ENDBRANCH   4   6
ENDBRANCH   1   2
BRANCH   1  74
ATOM     74  C   UNL A   1      32.315  27.294  26.848  1.00  0.00     0.042 C 
BRANCH  74  75
ATOM     75  C   UNL A   1      32.460  25.853  26.396  1.00  0.00     0.118 C 
BRANCH  75  76
ATOM     76  N   UNL A   1      33.832  25.458  26.089  1.00  0.00    -0.352 N 
ATOM     77  C   UNL A   1      34.345  24.353  25.445  1.00  0.00     0.259 C 
ATOM     78  H   UNL A   1      34.514  26.098  26.397  1.00  0.00     0.163 HD
ATOM     79  O   UNL A   1      35.551  24.254  25.293  1.00  0.00    -0.269 OA
BRANCH  77  80
ATOM     80  C   UNL A   1      33.442  23.275  24.991  1.00  0.00     0.130 A 
ATOM     81  C   UNL A   1      32.932  23.272  23.683  1.00  0.00     0.060 A 
ATOM     82  C   UNL A   1      33.116  22.200  25.828  1.00  0.00     0.282 A 
ATOM     83  C   UNL A   1      32.246  22.139  23.209  1.00  0.00     0.015 A 
ATOM     84  C   UNL A   1      32.484  21.048  25.340  1.00  0.00     0.086 A 
ATOM     85  C   UNL A   1      32.080  21.010  24.012  1.00  0.00     0.008 A 
BRANCH  81  86
ATOM     86  C   UNL A   1      32.980  24.477  22.811  1.00  0.00     0.259 C 
ATOM     87  O   UNL A   1      33.956  24.645  22.088  1.00  0.00    -0.269 OA
BRANCH  86  88
ATOM     88  N   UNL A   1      31.908  25.330  22.899  1.00  0.00    -0.308 N 
ATOM     89  C   UNL A   1      30.518  24.900  23.062  1.00  0.00     0.131 C 
ATOM     90  C   UNL A   1      31.976  26.718  23.037  1.00  0.00     0.047 A 
ATOM     91  C   UNL A   1      29.764  26.100  23.667  1.00  0.00     0.059 C 
ATOM     92  C   UNL A   1      30.782  27.195  23.566  1.00  0.00    -0.022 A 
ATOM     93  C   UNL A   1      33.028  27.561  22.734  1.00  0.00     0.026 A 
ATOM     94  C   UNL A   1      30.673  28.517  23.960  1.00  0.00     0.006 A 
ATOM     95  C   UNL A   1      32.920  28.901  23.103  1.00  0.00     0.002 A 
ATOM     96  C   UNL A   1      31.764  29.367  23.745  1.00  0.00     0.000 A 
ENDBRANCH  86  88
ENDBRANCH  81  86
BRANCH  82  97
ATOM     97  N   UNL A   1      33.371  22.270  27.259  1.00  0.00     0.063 N 
ATOM     98  O   UNL A   1      34.372  21.673  27.679  1.00  0.00    -0.258 OA
ATOM     99  O   UNL A   1      32.561  22.888  27.957  1.00  0.00    -0.258 OA
ENDBRANCH  82  97
ENDBRANCH  77  80
ENDBRANCH  75  76
ENDBRANCH  74  75
ENDBRANCH   1  74
TORSDOF 16
ENDMDL
