MODEL 1
REMARK VINA RESULT:     -12.5      0.000      0.000
REMARK SMILES CC(=O)N[C@H]1[C@@H](O[C@H](C)C(=O)NCCCNC(=O)c2ccc(-c3c4nc(c(-c5c(F)cc(S(=O)(=O)[O-])cc5F)c5ccc([nH]5)c(-c5c(F)cc(S(=O)(=O)[O-])cc5F)c5nc(c(-c6c(F)cc(S(=O)(=O)[O-])cc6F)c6ccc3[nH]6)C=C5)C=C4)cc2)[C@H]2OC(C)(C)OC[C@@H]2O[C@H]1Sc1ccc(Cl)cc1
REMARK SMILES IDX 13 1 12 2 10 3 11 4 8 6 9 7 7 8 6 9 5 10 94 11 85 12 93 13
REMARK SMILES IDX 86 14 92 15 87 16 91 17 88 18 89 19 90 20 4 21 1 22 2 23
REMARK SMILES IDX 3 24 95 26 96 27 97 28 102 29 98 30 101 31 99 32 100 33
REMARK SMILES IDX 14 34 15 35 16 36 17 37 18 39 19 40 20 41 84 42 21 43 83 44
REMARK SMILES IDX 22 45 23 46 24 47 77 48 25 49 82 50 76 51 78 52 26 53 81 54
REMARK SMILES IDX 75 55 74 56 27 58 61 59 40 60 60 61 41 62 44 63 59 64 79 65
REMARK SMILES IDX 42 66 43 67 58 69 80 70 45 71 28 72 29 73 38 74 30 75 31 76
REMARK SMILES IDX 37 77 39 78 32 79 33 80 34 81 35 82 36 83 62 84 63 85 72 86
REMARK SMILES IDX 64 87 65 88 71 89 73 90 66 91 67 92 68 93 69 94 70 95 46 96
REMARK SMILES IDX 47 97 56 98 48 99 49 100 55 101 57 102 50 103 51 104 52 105
REMARK SMILES IDX 53 106 54 107
REMARK H PARENT 12 5 4 25 16 38 78 57 44 68
REMARK Flexibility Score: inf
ROOT
ATOM      1  C   UNL A   1      34.851  24.431  25.412  1.00  0.00     0.117 C 
ENDROOT
BRANCH   1   2
ATOM      2  N   UNL A   1      34.313  25.785  25.120  1.00  0.00    -0.354 N 
ATOM      3  C   UNL A   1      33.872  26.599  24.101  1.00  0.00     0.248 C 
ATOM      4  O   UNL A   1      34.038  27.831  24.191  1.00  0.00    -0.272 OA
ATOM      5  H   UNL A   1      34.246  26.283  25.967  1.00  0.00     0.163 HD
BRANCH   3   6
ATOM      6  C   UNL A   1      33.008  26.276  22.947  1.00  0.00     0.204 C 
ATOM      7  C   UNL A   1      33.649  26.694  21.648  1.00  0.00     0.049 C 
BRANCH   6   8
ATOM      8  O   UNL A   1      32.589  24.961  23.123  1.00  0.00    -0.360 OA
BRANCH   8   9
ATOM      9  C   UNL A   1      31.195  24.744  23.502  1.00  0.00     0.177 C 
ATOM     10  C   UNL A   1      30.261  25.763  24.302  1.00  0.00     0.153 C 
ATOM     11  C   UNL A   1      30.390  25.768  25.917  1.00  0.00     0.206 C 
ATOM     12  C   UNL A   1      31.145  23.369  24.178  1.00  0.00     0.184 C 
ATOM     13  O   UNL A   1      30.316  24.369  26.401  1.00  0.00    -0.356 OA
ATOM     14  O   UNL A   1      32.270  22.621  23.698  1.00  0.00    -0.342 OA
ATOM     15  C   UNL A   1      31.149  23.428  25.703  1.00  0.00     0.177 C 
ATOM     16  C   UNL A   1      32.665  21.438  24.370  1.00  0.00     0.163 C 
ATOM     17  C   UNL A   1      31.004  21.951  26.081  1.00  0.00     0.198 C 
ATOM     18  C   UNL A   1      34.209  21.464  24.397  1.00  0.00     0.075 C 
ATOM     19  C   UNL A   1      32.263  20.255  23.497  1.00  0.00     0.075 C 
ATOM     20  O   UNL A   1      32.219  21.274  25.720  1.00  0.00    -0.348 OA
BRANCH  10  21
ATOM     21  N   UNL A   1      30.025  27.054  23.654  1.00  0.00    -0.347 N 
ATOM     22  C   UNL A   1      27.541  27.070  23.777  1.00  0.00     0.114 C 
ATOM     23  C   UNL A   1      28.854  27.710  23.400  1.00  0.00     0.217 C 
ATOM     24  O   UNL A   1      28.878  28.800  22.833  1.00  0.00    -0.275 OA
ATOM     25  H   UNL A   1      30.837  27.523  23.354  1.00  0.00     0.163 HD
ENDBRANCH  10  21
BRANCH  11  26
ATOM     26  S   UNL A   1      31.057  27.223  27.419  1.00  0.00    -0.092 SA
BRANCH  26  27
ATOM     27  C   UNL A   1      32.463  28.595  27.253  1.00  0.00     0.010 A 
ATOM     28  C   UNL A   1      33.880  28.540  27.368  1.00  0.00     0.016 A 
ATOM     29  C   UNL A   1      31.996  29.893  26.986  1.00  0.00     0.016 A 
ATOM     30  C   UNL A   1      34.716  29.657  27.562  1.00  0.00     0.021 A 
ATOM     31  C   UNL A   1      32.855  31.030  27.038  1.00  0.00     0.021 A 
ATOM     32  C   UNL A   1      34.192  30.914  27.405  1.00  0.00     0.041 A 
ATOM     33  Cl  UNL A   1      35.198  32.285  27.639  1.00  0.00    -0.084 Cl
ENDBRANCH  26  27
ENDBRANCH  11  26
ENDBRANCH   8   9
ENDBRANCH   6   8
ENDBRANCH   3   6
ENDBRANCH   1   2
BRANCH   1  34
ATOM     34  C   UNL A   1      36.428  24.253  25.195  1.00  0.00     0.042 C 
BRANCH  34  35
ATOM     35  C   UNL A   1      37.421  23.875  26.339  1.00  0.00     0.118 C 
BRANCH  35  36
ATOM     36  N   UNL A   1      38.842  24.000  26.013  1.00  0.00    -0.352 N 
ATOM     37  C   UNL A   1      39.877  24.764  26.504  1.00  0.00     0.251 C 
ATOM     38  H   UNL A   1      39.120  23.404  25.280  1.00  0.00     0.163 HD
ATOM     39  O   UNL A   1      40.983  24.631  25.973  1.00  0.00    -0.269 OA
BRANCH  37  40
ATOM     40  C   UNL A   1      39.757  25.762  27.603  1.00  0.00     0.039 A 
ATOM     41  C   UNL A   1      40.576  26.900  27.529  1.00  0.00     0.014 A 
ATOM     42  C   UNL A   1      39.041  25.533  28.780  1.00  0.00     0.014 A 
ATOM     43  C   UNL A   1      40.636  27.823  28.586  1.00  0.00     0.010 A 
ATOM     44  C   UNL A   1      39.085  26.476  29.834  1.00  0.00     0.010 A 
ATOM     45  C   UNL A   1      39.876  27.637  29.750  1.00  0.00    -0.014 A 
BRANCH  45  46
ATOM     46  C   UNL A   1      39.901  28.660  30.848  1.00  0.00     0.031 A 
ATOM     47  C   UNL A   1      40.836  28.533  32.030  1.00  0.00     0.074 A 
ATOM     48  C   UNL A   1      39.064  29.719  30.802  1.00  0.00     0.049 A 
ATOM     49  N   UNL A   1      40.946  29.299  33.089  1.00  0.00    -0.248 NA
ATOM     50  C   UNL A   1      41.756  27.387  32.027  1.00  0.00     0.031 C 
ATOM     51  C   UNL A   1      38.094  29.979  29.736  1.00  0.00     0.029 A 
ATOM     52  N   UNL A   1      38.884  30.772  31.672  1.00  0.00    -0.354 N 
ATOM     53  C   UNL A   1      41.930  28.721  33.888  1.00  0.00     0.074 A 
ATOM     54  C   UNL A   1      42.364  27.521  33.200  1.00  0.00     0.031 C 
ATOM     55  C   UNL A   1      37.433  31.116  30.007  1.00  0.00     0.029 A 
ATOM     56  C   UNL A   1      37.901  31.654  31.282  1.00  0.00     0.049 A 
ATOM     57  H   UNL A   1      39.410  30.884  32.496  1.00  0.00     0.167 HD
ATOM     58  C   UNL A   1      42.434  29.149  35.074  1.00  0.00     0.037 A 
ATOM     59  C   UNL A   1      37.415  32.762  31.878  1.00  0.00     0.037 A 
ATOM     60  C   UNL A   1      42.033  30.359  35.750  1.00  0.00     0.049 A 
ATOM     61  C   UNL A   1      37.989  33.219  33.194  1.00  0.00     0.074 A 
ATOM     62  C   UNL A   1      42.530  30.893  36.930  1.00  0.00     0.029 A 
ATOM     63  N   UNL A   1      41.043  31.225  35.313  1.00  0.00    -0.354 N 
ATOM     64  N   UNL A   1      38.944  32.675  33.909  1.00  0.00    -0.248 NA
ATOM     65  C   UNL A   1      37.423  34.443  33.783  1.00  0.00     0.031 C 
ATOM     66  C   UNL A   1      41.816  32.061  37.222  1.00  0.00     0.029 A 
ATOM     67  C   UNL A   1      40.903  32.279  36.205  1.00  0.00     0.049 A 
ATOM     68  H   UNL A   1      40.516  31.110  34.489  1.00  0.00     0.167 HD
ATOM     69  C   UNL A   1      39.108  33.501  35.017  1.00  0.00     0.074 A 
ATOM     70  C   UNL A   1      38.164  34.588  34.874  1.00  0.00     0.031 C 
ATOM     71  C   UNL A   1      39.969  33.367  36.056  1.00  0.00     0.037 A 
BRANCH  58  72
ATOM     72  C   UNL A   1      43.489  28.298  35.734  1.00  0.00     0.058 A 
ATOM     73  C   UNL A   1      44.859  28.555  35.564  1.00  0.00     0.135 A 
ATOM     74  C   UNL A   1      43.126  27.241  36.587  1.00  0.00     0.135 A 
ATOM     75  F   UNL A   1      45.264  29.550  34.760  1.00  0.00    -0.206 F 
ATOM     76  C   UNL A   1      45.830  27.771  36.181  1.00  0.00     0.059 A 
ATOM     77  C   UNL A   1      44.080  26.461  37.236  1.00  0.00     0.059 A 
ATOM     78  F   UNL A   1      41.831  26.958  36.798  1.00  0.00    -0.206 F 
ATOM     79  C   UNL A   1      45.431  26.722  37.012  1.00  0.00     0.060 A 
BRANCH  79  80
ATOM     80  S   UNL A   1      46.702  25.707  37.794  1.00  0.00     0.124 S 
ATOM     81  O   UNL A   1      47.851  25.967  36.932  1.00  0.00    -0.237 OA
ATOM     82  O   UNL A   1      46.776  26.272  39.137  1.00  0.00    -0.237 OA
ATOM     83  O   UNL A   1      46.154  24.356  37.716  1.00  0.00    -0.744 OA
ENDBRANCH  79  80
ENDBRANCH  58  72
BRANCH  59  84
ATOM     84  C   UNL A   1      36.321  33.535  31.227  1.00  0.00     0.058 A 
ATOM     85  C   UNL A   1      36.573  34.344  30.109  1.00  0.00     0.135 A 
ATOM     86  C   UNL A   1      35.003  33.475  31.705  1.00  0.00     0.135 A 
ATOM     87  F   UNL A   1      37.821  34.445  29.623  1.00  0.00    -0.206 F 
ATOM     88  C   UNL A   1      35.562  35.071  29.492  1.00  0.00     0.059 A 
ATOM     89  C   UNL A   1      33.969  34.174  31.091  1.00  0.00     0.059 A 
ATOM     90  F   UNL A   1      34.707  32.710  32.768  1.00  0.00    -0.206 F 
ATOM     91  C   UNL A   1      34.260  34.977  29.988  1.00  0.00     0.060 A 
BRANCH  91  92
ATOM     92  S   UNL A   1      32.943  35.881  29.144  1.00  0.00     0.124 S 
ATOM     93  O   UNL A   1      32.097  36.281  30.262  1.00  0.00    -0.237 OA
ATOM     94  O   UNL A   1      33.680  36.954  28.483  1.00  0.00    -0.237 OA
ATOM     95  O   UNL A   1      32.373  34.880  28.247  1.00  0.00    -0.744 OA
ENDBRANCH  91  92
ENDBRANCH  59  84
BRANCH  71  96
ATOM     96  C   UNL A   1      39.960  34.438  37.113  1.00  0.00     0.058 A 
ATOM     97  C   UNL A   1      40.692  35.626  36.967  1.00  0.00     0.135 A 
ATOM     98  C   UNL A   1      39.161  34.299  38.260  1.00  0.00     0.135 A 
ATOM     99  F   UNL A   1      41.477  35.807  35.893  1.00  0.00    -0.206 F 
ATOM    100  C   UNL A   1      40.648  36.633  37.928  1.00  0.00     0.059 A 
ATOM    101  C   UNL A   1      39.084  35.302  39.224  1.00  0.00     0.059 A 
ATOM    102  F   UNL A   1      38.434  33.187  38.447  1.00  0.00    -0.206 F 
ATOM    103  C   UNL A   1      39.837  36.462  39.053  1.00  0.00     0.060 A 
BRANCH 103 104
ATOM    104  S   UNL A   1      39.754  37.794  40.271  1.00  0.00     0.124 S 
ATOM    105  O   UNL A   1      39.984  37.071  41.515  1.00  0.00    -0.237 OA
ATOM    106  O   UNL A   1      40.828  38.681  39.843  1.00  0.00    -0.237 OA
ATOM    107  O   UNL A   1      38.402  38.327  40.095  1.00  0.00    -0.744 OA
ENDBRANCH 103 104
ENDBRANCH  71  96
ENDBRANCH  45  46
ENDBRANCH  37  40
ENDBRANCH  35  36
ENDBRANCH  34  35
ENDBRANCH   1  34
TORSDOF 18
ENDMDL
MODEL 2
REMARK VINA RESULT:     -12.2      0.759      7.779
REMARK SMILES CC(=O)N[C@H]1[C@@H](O[C@H](C)C(=O)NCCCNC(=O)c2ccc(-c3c4nc(c(-c5c(F)cc(S(=O)(=O)[O-])cc5F)c5ccc([nH]5)c(-c5c(F)cc(S(=O)(=O)[O-])cc5F)c5nc(c(-c6c(F)cc(S(=O)(=O)[O-])cc6F)c6ccc3[nH]6)C=C5)C=C4)cc2)[C@H]2OC(C)(C)OC[C@@H]2O[C@H]1Sc1ccc(Cl)cc1
REMARK SMILES IDX 13 1 12 2 10 3 11 4 8 6 9 7 7 8 6 9 5 10 94 11 85 12 93 13
REMARK SMILES IDX 86 14 92 15 87 16 91 17 88 18 89 19 90 20 4 21 1 22 2 23
REMARK SMILES IDX 3 24 95 26 96 27 97 28 102 29 98 30 101 31 99 32 100 33
REMARK SMILES IDX 14 34 15 35 16 36 17 37 18 39 19 40 20 41 84 42 21 43 83 44
REMARK SMILES IDX 22 45 23 46 24 47 77 48 25 49 82 50 76 51 78 52 26 53 81 54
REMARK SMILES IDX 75 55 74 56 27 58 61 59 40 60 60 61 41 62 44 63 59 64 79 65
REMARK SMILES IDX 42 66 43 67 58 69 80 70 45 71 28 72 29 73 38 74 30 75 31 76
REMARK SMILES IDX 37 77 39 78 32 79 33 80 34 81 35 82 36 83 62 84 63 85 72 86
REMARK SMILES IDX 64 87 65 88 71 89 73 90 66 91 67 92 68 93 69 94 70 95 46 96
REMARK SMILES IDX 47 97 56 98 48 99 49 100 55 101 57 102 50 103 51 104 52 105
REMARK SMILES IDX 53 106 54 107
REMARK H PARENT 12 5 4 25 16 38 78 57 44 68
REMARK Flexibility Score: inf
ROOT
ATOM      1  C   UNL A   1      36.627  23.742  24.474  1.00  0.00     0.117 C 
ENDROOT
BRANCH   1   2
ATOM      2  N   UNL A   1      35.332  24.152  25.078  1.00  0.00    -0.354 N 
ATOM      3  C   UNL A   1      34.329  25.089  25.000  1.00  0.00     0.248 C 
ATOM      4  O   UNL A   1      33.715  25.412  26.036  1.00  0.00    -0.272 OA
ATOM      5  H   UNL A   1      35.112  23.518  25.799  1.00  0.00     0.163 HD
BRANCH   3   6
ATOM      6  C   UNL A   1      33.674  25.669  23.809  1.00  0.00     0.204 C 
ATOM      7  C   UNL A   1      34.621  26.551  23.038  1.00  0.00     0.049 C 
BRANCH   6   8
ATOM      8  O   UNL A   1      33.023  24.620  23.168  1.00  0.00    -0.360 OA
BRANCH   8   9
ATOM      9  C   UNL A   1      31.571  24.544  23.307  1.00  0.00     0.177 C 
ATOM     10  C   UNL A   1      30.614  25.683  23.889  1.00  0.00     0.153 C 
ATOM     11  C   UNL A   1      30.468  25.770  25.501  1.00  0.00     0.206 C 
ATOM     12  C   UNL A   1      31.279  23.220  24.022  1.00  0.00     0.184 C 
ATOM     13  O   UNL A   1      30.183  24.414  26.023  1.00  0.00    -0.356 OA
ATOM     14  O   UNL A   1      32.394  22.353  23.777  1.00  0.00    -0.342 OA
ATOM     15  C   UNL A   1      31.030  23.366  25.521  1.00  0.00     0.177 C 
ATOM     16  C   UNL A   1      32.558  21.181  24.557  1.00  0.00     0.163 C 
ATOM     17  C   UNL A   1      30.686  21.931  25.931  1.00  0.00     0.198 C 
ATOM     18  C   UNL A   1      34.070  21.079  24.850  1.00  0.00     0.075 C 
ATOM     19  C   UNL A   1      32.200  19.989  23.678  1.00  0.00     0.075 C 
ATOM     20  O   UNL A   1      31.877  21.134  25.815  1.00  0.00    -0.348 OA
BRANCH  10  21
ATOM     21  N   UNL A   1      30.612  26.950  23.156  1.00  0.00    -0.347 N 
ATOM     22  C   UNL A   1      28.200  27.505  23.400  1.00  0.00     0.114 C 
ATOM     23  C   UNL A   1      29.591  27.823  22.910  1.00  0.00     0.217 C 
ATOM     24  O   UNL A   1      29.806  28.844  22.260  1.00  0.00    -0.275 OA
ATOM     25  H   UNL A   1      31.484  27.213  22.780  1.00  0.00     0.163 HD
ENDBRANCH  10  21
BRANCH  11  26
ATOM     26  S   UNL A   1      31.004  27.249  27.032  1.00  0.00    -0.092 SA
BRANCH  26  27
ATOM     27  C   UNL A   1      32.437  28.601  26.978  1.00  0.00     0.010 A 
ATOM     28  C   UNL A   1      33.856  28.501  26.976  1.00  0.00     0.016 A 
ATOM     29  C   UNL A   1      31.994  29.934  26.954  1.00  0.00     0.016 A 
ATOM     30  C   UNL A   1      34.740  29.556  27.280  1.00  0.00     0.021 A 
ATOM     31  C   UNL A   1      32.890  31.032  27.118  1.00  0.00     0.021 A 
ATOM     32  C   UNL A   1      34.245  30.832  27.362  1.00  0.00     0.041 A 
ATOM     33  Cl  UNL A   1      35.308  32.129  27.731  1.00  0.00    -0.084 Cl
ENDBRANCH  26  27
ENDBRANCH  11  26
ENDBRANCH   8   9
ENDBRANCH   6   8
ENDBRANCH   3   6
ENDBRANCH   1   2
BRANCH   1  34
ATOM     34  C   UNL A   1      37.634  22.972  25.454  1.00  0.00     0.042 C 
BRANCH  34  35
ATOM     35  C   UNL A   1      38.588  23.696  26.455  1.00  0.00     0.118 C 
BRANCH  35  36
ATOM     36  N   UNL A   1      39.774  24.317  25.864  1.00  0.00    -0.352 N 
ATOM     37  C   UNL A   1      40.564  25.395  26.201  1.00  0.00     0.251 C 
ATOM     38  H   UNL A   1      40.074  23.864  25.043  1.00  0.00     0.163 HD
ATOM     39  O   UNL A   1      41.505  25.664  25.451  1.00  0.00    -0.269 OA
BRANCH  37  40
ATOM     40  C   UNL A   1      40.348  26.276  27.381  1.00  0.00     0.039 A 
ATOM     41  C   UNL A   1      41.159  27.418  27.485  1.00  0.00     0.014 A 
ATOM     42  C   UNL A   1      39.545  25.929  28.469  1.00  0.00     0.014 A 
ATOM     43  C   UNL A   1      41.128  28.230  28.630  1.00  0.00     0.010 A 
ATOM     44  C   UNL A   1      39.498  26.761  29.613  1.00  0.00     0.010 A 
ATOM     45  C   UNL A   1      40.281  27.927  29.708  1.00  0.00    -0.014 A 
BRANCH  45  46
ATOM     46  C   UNL A   1      40.211  28.835  30.901  1.00  0.00     0.031 A 
ATOM     47  C   UNL A   1      39.211  29.966  30.980  1.00  0.00     0.074 A 
ATOM     48  C   UNL A   1      41.066  28.659  31.932  1.00  0.00     0.049 A 
ATOM     49  N   UNL A   1      39.055  30.873  31.915  1.00  0.00    -0.248 NA
ATOM     50  C   UNL A   1      38.275  30.103  29.856  1.00  0.00     0.031 C 
ATOM     51  C   UNL A   1      42.097  27.621  32.003  1.00  0.00     0.029 A 
ATOM     52  N   UNL A   1      41.214  29.348  33.116  1.00  0.00    -0.354 N 
ATOM     53  C   UNL A   1      38.020  31.701  31.486  1.00  0.00     0.074 A 
ATOM     54  C   UNL A   1      37.606  31.201  30.190  1.00  0.00     0.031 C 
ATOM     55  C   UNL A   1      42.759  27.735  33.165  1.00  0.00     0.029 A 
ATOM     56  C   UNL A   1      42.230  28.872  33.913  1.00  0.00     0.049 A 
ATOM     57  H   UNL A   1      40.645  30.110  33.368  1.00  0.00     0.167 HD
ATOM     58  C   UNL A   1      37.457  32.767  32.110  1.00  0.00     0.037 A 
ATOM     59  C   UNL A   1      42.700  29.301  35.104  1.00  0.00     0.037 A 
ATOM     60  C   UNL A   1      37.839  33.252  33.415  1.00  0.00     0.049 A 
ATOM     61  C   UNL A   1      42.061  30.486  35.778  1.00  0.00     0.074 A 
ATOM     62  C   UNL A   1      37.287  34.295  34.142  1.00  0.00     0.029 A 
ATOM     63  N   UNL A   1      38.865  32.732  34.189  1.00  0.00    -0.354 N 
ATOM     64  N   UNL A   1      41.060  31.227  35.368  1.00  0.00    -0.248 NA
ATOM     65  C   UNL A   1      42.613  30.892  37.081  1.00  0.00     0.031 C 
ATOM     66  C   UNL A   1      38.002  34.428  35.339  1.00  0.00     0.029 A 
ATOM     67  C   UNL A   1      38.972  33.441  35.377  1.00  0.00     0.049 A 
ATOM     68  H   UNL A   1      39.435  31.971  33.933  1.00  0.00     0.167 HD
ATOM     69  C   UNL A   1      40.848  32.169  36.371  1.00  0.00     0.074 A 
ATOM     70  C   UNL A   1      41.815  31.899  37.412  1.00  0.00     0.031 C 
ATOM     71  C   UNL A   1      39.930  33.165  36.419  1.00  0.00     0.037 A 
BRANCH  58  72
ATOM     72  C   UNL A   1      36.355  33.500  31.389  1.00  0.00     0.058 A 
ATOM     73  C   UNL A   1      36.613  34.305  30.268  1.00  0.00     0.135 A 
ATOM     74  C   UNL A   1      35.016  33.357  31.794  1.00  0.00     0.135 A 
ATOM     75  F   UNL A   1      37.872  34.479  29.838  1.00  0.00    -0.206 F 
ATOM     76  C   UNL A   1      35.592  34.975  29.600  1.00  0.00     0.059 A 
ATOM     77  C   UNL A   1      33.975  33.996  31.124  1.00  0.00     0.059 A 
ATOM     78  F   UNL A   1      34.708  32.589  32.850  1.00  0.00    -0.206 F 
ATOM     79  C   UNL A   1      34.275  34.818  30.038  1.00  0.00     0.060 A 
BRANCH  79  80
ATOM     80  S   UNL A   1      32.963  35.704  29.171  1.00  0.00     0.124 S 
ATOM     81  O   UNL A   1      32.437  34.659  28.298  1.00  0.00    -0.237 OA
ATOM     82  O   UNL A   1      32.087  36.118  30.262  1.00  0.00    -0.237 OA
ATOM     83  O   UNL A   1      33.671  36.786  28.495  1.00  0.00    -0.744 OA
ENDBRANCH  79  80
ENDBRANCH  58  72
BRANCH  59  84
ATOM     84  C   UNL A   1      43.840  28.592  35.749  1.00  0.00     0.058 A 
ATOM     85  C   UNL A   1      45.166  28.965  35.484  1.00  0.00     0.135 A 
ATOM     86  C   UNL A   1      43.625  27.535  36.648  1.00  0.00     0.135 A 
ATOM     87  F   UNL A   1      45.422  29.961  34.621  1.00  0.00    -0.206 F 
ATOM     88  C   UNL A   1      46.240  28.312  36.080  1.00  0.00     0.059 A 
ATOM     89  C   UNL A   1      44.682  26.882  37.274  1.00  0.00     0.059 A 
ATOM     90  F   UNL A   1      42.375  27.146  36.941  1.00  0.00    -0.206 F 
ATOM     91  C   UNL A   1      45.988  27.273  36.978  1.00  0.00     0.060 A 
BRANCH  91  92
ATOM     92  S   UNL A   1      47.388  26.470  37.789  1.00  0.00     0.124 S 
ATOM     93  O   UNL A   1      47.264  26.971  39.153  1.00  0.00    -0.237 OA
ATOM     94  O   UNL A   1      47.084  25.055  37.598  1.00  0.00    -0.237 OA
ATOM     95  O   UNL A   1      48.537  26.962  37.037  1.00  0.00    -0.744 OA
ENDBRANCH  91  92
ENDBRANCH  59  84
BRANCH  71  96
ATOM     96  C   UNL A   1      39.897  34.026  37.653  1.00  0.00     0.058 A 
ATOM     97  C   UNL A   1      40.578  35.251  37.717  1.00  0.00     0.135 A 
ATOM     98  C   UNL A   1      39.127  33.647  38.764  1.00  0.00     0.135 A 
ATOM     99  F   UNL A   1      41.335  35.657  36.686  1.00  0.00    -0.206 F 
ATOM    100  C   UNL A   1      40.511  36.064  38.846  1.00  0.00     0.059 A 
ATOM    101  C   UNL A   1      39.026  34.454  39.895  1.00  0.00     0.059 A 
ATOM    102  F   UNL A   1      38.448  32.489  38.754  1.00  0.00    -0.206 F 
ATOM    103  C   UNL A   1      39.729  35.657  39.930  1.00  0.00     0.060 A 
BRANCH 103 104
ATOM    104  S   UNL A   1      39.614  36.742  41.370  1.00  0.00     0.124 S 
ATOM    105  O   UNL A   1      40.978  36.696  41.883  1.00  0.00    -0.237 OA
ATOM    106  O   UNL A   1      39.200  38.008  40.779  1.00  0.00    -0.237 OA
ATOM    107  O   UNL A   1      38.607  36.088  42.206  1.00  0.00    -0.744 OA
ENDBRANCH 103 104
ENDBRANCH  71  96
ENDBRANCH  45  46
ENDBRANCH  37  40
ENDBRANCH  35  36
ENDBRANCH  34  35
ENDBRANCH   1  34
TORSDOF 18
ENDMDL
MODEL 3
REMARK VINA RESULT:     -11.9      1.320      2.483
REMARK SMILES CC(=O)N[C@H]1[C@@H](O[C@H](C)C(=O)NCCCNC(=O)c2ccc(-c3c4nc(c(-c5c(F)cc(S(=O)(=O)[O-])cc5F)c5ccc([nH]5)c(-c5c(F)cc(S(=O)(=O)[O-])cc5F)c5nc(c(-c6c(F)cc(S(=O)(=O)[O-])cc6F)c6ccc3[nH]6)C=C5)C=C4)cc2)[C@H]2OC(C)(C)OC[C@@H]2O[C@H]1Sc1ccc(Cl)cc1
REMARK SMILES IDX 13 1 12 2 10 3 11 4 8 6 9 7 7 8 6 9 5 10 94 11 85 12 93 13
REMARK SMILES IDX 86 14 92 15 87 16 91 17 88 18 89 19 90 20 4 21 1 22 2 23
REMARK SMILES IDX 3 24 95 26 96 27 97 28 102 29 98 30 101 31 99 32 100 33
REMARK SMILES IDX 14 34 15 35 16 36 17 37 18 39 19 40 20 41 84 42 21 43 83 44
REMARK SMILES IDX 22 45 23 46 24 47 77 48 25 49 82 50 76 51 78 52 26 53 81 54
REMARK SMILES IDX 75 55 74 56 27 58 61 59 40 60 60 61 41 62 44 63 59 64 79 65
REMARK SMILES IDX 42 66 43 67 58 69 80 70 45 71 28 72 29 73 38 74 30 75 31 76
REMARK SMILES IDX 37 77 39 78 32 79 33 80 34 81 35 82 36 83 62 84 63 85 72 86
REMARK SMILES IDX 64 87 65 88 71 89 73 90 66 91 67 92 68 93 69 94 70 95 46 96
REMARK SMILES IDX 47 97 56 98 48 99 49 100 55 101 57 102 50 103 51 104 52 105
REMARK SMILES IDX 53 106 54 107
REMARK H PARENT 12 5 4 25 16 38 78 57 44 68
REMARK Flexibility Score: inf
ROOT
ATOM      1  C   UNL A   1      38.267  22.090  25.493  1.00  0.00     0.117 C 
ENDROOT
BRANCH   1   2
ATOM      2  N   UNL A   1      36.870  21.946  25.980  1.00  0.00    -0.354 N 
ATOM      3  C   UNL A   1      35.702  22.641  26.194  1.00  0.00     0.248 C 
ATOM      4  O   UNL A   1      34.951  22.296  27.127  1.00  0.00    -0.272 OA
ATOM      5  H   UNL A   1      36.729  21.009  26.247  1.00  0.00     0.163 HD
BRANCH   3   6
ATOM      6  C   UNL A   1      35.040  23.651  25.343  1.00  0.00     0.204 C 
ATOM      7  C   UNL A   1      35.630  25.021  25.560  1.00  0.00     0.049 C 
BRANCH   6   8
ATOM      8  O   UNL A   1      34.984  23.113  24.062  1.00  0.00    -0.360 OA
BRANCH   8   9
ATOM      9  C   UNL A   1      33.778  23.366  23.278  1.00  0.00     0.177 C 
ATOM     10  C   UNL A   1      32.967  24.740  23.204  1.00  0.00     0.153 C 
ATOM     11  C   UNL A   1      31.900  25.031  24.389  1.00  0.00     0.206 C 
ATOM     12  C   UNL A   1      32.811  22.221  23.600  1.00  0.00     0.184 C 
ATOM     13  O   UNL A   1      31.048  23.832  24.562  1.00  0.00    -0.356 OA
ATOM     14  O   UNL A   1      33.603  21.114  24.049  1.00  0.00    -0.342 OA
ATOM     15  C   UNL A   1      31.749  22.579  24.636  1.00  0.00     0.177 C 
ATOM     16  C   UNL A   1      32.980  20.025  24.709  1.00  0.00     0.163 C 
ATOM     17  C   UNL A   1      30.902  21.304  24.680  1.00  0.00     0.198 C 
ATOM     18  C   UNL A   1      33.928  19.633  25.862  1.00  0.00     0.075 C 
ATOM     19  C   UNL A   1      32.958  18.849  23.740  1.00  0.00     0.075 C 
ATOM     20  O   UNL A   1      31.689  20.262  25.281  1.00  0.00    -0.348 OA
BRANCH  10  21
ATOM     21  N   UNL A   1      33.708  25.891  22.684  1.00  0.00    -0.347 N 
ATOM     22  C   UNL A   1      31.792  27.447  22.381  1.00  0.00     0.114 C 
ATOM     23  C   UNL A   1      33.264  27.129  22.314  1.00  0.00     0.217 C 
ATOM     24  O   UNL A   1      34.066  27.961  21.895  1.00  0.00    -0.275 OA
ATOM     25  H   UNL A   1      34.677  25.750  22.587  1.00  0.00     0.163 HD
ENDBRANCH  10  21
BRANCH  11  26
ATOM     26  S   UNL A   1      31.730  26.517  25.996  1.00  0.00    -0.092 SA
BRANCH  26  27
ATOM     27  C   UNL A   1      32.857  28.100  26.323  1.00  0.00     0.010 A 
ATOM     28  C   UNL A   1      34.259  28.264  26.504  1.00  0.00     0.016 A 
ATOM     29  C   UNL A   1      32.160  29.316  26.416  1.00  0.00     0.016 A 
ATOM     30  C   UNL A   1      34.872  29.401  27.066  1.00  0.00     0.021 A 
ATOM     31  C   UNL A   1      32.791  30.519  26.849  1.00  0.00     0.021 A 
ATOM     32  C   UNL A   1      34.124  30.536  27.249  1.00  0.00     0.041 A 
ATOM     33  Cl  UNL A   1      34.856  31.930  27.932  1.00  0.00    -0.084 Cl
ENDBRANCH  26  27
ENDBRANCH  11  26
ENDBRANCH   8   9
ENDBRANCH   6   8
ENDBRANCH   3   6
ENDBRANCH   1   2
BRANCH   1  34
ATOM     34  C   UNL A   1      39.408  21.895  26.601  1.00  0.00     0.042 C 
BRANCH  34  35
ATOM     35  C   UNL A   1      40.344  23.045  27.090  1.00  0.00     0.118 C 
BRANCH  35  36
ATOM     36  N   UNL A   1      40.810  23.966  26.054  1.00  0.00    -0.352 N 
ATOM     37  C   UNL A   1      41.175  25.295  26.041  1.00  0.00     0.251 C 
ATOM     38  H   UNL A   1      40.880  23.542  25.168  1.00  0.00     0.163 HD
ATOM     39  O   UNL A   1      41.513  25.780  24.959  1.00  0.00    -0.269 OA
BRANCH  37  40
ATOM     40  C   UNL A   1      41.162  26.196  27.227  1.00  0.00     0.039 A 
ATOM     41  C   UNL A   1      40.076  26.079  28.109  1.00  0.00     0.014 A 
ATOM     42  C   UNL A   1      42.043  27.266  27.395  1.00  0.00     0.014 A 
ATOM     43  C   UNL A   1      39.903  26.978  29.173  1.00  0.00     0.010 A 
ATOM     44  C   UNL A   1      41.880  28.158  28.481  1.00  0.00     0.010 A 
ATOM     45  C   UNL A   1      40.814  28.023  29.391  1.00  0.00    -0.014 A 
BRANCH  45  46
ATOM     46  C   UNL A   1      40.654  28.942  30.566  1.00  0.00     0.031 A 
ATOM     47  C   UNL A   1      41.515  28.808  31.802  1.00  0.00     0.074 A 
ATOM     48  C   UNL A   1      39.711  29.910  30.542  1.00  0.00     0.049 A 
ATOM     49  N   UNL A   1      41.469  29.485  32.925  1.00  0.00    -0.248 NA
ATOM     50  C   UNL A   1      42.552  27.767  31.777  1.00  0.00     0.031 C 
ATOM     51  C   UNL A   1      38.794  30.162  29.429  1.00  0.00     0.029 A 
ATOM     52  N   UNL A   1      39.360  30.858  31.477  1.00  0.00    -0.354 N 
ATOM     53  C   UNL A   1      42.454  28.943  33.747  1.00  0.00     0.074 A 
ATOM     54  C   UNL A   1      43.061  27.859  33.001  1.00  0.00     0.031 C 
ATOM     55  C   UNL A   1      37.996  31.197  29.739  1.00  0.00     0.029 A 
ATOM     56  C   UNL A   1      38.315  31.665  31.085  1.00  0.00     0.049 A 
ATOM     57  H   UNL A   1      39.814  30.950  32.345  1.00  0.00     0.167 HD
ATOM     58  C   UNL A   1      42.827  29.314  34.999  1.00  0.00     0.037 A 
ATOM     59  C   UNL A   1      37.673  32.661  31.730  1.00  0.00     0.037 A 
ATOM     60  C   UNL A   1      42.252  30.412  35.738  1.00  0.00     0.049 A 
ATOM     61  C   UNL A   1      38.104  33.056  33.118  1.00  0.00     0.074 A 
ATOM     62  C   UNL A   1      42.607  30.888  36.991  1.00  0.00     0.029 A 
ATOM     63  N   UNL A   1      41.206  31.208  35.297  1.00  0.00    -0.354 N 
ATOM     64  N   UNL A   1      39.061  32.552  33.858  1.00  0.00    -0.248 NA
ATOM     65  C   UNL A   1      37.370  34.159  33.758  1.00  0.00     0.031 C 
ATOM     66  C   UNL A   1      41.752  31.947  37.321  1.00  0.00     0.029 A 
ATOM     67  C   UNL A   1      40.892  32.159  36.257  1.00  0.00     0.049 A 
ATOM     68  H   UNL A   1      40.751  31.112  34.429  1.00  0.00     0.167 HD
ATOM     69  C   UNL A   1      39.060  33.290  35.038  1.00  0.00     0.074 A 
ATOM     70  C   UNL A   1      38.015  34.282  34.911  1.00  0.00     0.031 C 
ATOM     71  C   UNL A   1      39.857  33.154  36.126  1.00  0.00     0.037 A 
BRANCH  58  72
ATOM     72  C   UNL A   1      43.922  28.521  35.668  1.00  0.00     0.058 A 
ATOM     73  C   UNL A   1      43.637  27.444  36.523  1.00  0.00     0.135 A 
ATOM     74  C   UNL A   1      45.274  28.809  35.412  1.00  0.00     0.135 A 
ATOM     75  F   UNL A   1      42.364  27.124  36.804  1.00  0.00    -0.206 F 
ATOM     76  C   UNL A   1      44.649  26.710  37.133  1.00  0.00     0.059 A 
ATOM     77  C   UNL A   1      46.303  28.070  35.989  1.00  0.00     0.059 A 
ATOM     78  F   UNL A   1      45.606  29.818  34.591  1.00  0.00    -0.206 F 
ATOM     79  C   UNL A   1      45.981  27.033  36.864  1.00  0.00     0.060 A 
BRANCH  79  80
ATOM     80  S   UNL A   1      47.283  26.080  37.673  1.00  0.00     0.124 S 
ATOM     81  O   UNL A   1      46.755  24.723  37.571  1.00  0.00    -0.237 OA
ATOM     82  O   UNL A   1      48.448  26.371  36.844  1.00  0.00    -0.237 OA
ATOM     83  O   UNL A   1      47.325  26.636  39.022  1.00  0.00    -0.744 OA
ENDBRANCH  79  80
ENDBRANCH  58  72
BRANCH  59  84
ATOM     84  C   UNL A   1      36.548  33.372  31.061  1.00  0.00     0.058 A 
ATOM     85  C   UNL A   1      35.224  33.197  31.492  1.00  0.00     0.135 A 
ATOM     86  C   UNL A   1      36.775  34.245  29.985  1.00  0.00     0.135 A 
ATOM     87  F   UNL A   1      34.955  32.362  32.509  1.00  0.00    -0.206 F 
ATOM     88  C   UNL A   1      34.164  33.854  30.877  1.00  0.00     0.059 A 
ATOM     89  C   UNL A   1      35.734  34.932  29.369  1.00  0.00     0.059 A 
ATOM     90  F   UNL A   1      38.024  34.453  29.541  1.00  0.00    -0.206 F 
ATOM     91  C   UNL A   1      34.429  34.724  29.817  1.00  0.00     0.060 A 
BRANCH  91  92
ATOM     92  S   UNL A   1      33.052  35.616  29.063  1.00  0.00     0.124 S 
ATOM     93  O   UNL A   1      33.746  36.689  28.359  1.00  0.00    -0.237 OA
ATOM     94  O   UNL A   1      32.443  34.590  28.221  1.00  0.00    -0.237 OA
ATOM     95  O   UNL A   1      32.251  36.028  30.211  1.00  0.00    -0.744 OA
ENDBRANCH  91  92
ENDBRANCH  59  84
BRANCH  71  96
ATOM     96  C   UNL A   1      39.660  34.121  37.262  1.00  0.00     0.058 A 
ATOM     97  C   UNL A   1      38.910  33.784  38.398  1.00  0.00     0.135 A 
ATOM     98  C   UNL A   1      40.280  35.382  37.238  1.00  0.00     0.135 A 
ATOM     99  F   UNL A   1      38.291  32.594  38.469  1.00  0.00    -0.206 F 
ATOM    100  C   UNL A   1      38.766  34.666  39.465  1.00  0.00     0.059 A 
ATOM    101  C   UNL A   1      40.168  36.273  38.303  1.00  0.00     0.059 A 
ATOM    102  F   UNL A   1      41.016  35.754  36.179  1.00  0.00    -0.206 F 
ATOM    103  C   UNL A   1      39.401  35.909  39.409  1.00  0.00     0.060 A 
BRANCH 103 104
ATOM    104  S   UNL A   1      39.243  37.027  40.819  1.00  0.00     0.124 S 
ATOM    105  O   UNL A   1      38.541  36.189  41.783  1.00  0.00    -0.237 OA
ATOM    106  O   UNL A   1      40.632  37.335  41.136  1.00  0.00    -0.237 OA
ATOM    107  O   UNL A   1      38.468  38.145  40.278  1.00  0.00    -0.744 OA
ENDBRANCH 103 104
ENDBRANCH  71  96
ENDBRANCH  45  46
ENDBRANCH  37  40
ENDBRANCH  35  36
ENDBRANCH  34  35
ENDBRANCH   1  34
TORSDOF 18
ENDMDL
