MODEL 1
REMARK VINA RESULT:     -13.4      0.000      0.000
REMARK SMILES COc1ccc2c(c1)c(CC(=O)NCCCNC(=O)c1ccc(-c3c4nc(c(-c5c(F)cc(S(=O)(=O)[O-])cc5F)c5ccc([nH]5)c(-c5c(F)cc(S(=O)(=O)[O-])cc5F)c5nc(c(-c6c(F)cc(S(=O)(=O)[O-])cc6F)c6ccc3[nH]6)C=C5)C=C4)cc1)c(C(F)(F)F)n2C(=O)c1ccc(Cl)cc1
REMARK SMILES IDX 15 1 14 2 13 3 11 4 12 5 10 7 9 8 3 9 4 10 8 11 5 12 7 13
REMARK SMILES IDX 6 14 91 15 86 16 2 17 1 18 92 19 93 20 94 21 95 22 100 23
REMARK SMILES IDX 96 24 99 25 97 26 98 27 87 28 88 29 89 30 90 31 16 32 17 33
REMARK SMILES IDX 18 34 19 36 20 37 21 38 85 39 22 40 84 41 23 42 24 43 25 44
REMARK SMILES IDX 78 45 26 46 83 47 77 48 79 49 27 50 82 51 76 52 75 53 28 55
REMARK SMILES IDX 62 56 41 57 61 58 42 59 45 60 60 61 80 62 43 63 44 64 59 66
REMARK SMILES IDX 81 67 46 68 29 69 30 70 39 71 31 72 32 73 38 74 40 75 33 76
REMARK SMILES IDX 34 77 35 78 36 79 37 80 63 81 64 82 73 83 65 84 66 85 72 86
REMARK SMILES IDX 74 87 67 88 68 89 69 90 70 91 71 92 47 93 48 94 57 95 49 96
REMARK SMILES IDX 50 97 56 98 58 99 51 100 52 101 53 102 54 103 55 104
REMARK H PARENT 13 6 17 35 79 54 45 65
REMARK Flexibility Score: inf
ROOT
ATOM      1  C   UNL A   1      37.235  21.573  24.269  1.00  0.00     0.042 C 
ENDROOT
BRANCH   1   2
ATOM      2  C   UNL A   1      35.952  22.375  24.048  1.00  0.00     0.117 C 
BRANCH   2   3
ATOM      3  N   UNL A   1      35.261  22.660  25.295  1.00  0.00    -0.356 N 
ATOM      4  C   UNL A   1      34.529  23.752  25.654  1.00  0.00     0.224 C 
ATOM      5  O   UNL A   1      34.038  23.779  26.785  1.00  0.00    -0.275 OA
ATOM      6  H   UNL A   1      35.332  21.959  25.983  1.00  0.00     0.163 HD
BRANCH   4   7
ATOM      7  C   UNL A   1      34.290  24.875  24.660  1.00  0.00     0.138 C 
BRANCH   7   8
ATOM      8  C   UNL A   1      33.080  25.709  24.971  1.00  0.00     0.000 A 
ATOM      9  C   UNL A   1      33.695  28.775  27.167  1.00  0.00     0.119 A 
ATOM     10  C   UNL A   1      32.361  29.141  27.286  1.00  0.00     0.048 A 
ATOM     11  C   UNL A   1      34.040  27.659  26.402  1.00  0.00     0.057 A 
ATOM     12  C   UNL A   1      31.356  28.412  26.639  1.00  0.00     0.031 A 
ATOM     13  C   UNL A   1      33.044  26.905  25.742  1.00  0.00     0.008 A 
ATOM     14  C   UNL A   1      31.710  27.314  25.831  1.00  0.00     0.057 A 
ATOM     15  N   UNL A   1      30.972  26.510  24.949  1.00  0.00    -0.271 N 
ATOM     16  C   UNL A   1      31.763  25.408  24.640  1.00  0.00     0.135 A 
BRANCH   9  17
ATOM     17  O   UNL A   1      34.748  29.441  27.732  1.00  0.00    -0.497 OA
ATOM     18  C   UNL A   1      34.712  30.857  27.610  1.00  0.00     0.278 C 
ENDBRANCH   9  17
BRANCH  15  19
ATOM     19  C   UNL A   1      29.701  26.795  24.388  1.00  0.00     0.262 C 
ATOM     20  O   UNL A   1      28.787  26.016  24.659  1.00  0.00    -0.268 OA
BRANCH  19  21
ATOM     21  C   UNL A   1      29.420  27.877  23.434  1.00  0.00     0.040 A 
ATOM     22  C   UNL A   1      30.478  28.537  22.800  1.00  0.00     0.015 A 
ATOM     23  C   UNL A   1      28.095  28.275  23.225  1.00  0.00     0.015 A 
ATOM     24  C   UNL A   1      30.212  29.663  22.017  1.00  0.00     0.021 A 
ATOM     25  C   UNL A   1      27.836  29.398  22.434  1.00  0.00     0.021 A 
ATOM     26  C   UNL A   1      28.895  30.098  21.853  1.00  0.00     0.041 A 
ATOM     27  Cl  UNL A   1      28.581  31.532  20.954  1.00  0.00    -0.084 Cl
ENDBRANCH  19  21
ENDBRANCH  15  19
BRANCH  16  28
ATOM     28  C   UNL A   1      31.202  24.171  24.018  1.00  0.00     0.432 C 
ATOM     29  F   UNL A   1      30.585  24.426  22.842  1.00  0.00    -0.165 F 
ATOM     30  F   UNL A   1      32.220  23.308  23.726  1.00  0.00    -0.165 F 
ATOM     31  F   UNL A   1      30.376  23.480  24.831  1.00  0.00    -0.165 F 
ENDBRANCH  16  28
ENDBRANCH   7   8
ENDBRANCH   4   7
ENDBRANCH   2   3
ENDBRANCH   1   2
BRANCH   1  32
ATOM     32  C   UNL A   1      37.921  21.870  25.605  1.00  0.00     0.118 C 
BRANCH  32  33
ATOM     33  N   UNL A   1      39.354  21.643  25.606  1.00  0.00    -0.352 N 
ATOM     34  C   UNL A   1      40.424  22.214  26.238  1.00  0.00     0.251 C 
ATOM     35  H   UNL A   1      39.618  20.903  25.013  1.00  0.00     0.163 HD
ATOM     36  O   UNL A   1      41.509  21.650  26.068  1.00  0.00    -0.269 OA
BRANCH  34  37
ATOM     37  C   UNL A   1      40.382  23.471  27.034  1.00  0.00     0.039 A 
ATOM     38  C   UNL A   1      39.457  24.502  26.873  1.00  0.00     0.014 A 
ATOM     39  C   UNL A   1      41.418  23.637  27.973  1.00  0.00     0.014 A 
ATOM     40  C   UNL A   1      39.638  25.716  27.527  1.00  0.00     0.010 A 
ATOM     41  C   UNL A   1      41.585  24.838  28.653  1.00  0.00     0.010 A 
ATOM     42  C   UNL A   1      40.730  25.898  28.375  1.00  0.00    -0.014 A 
BRANCH  42  43
ATOM     43  C   UNL A   1      40.918  27.222  28.964  1.00  0.00     0.031 A 
ATOM     44  C   UNL A   1      42.090  27.992  28.454  1.00  0.00     0.074 A 
ATOM     45  C   UNL A   1      40.046  27.745  29.851  1.00  0.00     0.049 A 
ATOM     46  N   UNL A   1      43.123  28.428  29.102  1.00  0.00    -0.248 NA
ATOM     47  C   UNL A   1      42.167  28.211  27.001  1.00  0.00     0.031 C 
ATOM     48  C   UNL A   1      38.724  27.228  30.226  1.00  0.00     0.029 A 
ATOM     49  N   UNL A   1      40.124  28.914  30.545  1.00  0.00    -0.354 N 
ATOM     50  C   UNL A   1      43.892  29.135  28.176  1.00  0.00     0.074 A 
ATOM     51  C   UNL A   1      43.326  28.856  26.883  1.00  0.00     0.031 C 
ATOM     52  C   UNL A   1      38.044  28.183  30.898  1.00  0.00     0.029 A 
ATOM     53  C   UNL A   1      38.930  29.310  31.132  1.00  0.00     0.049 A 
ATOM     54  H   UNL A   1      40.956  29.434  30.623  1.00  0.00     0.167 HD
ATOM     55  C   UNL A   1      44.835  30.045  28.549  1.00  0.00     0.037 A 
ATOM     56  C   UNL A   1      38.675  30.502  31.722  1.00  0.00     0.037 A 
ATOM     57  C   UNL A   1      45.194  29.897  29.933  1.00  0.00     0.049 A 
ATOM     58  C   UNL A   1      39.981  31.103  32.086  1.00  0.00     0.074 A 
ATOM     59  C   UNL A   1      45.910  28.982  30.676  1.00  0.00     0.029 A 
ATOM     60  N   UNL A   1      44.488  30.661  30.825  1.00  0.00    -0.354 N 
ATOM     61  N   UNL A   1      40.787  30.612  32.985  1.00  0.00    -0.248 NA
ATOM     62  C   UNL A   1      40.574  32.088  31.193  1.00  0.00     0.031 C 
ATOM     63  C   UNL A   1      45.319  28.997  31.975  1.00  0.00     0.029 A 
ATOM     64  C   UNL A   1      44.288  29.938  31.973  1.00  0.00     0.049 A 
ATOM     65  H   UNL A   1      44.175  31.581  30.666  1.00  0.00     0.167 HD
ATOM     66  C   UNL A   1      42.057  30.904  32.521  1.00  0.00     0.074 A 
ATOM     67  C   UNL A   1      41.861  31.938  31.512  1.00  0.00     0.031 C 
ATOM     68  C   UNL A   1      43.111  30.084  32.804  1.00  0.00     0.037 A 
BRANCH  55  69
ATOM     69  C   UNL A   1      45.188  31.292  27.762  1.00  0.00     0.058 A 
ATOM     70  C   UNL A   1      46.426  31.376  27.087  1.00  0.00     0.135 A 
ATOM     71  C   UNL A   1      44.479  32.509  27.876  1.00  0.00     0.135 A 
ATOM     72  F   UNL A   1      47.195  30.287  26.931  1.00  0.00    -0.206 F 
ATOM     73  C   UNL A   1      46.941  32.585  26.611  1.00  0.00     0.059 A 
ATOM     74  C   UNL A   1      44.951  33.715  27.363  1.00  0.00     0.059 A 
ATOM     75  F   UNL A   1      43.341  32.605  28.574  1.00  0.00    -0.206 F 
ATOM     76  C   UNL A   1      46.200  33.752  26.768  1.00  0.00     0.060 A 
BRANCH  76  77
ATOM     77  S   UNL A   1      46.907  35.330  26.255  1.00  0.00     0.124 S 
ATOM     78  O   UNL A   1      47.610  34.954  25.033  1.00  0.00    -0.237 OA
ATOM     79  O   UNL A   1      45.716  36.154  26.078  1.00  0.00    -0.237 OA
ATOM     80  O   UNL A   1      47.757  35.702  27.382  1.00  0.00    -0.744 OA
ENDBRANCH  76  77
ENDBRANCH  55  69
BRANCH  56  81
ATOM     81  C   UNL A   1      37.423  31.299  31.683  1.00  0.00     0.058 A 
ATOM     82  C   UNL A   1      36.753  31.653  32.867  1.00  0.00     0.135 A 
ATOM     83  C   UNL A   1      37.040  31.990  30.516  1.00  0.00     0.135 A 
ATOM     84  F   UNL A   1      37.068  31.054  34.026  1.00  0.00    -0.206 F 
ATOM     85  C   UNL A   1      35.807  32.682  32.907  1.00  0.00     0.059 A 
ATOM     86  C   UNL A   1      36.095  33.014  30.530  1.00  0.00     0.059 A 
ATOM     87  F   UNL A   1      37.650  31.760  29.344  1.00  0.00    -0.206 F 
ATOM     88  C   UNL A   1      35.507  33.377  31.735  1.00  0.00     0.060 A 
BRANCH  88  89
ATOM     89  S   UNL A   1      34.448  34.840  31.825  1.00  0.00     0.124 S 
ATOM     90  O   UNL A   1      34.291  35.187  30.416  1.00  0.00    -0.237 OA
ATOM     91  O   UNL A   1      33.260  34.317  32.489  1.00  0.00    -0.237 OA
ATOM     92  O   UNL A   1      35.237  35.782  32.616  1.00  0.00    -0.744 OA
ENDBRANCH  88  89
ENDBRANCH  56  81
BRANCH  68  93
ATOM     93  C   UNL A   1      42.942  29.126  33.956  1.00  0.00     0.058 A 
ATOM     94  C   UNL A   1      43.205  29.436  35.303  1.00  0.00     0.135 A 
ATOM     95  C   UNL A   1      42.421  27.853  33.685  1.00  0.00     0.135 A 
ATOM     96  F   UNL A   1      43.608  30.664  35.658  1.00  0.00    -0.206 F 
ATOM     97  C   UNL A   1      43.019  28.500  36.324  1.00  0.00     0.059 A 
ATOM     98  C   UNL A   1      42.197  26.915  34.689  1.00  0.00     0.059 A 
ATOM     99  F   UNL A   1      42.089  27.516  32.427  1.00  0.00    -0.206 F 
ATOM    100  C   UNL A   1      42.520  27.237  36.005  1.00  0.00     0.060 A 
BRANCH 100 101
ATOM    101  S   UNL A   1      42.261  26.026  37.320  1.00  0.00     0.124 S 
ATOM    102  O   UNL A   1      42.683  24.783  36.685  1.00  0.00    -0.237 OA
ATOM    103  O   UNL A   1      43.124  26.521  38.388  1.00  0.00    -0.237 OA
ATOM    104  O   UNL A   1      40.830  26.127  37.600  1.00  0.00    -0.744 OA
ENDBRANCH 100 101
ENDBRANCH  68  93
ENDBRANCH  42  43
ENDBRANCH  34  37
ENDBRANCH  32  33
ENDBRANCH   1  32
TORSDOF 18
ENDMDL
MODEL 2
REMARK VINA RESULT:     -13.3      2.502      4.323
REMARK SMILES COc1ccc2c(c1)c(CC(=O)NCCCNC(=O)c1ccc(-c3c4nc(c(-c5c(F)cc(S(=O)(=O)[O-])cc5F)c5ccc([nH]5)c(-c5c(F)cc(S(=O)(=O)[O-])cc5F)c5nc(c(-c6c(F)cc(S(=O)(=O)[O-])cc6F)c6ccc3[nH]6)C=C5)C=C4)cc1)c(C(F)(F)F)n2C(=O)c1ccc(Cl)cc1
REMARK SMILES IDX 15 1 14 2 13 3 11 4 12 5 10 7 9 8 3 9 4 10 8 11 5 12 7 13
REMARK SMILES IDX 6 14 91 15 86 16 2 17 1 18 92 19 93 20 94 21 95 22 100 23
REMARK SMILES IDX 96 24 99 25 97 26 98 27 87 28 88 29 89 30 90 31 16 32 17 33
REMARK SMILES IDX 18 34 19 36 20 37 21 38 85 39 22 40 84 41 23 42 24 43 25 44
REMARK SMILES IDX 78 45 26 46 83 47 77 48 79 49 27 50 82 51 76 52 75 53 28 55
REMARK SMILES IDX 62 56 41 57 61 58 42 59 45 60 60 61 80 62 43 63 44 64 59 66
REMARK SMILES IDX 81 67 46 68 29 69 30 70 39 71 31 72 32 73 38 74 40 75 33 76
REMARK SMILES IDX 34 77 35 78 36 79 37 80 63 81 64 82 73 83 65 84 66 85 72 86
REMARK SMILES IDX 74 87 67 88 68 89 69 90 70 91 71 92 47 93 48 94 57 95 49 96
REMARK SMILES IDX 50 97 56 98 58 99 51 100 52 101 53 102 54 103 55 104
REMARK H PARENT 13 6 17 35 79 54 45 65
REMARK Flexibility Score: inf
ROOT
ATOM      1  C   UNL A   1      40.118  19.951  26.064  1.00  0.00     0.042 C 
ENDROOT
BRANCH   1   2
ATOM      2  C   UNL A   1      39.559  21.351  26.319  1.00  0.00     0.117 C 
BRANCH   2   3
ATOM      3  N   UNL A   1      38.860  21.884  25.160  1.00  0.00    -0.356 N 
ATOM      4  C   UNL A   1      37.522  21.972  24.917  1.00  0.00     0.224 C 
ATOM      5  O   UNL A   1      37.157  22.458  23.843  1.00  0.00    -0.275 OA
ATOM      6  H   UNL A   1      39.440  22.232  24.445  1.00  0.00     0.163 HD
BRANCH   4   7
ATOM      7  C   UNL A   1      36.521  21.529  25.968  1.00  0.00     0.138 C 
BRANCH   7   8
ATOM      8  C   UNL A   1      35.100  21.520  25.482  1.00  0.00     0.000 A 
ATOM      9  C   UNL A   1      33.855  18.206  24.044  1.00  0.00     0.119 A 
ATOM     10  C   UNL A   1      32.617  18.679  23.634  1.00  0.00     0.048 A 
ATOM     11  C   UNL A   1      34.746  19.067  24.687  1.00  0.00     0.057 A 
ATOM     12  C   UNL A   1      32.243  20.007  23.865  1.00  0.00     0.031 A 
ATOM     13  C   UNL A   1      34.395  20.414  24.929  1.00  0.00     0.008 A 
ATOM     14  C   UNL A   1      33.124  20.863  24.553  1.00  0.00     0.057 A 
ATOM     15  N   UNL A   1      32.977  22.161  25.068  1.00  0.00    -0.271 N 
ATOM     16  C   UNL A   1      34.250  22.617  25.398  1.00  0.00     0.135 A 
BRANCH   9  17
ATOM     17  O   UNL A   1      34.296  16.919  23.894  1.00  0.00    -0.497 OA
ATOM     18  C   UNL A   1      34.107  16.072  25.019  1.00  0.00     0.278 C 
ENDBRANCH   9  17
BRANCH  15  19
ATOM     19  C   UNL A   1      31.765  22.855  25.307  1.00  0.00     0.262 C 
ATOM     20  O   UNL A   1      31.011  22.381  26.157  1.00  0.00    -0.268 OA
BRANCH  19  21
ATOM     21  C   UNL A   1      31.295  24.025  24.551  1.00  0.00     0.040 A 
ATOM     22  C   UNL A   1      31.666  24.181  23.211  1.00  0.00     0.015 A 
ATOM     23  C   UNL A   1      30.538  25.001  25.207  1.00  0.00     0.015 A 
ATOM     24  C   UNL A   1      31.348  25.368  22.547  1.00  0.00     0.021 A 
ATOM     25  C   UNL A   1      30.216  26.183  24.533  1.00  0.00     0.021 A 
ATOM     26  C   UNL A   1      30.641  26.370  23.216  1.00  0.00     0.041 A 
ATOM     27  Cl  UNL A   1      30.323  27.861  22.418  1.00  0.00    -0.084 Cl
ENDBRANCH  19  21
ENDBRANCH  15  19
BRANCH  16  28
ATOM     28  C   UNL A   1      34.541  24.061  25.643  1.00  0.00     0.432 C 
ATOM     29  F   UNL A   1      33.704  24.603  26.556  1.00  0.00    -0.165 F 
ATOM     30  F   UNL A   1      35.796  24.189  26.167  1.00  0.00    -0.165 F 
ATOM     31  F   UNL A   1      34.548  24.814  24.522  1.00  0.00    -0.165 F 
ENDBRANCH  16  28
ENDBRANCH   7   8
ENDBRANCH   4   7
ENDBRANCH   2   3
ENDBRANCH   1   2
BRANCH   1  32
ATOM     32  C   UNL A   1      41.517  19.734  26.645  1.00  0.00     0.118 C 
BRANCH  32  33
ATOM     33  N   UNL A   1      42.586  19.779  25.667  1.00  0.00    -0.352 N 
ATOM     34  C   UNL A   1      43.549  20.689  25.327  1.00  0.00     0.251 C 
ATOM     35  H   UNL A   1      42.630  18.962  25.119  1.00  0.00     0.163 HD
ATOM     36  O   UNL A   1      44.378  20.306  24.495  1.00  0.00    -0.269 OA
BRANCH  34  37
ATOM     37  C   UNL A   1      43.622  22.090  25.823  1.00  0.00     0.039 A 
ATOM     38  C   UNL A   1      44.418  22.535  26.878  1.00  0.00     0.014 A 
ATOM     39  C   UNL A   1      42.753  23.007  25.203  1.00  0.00     0.014 A 
ATOM     40  C   UNL A   1      44.251  23.818  27.390  1.00  0.00     0.010 A 
ATOM     41  C   UNL A   1      42.605  24.300  25.691  1.00  0.00     0.010 A 
ATOM     42  C   UNL A   1      43.309  24.679  26.828  1.00  0.00    -0.014 A 
BRANCH  42  43
ATOM     43  C   UNL A   1      43.115  25.981  27.463  1.00  0.00     0.031 A 
ATOM     44  C   UNL A   1      44.189  26.985  27.208  1.00  0.00     0.074 A 
ATOM     45  C   UNL A   1      42.004  26.280  28.166  1.00  0.00     0.049 A 
ATOM     46  N   UNL A   1      44.972  27.575  28.055  1.00  0.00    -0.248 NA
ATOM     47  C   UNL A   1      44.499  27.292  25.802  1.00  0.00     0.031 C 
ATOM     48  C   UNL A   1      40.763  25.503  28.263  1.00  0.00     0.029 A 
ATOM     49  N   UNL A   1      41.716  27.405  28.879  1.00  0.00    -0.354 N 
ATOM     50  C   UNL A   1      45.750  28.463  27.311  1.00  0.00     0.074 A 
ATOM     51  C   UNL A   1      45.510  28.151  25.926  1.00  0.00     0.031 C 
ATOM     52  C   UNL A   1      39.792  26.274  28.801  1.00  0.00     0.029 A 
ATOM     53  C   UNL A   1      40.377  27.534  29.223  1.00  0.00     0.049 A 
ATOM     54  H   UNL A   1      42.398  28.068  29.129  1.00  0.00     0.167 HD
ATOM     55  C   UNL A   1      46.406  29.515  27.878  1.00  0.00     0.037 A 
ATOM     56  C   UNL A   1      39.784  28.623  29.768  1.00  0.00     0.037 A 
ATOM     57  C   UNL A   1      46.515  29.363  29.303  1.00  0.00     0.049 A 
ATOM     58  C   UNL A   1      40.851  29.441  30.393  1.00  0.00     0.074 A 
ATOM     59  C   UNL A   1      47.240  28.562  30.159  1.00  0.00     0.029 A 
ATOM     60  N   UNL A   1      45.514  29.931  30.048  1.00  0.00    -0.354 N 
ATOM     61  N   UNL A   1      41.550  29.064  31.427  1.00  0.00    -0.248 NA
ATOM     62  C   UNL A   1      41.399  30.567  29.651  1.00  0.00     0.031 C 
ATOM     63  C   UNL A   1      46.419  28.396  31.315  1.00  0.00     0.029 A 
ATOM     64  C   UNL A   1      45.244  29.123  31.122  1.00  0.00     0.049 A 
ATOM     65  H   UNL A   1      45.062  30.782  29.843  1.00  0.00     0.167 HD
ATOM     66  C   UNL A   1      42.803  29.617  31.230  1.00  0.00     0.074 A 
ATOM     67  C   UNL A   1      42.605  30.647  30.218  1.00  0.00     0.031 C 
ATOM     68  C   UNL A   1      43.924  28.997  31.705  1.00  0.00     0.037 A 
BRANCH  55  69
ATOM     69  C   UNL A   1      46.651  30.845  27.195  1.00  0.00     0.058 A 
ATOM     70  C   UNL A   1      47.960  31.374  27.122  1.00  0.00     0.135 A 
ATOM     71  C   UNL A   1      45.618  31.748  26.857  1.00  0.00     0.135 A 
ATOM     72  F   UNL A   1      49.022  30.615  27.435  1.00  0.00    -0.206 F 
ATOM     73  C   UNL A   1      48.214  32.708  26.793  1.00  0.00     0.059 A 
ATOM     74  C   UNL A   1      45.853  33.066  26.476  1.00  0.00     0.059 A 
ATOM     75  F   UNL A   1      44.325  31.421  26.974  1.00  0.00    -0.206 F 
ATOM     76  C   UNL A   1      47.150  33.550  26.485  1.00  0.00     0.060 A 
BRANCH  76  77
ATOM     77  S   UNL A   1      47.462  35.298  26.166  1.00  0.00     0.124 S 
ATOM     78  O   UNL A   1      48.338  35.232  25.001  1.00  0.00    -0.237 OA
ATOM     79  O   UNL A   1      46.116  35.809  25.927  1.00  0.00    -0.237 OA
ATOM     80  O   UNL A   1      48.089  35.760  27.401  1.00  0.00    -0.744 OA
ENDBRANCH  76  77
ENDBRANCH  55  69
BRANCH  56  81
ATOM     81  C   UNL A   1      38.431  29.170  29.493  1.00  0.00     0.058 A 
ATOM     82  C   UNL A   1      37.538  29.452  30.540  1.00  0.00     0.135 A 
ATOM     83  C   UNL A   1      38.113  29.715  28.233  1.00  0.00     0.135 A 
ATOM     84  F   UNL A   1      37.774  28.983  31.775  1.00  0.00    -0.206 F 
ATOM     85  C   UNL A   1      36.430  30.287  30.367  1.00  0.00     0.059 A 
ATOM     86  C   UNL A   1      37.009  30.544  28.034  1.00  0.00     0.059 A 
ATOM     87  F   UNL A   1      38.924  29.543  27.180  1.00  0.00    -0.206 F 
ATOM     88  C   UNL A   1      36.191  30.853  29.115  1.00  0.00     0.060 A 
BRANCH  88  89
ATOM     89  S   UNL A   1      34.888  32.094  28.940  1.00  0.00     0.124 S 
ATOM     90  O   UNL A   1      34.477  32.298  30.325  1.00  0.00    -0.237 OA
ATOM     91  O   UNL A   1      35.602  33.201  28.316  1.00  0.00    -0.237 OA
ATOM     92  O   UNL A   1      33.902  31.433  28.088  1.00  0.00    -0.744 OA
ENDBRANCH  88  89
ENDBRANCH  56  81
BRANCH  68  93
ATOM     93  C   UNL A   1      43.728  27.965  32.785  1.00  0.00     0.058 A 
ATOM     94  C   UNL A   1      43.491  28.257  34.141  1.00  0.00     0.135 A 
ATOM     95  C   UNL A   1      43.711  26.613  32.412  1.00  0.00     0.135 A 
ATOM     96  F   UNL A   1      43.390  29.526  34.562  1.00  0.00    -0.206 F 
ATOM     97  C   UNL A   1      43.310  27.248  35.092  1.00  0.00     0.059 A 
ATOM     98  C   UNL A   1      43.502  25.592  33.335  1.00  0.00     0.059 A 
ATOM     99  F   UNL A   1      43.867  26.270  31.122  1.00  0.00    -0.206 F 
ATOM    100  C   UNL A   1      43.325  25.916  34.678  1.00  0.00     0.060 A 
BRANCH 100 101
ATOM    101  S   UNL A   1      43.076  24.606  35.897  1.00  0.00     0.124 S 
ATOM    102  O   UNL A   1      44.067  24.937  36.915  1.00  0.00    -0.237 OA
ATOM    103  O   UNL A   1      41.681  24.786  36.282  1.00  0.00    -0.237 OA
ATOM    104  O   UNL A   1      43.345  23.383  35.142  1.00  0.00    -0.744 OA
ENDBRANCH 100 101
ENDBRANCH  68  93
ENDBRANCH  42  43
ENDBRANCH  34  37
ENDBRANCH  32  33
ENDBRANCH   1  32
TORSDOF 18
ENDMDL
MODEL 3
REMARK VINA RESULT:     -13.0      3.439      9.656
REMARK SMILES COc1ccc2c(c1)c(CC(=O)NCCCNC(=O)c1ccc(-c3c4nc(c(-c5c(F)cc(S(=O)(=O)[O-])cc5F)c5ccc([nH]5)c(-c5c(F)cc(S(=O)(=O)[O-])cc5F)c5nc(c(-c6c(F)cc(S(=O)(=O)[O-])cc6F)c6ccc3[nH]6)C=C5)C=C4)cc1)c(C(F)(F)F)n2C(=O)c1ccc(Cl)cc1
REMARK SMILES IDX 15 1 14 2 13 3 11 4 12 5 10 7 9 8 3 9 4 10 8 11 5 12 7 13
REMARK SMILES IDX 6 14 91 15 86 16 2 17 1 18 92 19 93 20 94 21 95 22 100 23
REMARK SMILES IDX 96 24 99 25 97 26 98 27 87 28 88 29 89 30 90 31 16 32 17 33
REMARK SMILES IDX 18 34 19 36 20 37 21 38 85 39 22 40 84 41 23 42 24 43 25 44
REMARK SMILES IDX 78 45 26 46 83 47 77 48 79 49 27 50 82 51 76 52 75 53 28 55
REMARK SMILES IDX 62 56 41 57 61 58 42 59 45 60 60 61 80 62 43 63 44 64 59 66
REMARK SMILES IDX 81 67 46 68 29 69 30 70 39 71 31 72 32 73 38 74 40 75 33 76
REMARK SMILES IDX 34 77 35 78 36 79 37 80 63 81 64 82 73 83 65 84 66 85 72 86
REMARK SMILES IDX 74 87 67 88 68 89 69 90 70 91 71 92 47 93 48 94 57 95 49 96
REMARK SMILES IDX 50 97 56 98 58 99 51 100 52 101 53 102 54 103 55 104
REMARK H PARENT 13 6 17 35 79 54 45 65
REMARK Flexibility Score: inf
ROOT
ATOM      1  C   UNL A   1      32.682  29.102  26.550  1.00  0.00     0.042 C 
ENDROOT
BRANCH   1   2
ATOM      2  C   UNL A   1      32.138  28.170  27.632  1.00  0.00     0.117 C 
BRANCH   2   3
ATOM      3  N   UNL A   1      31.306  27.113  27.079  1.00  0.00    -0.356 N 
ATOM      4  C   UNL A   1      31.669  25.928  26.511  1.00  0.00     0.224 C 
ATOM      5  O   UNL A   1      30.776  25.184  26.097  1.00  0.00    -0.275 OA
ATOM      6  H   UNL A   1      30.336  27.277  27.122  1.00  0.00     0.163 HD
BRANCH   4   7
ATOM      7  C   UNL A   1      33.131  25.527  26.443  1.00  0.00     0.138 C 
BRANCH   7   8
ATOM      8  C   UNL A   1      33.388  24.327  25.577  1.00  0.00     0.000 A 
ATOM      9  C   UNL A   1      32.887  24.848  21.824  1.00  0.00     0.119 A 
ATOM     10  C   UNL A   1      33.099  23.525  21.463  1.00  0.00     0.048 A 
ATOM     11  C   UNL A   1      32.980  25.221  23.167  1.00  0.00     0.057 A 
ATOM     12  C   UNL A   1      33.416  22.559  22.424  1.00  0.00     0.031 A 
ATOM     13  C   UNL A   1      33.296  24.265  24.158  1.00  0.00     0.008 A 
ATOM     14  C   UNL A   1      33.555  22.945  23.772  1.00  0.00     0.057 A 
ATOM     15  N   UNL A   1      34.013  22.264  24.910  1.00  0.00    -0.271 N 
ATOM     16  C   UNL A   1      33.669  23.037  26.015  1.00  0.00     0.135 A 
BRANCH   9  17
ATOM     17  O   UNL A   1      32.606  25.867  20.956  1.00  0.00    -0.497 OA
ATOM     18  C   UNL A   1      32.458  25.487  19.594  1.00  0.00     0.278 C 
ENDBRANCH   9  17
BRANCH  15  19
ATOM     19  C   UNL A   1      34.771  21.067  24.946  1.00  0.00     0.262 C 
ATOM     20  O   UNL A   1      35.995  21.186  24.990  1.00  0.00    -0.268 OA
BRANCH  19  21
ATOM     21  C   UNL A   1      34.217  19.710  24.828  1.00  0.00     0.040 A 
ATOM     22  C   UNL A   1      32.850  19.497  25.033  1.00  0.00     0.015 A 
ATOM     23  C   UNL A   1      35.082  18.640  24.578  1.00  0.00     0.015 A 
ATOM     24  C   UNL A   1      32.359  18.191  25.074  1.00  0.00     0.021 A 
ATOM     25  C   UNL A   1      34.583  17.335  24.612  1.00  0.00     0.021 A 
ATOM     26  C   UNL A   1      33.230  17.116  24.882  1.00  0.00     0.041 A 
ATOM     27  Cl  UNL A   1      32.635  15.506  25.013  1.00  0.00    -0.084 Cl
ENDBRANCH  19  21
ENDBRANCH  15  19
BRANCH  16  28
ATOM     28  C   UNL A   1      33.673  22.491  27.405  1.00  0.00     0.432 C 
ATOM     29  F   UNL A   1      34.699  22.976  28.141  1.00  0.00    -0.165 F 
ATOM     30  F   UNL A   1      32.534  22.880  28.051  1.00  0.00    -0.165 F 
ATOM     31  F   UNL A   1      33.666  21.142  27.460  1.00  0.00    -0.165 F 
ENDBRANCH  16  28
ENDBRANCH   7   8
ENDBRANCH   4   7
ENDBRANCH   2   3
ENDBRANCH   1   2
BRANCH   1  32
ATOM     32  C   UNL A   1      34.015  29.758  26.920  1.00  0.00     0.118 C 
BRANCH  32  33
ATOM     33  N   UNL A   1      33.895  30.902  27.802  1.00  0.00    -0.352 N 
ATOM     34  C   UNL A   1      34.736  31.554  28.663  1.00  0.00     0.251 C 
ATOM     35  H   UNL A   1      32.998  31.306  27.776  1.00  0.00     0.163 HD
ATOM     36  O   UNL A   1      34.291  32.590  29.165  1.00  0.00    -0.269 OA
BRANCH  34  37
ATOM     37  C   UNL A   1      36.082  31.074  29.077  1.00  0.00     0.039 A 
ATOM     38  C   UNL A   1      37.253  31.830  29.057  1.00  0.00     0.014 A 
ATOM     39  C   UNL A   1      36.163  29.718  29.450  1.00  0.00     0.014 A 
ATOM     40  C   UNL A   1      38.486  31.221  29.267  1.00  0.00     0.010 A 
ATOM     41  C   UNL A   1      37.390  29.112  29.690  1.00  0.00     0.010 A 
ATOM     42  C   UNL A   1      38.555  29.853  29.532  1.00  0.00    -0.014 A 
BRANCH  42  43
ATOM     43  C   UNL A   1      39.881  29.252  29.655  1.00  0.00     0.031 A 
ATOM     44  C   UNL A   1      40.407  29.137  31.047  1.00  0.00     0.074 A 
ATOM     45  C   UNL A   1      40.550  28.762  28.591  1.00  0.00     0.049 A 
ATOM     46  N   UNL A   1      41.470  29.668  31.563  1.00  0.00    -0.248 NA
ATOM     47  C   UNL A   1      39.573  28.415  32.020  1.00  0.00     0.031 C 
ATOM     48  C   UNL A   1      40.048  28.556  27.228  1.00  0.00     0.029 A 
ATOM     49  N   UNL A   1      41.813  28.255  28.531  1.00  0.00    -0.354 N 
ATOM     50  C   UNL A   1      41.539  29.200  32.877  1.00  0.00     0.074 A 
ATOM     51  C   UNL A   1      40.283  28.546  33.140  1.00  0.00     0.031 C 
ATOM     52  C   UNL A   1      40.912  27.772  26.545  1.00  0.00     0.029 A 
ATOM     53  C   UNL A   1      42.090  27.552  27.365  1.00  0.00     0.049 A 
ATOM     54  H   UNL A   1      42.473  28.376  29.251  1.00  0.00     0.167 HD
ATOM     55  C   UNL A   1      42.690  29.225  33.604  1.00  0.00     0.037 A 
ATOM     56  C   UNL A   1      43.188  26.800  27.117  1.00  0.00     0.037 A 
ATOM     57  C   UNL A   1      43.663  30.110  33.023  1.00  0.00     0.049 A 
ATOM     58  C   UNL A   1      44.250  27.245  28.051  1.00  0.00     0.074 A 
ATOM     59  C   UNL A   1      43.811  31.475  32.904  1.00  0.00     0.029 A 
ATOM     60  N   UNL A   1      44.546  29.540  32.143  1.00  0.00    -0.354 N 
ATOM     61  N   UNL A   1      44.810  28.422  28.014  1.00  0.00    -0.248 NA
ATOM     62  C   UNL A   1      44.465  26.494  29.279  1.00  0.00     0.031 C 
ATOM     63  C   UNL A   1      44.525  31.679  31.686  1.00  0.00     0.029 A 
ATOM     64  C   UNL A   1      44.803  30.428  31.131  1.00  0.00     0.049 A 
ATOM     65  H   UNL A   1      44.933  28.639  32.225  1.00  0.00     0.167 HD
ATOM     66  C   UNL A   1      45.089  28.724  29.335  1.00  0.00     0.074 A 
ATOM     67  C   UNL A   1      45.002  27.450  30.039  1.00  0.00     0.031 C 
ATOM     68  C   UNL A   1      45.091  30.017  29.772  1.00  0.00     0.037 A 
BRANCH  55  69
ATOM     69  C   UNL A   1      43.070  28.197  34.650  1.00  0.00     0.058 A 
ATOM     70  C   UNL A   1      43.264  28.590  35.993  1.00  0.00     0.135 A 
ATOM     71  C   UNL A   1      43.521  26.896  34.333  1.00  0.00     0.135 A 
ATOM     72  F   UNL A   1      42.890  29.811  36.409  1.00  0.00    -0.206 F 
ATOM     73  C   UNL A   1      43.905  27.775  36.930  1.00  0.00     0.059 A 
ATOM     74  C   UNL A   1      44.114  26.047  35.264  1.00  0.00     0.059 A 
ATOM     75  F   UNL A   1      43.495  26.422  33.081  1.00  0.00    -0.206 F 
ATOM     76  C   UNL A   1      44.339  26.508  36.550  1.00  0.00     0.060 A 
BRANCH  76  77
ATOM     77  S   UNL A   1      45.262  25.495  37.722  1.00  0.00     0.124 S 
ATOM     78  O   UNL A   1      45.064  26.231  38.966  1.00  0.00    -0.237 OA
ATOM     79  O   UNL A   1      44.575  24.212  37.622  1.00  0.00    -0.237 OA
ATOM     80  O   UNL A   1      46.621  25.514  37.188  1.00  0.00    -0.744 OA
ENDBRANCH  76  77
ENDBRANCH  55  69
BRANCH  56  81
ATOM     81  C   UNL A   1      43.276  25.515  26.378  1.00  0.00     0.058 A 
ATOM     82  C   UNL A   1      44.200  25.342  25.333  1.00  0.00     0.135 A 
ATOM     83  C   UNL A   1      42.681  24.343  26.889  1.00  0.00     0.135 A 
ATOM     84  F   UNL A   1      44.823  26.404  24.800  1.00  0.00    -0.206 F 
ATOM     85  C   UNL A   1      44.568  24.076  24.868  1.00  0.00     0.059 A 
ATOM     86  C   UNL A   1      43.026  23.071  26.436  1.00  0.00     0.059 A 
ATOM     87  F   UNL A   1      41.822  24.396  27.917  1.00  0.00    -0.206 F 
ATOM     88  C   UNL A   1      43.996  22.944  25.448  1.00  0.00     0.060 A 
BRANCH  88  89
ATOM     89  S   UNL A   1      44.623  21.309  24.997  1.00  0.00     0.124 S 
ATOM     90  O   UNL A   1      43.616  20.427  25.578  1.00  0.00    -0.237 OA
ATOM     91  O   UNL A   1      44.644  21.381  23.541  1.00  0.00    -0.237 OA
ATOM     92  O   UNL A   1      45.936  21.261  25.636  1.00  0.00    -0.744 OA
ENDBRANCH  88  89
ENDBRANCH  56  81
BRANCH  68  93
ATOM     93  C   UNL A   1      45.208  31.093  28.722  1.00  0.00     0.058 A 
ATOM     94  C   UNL A   1      46.421  31.551  28.175  1.00  0.00     0.135 A 
ATOM     95  C   UNL A   1      44.026  31.636  28.198  1.00  0.00     0.135 A 
ATOM     96  F   UNL A   1      47.590  31.011  28.548  1.00  0.00    -0.206 F 
ATOM     97  C   UNL A   1      46.457  32.548  27.196  1.00  0.00     0.059 A 
ATOM     98  C   UNL A   1      44.036  32.607  27.202  1.00  0.00     0.059 A 
ATOM     99  F   UNL A   1      42.834  31.196  28.634  1.00  0.00    -0.206 F 
ATOM    100  C   UNL A   1      45.256  33.077  26.720  1.00  0.00     0.060 A 
BRANCH 100 101
ATOM    101  S   UNL A   1      45.292  34.355  25.445  1.00  0.00     0.124 S 
ATOM    102  O   UNL A   1      44.584  35.455  26.089  1.00  0.00    -0.237 OA
ATOM    103  O   UNL A   1      46.722  34.556  25.231  1.00  0.00    -0.237 OA
ATOM    104  O   UNL A   1      44.591  33.736  24.322  1.00  0.00    -0.744 OA
ENDBRANCH 100 101
ENDBRANCH  68  93
ENDBRANCH  42  43
ENDBRANCH  34  37
ENDBRANCH  32  33
ENDBRANCH   1  32
TORSDOF 18
ENDMDL
