MODEL 1
REMARK VINA RESULT:     -11.4      0.000      0.000
REMARK SMILES O=C(NCCCNC(=O)C1([NH+]2CCOCC2)CCC1)c1ccc(-c2c3nc(c(-c4c(F)cc(S(=O)(=O)[O-])cc4F)c4ccc([nH]4)c(-c4c(F)cc(S(=O)(=O)[O-])cc4F)c4nc(c(-c5c(F)cc(S(=O)(=O)[O-])cc5F)c5ccc2[nH]5)C=C4)C=C3)cc1
REMARK SMILES IDX 4 1 3 2 1 3 2 4 20 6 21 7 85 8 22 9 84 10 23 11 24 12 25 13
REMARK SMILES IDX 78 14 26 15 83 16 77 17 79 18 27 19 82 20 76 21 75 22 28 24
REMARK SMILES IDX 62 25 41 26 61 27 42 28 45 29 60 30 80 31 43 32 44 33 59 35
REMARK SMILES IDX 81 36 46 37 29 38 30 39 39 40 31 41 32 42 38 43 40 44 33 45
REMARK SMILES IDX 34 46 35 47 36 48 37 49 63 50 64 51 73 52 65 53 66 54 72 55
REMARK SMILES IDX 74 56 67 57 68 58 69 59 70 60 71 61 47 62 48 63 57 64 49 65
REMARK SMILES IDX 50 66 56 67 58 68 51 69 52 70 53 71 54 72 55 73 5 74 6 75
REMARK SMILES IDX 7 76 8 77 9 79 10 80 17 81 19 82 18 83 11 84 12 85 16 86
REMARK SMILES IDX 13 88 15 89 14 90
REMARK H PARENT 3 5 79 23 45 34 7 78 11 87
REMARK Flexibility Score: inf
ROOT
ATOM      1  C   UNL A   1      35.614  30.834  27.919  1.00  0.00     0.118 C 
ENDROOT
BRANCH   1   2
ATOM      2  N   UNL A   1      35.509  30.787  29.370  1.00  0.00    -0.352 N 
ATOM      3  O   UNL A   1      36.030  30.095  31.447  1.00  0.00    -0.269 OA
ATOM      4  C   UNL A   1      36.392  30.276  30.290  1.00  0.00     0.251 C 
ATOM      5  H   UNL A   1      34.686  31.177  29.746  1.00  0.00     0.163 HD
BRANCH   4   6
ATOM      6  C   UNL A   1      37.766  29.937  29.869  1.00  0.00     0.039 A 
ATOM      7  C   UNL A   1      38.715  29.542  30.815  1.00  0.00     0.014 A 
ATOM      8  C   UNL A   1      38.108  29.997  28.515  1.00  0.00     0.014 A 
ATOM      9  C   UNL A   1      40.035  29.361  30.435  1.00  0.00     0.010 A 
ATOM     10  C   UNL A   1      39.414  29.700  28.119  1.00  0.00     0.010 A 
ATOM     11  C   UNL A   1      40.394  29.401  29.079  1.00  0.00    -0.014 A 
BRANCH  11  12
ATOM     12  C   UNL A   1      41.775  29.026  28.690  1.00  0.00     0.031 A 
ATOM     13  C   UNL A   1      42.897  30.023  28.733  1.00  0.00     0.074 A 
ATOM     14  C   UNL A   1      42.005  27.751  28.316  1.00  0.00     0.049 A 
ATOM     15  N   UNL A   1      44.157  29.854  28.422  1.00  0.00    -0.248 NA
ATOM     16  C   UNL A   1      42.566  31.388  29.173  1.00  0.00     0.031 C 
ATOM     17  C   UNL A   1      40.983  26.701  28.236  1.00  0.00     0.029 A 
ATOM     18  N   UNL A   1      43.161  27.113  27.953  1.00  0.00    -0.354 N 
ATOM     19  C   UNL A   1      44.767  31.087  28.614  1.00  0.00     0.074 A 
ATOM     20  C   UNL A   1      43.732  32.006  29.039  1.00  0.00     0.031 C 
ATOM     21  C   UNL A   1      41.565  25.542  27.898  1.00  0.00     0.029 A 
ATOM     22  C   UNL A   1      42.983  25.781  27.661  1.00  0.00     0.049 A 
ATOM     23  H   UNL A   1      44.035  27.563  27.906  1.00  0.00     0.167 HD
ATOM     24  C   UNL A   1      46.072  31.414  28.456  1.00  0.00     0.037 A 
ATOM     25  C   UNL A   1      43.856  24.856  27.224  1.00  0.00     0.037 A 
ATOM     26  C   UNL A   1      47.090  30.483  28.035  1.00  0.00     0.049 A 
ATOM     27  C   UNL A   1      45.287  25.259  27.013  1.00  0.00     0.074 A 
ATOM     28  C   UNL A   1      48.445  30.708  27.864  1.00  0.00     0.029 A 
ATOM     29  N   UNL A   1      46.864  29.151  27.710  1.00  0.00    -0.354 N 
ATOM     30  N   UNL A   1      45.851  26.425  27.220  1.00  0.00    -0.248 NA
ATOM     31  C   UNL A   1      46.197  24.227  26.504  1.00  0.00     0.031 C 
ATOM     32  C   UNL A   1      49.029  29.530  27.385  1.00  0.00     0.029 A 
ATOM     33  C   UNL A   1      48.051  28.551  27.317  1.00  0.00     0.049 A 
ATOM     34  H   UNL A   1      45.992  28.699  27.754  1.00  0.00     0.167 HD
ATOM     35  C   UNL A   1      47.190  26.260  26.890  1.00  0.00     0.074 A 
ATOM     36  C   UNL A   1      47.352  24.878  26.486  1.00  0.00     0.031 C 
ATOM     37  C   UNL A   1      48.195  27.171  26.919  1.00  0.00     0.037 A 
BRANCH  24  38
ATOM     38  C   UNL A   1      46.478  32.841  28.720  1.00  0.00     0.058 A 
ATOM     39  C   UNL A   1      46.871  33.276  29.996  1.00  0.00     0.135 A 
ATOM     40  C   UNL A   1      46.527  33.774  27.671  1.00  0.00     0.135 A 
ATOM     41  F   UNL A   1      46.831  32.432  31.040  1.00  0.00    -0.206 F 
ATOM     42  C   UNL A   1      47.271  34.589  30.227  1.00  0.00     0.059 A 
ATOM     43  C   UNL A   1      46.951  35.084  27.873  1.00  0.00     0.059 A 
ATOM     44  F   UNL A   1      46.164  33.414  26.429  1.00  0.00    -0.206 F 
ATOM     45  C   UNL A   1      47.310  35.486  29.159  1.00  0.00     0.060 A 
BRANCH  45  46
ATOM     46  S   UNL A   1      47.837  37.183  29.477  1.00  0.00     0.124 S 
ATOM     47  O   UNL A   1      48.459  37.538  28.204  1.00  0.00    -0.237 OA
ATOM     48  O   UNL A   1      46.574  37.851  29.771  1.00  0.00    -0.237 OA
ATOM     49  O   UNL A   1      48.752  37.052  30.605  1.00  0.00    -0.744 OA
ENDBRANCH  45  46
ENDBRANCH  24  38
BRANCH  25  50
ATOM     50  C   UNL A   1      43.393  23.470  26.952  1.00  0.00     0.058 A 
ATOM     51  C   UNL A   1      43.188  23.020  25.641  1.00  0.00     0.135 A 
ATOM     52  C   UNL A   1      43.173  22.558  27.999  1.00  0.00     0.135 A 
ATOM     53  F   UNL A   1      43.382  23.853  24.607  1.00  0.00    -0.206 F 
ATOM     54  C   UNL A   1      42.762  21.722  25.374  1.00  0.00     0.059 A 
ATOM     55  C   UNL A   1      42.781  21.247  27.756  1.00  0.00     0.059 A 
ATOM     56  F   UNL A   1      43.376  22.932  29.272  1.00  0.00    -0.206 F 
ATOM     57  C   UNL A   1      42.566  20.842  26.440  1.00  0.00     0.060 A 
BRANCH  57  58
ATOM     58  S   UNL A   1      42.055  19.148  26.080  1.00  0.00     0.124 S 
ATOM     59  O   UNL A   1      42.908  18.821  24.944  1.00  0.00    -0.237 OA
ATOM     60  O   UNL A   1      42.365  18.463  27.331  1.00  0.00    -0.237 OA
ATOM     61  O   UNL A   1      40.632  19.283  25.784  1.00  0.00    -0.744 OA
ENDBRANCH  57  58
ENDBRANCH  25  50
BRANCH  37  62
ATOM     62  C   UNL A   1      49.567  26.690  26.539  1.00  0.00     0.058 A 
ATOM     63  C   UNL A   1      50.413  26.058  27.464  1.00  0.00     0.135 A 
ATOM     64  C   UNL A   1      50.027  26.829  25.219  1.00  0.00     0.135 A 
ATOM     65  F   UNL A   1      50.028  25.910  28.742  1.00  0.00    -0.206 F 
ATOM     66  C   UNL A   1      51.677  25.604  27.101  1.00  0.00     0.059 A 
ATOM     67  C   UNL A   1      51.273  26.353  24.825  1.00  0.00     0.059 A 
ATOM     68  F   UNL A   1      49.254  27.419  24.293  1.00  0.00    -0.206 F 
ATOM     69  C   UNL A   1      52.096  25.753  25.777  1.00  0.00     0.060 A 
BRANCH  69  70
ATOM     70  S   UNL A   1      53.723  25.127  25.311  1.00  0.00     0.124 S 
ATOM     71  O   UNL A   1      53.911  25.745  24.002  1.00  0.00    -0.237 OA
ATOM     72  O   UNL A   1      54.572  25.639  26.382  1.00  0.00    -0.237 OA
ATOM     73  O   UNL A   1      53.541  23.679  25.301  1.00  0.00    -0.744 OA
ENDBRANCH  69  70
ENDBRANCH  37  62
ENDBRANCH  11  12
ENDBRANCH   4   6
ENDBRANCH   1   2
BRANCH   1  74
ATOM     74  C   UNL A   1      34.795  29.744  27.249  1.00  0.00     0.042 C 
BRANCH  74  75
ATOM     75  C   UNL A   1      33.297  30.009  27.282  1.00  0.00     0.118 C 
BRANCH  75  76
ATOM     76  N   UNL A   1      32.556  28.803  27.594  1.00  0.00    -0.351 N 
ATOM     77  C   UNL A   1      31.708  28.027  26.837  1.00  0.00     0.281 C 
ATOM     78  H   UNL A   1      32.681  28.480  28.515  1.00  0.00     0.163 HD
ATOM     79  O   UNL A   1      30.962  27.310  27.523  1.00  0.00    -0.268 OA
BRANCH  77  80
ATOM     80  C   UNL A   1      31.766  28.051  25.213  1.00  0.00     0.177 C 
ATOM     81  C   UNL A   1      30.597  27.300  24.504  1.00  0.00     0.079 C 
ATOM     82  C   UNL A   1      31.334  29.344  24.471  1.00  0.00     0.079 C 
ATOM     83  C   UNL A   1      30.368  28.522  23.598  1.00  0.00     0.014 C 
BRANCH  80  84
ATOM     84  N   UNL A   1      33.085  27.547  24.700  1.00  0.00    -0.318 N 
ATOM     85  C   UNL A   1      33.840  28.524  23.891  1.00  0.00     0.291 C 
ATOM     86  C   UNL A   1      33.225  26.203  24.125  1.00  0.00     0.291 C 
ATOM     87  H   UNL A   1      33.501  27.421  25.623  1.00  0.00     0.349 HD
ATOM     88  C   UNL A   1      33.645  28.390  22.373  1.00  0.00     0.221 C 
ATOM     89  C   UNL A   1      33.051  26.119  22.601  1.00  0.00     0.221 C 
ATOM     90  O   UNL A   1      33.885  27.057  21.915  1.00  0.00    -0.370 OA
ENDBRANCH  80  84
ENDBRANCH  77  80
ENDBRANCH  75  76
ENDBRANCH  74  75
ENDBRANCH   1  74
TORSDOF 14
ENDMDL
MODEL 2
REMARK VINA RESULT:     -11.4      3.268      6.057
REMARK SMILES O=C(NCCCNC(=O)C1([NH+]2CCOCC2)CCC1)c1ccc(-c2c3nc(c(-c4c(F)cc(S(=O)(=O)[O-])cc4F)c4ccc([nH]4)c(-c4c(F)cc(S(=O)(=O)[O-])cc4F)c4nc(c(-c5c(F)cc(S(=O)(=O)[O-])cc5F)c5ccc2[nH]5)C=C4)C=C3)cc1
REMARK SMILES IDX 4 1 3 2 1 3 2 4 20 6 21 7 85 8 22 9 84 10 23 11 24 12 25 13
REMARK SMILES IDX 78 14 26 15 83 16 77 17 79 18 27 19 82 20 76 21 75 22 28 24
REMARK SMILES IDX 62 25 41 26 61 27 42 28 45 29 60 30 80 31 43 32 44 33 59 35
REMARK SMILES IDX 81 36 46 37 29 38 30 39 39 40 31 41 32 42 38 43 40 44 33 45
REMARK SMILES IDX 34 46 35 47 36 48 37 49 63 50 64 51 73 52 65 53 66 54 72 55
REMARK SMILES IDX 74 56 67 57 68 58 69 59 70 60 71 61 47 62 48 63 57 64 49 65
REMARK SMILES IDX 50 66 56 67 58 68 51 69 52 70 53 71 54 72 55 73 5 74 6 75
REMARK SMILES IDX 7 76 8 77 9 79 10 80 17 81 19 82 18 83 11 84 12 85 16 86
REMARK SMILES IDX 13 88 15 89 14 90
REMARK H PARENT 3 5 79 23 45 34 7 78 11 87
REMARK Flexibility Score: inf
ROOT
ATOM      1  C   UNL A   1      34.700  32.638  28.655  1.00  0.00     0.118 C 
ENDROOT
BRANCH   1   2
ATOM      2  N   UNL A   1      33.988  31.411  28.330  1.00  0.00    -0.352 N 
ATOM      3  O   UNL A   1      33.755  29.320  27.532  1.00  0.00    -0.269 OA
ATOM      4  C   UNL A   1      34.489  30.169  28.022  1.00  0.00     0.251 C 
ATOM      5  H   UNL A   1      33.006  31.481  28.330  1.00  0.00     0.163 HD
BRANCH   4   6
ATOM      6  C   UNL A   1      35.915  29.877  28.276  1.00  0.00     0.039 A 
ATOM      7  C   UNL A   1      36.858  30.045  27.260  1.00  0.00     0.014 A 
ATOM      8  C   UNL A   1      36.317  29.450  29.544  1.00  0.00     0.014 A 
ATOM      9  C   UNL A   1      38.168  29.639  27.460  1.00  0.00     0.010 A 
ATOM     10  C   UNL A   1      37.661  29.151  29.777  1.00  0.00     0.010 A 
ATOM     11  C   UNL A   1      38.594  29.222  28.731  1.00  0.00    -0.014 A 
BRANCH  11  12
ATOM     12  C   UNL A   1      40.037  28.967  28.956  1.00  0.00     0.031 A 
ATOM     13  C   UNL A   1      40.931  30.013  29.558  1.00  0.00     0.074 A 
ATOM     14  C   UNL A   1      40.527  27.756  28.626  1.00  0.00     0.049 A 
ATOM     15  N   UNL A   1      42.212  29.948  29.816  1.00  0.00    -0.248 NA
ATOM     16  C   UNL A   1      40.314  31.303  29.910  1.00  0.00     0.031 C 
ATOM     17  C   UNL A   1      39.745  26.666  28.030  1.00  0.00     0.029 A 
ATOM     18  N   UNL A   1      41.783  27.224  28.757  1.00  0.00    -0.354 N 
ATOM     19  C   UNL A   1      42.560  31.184  30.345  1.00  0.00     0.074 A 
ATOM     20  C   UNL A   1      41.359  31.994  30.344  1.00  0.00     0.031 C 
ATOM     21  C   UNL A   1      40.524  25.585  27.895  1.00  0.00     0.029 A 
ATOM     22  C   UNL A   1      41.876  25.924  28.318  1.00  0.00     0.049 A 
ATOM     23  H   UNL A   1      42.545  27.724  29.129  1.00  0.00     0.167 HD
ATOM     24  C   UNL A   1      43.769  31.597  30.798  1.00  0.00     0.037 A 
ATOM     25  C   UNL A   1      42.937  25.101  28.238  1.00  0.00     0.037 A 
ATOM     26  C   UNL A   1      44.953  30.774  30.794  1.00  0.00     0.049 A 
ATOM     27  C   UNL A   1      44.274  25.602  28.702  1.00  0.00     0.074 A 
ATOM     28  C   UNL A   1      46.222  31.089  31.248  1.00  0.00     0.029 A 
ATOM     29  N   UNL A   1      45.018  29.475  30.306  1.00  0.00    -0.354 N 
ATOM     30  N   UNL A   1      44.580  26.767  29.221  1.00  0.00    -0.248 NA
ATOM     31  C   UNL A   1      45.409  24.683  28.566  1.00  0.00     0.031 C 
ATOM     32  C   UNL A   1      47.065  30.005  30.985  1.00  0.00     0.029 A 
ATOM     33  C   UNL A   1      46.310  28.987  30.425  1.00  0.00     0.049 A 
ATOM     34  H   UNL A   1      44.258  28.974  29.931  1.00  0.00     0.167 HD
ATOM     35  C   UNL A   1      45.940  26.712  29.497  1.00  0.00     0.074 A 
ATOM     36  C   UNL A   1      46.392  25.393  29.102  1.00  0.00     0.031 C 
ATOM     37  C   UNL A   1      46.742  27.668  30.029  1.00  0.00     0.037 A 
BRANCH  24  38
ATOM     38  C   UNL A   1      43.883  33.007  31.317  1.00  0.00     0.058 A 
ATOM     39  C   UNL A   1      44.315  34.065  30.501  1.00  0.00     0.135 A 
ATOM     40  C   UNL A   1      43.505  33.314  32.636  1.00  0.00     0.135 A 
ATOM     41  F   UNL A   1      44.702  33.829  29.238  1.00  0.00    -0.206 F 
ATOM     42  C   UNL A   1      44.392  35.369  30.980  1.00  0.00     0.059 A 
ATOM     43  C   UNL A   1      43.547  34.615  33.127  1.00  0.00     0.059 A 
ATOM     44  F   UNL A   1      43.083  32.343  33.461  1.00  0.00    -0.206 F 
ATOM     45  C   UNL A   1      44.004  35.636  32.294  1.00  0.00     0.060 A 
BRANCH  45  46
ATOM     46  S   UNL A   1      44.105  37.335  32.896  1.00  0.00     0.124 S 
ATOM     47  O   UNL A   1      43.076  37.339  33.931  1.00  0.00    -0.237 OA
ATOM     48  O   UNL A   1      45.482  37.415  33.372  1.00  0.00    -0.237 OA
ATOM     49  O   UNL A   1      43.806  38.135  31.713  1.00  0.00    -0.744 OA
ENDBRANCH  45  46
ENDBRANCH  24  38
BRANCH  25  50
ATOM     50  C   UNL A   1      42.771  23.730  27.689  1.00  0.00     0.058 A 
ATOM     51  C   UNL A   1      42.510  22.641  28.531  1.00  0.00     0.135 A 
ATOM     52  C   UNL A   1      42.842  23.486  26.307  1.00  0.00     0.135 A 
ATOM     53  F   UNL A   1      42.435  22.821  29.858  1.00  0.00    -0.206 F 
ATOM     54  C   UNL A   1      42.344  21.354  28.028  1.00  0.00     0.059 A 
ATOM     55  C   UNL A   1      42.646  22.216  25.777  1.00  0.00     0.059 A 
ATOM     56  F   UNL A   1      43.068  24.499  25.456  1.00  0.00    -0.206 F 
ATOM     57  C   UNL A   1      42.410  21.154  26.647  1.00  0.00     0.060 A 
BRANCH  57  58
ATOM     58  S   UNL A   1      42.151  19.488  26.002  1.00  0.00     0.124 S 
ATOM     59  O   UNL A   1      40.710  19.481  25.779  1.00  0.00    -0.237 OA
ATOM     60  O   UNL A   1      42.983  19.492  24.803  1.00  0.00    -0.237 OA
ATOM     61  O   UNL A   1      42.627  18.631  27.084  1.00  0.00    -0.744 OA
ENDBRANCH  57  58
ENDBRANCH  25  50
BRANCH  37  62
ATOM     62  C   UNL A   1      48.185  27.307  30.250  1.00  0.00     0.058 A 
ATOM     63  C   UNL A   1      49.189  27.683  29.345  1.00  0.00     0.135 A 
ATOM     64  C   UNL A   1      48.571  26.609  31.406  1.00  0.00     0.135 A 
ATOM     65  F   UNL A   1      48.873  28.341  28.219  1.00  0.00    -0.206 F 
ATOM     66  C   UNL A   1      50.524  27.356  29.564  1.00  0.00     0.059 A 
ATOM     67  C   UNL A   1      49.903  26.300  31.662  1.00  0.00     0.059 A 
ATOM     68  F   UNL A   1      47.651  26.233  32.308  1.00  0.00    -0.206 F 
ATOM     69  C   UNL A   1      50.870  26.668  30.728  1.00  0.00     0.060 A 
BRANCH  69  70
ATOM     70  S   UNL A   1      52.610  26.282  31.018  1.00  0.00     0.124 S 
ATOM     71  O   UNL A   1      53.111  26.142  29.654  1.00  0.00    -0.237 OA
ATOM     72  O   UNL A   1      53.073  27.460  31.745  1.00  0.00    -0.237 OA
ATOM     73  O   UNL A   1      52.560  25.050  31.798  1.00  0.00    -0.744 OA
ENDBRANCH  69  70
ENDBRANCH  37  62
ENDBRANCH  11  12
ENDBRANCH   4   6
ENDBRANCH   1   2
BRANCH   1  74
ATOM     74  C   UNL A   1      34.829  32.844  30.155  1.00  0.00     0.042 C 
BRANCH  74  75
ATOM     75  C   UNL A   1      36.150  33.481  30.565  1.00  0.00     0.118 C 
BRANCH  75  76
ATOM     76  N   UNL A   1      35.947  34.529  31.545  1.00  0.00    -0.351 N 
ATOM     77  C   UNL A   1      36.441  34.700  32.819  1.00  0.00     0.281 C 
ATOM     78  H   UNL A   1      35.346  35.249  31.247  1.00  0.00     0.163 HD
ATOM     79  O   UNL A   1      35.765  35.488  33.500  1.00  0.00    -0.268 OA
BRANCH  77  80
ATOM     80  C   UNL A   1      37.804  33.961  33.302  1.00  0.00     0.177 C 
ATOM     81  C   UNL A   1      39.013  34.111  32.326  1.00  0.00     0.079 C 
ATOM     82  C   UNL A   1      38.663  34.631  34.407  1.00  0.00     0.079 C 
ATOM     83  C   UNL A   1      39.908  34.525  33.507  1.00  0.00     0.014 C 
BRANCH  80  84
ATOM     84  N   UNL A   1      37.568  32.509  33.606  1.00  0.00    -0.318 N 
ATOM     85  C   UNL A   1      37.518  32.186  35.046  1.00  0.00     0.291 C 
ATOM     86  C   UNL A   1      38.270  31.445  32.877  1.00  0.00     0.291 C 
ATOM     87  H   UNL A   1      36.642  32.475  33.180  1.00  0.00     0.349 HD
ATOM     88  C   UNL A   1      38.844  31.689  35.641  1.00  0.00     0.221 C 
ATOM     89  C   UNL A   1      39.577  30.958  33.521  1.00  0.00     0.221 C 
ATOM     90  O   UNL A   1      39.395  30.600  34.895  1.00  0.00    -0.370 OA
ENDBRANCH  80  84
ENDBRANCH  77  80
ENDBRANCH  75  76
ENDBRANCH  74  75
ENDBRANCH   1  74
TORSDOF 14
ENDMDL
MODEL 3
REMARK VINA RESULT:     -11.2      2.865      9.029
REMARK SMILES O=C(NCCCNC(=O)C1([NH+]2CCOCC2)CCC1)c1ccc(-c2c3nc(c(-c4c(F)cc(S(=O)(=O)[O-])cc4F)c4ccc([nH]4)c(-c4c(F)cc(S(=O)(=O)[O-])cc4F)c4nc(c(-c5c(F)cc(S(=O)(=O)[O-])cc5F)c5ccc2[nH]5)C=C4)C=C3)cc1
REMARK SMILES IDX 4 1 3 2 1 3 2 4 20 6 21 7 85 8 22 9 84 10 23 11 24 12 25 13
REMARK SMILES IDX 78 14 26 15 83 16 77 17 79 18 27 19 82 20 76 21 75 22 28 24
REMARK SMILES IDX 62 25 41 26 61 27 42 28 45 29 60 30 80 31 43 32 44 33 59 35
REMARK SMILES IDX 81 36 46 37 29 38 30 39 39 40 31 41 32 42 38 43 40 44 33 45
REMARK SMILES IDX 34 46 35 47 36 48 37 49 63 50 64 51 73 52 65 53 66 54 72 55
REMARK SMILES IDX 74 56 67 57 68 58 69 59 70 60 71 61 47 62 48 63 57 64 49 65
REMARK SMILES IDX 50 66 56 67 58 68 51 69 52 70 53 71 54 72 55 73 5 74 6 75
REMARK SMILES IDX 7 76 8 77 9 79 10 80 17 81 19 82 18 83 11 84 12 85 16 86
REMARK SMILES IDX 13 88 15 89 14 90
REMARK H PARENT 3 5 79 23 45 34 7 78 11 87
REMARK Flexibility Score: inf
ROOT
ATOM      1  C   UNL A   1      39.333  20.206  25.936  1.00  0.00     0.118 C 
ENDROOT
BRANCH   1   2
ATOM      2  N   UNL A   1      40.392  19.216  26.067  1.00  0.00    -0.352 N 
ATOM      3  O   UNL A   1      42.507  18.449  26.012  1.00  0.00    -0.269 OA
ATOM      4  C   UNL A   1      41.750  19.402  26.158  1.00  0.00     0.251 C 
ATOM      5  H   UNL A   1      40.091  18.279  26.094  1.00  0.00     0.163 HD
BRANCH   4   6
ATOM      6  C   UNL A   1      42.283  20.755  26.420  1.00  0.00     0.039 A 
ATOM      7  C   UNL A   1      42.588  21.608  25.357  1.00  0.00     0.014 A 
ATOM      8  C   UNL A   1      42.463  21.183  27.738  1.00  0.00     0.014 A 
ATOM      9  C   UNL A   1      43.217  22.819  25.602  1.00  0.00     0.010 A 
ATOM     10  C   UNL A   1      42.990  22.452  27.985  1.00  0.00     0.010 A 
ATOM     11  C   UNL A   1      43.391  23.272  26.919  1.00  0.00    -0.014 A 
BRANCH  11  12
ATOM     12  C   UNL A   1      43.900  24.647  27.143  1.00  0.00     0.031 A 
ATOM     13  C   UNL A   1      45.345  24.991  26.921  1.00  0.00     0.074 A 
ATOM     14  C   UNL A   1      43.023  25.593  27.532  1.00  0.00     0.049 A 
ATOM     15  N   UNL A   1      45.947  26.142  27.075  1.00  0.00    -0.248 NA
ATOM     16  C   UNL A   1      46.234  23.905  26.476  1.00  0.00     0.031 C 
ATOM     17  C   UNL A   1      41.594  25.365  27.780  1.00  0.00     0.029 A 
ATOM     18  N   UNL A   1      43.187  26.932  27.769  1.00  0.00    -0.354 N 
ATOM     19  C   UNL A   1      47.282  25.921  26.762  1.00  0.00     0.074 A 
ATOM     20  C   UNL A   1      47.410  24.515  26.438  1.00  0.00     0.031 C 
ATOM     21  C   UNL A   1      41.006  26.530  28.084  1.00  0.00     0.029 A 
ATOM     22  C   UNL A   1      42.024  27.571  28.130  1.00  0.00     0.049 A 
ATOM     23  H   UNL A   1      44.053  27.393  27.688  1.00  0.00     0.167 HD
ATOM     24  C   UNL A   1      48.301  26.814  26.740  1.00  0.00     0.037 A 
ATOM     25  C   UNL A   1      41.802  28.849  28.487  1.00  0.00     0.037 A 
ATOM     26  C   UNL A   1      48.153  28.212  27.064  1.00  0.00     0.049 A 
ATOM     27  C   UNL A   1      42.959  29.805  28.500  1.00  0.00     0.074 A 
ATOM     28  C   UNL A   1      49.118  29.205  27.053  1.00  0.00     0.029 A 
ATOM     29  N   UNL A   1      46.967  28.815  27.464  1.00  0.00    -0.354 N 
ATOM     30  N   UNL A   1      44.211  29.584  28.179  1.00  0.00    -0.248 NA
ATOM     31  C   UNL A   1      42.677  31.180  28.927  1.00  0.00     0.031 C 
ATOM     32  C   UNL A   1      48.530  30.393  27.498  1.00  0.00     0.029 A 
ATOM     33  C   UNL A   1      47.183  30.159  27.726  1.00  0.00     0.049 A 
ATOM     34  H   UNL A   1      46.101  28.356  27.548  1.00  0.00     0.167 HD
ATOM     35  C   UNL A   1      44.864  30.799  28.343  1.00  0.00     0.074 A 
ATOM     36  C   UNL A   1      43.863  31.753  28.774  1.00  0.00     0.031 C 
ATOM     37  C   UNL A   1      46.173  31.097  28.153  1.00  0.00     0.037 A 
BRANCH  24  38
ATOM     38  C   UNL A   1      49.673  26.309  26.374  1.00  0.00     0.058 A 
ATOM     39  C   UNL A   1      50.170  26.398  25.064  1.00  0.00     0.135 A 
ATOM     40  C   UNL A   1      50.523  25.777  27.359  1.00  0.00     0.135 A 
ATOM     41  F   UNL A   1      49.398  26.885  24.080  1.00  0.00    -0.206 F 
ATOM     42  C   UNL A   1      51.449  25.955  24.739  1.00  0.00     0.059 A 
ATOM     43  C   UNL A   1      51.816  25.355  27.061  1.00  0.00     0.059 A 
ATOM     44  F   UNL A   1      50.102  25.669  28.629  1.00  0.00    -0.206 F 
ATOM     45  C   UNL A   1      52.266  25.436  25.744  1.00  0.00     0.060 A 
BRANCH  45  46
ATOM     46  S   UNL A   1      53.923  24.872  25.304  1.00  0.00     0.124 S 
ATOM     47  O   UNL A   1      54.253  25.771  24.202  1.00  0.00    -0.237 OA
ATOM     48  O   UNL A   1      54.665  25.091  26.542  1.00  0.00    -0.237 OA
ATOM     49  O   UNL A   1      53.723  23.476  24.934  1.00  0.00    -0.744 OA
ENDBRANCH  45  46
ENDBRANCH  24  38
BRANCH  25  50
ATOM     50  C   UNL A   1      40.432  29.284  28.867  1.00  0.00     0.058 A 
ATOM     51  C   UNL A   1      39.445  29.496  27.895  1.00  0.00     0.135 A 
ATOM     52  C   UNL A   1      40.075  29.471  30.214  1.00  0.00     0.135 A 
ATOM     53  F   UNL A   1      39.736  29.333  26.596  1.00  0.00    -0.206 F 
ATOM     54  C   UNL A   1      38.157  29.895  28.240  1.00  0.00     0.059 A 
ATOM     55  C   UNL A   1      38.787  29.836  30.585  1.00  0.00     0.059 A 
ATOM     56  F   UNL A   1      40.978  29.261  31.184  1.00  0.00    -0.206 F 
ATOM     57  C   UNL A   1      37.837  30.058  29.589  1.00  0.00     0.060 A 
BRANCH  57  58
ATOM     58  S   UNL A   1      36.152  30.535  30.027  1.00  0.00     0.124 S 
ATOM     59  O   UNL A   1      35.402  30.046  28.877  1.00  0.00    -0.237 OA
ATOM     60  O   UNL A   1      35.947  29.814  31.279  1.00  0.00    -0.237 OA
ATOM     61  O   UNL A   1      36.237  31.987  30.155  1.00  0.00    -0.744 OA
ENDBRANCH  57  58
ENDBRANCH  25  50
BRANCH  37  62
ATOM     62  C   UNL A   1      46.590  32.525  28.373  1.00  0.00     0.058 A 
ATOM     63  C   UNL A   1      47.104  32.964  29.604  1.00  0.00     0.135 A 
ATOM     64  C   UNL A   1      46.511  33.456  27.326  1.00  0.00     0.135 A 
ATOM     65  F   UNL A   1      47.190  32.117  30.642  1.00  0.00    -0.206 F 
ATOM     66  C   UNL A   1      47.500  34.283  29.796  1.00  0.00     0.059 A 
ATOM     67  C   UNL A   1      46.932  34.772  27.485  1.00  0.00     0.059 A 
ATOM     68  F   UNL A   1      46.035  33.086  26.126  1.00  0.00    -0.206 F 
ATOM     69  C   UNL A   1      47.414  35.179  28.728  1.00  0.00     0.060 A 
BRANCH  69  70
ATOM     70  S   UNL A   1      47.965  36.879  28.980  1.00  0.00     0.124 S 
ATOM     71  O   UNL A   1      48.920  36.719  30.072  1.00  0.00    -0.237 OA
ATOM     72  O   UNL A   1      48.539  37.216  27.681  1.00  0.00    -0.237 OA
ATOM     73  O   UNL A   1      46.736  37.589  29.320  1.00  0.00    -0.744 OA
ENDBRANCH  69  70
ENDBRANCH  37  62
ENDBRANCH  11  12
ENDBRANCH   4   6
ENDBRANCH   1   2
BRANCH   1  74
ATOM     74  C   UNL A   1      38.226  19.740  25.005  1.00  0.00     0.042 C 
BRANCH  74  75
ATOM     75  C   UNL A   1      36.965  20.587  25.096  1.00  0.00     0.118 C 
BRANCH  75  76
ATOM     76  N   UNL A   1      37.076  21.786  24.288  1.00  0.00    -0.351 N 
ATOM     77  C   UNL A   1      36.122  22.597  23.718  1.00  0.00     0.281 C 
ATOM     78  H   UNL A   1      38.002  22.071  24.116  1.00  0.00     0.163 HD
ATOM     79  O   UNL A   1      36.567  23.292  22.790  1.00  0.00    -0.268 OA
BRANCH  77  80
ATOM     80  C   UNL A   1      34.600  22.638  24.284  1.00  0.00     0.177 C 
ATOM     81  C   UNL A   1      33.547  23.225  23.293  1.00  0.00     0.079 C 
ATOM     82  C   UNL A   1      33.781  21.320  24.314  1.00  0.00     0.079 C 
ATOM     83  C   UNL A   1      32.635  22.013  23.554  1.00  0.00     0.014 C 
BRANCH  80  84
ATOM     84  N   UNL A   1      34.520  23.356  25.601  1.00  0.00    -0.318 N 
ATOM     85  C   UNL A   1      34.417  22.468  26.776  1.00  0.00     0.291 C 
ATOM     86  C   UNL A   1      33.662  24.534  25.786  1.00  0.00     0.291 C 
ATOM     87  H   UNL A   1      35.444  23.782  25.531  1.00  0.00     0.349 HD
ATOM     88  C   UNL A   1      32.985  22.218  27.272  1.00  0.00     0.221 C 
ATOM     89  C   UNL A   1      32.248  24.242  26.310  1.00  0.00     0.221 C 
ATOM     90  O   UNL A   1      32.271  23.438  27.493  1.00  0.00    -0.370 OA
ENDBRANCH  80  84
ENDBRANCH  77  80
ENDBRANCH  75  76
ENDBRANCH  74  75
ENDBRANCH   1  74
TORSDOF 14
ENDMDL
