MODEL 1
REMARK VINA RESULT:     -11.4      0.000      0.000
REMARK SMILES C[NH2+][C@](C)(C(=O)NCCCNC(=O)c1ccc(-c2c3nc(c(-c4c(F)cc(S(=O)(=O)[O-])cc4F)c4ccc([nH]4)c(-c4c(F)cc(S(=O)(=O)[O-])cc4F)c4nc(c(-c5c(F)cc(S(=O)(=O)[O-])cc5F)c5ccc2[nH]5)C=C4)C=C3)cc1)c1cccc(Cl)c1
REMARK SMILES IDX 10 1 9 2 8 3 7 4 5 5 6 6 3 8 4 9 2 10 1 11 80 14 81 15 86 16
REMARK SMILES IDX 82 17 84 18 83 19 85 20 11 21 12 22 13 24 14 25 15 26 79 27
REMARK SMILES IDX 16 28 78 29 17 30 18 31 19 32 72 33 20 34 77 35 71 36 73 37
REMARK SMILES IDX 21 38 76 39 70 40 69 41 22 43 56 44 35 45 55 46 36 47 39 48
REMARK SMILES IDX 54 49 74 50 37 51 38 52 53 54 75 55 40 56 23 57 24 58 33 59
REMARK SMILES IDX 25 60 26 61 32 62 34 63 27 64 28 65 29 66 30 67 31 68 57 69
REMARK SMILES IDX 58 70 67 71 59 72 60 73 66 74 68 75 61 76 62 77 63 78 64 79
REMARK SMILES IDX 65 80 41 81 42 82 51 83 43 84 44 85 50 86 52 87 45 88 46 89
REMARK SMILES IDX 47 90 48 91 49 92
REMARK H PARENT 7 7 2 12 2 13 11 23 73 42 39 53
REMARK Flexibility Score: inf
ROOT
ATOM      1  C   UNL A   1      38.340  24.120  26.443  1.00  0.00     0.118 C 
ENDROOT
BRANCH   1   2
ATOM      2  C   UNL A   1      37.475  23.177  25.614  1.00  0.00     0.042 C 
BRANCH   2   3
ATOM      3  C   UNL A   1      36.063  23.691  25.359  1.00  0.00     0.118 C 
BRANCH   3   4
ATOM      4  N   UNL A   1      35.604  23.390  24.013  1.00  0.00    -0.350 N 
ATOM      5  C   UNL A   1      34.371  23.520  23.431  1.00  0.00     0.285 C 
ATOM      6  O   UNL A   1      34.312  23.219  22.233  1.00  0.00    -0.267 OA
ATOM      7  H   UNL A   1      36.300  23.033  23.415  1.00  0.00     0.163 HD
BRANCH   5   8
ATOM      8  C   UNL A   1      33.105  24.022  24.249  1.00  0.00     0.198 C 
ATOM      9  C   UNL A   1      31.858  23.876  23.343  1.00  0.00     0.096 C 
BRANCH   8  10
ATOM     10  N   UNL A   1      32.993  23.135  25.442  1.00  0.00    -0.332 N 
ATOM     11  C   UNL A   1      32.606  21.760  25.191  1.00  0.00     0.332 C 
ATOM     12  H   UNL A   1      33.902  23.122  25.905  1.00  0.00     0.347 HD
ATOM     13  H   UNL A   1      32.237  23.530  26.002  1.00  0.00     0.347 HD
ENDBRANCH   8  10
BRANCH   8  14
ATOM     14  C   UNL A   1      33.309  25.518  24.627  1.00  0.00     0.023 A 
ATOM     15  C   UNL A   1      33.183  25.939  25.969  1.00  0.00     0.011 A 
ATOM     16  C   UNL A   1      33.569  26.517  23.668  1.00  0.00     0.031 A 
ATOM     17  C   UNL A   1      33.359  27.276  26.340  1.00  0.00     0.002 A 
ATOM     18  C   UNL A   1      33.751  27.850  24.044  1.00  0.00     0.041 A 
ATOM     19  C   UNL A   1      33.654  28.233  25.376  1.00  0.00     0.020 A 
ATOM     20  Cl  UNL A   1      34.105  29.033  22.841  1.00  0.00    -0.084 Cl
ENDBRANCH   8  14
ENDBRANCH   5   8
ENDBRANCH   3   4
ENDBRANCH   2   3
ENDBRANCH   1   2
BRANCH   1  21
ATOM     21  N   UNL A   1      39.762  23.968  26.163  1.00  0.00    -0.352 N 
ATOM     22  C   UNL A   1      40.828  24.731  26.563  1.00  0.00     0.251 C 
ATOM     23  H   UNL A   1      39.994  23.196  25.597  1.00  0.00     0.163 HD
ATOM     24  O   UNL A   1      41.932  24.537  26.047  1.00  0.00    -0.269 OA
BRANCH  22  25
ATOM     25  C   UNL A   1      40.667  25.785  27.586  1.00  0.00     0.039 A 
ATOM     26  C   UNL A   1      39.681  25.633  28.566  1.00  0.00     0.014 A 
ATOM     27  C   UNL A   1      41.460  26.935  27.570  1.00  0.00     0.014 A 
ATOM     28  C   UNL A   1      39.536  26.601  29.562  1.00  0.00     0.010 A 
ATOM     29  C   UNL A   1      41.370  27.857  28.609  1.00  0.00     0.010 A 
ATOM     30  C   UNL A   1      40.402  27.705  29.613  1.00  0.00    -0.014 A 
BRANCH  30  31
ATOM     31  C   UNL A   1      40.313  28.708  30.705  1.00  0.00     0.031 A 
ATOM     32  C   UNL A   1      41.191  28.587  31.920  1.00  0.00     0.074 A 
ATOM     33  C   UNL A   1      39.394  29.692  30.631  1.00  0.00     0.049 A 
ATOM     34  N   UNL A   1      41.210  29.320  33.003  1.00  0.00    -0.248 NA
ATOM     35  C   UNL A   1      42.157  27.476  31.932  1.00  0.00     0.031 C 
ATOM     36  C   UNL A   1      38.453  29.889  29.526  1.00  0.00     0.029 A 
ATOM     37  N   UNL A   1      39.095  30.706  31.505  1.00  0.00    -0.354 N 
ATOM     38  C   UNL A   1      42.175  28.754  33.829  1.00  0.00     0.074 A 
ATOM     39  C   UNL A   1      42.679  27.582  33.145  1.00  0.00     0.031 C 
ATOM     40  C   UNL A   1      37.699  30.970  29.778  1.00  0.00     0.029 A 
ATOM     41  C   UNL A   1      38.073  31.521  31.077  1.00  0.00     0.049 A 
ATOM     42  H   UNL A   1      39.566  30.838  32.360  1.00  0.00     0.167 HD
ATOM     43  C   UNL A   1      42.616  29.182  35.037  1.00  0.00     0.037 A 
ATOM     44  C   UNL A   1      37.498  32.587  31.666  1.00  0.00     0.037 A 
ATOM     45  C   UNL A   1      42.125  30.361  35.701  1.00  0.00     0.049 A 
ATOM     46  C   UNL A   1      38.004  33.046  33.006  1.00  0.00     0.074 A 
ATOM     47  C   UNL A   1      42.545  30.913  36.899  1.00  0.00     0.029 A 
ATOM     48  N   UNL A   1      41.101  31.171  35.226  1.00  0.00    -0.354 N 
ATOM     49  N   UNL A   1      38.957  32.532  33.746  1.00  0.00    -0.248 NA
ATOM     50  C   UNL A   1      37.359  34.230  33.589  1.00  0.00     0.031 C 
ATOM     51  C   UNL A   1      41.747  32.030  37.170  1.00  0.00     0.029 A 
ATOM     52  C   UNL A   1      40.863  32.205  36.117  1.00  0.00     0.049 A 
ATOM     53  H   UNL A   1      40.617  31.030  34.382  1.00  0.00     0.167 HD
ATOM     54  C   UNL A   1      39.046  33.347  34.870  1.00  0.00     0.074 A 
ATOM     55  C   UNL A   1      38.056  34.392  34.706  1.00  0.00     0.031 C 
ATOM     56  C   UNL A   1      39.875  33.240  35.939  1.00  0.00     0.037 A 
BRANCH  43  57
ATOM     57  C   UNL A   1      43.685  28.367  35.714  1.00  0.00     0.058 A 
ATOM     58  C   UNL A   1      43.369  27.354  36.635  1.00  0.00     0.135 A 
ATOM     59  C   UNL A   1      45.041  28.586  35.426  1.00  0.00     0.135 A 
ATOM     60  F   UNL A   1      42.088  27.110  36.958  1.00  0.00    -0.206 F 
ATOM     61  C   UNL A   1      44.359  26.619  37.279  1.00  0.00     0.059 A 
ATOM     62  C   UNL A   1      46.048  27.842  36.034  1.00  0.00     0.059 A 
ATOM     63  F   UNL A   1      45.402  29.538  34.551  1.00  0.00    -0.206 F 
ATOM     64  C   UNL A   1      45.697  26.873  36.974  1.00  0.00     0.060 A 
BRANCH  64  65
ATOM     65  S   UNL A   1      46.971  25.920  37.827  1.00  0.00     0.124 S 
ATOM     66  O   UNL A   1      46.258  25.494  39.029  1.00  0.00    -0.237 OA
ATOM     67  O   UNL A   1      47.272  24.867  36.863  1.00  0.00    -0.237 OA
ATOM     68  O   UNL A   1      48.037  26.894  38.043  1.00  0.00    -0.744 OA
ENDBRANCH  64  65
ENDBRANCH  43  57
BRANCH  44  69
ATOM     69  C   UNL A   1      36.402  33.313  30.970  1.00  0.00     0.058 A 
ATOM     70  C   UNL A   1      35.085  33.253  31.446  1.00  0.00     0.135 A 
ATOM     71  C   UNL A   1      36.654  34.104  29.838  1.00  0.00     0.135 A 
ATOM     72  F   UNL A   1      34.793  32.505  32.521  1.00  0.00    -0.206 F 
ATOM     73  C   UNL A   1      34.051  33.944  30.820  1.00  0.00     0.059 A 
ATOM     74  C   UNL A   1      35.642  34.824  29.210  1.00  0.00     0.059 A 
ATOM     75  F   UNL A   1      37.901  34.209  29.353  1.00  0.00    -0.206 F 
ATOM     76  C   UNL A   1      34.342  34.732  29.706  1.00  0.00     0.060 A 
BRANCH  76  77
ATOM     77  S   UNL A   1      33.005  35.676  28.942  1.00  0.00     0.124 S 
ATOM     78  O   UNL A   1      33.745  36.703  28.220  1.00  0.00    -0.237 OA
ATOM     79  O   UNL A   1      32.347  34.663  28.121  1.00  0.00    -0.237 OA
ATOM     80  O   UNL A   1      32.228  36.143  30.087  1.00  0.00    -0.744 OA
ENDBRANCH  76  77
ENDBRANCH  44  69
BRANCH  56  81
ATOM     81  C   UNL A   1      39.772  34.298  37.002  1.00  0.00     0.058 A 
ATOM     82  C   UNL A   1      40.391  35.550  36.862  1.00  0.00     0.135 A 
ATOM     83  C   UNL A   1      39.002  34.072  38.155  1.00  0.00     0.135 A 
ATOM     84  F   UNL A   1      41.144  35.814  35.783  1.00  0.00    -0.206 F 
ATOM     85  C   UNL A   1      40.269  36.534  37.838  1.00  0.00     0.059 A 
ATOM     86  C   UNL A   1      38.844  35.051  39.131  1.00  0.00     0.059 A 
ATOM     87  F   UNL A   1      38.382  32.895  38.334  1.00  0.00    -0.206 F 
ATOM     88  C   UNL A   1      39.491  36.276  38.970  1.00  0.00     0.060 A 
BRANCH  88  89
ATOM     89  S   UNL A   1      39.314  37.571  40.214  1.00  0.00     0.124 S 
ATOM     90  O   UNL A   1      40.657  38.137  40.243  1.00  0.00    -0.237 OA
ATOM     91  O   UNL A   1      38.279  38.422  39.633  1.00  0.00    -0.237 OA
ATOM     92  O   UNL A   1      38.913  36.839  41.412  1.00  0.00    -0.744 OA
ENDBRANCH  88  89
ENDBRANCH  56  81
ENDBRANCH  30  31
ENDBRANCH  22  25
ENDBRANCH   1  21
TORSDOF 15
ENDMDL
MODEL 2
REMARK VINA RESULT:     -11.3      6.983     12.378
REMARK SMILES C[NH2+][C@](C)(C(=O)NCCCNC(=O)c1ccc(-c2c3nc(c(-c4c(F)cc(S(=O)(=O)[O-])cc4F)c4ccc([nH]4)c(-c4c(F)cc(S(=O)(=O)[O-])cc4F)c4nc(c(-c5c(F)cc(S(=O)(=O)[O-])cc5F)c5ccc2[nH]5)C=C4)C=C3)cc1)c1cccc(Cl)c1
REMARK SMILES IDX 10 1 9 2 8 3 7 4 5 5 6 6 3 8 4 9 2 10 1 11 80 14 81 15 86 16
REMARK SMILES IDX 82 17 84 18 83 19 85 20 11 21 12 22 13 24 14 25 15 26 79 27
REMARK SMILES IDX 16 28 78 29 17 30 18 31 19 32 72 33 20 34 77 35 71 36 73 37
REMARK SMILES IDX 21 38 76 39 70 40 69 41 22 43 56 44 35 45 55 46 36 47 39 48
REMARK SMILES IDX 54 49 74 50 37 51 38 52 53 54 75 55 40 56 23 57 24 58 33 59
REMARK SMILES IDX 25 60 26 61 32 62 34 63 27 64 28 65 29 66 30 67 31 68 57 69
REMARK SMILES IDX 58 70 67 71 59 72 60 73 66 74 68 75 61 76 62 77 63 78 64 79
REMARK SMILES IDX 65 80 41 81 42 82 51 83 43 84 44 85 50 86 52 87 45 88 46 89
REMARK SMILES IDX 47 90 48 91 49 92
REMARK H PARENT 7 7 2 12 2 13 11 23 73 42 39 53
REMARK Flexibility Score: inf
ROOT
ATOM      1  C   UNL A   1      35.228  29.034  27.660  1.00  0.00     0.118 C 
ENDROOT
BRANCH   1   2
ATOM      2  C   UNL A   1      33.834  28.617  27.207  1.00  0.00     0.042 C 
BRANCH   2   3
ATOM      3  C   UNL A   1      33.182  29.588  26.229  1.00  0.00     0.118 C 
BRANCH   3   4
ATOM      4  N   UNL A   1      33.794  29.535  24.912  1.00  0.00    -0.350 N 
ATOM      5  C   UNL A   1      33.443  28.846  23.782  1.00  0.00     0.285 C 
ATOM      6  O   UNL A   1      34.150  29.054  22.789  1.00  0.00    -0.267 OA
ATOM      7  H   UNL A   1      34.600  30.092  24.815  1.00  0.00     0.163 HD
BRANCH   5   8
ATOM      8  C   UNL A   1      32.208  27.847  23.757  1.00  0.00     0.198 C 
ATOM      9  C   UNL A   1      30.973  28.594  24.317  1.00  0.00     0.096 C 
BRANCH   8  10
ATOM     10  N   UNL A   1      31.993  27.475  22.330  1.00  0.00    -0.332 N 
ATOM     11  C   UNL A   1      31.495  26.136  22.078  1.00  0.00     0.332 C 
ATOM     12  H   UNL A   1      31.321  28.135  21.936  1.00  0.00     0.347 HD
ATOM     13  H   UNL A   1      32.917  27.505  21.901  1.00  0.00     0.347 HD
ENDBRANCH   8  10
BRANCH   8  14
ATOM     14  C   UNL A   1      32.534  26.619  24.657  1.00  0.00     0.023 A 
ATOM     15  C   UNL A   1      31.576  26.131  25.573  1.00  0.00     0.011 A 
ATOM     16  C   UNL A   1      33.789  25.980  24.646  1.00  0.00     0.031 A 
ATOM     17  C   UNL A   1      31.840  25.031  26.395  1.00  0.00     0.002 A 
ATOM     18  C   UNL A   1      34.046  24.876  25.464  1.00  0.00     0.041 A 
ATOM     19  C   UNL A   1      33.075  24.395  26.334  1.00  0.00     0.020 A 
ATOM     20  Cl  UNL A   1      35.584  24.101  25.391  1.00  0.00    -0.084 Cl
ENDBRANCH   8  14
ENDBRANCH   5   8
ENDBRANCH   3   4
ENDBRANCH   2   3
ENDBRANCH   1   2
BRANCH   1  21
ATOM     21  N   UNL A   1      35.200  29.912  28.823  1.00  0.00    -0.352 N 
ATOM     22  C   UNL A   1      36.209  30.288  29.671  1.00  0.00     0.251 C 
ATOM     23  H   UNL A   1      34.317  30.295  29.033  1.00  0.00     0.163 HD
ATOM     24  O   UNL A   1      35.925  30.885  30.714  1.00  0.00    -0.269 OA
BRANCH  22  25
ATOM     25  C   UNL A   1      37.620  29.976  29.361  1.00  0.00     0.039 A 
ATOM     26  C   UNL A   1      38.487  29.652  30.409  1.00  0.00     0.014 A 
ATOM     27  C   UNL A   1      38.100  30.028  28.051  1.00  0.00     0.014 A 
ATOM     28  C   UNL A   1      39.815  29.319  30.135  1.00  0.00     0.010 A 
ATOM     29  C   UNL A   1      39.400  29.616  27.770  1.00  0.00     0.010 A 
ATOM     30  C   UNL A   1      40.275  29.264  28.809  1.00  0.00    -0.014 A 
BRANCH  30  31
ATOM     31  C   UNL A   1      41.663  28.843  28.489  1.00  0.00     0.031 A 
ATOM     32  C   UNL A   1      42.777  29.854  28.471  1.00  0.00     0.074 A 
ATOM     33  C   UNL A   1      41.908  27.561  28.150  1.00  0.00     0.049 A 
ATOM     34  N   UNL A   1      44.034  29.693  28.148  1.00  0.00    -0.248 NA
ATOM     35  C   UNL A   1      42.424  31.235  28.837  1.00  0.00     0.031 C 
ATOM     36  C   UNL A   1      40.905  26.497  28.086  1.00  0.00     0.029 A 
ATOM     37  N   UNL A   1      43.076  26.938  27.788  1.00  0.00    -0.354 N 
ATOM     38  C   UNL A   1      44.619  30.950  28.257  1.00  0.00     0.074 A 
ATOM     39  C   UNL A   1      43.565  31.873  28.621  1.00  0.00     0.031 C 
ATOM     40  C   UNL A   1      41.503  25.349  27.730  1.00  0.00     0.029 A 
ATOM     41  C   UNL A   1      42.923  25.601  27.504  1.00  0.00     0.049 A 
ATOM     42  H   UNL A   1      43.941  27.404  27.735  1.00  0.00     0.167 HD
ATOM     43  C   UNL A   1      45.917  31.300  28.090  1.00  0.00     0.037 A 
ATOM     44  C   UNL A   1      43.822  24.683  27.101  1.00  0.00     0.037 A 
ATOM     45  C   UNL A   1      46.963  30.372  27.749  1.00  0.00     0.049 A 
ATOM     46  C   UNL A   1      45.259  25.093  26.922  1.00  0.00     0.074 A 
ATOM     47  C   UNL A   1      48.319  30.614  27.613  1.00  0.00     0.029 A 
ATOM     48  N   UNL A   1      46.771  29.022  27.486  1.00  0.00    -0.354 N 
ATOM     49  N   UNL A   1      45.804  26.274  27.087  1.00  0.00    -0.248 NA
ATOM     50  C   UNL A   1      46.201  24.046  26.508  1.00  0.00     0.031 C 
ATOM     51  C   UNL A   1      48.940  29.422  27.226  1.00  0.00     0.029 A 
ATOM     52  C   UNL A   1      47.980  28.424  27.170  1.00  0.00     0.049 A 
ATOM     53  H   UNL A   1      45.904  28.558  27.521  1.00  0.00     0.167 HD
ATOM     54  C   UNL A   1      47.159  26.107  26.823  1.00  0.00     0.074 A 
ATOM     55  C   UNL A   1      47.351  24.708  26.498  1.00  0.00     0.031 C 
ATOM     56  C   UNL A   1      48.155  27.028  26.851  1.00  0.00     0.037 A 
BRANCH  43  57
ATOM     57  C   UNL A   1      46.274  32.750  28.276  1.00  0.00     0.058 A 
ATOM     58  C   UNL A   1      46.219  33.667  27.212  1.00  0.00     0.135 A 
ATOM     59  C   UNL A   1      46.659  33.236  29.536  1.00  0.00     0.135 A 
ATOM     60  F   UNL A   1      45.871  33.255  25.983  1.00  0.00    -0.206 F 
ATOM     61  C   UNL A   1      46.574  35.001  27.381  1.00  0.00     0.059 A 
ATOM     62  C   UNL A   1      46.988  34.574  29.735  1.00  0.00     0.059 A 
ATOM     63  F   UNL A   1      46.725  32.407  30.589  1.00  0.00    -0.206 F 
ATOM     64  C   UNL A   1      46.961  35.445  28.646  1.00  0.00     0.060 A 
BRANCH  64  65
ATOM     65  S   UNL A   1      47.431  37.177  28.846  1.00  0.00     0.124 S 
ATOM     66  O   UNL A   1      48.080  37.151  30.154  1.00  0.00    -0.237 OA
ATOM     67  O   UNL A   1      48.315  37.394  27.705  1.00  0.00    -0.237 OA
ATOM     68  O   UNL A   1      46.155  37.884  28.792  1.00  0.00    -0.744 OA
ENDBRANCH  64  65
ENDBRANCH  43  57
BRANCH  44  69
ATOM     69  C   UNL A   1      43.392  23.278  26.874  1.00  0.00     0.058 A 
ATOM     70  C   UNL A   1      43.257  22.769  25.574  1.00  0.00     0.135 A 
ATOM     71  C   UNL A   1      43.138  22.409  27.947  1.00  0.00     0.135 A 
ATOM     72  F   UNL A   1      43.481  23.562  24.516  1.00  0.00    -0.206 F 
ATOM     73  C   UNL A   1      42.876  21.450  25.344  1.00  0.00     0.059 A 
ATOM     74  C   UNL A   1      42.782  21.080  27.742  1.00  0.00     0.059 A 
ATOM     75  F   UNL A   1      43.271  22.844  29.211  1.00  0.00    -0.206 F 
ATOM     76  C   UNL A   1      42.647  20.611  26.436  1.00  0.00     0.060 A 
BRANCH  76  77
ATOM     77  S   UNL A   1      42.218  18.885  26.125  1.00  0.00     0.124 S 
ATOM     78  O   UNL A   1      43.112  18.554  25.023  1.00  0.00    -0.237 OA
ATOM     79  O   UNL A   1      42.524  18.259  27.408  1.00  0.00    -0.237 OA
ATOM     80  O   UNL A   1      40.798  18.947  25.792  1.00  0.00    -0.744 OA
ENDBRANCH  76  77
ENDBRANCH  44  69
BRANCH  56  81
ATOM     81  C   UNL A   1      49.549  26.549  26.553  1.00  0.00     0.058 A 
ATOM     82  C   UNL A   1      50.346  25.939  27.534  1.00  0.00     0.135 A 
ATOM     83  C   UNL A   1      50.075  26.658  25.255  1.00  0.00     0.135 A 
ATOM     84  F   UNL A   1      49.894  25.816  28.792  1.00  0.00    -0.206 F 
ATOM     85  C   UNL A   1      51.625  25.474  27.245  1.00  0.00     0.059 A 
ATOM     86  C   UNL A   1      51.340  26.176  24.937  1.00  0.00     0.059 A 
ATOM     87  F   UNL A   1      49.350  27.226  24.278  1.00  0.00    -0.206 F 
ATOM     88  C   UNL A   1      52.113  25.595  25.942  1.00  0.00     0.060 A 
BRANCH  88  89
ATOM     89  S   UNL A   1      53.761  24.958  25.570  1.00  0.00     0.124 S 
ATOM     90  O   UNL A   1      54.481  25.271  26.800  1.00  0.00    -0.237 OA
ATOM     91  O   UNL A   1      53.502  23.542  25.330  1.00  0.00    -0.237 OA
ATOM     92  O   UNL A   1      54.164  25.723  24.393  1.00  0.00    -0.744 OA
ENDBRANCH  88  89
ENDBRANCH  56  81
ENDBRANCH  30  31
ENDBRANCH  22  25
ENDBRANCH   1  21
TORSDOF 15
ENDMDL
MODEL 3
REMARK VINA RESULT:     -11.2      5.084     10.608
REMARK SMILES C[NH2+][C@](C)(C(=O)NCCCNC(=O)c1ccc(-c2c3nc(c(-c4c(F)cc(S(=O)(=O)[O-])cc4F)c4ccc([nH]4)c(-c4c(F)cc(S(=O)(=O)[O-])cc4F)c4nc(c(-c5c(F)cc(S(=O)(=O)[O-])cc5F)c5ccc2[nH]5)C=C4)C=C3)cc1)c1cccc(Cl)c1
REMARK SMILES IDX 10 1 9 2 8 3 7 4 5 5 6 6 3 8 4 9 2 10 1 11 80 14 81 15 86 16
REMARK SMILES IDX 82 17 84 18 83 19 85 20 11 21 12 22 13 24 14 25 15 26 79 27
REMARK SMILES IDX 16 28 78 29 17 30 18 31 19 32 72 33 20 34 77 35 71 36 73 37
REMARK SMILES IDX 21 38 76 39 70 40 69 41 22 43 56 44 35 45 55 46 36 47 39 48
REMARK SMILES IDX 54 49 74 50 37 51 38 52 53 54 75 55 40 56 23 57 24 58 33 59
REMARK SMILES IDX 25 60 26 61 32 62 34 63 27 64 28 65 29 66 30 67 31 68 57 69
REMARK SMILES IDX 58 70 67 71 59 72 60 73 66 74 68 75 61 76 62 77 63 78 64 79
REMARK SMILES IDX 65 80 41 81 42 82 51 83 43 84 44 85 50 86 52 87 45 88 46 89
REMARK SMILES IDX 47 90 48 91 49 92
REMARK H PARENT 7 7 2 12 2 13 11 23 73 42 39 53
REMARK Flexibility Score: inf
ROOT
ATOM      1  C   UNL A   1      33.801  28.378  26.610  1.00  0.00     0.118 C 
ENDROOT
BRANCH   1   2
ATOM      2  C   UNL A   1      33.653  28.382  25.093  1.00  0.00     0.042 C 
BRANCH   2   3
ATOM      3  C   UNL A   1      32.868  27.196  24.542  1.00  0.00     0.118 C 
BRANCH   3   4
ATOM      4  N   UNL A   1      33.318  26.808  23.215  1.00  0.00    -0.350 N 
ATOM      5  C   UNL A   1      33.202  25.625  22.535  1.00  0.00     0.285 C 
ATOM      6  O   UNL A   1      33.652  25.627  21.383  1.00  0.00    -0.267 OA
ATOM      7  H   UNL A   1      33.786  27.518  22.720  1.00  0.00     0.163 HD
BRANCH   5   8
ATOM      8  C   UNL A   1      32.532  24.342  23.189  1.00  0.00     0.198 C 
ATOM      9  C   UNL A   1      31.085  24.710  23.597  1.00  0.00     0.096 C 
BRANCH   8  10
ATOM     10  N   UNL A   1      32.528  23.285  22.138  1.00  0.00    -0.332 N 
ATOM     11  C   UNL A   1      32.476  21.912  22.603  1.00  0.00     0.332 C 
ATOM     12  H   UNL A   1      31.714  23.442  21.545  1.00  0.00     0.347 HD
ATOM     13  H   UNL A   1      33.425  23.374  21.661  1.00  0.00     0.347 HD
ENDBRANCH   8  10
BRANCH   8  14
ATOM     14  C   UNL A   1      33.348  23.935  24.450  1.00  0.00     0.023 A 
ATOM     15  C   UNL A   1      32.685  23.563  25.640  1.00  0.00     0.011 A 
ATOM     16  C   UNL A   1      34.756  23.968  24.489  1.00  0.00     0.031 A 
ATOM     17  C   UNL A   1      33.391  23.193  26.790  1.00  0.00     0.002 A 
ATOM     18  C   UNL A   1      35.457  23.592  25.639  1.00  0.00     0.041 A 
ATOM     19  C   UNL A   1      34.781  23.198  26.786  1.00  0.00     0.020 A 
ATOM     20  Cl  UNL A   1      37.181  23.612  25.629  1.00  0.00    -0.084 Cl
ENDBRANCH   8  14
ENDBRANCH   5   8
ENDBRANCH   3   4
ENDBRANCH   2   3
ENDBRANCH   1   2
BRANCH   1  21
ATOM     21  N   UNL A   1      33.640  29.704  27.192  1.00  0.00    -0.352 N 
ATOM     22  C   UNL A   1      34.481  30.423  28.001  1.00  0.00     0.251 C 
ATOM     23  H   UNL A   1      32.793  30.155  26.969  1.00  0.00     0.163 HD
ATOM     24  O   UNL A   1      34.060  31.449  28.544  1.00  0.00    -0.269 OA
BRANCH  22  25
ATOM     25  C   UNL A   1      35.869  29.977  28.242  1.00  0.00     0.039 A 
ATOM     26  C   UNL A   1      36.803  30.083  27.207  1.00  0.00     0.014 A 
ATOM     27  C   UNL A   1      36.250  29.429  29.470  1.00  0.00     0.014 A 
ATOM     28  C   UNL A   1      38.128  29.701  27.425  1.00  0.00     0.010 A 
ATOM     29  C   UNL A   1      37.586  29.126  29.711  1.00  0.00     0.010 A 
ATOM     30  C   UNL A   1      38.540  29.251  28.689  1.00  0.00    -0.014 A 
BRANCH  30  31
ATOM     31  C   UNL A   1      39.959  28.907  28.964  1.00  0.00     0.031 A 
ATOM     32  C   UNL A   1      40.889  29.936  29.547  1.00  0.00     0.074 A 
ATOM     33  C   UNL A   1      40.426  27.688  28.626  1.00  0.00     0.049 A 
ATOM     34  N   UNL A   1      42.171  29.848  29.792  1.00  0.00    -0.248 NA
ATOM     35  C   UNL A   1      40.306  31.247  29.874  1.00  0.00     0.031 C 
ATOM     36  C   UNL A   1      39.635  26.621  28.012  1.00  0.00     0.029 A 
ATOM     37  N   UNL A   1      41.680  27.145  28.744  1.00  0.00    -0.354 N 
ATOM     38  C   UNL A   1      42.551  31.091  30.284  1.00  0.00     0.074 A 
ATOM     39  C   UNL A   1      41.375  31.934  30.251  1.00  0.00     0.031 C 
ATOM     40  C   UNL A   1      40.416  25.544  27.828  1.00  0.00     0.029 A 
ATOM     41  C   UNL A   1      41.770  25.856  28.275  1.00  0.00     0.049 A 
ATOM     42  H   UNL A   1      42.445  27.633  29.128  1.00  0.00     0.167 HD
ATOM     43  C   UNL A   1      43.763  31.489  30.742  1.00  0.00     0.037 A 
ATOM     44  C   UNL A   1      42.824  25.020  28.207  1.00  0.00     0.037 A 
ATOM     45  C   UNL A   1      44.923  30.637  30.792  1.00  0.00     0.049 A 
ATOM     46  C   UNL A   1      44.160  25.481  28.722  1.00  0.00     0.074 A 
ATOM     47  C   UNL A   1      46.182  30.925  31.291  1.00  0.00     0.029 A 
ATOM     48  N   UNL A   1      44.969  29.331  30.324  1.00  0.00    -0.354 N 
ATOM     49  N   UNL A   1      44.487  26.642  29.238  1.00  0.00    -0.248 NA
ATOM     50  C   UNL A   1      45.268  24.520  28.648  1.00  0.00     0.031 C 
ATOM     51  C   UNL A   1      47.000  29.810  31.084  1.00  0.00     0.029 A 
ATOM     52  C   UNL A   1      46.240  28.808  30.504  1.00  0.00     0.049 A 
ATOM     53  H   UNL A   1      44.211  28.848  29.924  1.00  0.00     0.167 HD
ATOM     54  C   UNL A   1      45.832  26.540  29.578  1.00  0.00     0.074 A 
ATOM     55  C   UNL A   1      46.254  25.203  29.216  1.00  0.00     0.031 C 
ATOM     56  C   UNL A   1      46.643  27.471  30.140  1.00  0.00     0.037 A 
BRANCH  43  57
ATOM     57  C   UNL A   1      43.890  32.908  31.226  1.00  0.00     0.058 A 
ATOM     58  C   UNL A   1      43.605  33.264  32.555  1.00  0.00     0.135 A 
ATOM     59  C   UNL A   1      44.319  33.924  30.357  1.00  0.00     0.135 A 
ATOM     60  F   UNL A   1      43.178  32.335  33.426  1.00  0.00    -0.206 F 
ATOM     61  C   UNL A   1      43.698  34.580  32.993  1.00  0.00     0.059 A 
ATOM     62  C   UNL A   1      44.450  35.243  30.781  1.00  0.00     0.059 A 
ATOM     63  F   UNL A   1      44.609  33.642  29.077  1.00  0.00    -0.206 F 
ATOM     64  C   UNL A   1      44.118  35.565  32.097  1.00  0.00     0.060 A 
BRANCH  64  65
ATOM     65  S   UNL A   1      44.221  37.271  32.678  1.00  0.00     0.124 S 
ATOM     66  O   UNL A   1      45.622  37.356  33.081  1.00  0.00    -0.237 OA
ATOM     67  O   UNL A   1      43.860  38.029  31.485  1.00  0.00    -0.237 OA
ATOM     68  O   UNL A   1      43.251  37.319  33.767  1.00  0.00    -0.744 OA
ENDBRANCH  64  65
ENDBRANCH  43  57
BRANCH  44  69
ATOM     69  C   UNL A   1      42.645  23.649  27.660  1.00  0.00     0.058 A 
ATOM     70  C   UNL A   1      42.762  23.403  26.284  1.00  0.00     0.135 A 
ATOM     71  C   UNL A   1      42.385  22.555  28.501  1.00  0.00     0.135 A 
ATOM     72  F   UNL A   1      43.003  24.417  25.440  1.00  0.00    -0.206 F 
ATOM     73  C   UNL A   1      42.619  22.122  25.758  1.00  0.00     0.059 A 
ATOM     74  C   UNL A   1      42.264  21.262  28.001  1.00  0.00     0.059 A 
ATOM     75  F   UNL A   1      42.281  22.735  29.827  1.00  0.00    -0.206 F 
ATOM     76  C   UNL A   1      42.376  21.057  26.626  1.00  0.00     0.060 A 
BRANCH  76  77
ATOM     77  S   UNL A   1      42.259  19.391  25.939  1.00  0.00     0.124 S 
ATOM     78  O   UNL A   1      42.837  18.589  27.011  1.00  0.00    -0.237 OA
ATOM     79  O   UNL A   1      40.821  19.246  25.735  1.00  0.00    -0.237 OA
ATOM     80  O   UNL A   1      43.051  19.477  24.716  1.00  0.00    -0.744 OA
ENDBRANCH  76  77
ENDBRANCH  44  69
BRANCH  56  81
ATOM     81  C   UNL A   1      48.062  27.067  30.431  1.00  0.00     0.058 A 
ATOM     82  C   UNL A   1      49.104  27.322  29.525  1.00  0.00     0.135 A 
ATOM     83  C   UNL A   1      48.391  26.461  31.655  1.00  0.00     0.135 A 
ATOM     84  F   UNL A   1      48.842  27.893  28.338  1.00  0.00    -0.206 F 
ATOM     85  C   UNL A   1      50.418  26.970  29.812  1.00  0.00     0.059 A 
ATOM     86  C   UNL A   1      49.702  26.125  31.974  1.00  0.00     0.059 A 
ATOM     87  F   UNL A   1      47.434  26.204  32.560  1.00  0.00    -0.206 F 
ATOM     88  C   UNL A   1      50.709  26.373  31.041  1.00  0.00     0.060 A 
BRANCH  88  89
ATOM     89  S   UNL A   1      52.423  25.950  31.416  1.00  0.00     0.124 S 
ATOM     90  O   UNL A   1      52.273  24.640  32.040  1.00  0.00    -0.237 OA
ATOM     91  O   UNL A   1      53.042  25.955  30.094  1.00  0.00    -0.237 OA
ATOM     92  O   UNL A   1      52.852  27.025  32.305  1.00  0.00    -0.744 OA
ENDBRANCH  88  89
ENDBRANCH  56  81
ENDBRANCH  30  31
ENDBRANCH  22  25
ENDBRANCH   1  21
TORSDOF 15
ENDMDL
