MODEL 1
REMARK VINA RESULT:     -11.7      0.000      0.000
REMARK SMILES CC(C)N1C[C@@H](C(=O)NCCCNC(=O)c2ccc(-c3c4nc(c(-c5c(F)cc(S(=O)(=O)[O-])cc5F)c5ccc([nH]5)c(-c5c(F)cc(S(=O)(=O)[O-])cc5F)c5nc(c(-c6c(F)cc(S(=O)(=O)[O-])cc6F)c6ccc3[nH]6)C=C5)C=C4)cc2)CC1=O
REMARK SMILES IDX 12 1 11 2 10 3 9 4 7 5 8 6 6 8 4 9 5 10 83 11 82 12 84 13
REMARK SMILES IDX 2 14 1 15 3 16 13 17 14 18 15 20 16 21 17 22 81 23 18 24
REMARK SMILES IDX 80 25 19 26 20 27 21 28 74 29 22 30 79 31 73 32 75 33 23 34
REMARK SMILES IDX 78 35 72 36 71 37 24 39 58 40 37 41 57 42 38 43 41 44 56 45
REMARK SMILES IDX 76 46 39 47 40 48 55 50 77 51 42 52 25 53 26 54 35 55 27 56
REMARK SMILES IDX 28 57 34 58 36 59 29 60 30 61 31 62 32 63 33 64 59 65 60 66
REMARK SMILES IDX 69 67 61 68 62 69 68 70 70 71 63 72 64 73 65 74 66 75 67 76
REMARK SMILES IDX 43 77 44 78 53 79 45 80 46 81 52 82 54 83 47 84 48 85 49 86
REMARK SMILES IDX 50 87 51 88
REMARK H PARENT 9 7 13 19 75 38 41 49
REMARK Flexibility Score: inf
ROOT
ATOM      1  C   UNL A   1      40.743  23.016  27.314  1.00  0.00     0.118 C 
ENDROOT
BRANCH   1   2
ATOM      2  C   UNL A   1      40.454  21.597  26.833  1.00  0.00     0.042 C 
BRANCH   2   3
ATOM      3  C   UNL A   1      41.133  20.502  27.646  1.00  0.00     0.117 C 
BRANCH   3   4
ATOM      4  N   UNL A   1      41.316  19.278  26.883  1.00  0.00    -0.356 N 
ATOM      5  C   UNL A   1      42.390  18.777  26.221  1.00  0.00     0.225 C 
ATOM      6  O   UNL A   1      42.254  17.683  25.668  1.00  0.00    -0.275 OA
ATOM      7  H   UNL A   1      40.515  18.708  26.838  1.00  0.00     0.163 HD
BRANCH   5   8
ATOM      8  C   UNL A   1      43.726  19.483  26.169  1.00  0.00     0.107 C 
ATOM      9  N   UNL A   1      44.829  21.029  24.791  1.00  0.00    -0.339 N 
ATOM     10  C   UNL A   1      43.624  20.876  25.571  1.00  0.00     0.133 C 
ATOM     11  C   UNL A   1      45.521  19.840  24.630  1.00  0.00     0.223 C 
ATOM     12  C   UNL A   1      44.817  18.753  25.396  1.00  0.00     0.115 C 
ATOM     13  O   UNL A   1      46.526  19.674  23.956  1.00  0.00    -0.275 OA
BRANCH   9  14
ATOM     14  C   UNL A   1      45.171  22.249  24.058  1.00  0.00     0.078 C 
ATOM     15  C   UNL A   1      44.079  23.306  24.228  1.00  0.00     0.031 C 
ATOM     16  C   UNL A   1      46.536  22.808  24.451  1.00  0.00     0.031 C 
ENDBRANCH   9  14
ENDBRANCH   5   8
ENDBRANCH   3   4
ENDBRANCH   2   3
ENDBRANCH   1   2
BRANCH   1  17
ATOM     17  N   UNL A   1      41.073  23.925  26.228  1.00  0.00    -0.352 N 
ATOM     18  C   UNL A   1      41.110  25.298  26.191  1.00  0.00     0.251 C 
ATOM     19  H   UNL A   1      41.311  23.484  25.380  1.00  0.00     0.163 HD
ATOM     20  O   UNL A   1      41.235  25.857  25.103  1.00  0.00    -0.269 OA
BRANCH  18  21
ATOM     21  C   UNL A   1      40.978  26.103  27.427  1.00  0.00     0.039 A 
ATOM     22  C   UNL A   1      41.994  27.009  27.743  1.00  0.00     0.014 A 
ATOM     23  C   UNL A   1      39.891  25.954  28.292  1.00  0.00     0.014 A 
ATOM     24  C   UNL A   1      41.886  27.806  28.885  1.00  0.00     0.010 A 
ATOM     25  C   UNL A   1      39.740  26.814  29.381  1.00  0.00     0.010 A 
ATOM     26  C   UNL A   1      40.737  27.748  29.692  1.00  0.00    -0.014 A 
BRANCH  26  27
ATOM     27  C   UNL A   1      40.569  28.682  30.837  1.00  0.00     0.031 A 
ATOM     28  C   UNL A   1      41.422  28.559  32.073  1.00  0.00     0.074 A 
ATOM     29  C   UNL A   1      39.617  29.634  30.770  1.00  0.00     0.049 A 
ATOM     30  N   UNL A   1      41.428  29.306  33.148  1.00  0.00    -0.248 NA
ATOM     31  C   UNL A   1      42.374  27.438  32.119  1.00  0.00     0.031 C 
ATOM     32  C   UNL A   1      38.680  29.814  29.658  1.00  0.00     0.029 A 
ATOM     33  N   UNL A   1      39.279  30.634  31.648  1.00  0.00    -0.354 N 
ATOM     34  C   UNL A   1      42.378  28.748  33.995  1.00  0.00     0.074 A 
ATOM     35  C   UNL A   1      42.885  27.564  33.336  1.00  0.00     0.031 C 
ATOM     36  C   UNL A   1      37.906  30.882  29.900  1.00  0.00     0.029 A 
ATOM     37  C   UNL A   1      38.261  31.443  31.199  1.00  0.00     0.049 A 
ATOM     38  H   UNL A   1      39.723  30.759  32.517  1.00  0.00     0.167 HD
ATOM     39  C   UNL A   1      42.808  29.196  35.201  1.00  0.00     0.037 A 
ATOM     40  C   UNL A   1      37.681  32.518  31.766  1.00  0.00     0.037 A 
ATOM     41  C   UNL A   1      42.306  30.382  35.847  1.00  0.00     0.049 A 
ATOM     42  C   UNL A   1      38.183  32.999  33.100  1.00  0.00     0.074 A 
ATOM     43  C   UNL A   1      42.715  30.951  37.041  1.00  0.00     0.029 A 
ATOM     44  N   UNL A   1      41.280  31.180  35.360  1.00  0.00    -0.354 N 
ATOM     45  N   UNL A   1      39.138  32.505  33.851  1.00  0.00    -0.248 NA
ATOM     46  C   UNL A   1      37.537  34.195  33.656  1.00  0.00     0.031 C 
ATOM     47  C   UNL A   1      41.902  32.060  37.302  1.00  0.00     0.029 A 
ATOM     48  C   UNL A   1      41.025  32.220  36.242  1.00  0.00     0.049 A 
ATOM     49  H   UNL A   1      40.802  31.029  34.512  1.00  0.00     0.167 HD
ATOM     50  C   UNL A   1      39.220  33.340  34.959  1.00  0.00     0.074 A 
ATOM     51  C   UNL A   1      38.239  34.387  34.763  1.00  0.00     0.031 C 
ATOM     52  C   UNL A   1      40.033  33.247  36.043  1.00  0.00     0.037 A 
BRANCH  39  53
ATOM     53  C   UNL A   1      43.880  28.401  35.901  1.00  0.00     0.058 A 
ATOM     54  C   UNL A   1      43.566  27.356  36.786  1.00  0.00     0.135 A 
ATOM     55  C   UNL A   1      45.239  28.656  35.654  1.00  0.00     0.135 A 
ATOM     56  F   UNL A   1      42.285  27.075  37.073  1.00  0.00    -0.206 F 
ATOM     57  C   UNL A   1      44.557  26.615  37.422  1.00  0.00     0.059 A 
ATOM     58  C   UNL A   1      46.247  27.907  36.254  1.00  0.00     0.059 A 
ATOM     59  F   UNL A   1      45.601  29.642  34.817  1.00  0.00    -0.206 F 
ATOM     60  C   UNL A   1      45.896  26.897  37.149  1.00  0.00     0.060 A 
BRANCH  60  61
ATOM     61  S   UNL A   1      47.169  25.918  37.974  1.00  0.00     0.124 S 
ATOM     62  O   UNL A   1      48.325  26.805  37.879  1.00  0.00    -0.237 OA
ATOM     63  O   UNL A   1      46.611  25.748  39.313  1.00  0.00    -0.237 OA
ATOM     64  O   UNL A   1      47.242  24.705  37.169  1.00  0.00    -0.744 OA
ENDBRANCH  60  61
ENDBRANCH  39  53
BRANCH  40  65
ATOM     65  C   UNL A   1      36.580  33.227  31.060  1.00  0.00     0.058 A 
ATOM     66  C   UNL A   1      36.835  34.019  29.929  1.00  0.00     0.135 A 
ATOM     67  C   UNL A   1      35.249  33.119  31.493  1.00  0.00     0.135 A 
ATOM     68  F   UNL A   1      38.091  34.158  29.479  1.00  0.00    -0.206 F 
ATOM     69  C   UNL A   1      35.815  34.694  29.266  1.00  0.00     0.059 A 
ATOM     70  C   UNL A   1      34.208  33.759  30.829  1.00  0.00     0.059 A 
ATOM     71  F   UNL A   1      34.949  32.359  32.558  1.00  0.00    -0.206 F 
ATOM     72  C   UNL A   1      34.504  34.553  29.723  1.00  0.00     0.060 A 
BRANCH  72  73
ATOM     73  S   UNL A   1      33.181  35.396  28.825  1.00  0.00     0.124 S 
ATOM     74  O   UNL A   1      32.584  34.294  28.080  1.00  0.00    -0.237 OA
ATOM     75  O   UNL A   1      32.376  35.945  29.912  1.00  0.00    -0.237 OA
ATOM     76  O   UNL A   1      33.897  36.385  28.025  1.00  0.00    -0.744 OA
ENDBRANCH  72  73
ENDBRANCH  40  65
BRANCH  52  77
ATOM     77  C   UNL A   1      39.900  34.324  37.087  1.00  0.00     0.058 A 
ATOM     78  C   UNL A   1      39.049  34.180  38.196  1.00  0.00     0.135 A 
ATOM     79  C   UNL A   1      40.627  35.520  36.975  1.00  0.00     0.135 A 
ATOM     80  F   UNL A   1      38.327  33.058  38.352  1.00  0.00    -0.206 F 
ATOM     81  C   UNL A   1      38.882  35.203  39.123  1.00  0.00     0.059 A 
ATOM     82  C   UNL A   1      40.503  36.543  37.911  1.00  0.00     0.059 A 
ATOM     83  F   UNL A   1      41.469  35.707  35.946  1.00  0.00    -0.206 F 
ATOM     84  C   UNL A   1      39.608  36.385  38.967  1.00  0.00     0.060 A 
BRANCH  84  85
ATOM     85  S   UNL A   1      39.366  37.714  40.164  1.00  0.00     0.124 S 
ATOM     86  O   UNL A   1      40.654  38.398  40.106  1.00  0.00    -0.237 OA
ATOM     87  O   UNL A   1      38.234  38.442  39.600  1.00  0.00    -0.237 OA
ATOM     88  O   UNL A   1      39.088  37.002  41.409  1.00  0.00    -0.744 OA
ENDBRANCH  84  85
ENDBRANCH  52  77
ENDBRANCH  26  27
ENDBRANCH  18  21
ENDBRANCH   1  17
TORSDOF 14
ENDMDL
MODEL 2
REMARK VINA RESULT:     -11.6      2.334      3.891
REMARK SMILES CC(C)N1C[C@@H](C(=O)NCCCNC(=O)c2ccc(-c3c4nc(c(-c5c(F)cc(S(=O)(=O)[O-])cc5F)c5ccc([nH]5)c(-c5c(F)cc(S(=O)(=O)[O-])cc5F)c5nc(c(-c6c(F)cc(S(=O)(=O)[O-])cc6F)c6ccc3[nH]6)C=C5)C=C4)cc2)CC1=O
REMARK SMILES IDX 12 1 11 2 10 3 9 4 7 5 8 6 6 8 4 9 5 10 83 11 82 12 84 13
REMARK SMILES IDX 2 14 1 15 3 16 13 17 14 18 15 20 16 21 17 22 81 23 18 24
REMARK SMILES IDX 80 25 19 26 20 27 21 28 74 29 22 30 79 31 73 32 75 33 23 34
REMARK SMILES IDX 78 35 72 36 71 37 24 39 58 40 37 41 57 42 38 43 41 44 56 45
REMARK SMILES IDX 76 46 39 47 40 48 55 50 77 51 42 52 25 53 26 54 35 55 27 56
REMARK SMILES IDX 28 57 34 58 36 59 29 60 30 61 31 62 32 63 33 64 59 65 60 66
REMARK SMILES IDX 69 67 61 68 62 69 68 70 70 71 63 72 64 73 65 74 66 75 67 76
REMARK SMILES IDX 43 77 44 78 53 79 45 80 46 81 52 82 54 83 47 84 48 85 49 86
REMARK SMILES IDX 50 87 51 88
REMARK H PARENT 9 7 13 19 75 38 41 49
REMARK Flexibility Score: inf
ROOT
ATOM      1  C   UNL A   1      41.972  23.177  27.226  1.00  0.00     0.118 C 
ENDROOT
BRANCH   1   2
ATOM      2  C   UNL A   1      40.972  22.027  27.162  1.00  0.00     0.042 C 
BRANCH   2   3
ATOM      3  C   UNL A   1      39.628  22.390  26.546  1.00  0.00     0.117 C 
BRANCH   3   4
ATOM      4  N   UNL A   1      39.016  21.269  25.849  1.00  0.00    -0.356 N 
ATOM      5  C   UNL A   1      37.858  21.165  25.148  1.00  0.00     0.225 C 
ATOM      6  O   UNL A   1      37.601  20.069  24.641  1.00  0.00    -0.275 OA
ATOM      7  H   UNL A   1      39.535  20.435  25.895  1.00  0.00     0.163 HD
BRANCH   5   8
ATOM      8  C   UNL A   1      36.912  22.326  24.944  1.00  0.00     0.107 C 
ATOM      9  N   UNL A   1      34.608  22.671  24.672  1.00  0.00    -0.339 N 
ATOM     10  C   UNL A   1      35.558  22.093  25.592  1.00  0.00     0.133 C 
ATOM     11  C   UNL A   1      35.171  22.995  23.449  1.00  0.00     0.223 C 
ATOM     12  C   UNL A   1      36.645  22.699  23.492  1.00  0.00     0.115 C 
ATOM     13  O   UNL A   1      34.578  23.426  22.472  1.00  0.00    -0.275 OA
BRANCH   9  14
ATOM     14  C   UNL A   1      33.165  22.705  24.913  1.00  0.00     0.078 C 
ATOM     15  C   UNL A   1      32.522  21.367  24.547  1.00  0.00     0.031 C 
ATOM     16  C   UNL A   1      32.816  23.102  26.346  1.00  0.00     0.031 C 
ENDBRANCH   9  14
ENDBRANCH   5   8
ENDBRANCH   3   4
ENDBRANCH   2   3
ENDBRANCH   1   2
BRANCH   1  17
ATOM     17  N   UNL A   1      41.844  24.101  26.110  1.00  0.00    -0.352 N 
ATOM     18  C   UNL A   1      41.476  25.424  26.082  1.00  0.00     0.251 C 
ATOM     19  H   UNL A   1      42.058  23.714  25.229  1.00  0.00     0.163 HD
ATOM     20  O   UNL A   1      41.256  25.953  24.994  1.00  0.00    -0.269 OA
BRANCH  18  21
ATOM     21  C   UNL A   1      41.320  26.204  27.331  1.00  0.00     0.039 A 
ATOM     22  C   UNL A   1      42.260  27.199  27.616  1.00  0.00     0.014 A 
ATOM     23  C   UNL A   1      40.288  25.948  28.237  1.00  0.00     0.014 A 
ATOM     24  C   UNL A   1      42.124  27.974  28.770  1.00  0.00     0.010 A 
ATOM     25  C   UNL A   1      40.103  26.781  29.341  1.00  0.00     0.010 A 
ATOM     26  C   UNL A   1      41.020  27.802  29.622  1.00  0.00    -0.014 A 
BRANCH  26  27
ATOM     27  C   UNL A   1      40.813  28.708  30.783  1.00  0.00     0.031 A 
ATOM     28  C   UNL A   1      41.653  28.583  32.027  1.00  0.00     0.074 A 
ATOM     29  C   UNL A   1      39.836  29.636  30.723  1.00  0.00     0.049 A 
ATOM     30  N   UNL A   1      41.626  29.309  33.117  1.00  0.00    -0.248 NA
ATOM     31  C   UNL A   1      42.634  27.488  32.064  1.00  0.00     0.031 C 
ATOM     32  C   UNL A   1      38.908  29.812  29.602  1.00  0.00     0.029 A 
ATOM     33  N   UNL A   1      39.460  30.608  31.616  1.00  0.00    -0.354 N 
ATOM     34  C   UNL A   1      42.580  28.760  33.965  1.00  0.00     0.074 A 
ATOM     35  C   UNL A   1      43.127  27.603  33.289  1.00  0.00     0.031 C 
ATOM     36  C   UNL A   1      38.102  30.854  29.856  1.00  0.00     0.029 A 
ATOM     37  C   UNL A   1      38.426  31.398  31.170  1.00  0.00     0.049 A 
ATOM     38  H   UNL A   1      39.890  30.728  32.493  1.00  0.00     0.167 HD
ATOM     39  C   UNL A   1      42.983  29.194  35.184  1.00  0.00     0.037 A 
ATOM     40  C   UNL A   1      37.809  32.445  31.750  1.00  0.00     0.037 A 
ATOM     41  C   UNL A   1      42.440  30.354  35.848  1.00  0.00     0.049 A 
ATOM     42  C   UNL A   1      38.282  32.913  33.100  1.00  0.00     0.074 A 
ATOM     43  C   UNL A   1      42.819  30.909  37.058  1.00  0.00     0.029 A 
ATOM     44  N   UNL A   1      41.399  31.133  35.363  1.00  0.00    -0.354 N 
ATOM     45  N   UNL A   1      39.240  32.429  33.853  1.00  0.00    -0.248 NA
ATOM     46  C   UNL A   1      37.596  34.079  33.671  1.00  0.00     0.031 C 
ATOM     47  C   UNL A   1      41.972  31.990  37.331  1.00  0.00     0.029 A 
ATOM     48  C   UNL A   1      41.104  32.147  36.262  1.00  0.00     0.049 A 
ATOM     49  H   UNL A   1      40.936  30.986  34.507  1.00  0.00     0.167 HD
ATOM     50  C   UNL A   1      39.286  33.244  34.979  1.00  0.00     0.074 A 
ATOM     51  C   UNL A   1      38.279  34.268  34.791  1.00  0.00     0.031 C 
ATOM     52  C   UNL A   1      40.087  33.151  36.071  1.00  0.00     0.037 A 
BRANCH  39  53
ATOM     53  C   UNL A   1      44.067  28.415  35.883  1.00  0.00     0.058 A 
ATOM     54  C   UNL A   1      45.427  28.718  35.706  1.00  0.00     0.135 A 
ATOM     55  C   UNL A   1      43.743  27.379  36.775  1.00  0.00     0.135 A 
ATOM     56  F   UNL A   1      45.798  29.687  34.854  1.00  0.00    -0.206 F 
ATOM     57  C   UNL A   1      46.425  28.004  36.362  1.00  0.00     0.059 A 
ATOM     58  C   UNL A   1      44.724  26.673  37.466  1.00  0.00     0.059 A 
ATOM     59  F   UNL A   1      42.460  27.044  36.986  1.00  0.00    -0.206 F 
ATOM     60  C   UNL A   1      46.064  26.984  37.242  1.00  0.00     0.060 A 
BRANCH  60  61
ATOM     61  S   UNL A   1      47.372  26.076  38.093  1.00  0.00     0.124 S 
ATOM     62  O   UNL A   1      47.123  24.712  37.638  1.00  0.00    -0.237 OA
ATOM     63  O   UNL A   1      48.580  26.707  37.568  1.00  0.00    -0.237 OA
ATOM     64  O   UNL A   1      47.099  26.327  39.504  1.00  0.00    -0.744 OA
ENDBRANCH  60  61
ENDBRANCH  39  53
BRANCH  40  65
ATOM     65  C   UNL A   1      36.698  33.138  31.044  1.00  0.00     0.058 A 
ATOM     66  C   UNL A   1      36.946  33.964  29.937  1.00  0.00     0.135 A 
ATOM     67  C   UNL A   1      35.365  32.981  31.455  1.00  0.00     0.135 A 
ATOM     68  F   UNL A   1      38.204  34.151  29.508  1.00  0.00    -0.206 F 
ATOM     69  C   UNL A   1      35.917  34.625  29.274  1.00  0.00     0.059 A 
ATOM     70  C   UNL A   1      34.316  33.606  30.790  1.00  0.00     0.059 A 
ATOM     71  F   UNL A   1      35.072  32.188  32.497  1.00  0.00    -0.206 F 
ATOM     72  C   UNL A   1      34.603  34.435  29.707  1.00  0.00     0.060 A 
BRANCH  72  73
ATOM     73  S   UNL A   1      33.270  35.260  28.809  1.00  0.00     0.124 S 
ATOM     74  O   UNL A   1      34.009  36.228  28.009  1.00  0.00    -0.237 OA
ATOM     75  O   UNL A   1      32.666  34.152  28.075  1.00  0.00    -0.237 OA
ATOM     76  O   UNL A   1      32.445  35.818  29.875  1.00  0.00    -0.744 OA
ENDBRANCH  72  73
ENDBRANCH  40  65
BRANCH  52  77
ATOM     77  C   UNL A   1      39.912  34.203  37.134  1.00  0.00     0.058 A 
ATOM     78  C   UNL A   1      39.138  33.973  38.284  1.00  0.00     0.135 A 
ATOM     79  C   UNL A   1      40.521  35.461  37.000  1.00  0.00     0.135 A 
ATOM     80  F   UNL A   1      38.531  32.787  38.463  1.00  0.00    -0.206 F 
ATOM     81  C   UNL A   1      38.927  34.968  39.232  1.00  0.00     0.059 A 
ATOM     82  C   UNL A   1      40.353  36.461  37.955  1.00  0.00     0.059 A 
ATOM     83  F   UNL A   1      41.287  35.733  35.932  1.00  0.00    -0.206 F 
ATOM     84  C   UNL A   1      39.534  36.213  39.054  1.00  0.00     0.060 A 
BRANCH  84  85
ATOM     85  S   UNL A   1      39.235  37.504  40.279  1.00  0.00     0.124 S 
ATOM     86  O   UNL A   1      38.282  38.358  39.577  1.00  0.00    -0.237 OA
ATOM     87  O   UNL A   1      38.699  36.749  41.407  1.00  0.00    -0.237 OA
ATOM     88  O   UNL A   1      40.558  38.083  40.492  1.00  0.00    -0.744 OA
ENDBRANCH  84  85
ENDBRANCH  52  77
ENDBRANCH  26  27
ENDBRANCH  18  21
ENDBRANCH   1  17
TORSDOF 14
ENDMDL
MODEL 3
REMARK VINA RESULT:     -11.5      1.027      2.435
REMARK SMILES CC(C)N1C[C@@H](C(=O)NCCCNC(=O)c2ccc(-c3c4nc(c(-c5c(F)cc(S(=O)(=O)[O-])cc5F)c5ccc([nH]5)c(-c5c(F)cc(S(=O)(=O)[O-])cc5F)c5nc(c(-c6c(F)cc(S(=O)(=O)[O-])cc6F)c6ccc3[nH]6)C=C5)C=C4)cc2)CC1=O
REMARK SMILES IDX 12 1 11 2 10 3 9 4 7 5 8 6 6 8 4 9 5 10 83 11 82 12 84 13
REMARK SMILES IDX 2 14 1 15 3 16 13 17 14 18 15 20 16 21 17 22 81 23 18 24
REMARK SMILES IDX 80 25 19 26 20 27 21 28 74 29 22 30 79 31 73 32 75 33 23 34
REMARK SMILES IDX 78 35 72 36 71 37 24 39 58 40 37 41 57 42 38 43 41 44 56 45
REMARK SMILES IDX 76 46 39 47 40 48 55 50 77 51 42 52 25 53 26 54 35 55 27 56
REMARK SMILES IDX 28 57 34 58 36 59 29 60 30 61 31 62 32 63 33 64 59 65 60 66
REMARK SMILES IDX 69 67 61 68 62 69 68 70 70 71 63 72 64 73 65 74 66 75 67 76
REMARK SMILES IDX 43 77 44 78 53 79 45 80 46 81 52 82 54 83 47 84 48 85 49 86
REMARK SMILES IDX 50 87 51 88
REMARK H PARENT 9 7 13 19 75 38 41 49
REMARK Flexibility Score: inf
ROOT
ATOM      1  C   UNL A   1      44.992  25.084  26.301  1.00  0.00     0.118 C 
ENDROOT
BRANCH   1   2
ATOM      2  C   UNL A   1      46.131  24.390  25.560  1.00  0.00     0.042 C 
BRANCH   2   3
ATOM      3  C   UNL A   1      45.682  23.384  24.509  1.00  0.00     0.117 C 
BRANCH   3   4
ATOM      4  N   UNL A   1      46.479  22.167  24.529  1.00  0.00    -0.356 N 
ATOM      5  C   UNL A   1      46.128  20.856  24.523  1.00  0.00     0.225 C 
ATOM      6  O   UNL A   1      47.041  20.026  24.526  1.00  0.00    -0.275 OA
ATOM      7  H   UNL A   1      47.451  22.323  24.553  1.00  0.00     0.163 HD
BRANCH   5   8
ATOM      8  C   UNL A   1      44.690  20.390  24.478  1.00  0.00     0.107 C 
ATOM      9  N   UNL A   1      42.931  20.017  25.985  1.00  0.00    -0.339 N 
ATOM     10  C   UNL A   1      43.831  21.054  25.541  1.00  0.00     0.133 C 
ATOM     11  C   UNL A   1      43.288  18.761  25.525  1.00  0.00     0.223 C 
ATOM     12  C   UNL A   1      44.490  18.888  24.628  1.00  0.00     0.115 C 
ATOM     13  O   UNL A   1      42.744  17.705  25.810  1.00  0.00    -0.275 OA
BRANCH   9  14
ATOM     14  C   UNL A   1      41.889  20.225  26.992  1.00  0.00     0.078 C 
ATOM     15  C   UNL A   1      42.144  21.512  27.777  1.00  0.00     0.031 C 
ATOM     16  C   UNL A   1      40.484  20.221  26.395  1.00  0.00     0.031 C 
ENDBRANCH   9  14
ENDBRANCH   5   8
ENDBRANCH   3   4
ENDBRANCH   2   3
ENDBRANCH   1   2
BRANCH   1  17
ATOM     17  N   UNL A   1      43.807  25.264  25.476  1.00  0.00    -0.352 N 
ATOM     18  C   UNL A   1      42.585  25.817  25.775  1.00  0.00     0.251 C 
ATOM     19  H   UNL A   1      43.896  24.937  24.552  1.00  0.00     0.163 HD
ATOM     20  O   UNL A   1      41.667  25.690  24.968  1.00  0.00    -0.269 OA
BRANCH  18  21
ATOM     21  C   UNL A   1      42.358  26.533  27.051  1.00  0.00     0.039 A 
ATOM     22  C   UNL A   1      42.919  27.803  27.210  1.00  0.00     0.014 A 
ATOM     23  C   UNL A   1      41.634  25.961  28.100  1.00  0.00     0.014 A 
ATOM     24  C   UNL A   1      42.697  28.520  28.389  1.00  0.00     0.010 A 
ATOM     25  C   UNL A   1      41.338  26.712  29.239  1.00  0.00     0.010 A 
ATOM     26  C   UNL A   1      41.869  27.999  29.398  1.00  0.00    -0.014 A 
BRANCH  26  27
ATOM     27  C   UNL A   1      41.536  28.812  30.597  1.00  0.00     0.031 A 
ATOM     28  C   UNL A   1      42.340  28.692  31.866  1.00  0.00     0.074 A 
ATOM     29  C   UNL A   1      40.479  29.648  30.549  1.00  0.00     0.049 A 
ATOM     30  N   UNL A   1      42.206  29.346  32.992  1.00  0.00    -0.248 NA
ATOM     31  C   UNL A   1      43.418  27.691  31.882  1.00  0.00     0.031 C 
ATOM     32  C   UNL A   1      39.579  29.804  29.403  1.00  0.00     0.029 A 
ATOM     33  N   UNL A   1      39.982  30.527  31.478  1.00  0.00    -0.354 N 
ATOM     34  C   UNL A   1      43.177  28.838  33.847  1.00  0.00     0.074 A 
ATOM     35  C   UNL A   1      43.853  27.779  33.132  1.00  0.00     0.031 C 
ATOM     36  C   UNL A   1      38.671  30.751  29.680  1.00  0.00     0.029 A 
ATOM     37  C   UNL A   1      38.895  31.244  31.034  1.00  0.00     0.049 A 
ATOM     38  H   UNL A   1      40.367  30.634  32.377  1.00  0.00     0.167 HD
ATOM     39  C   UNL A   1      43.493  29.235  35.104  1.00  0.00     0.037 A 
ATOM     40  C   UNL A   1      38.163  32.194  31.646  1.00  0.00     0.037 A 
ATOM     41  C   UNL A   1      42.821  30.299  35.808  1.00  0.00     0.049 A 
ATOM     42  C   UNL A   1      38.541  32.624  33.038  1.00  0.00     0.074 A 
ATOM     43  C   UNL A   1      43.102  30.815  37.061  1.00  0.00     0.029 A 
ATOM     44  N   UNL A   1      41.729  31.006  35.325  1.00  0.00    -0.354 N 
ATOM     45  N   UNL A   1      39.513  32.186  33.802  1.00  0.00    -0.248 NA
ATOM     46  C   UNL A   1      37.729  33.686  33.644  1.00  0.00     0.031 C 
ATOM     47  C   UNL A   1      42.148  31.796  37.358  1.00  0.00     0.029 A 
ATOM     48  C   UNL A   1      41.308  31.935  36.266  1.00  0.00     0.049 A 
ATOM     49  H   UNL A   1      41.312  30.869  34.444  1.00  0.00     0.167 HD
ATOM     50  C   UNL A   1      39.442  32.934  34.972  1.00  0.00     0.074 A 
ATOM     51  C   UNL A   1      38.350  33.870  34.800  1.00  0.00     0.031 C 
ATOM     52  C   UNL A   1      40.209  32.851  36.089  1.00  0.00     0.037 A 
BRANCH  39  53
ATOM     53  C   UNL A   1      44.620  28.519  35.802  1.00  0.00     0.058 A 
ATOM     54  C   UNL A   1      44.388  27.412  36.636  1.00  0.00     0.135 A 
ATOM     55  C   UNL A   1      45.953  28.914  35.603  1.00  0.00     0.135 A 
ATOM     56  F   UNL A   1      43.134  26.997  36.876  1.00  0.00    -0.206 F 
ATOM     57  C   UNL A   1      45.432  26.744  37.269  1.00  0.00     0.059 A 
ATOM     58  C   UNL A   1      47.015  28.241  36.201  1.00  0.00     0.059 A 
ATOM     59  F   UNL A   1      46.237  29.965  34.817  1.00  0.00    -0.206 F 
ATOM     60  C   UNL A   1      46.742  27.165  37.045  1.00  0.00     0.060 A 
BRANCH  60  61
ATOM     61  S   UNL A   1      48.085  26.280  37.866  1.00  0.00     0.124 S 
ATOM     62  O   UNL A   1      48.065  25.002  37.161  1.00  0.00    -0.237 OA
ATOM     63  O   UNL A   1      49.235  27.136  37.592  1.00  0.00    -0.237 OA
ATOM     64  O   UNL A   1      47.659  26.233  39.261  1.00  0.00    -0.744 OA
ENDBRANCH  60  61
ENDBRANCH  39  53
BRANCH  40  65
ATOM     65  C   UNL A   1      37.017  32.823  30.935  1.00  0.00     0.058 A 
ATOM     66  C   UNL A   1      37.224  33.802  29.951  1.00  0.00     0.135 A 
ATOM     67  C   UNL A   1      35.694  32.450  31.215  1.00  0.00     0.135 A 
ATOM     68  F   UNL A   1      38.471  34.197  29.650  1.00  0.00    -0.206 F 
ATOM     69  C   UNL A   1      36.161  34.404  29.285  1.00  0.00     0.059 A 
ATOM     70  C   UNL A   1      34.615  33.014  30.541  1.00  0.00     0.059 A 
ATOM     71  F   UNL A   1      35.442  31.505  32.134  1.00  0.00    -0.206 F 
ATOM     72  C   UNL A   1      34.859  33.999  29.586  1.00  0.00     0.060 A 
BRANCH  72  73
ATOM     73  S   UNL A   1      33.489  34.752  28.681  1.00  0.00     0.124 S 
ATOM     74  O   UNL A   1      33.146  33.697  27.736  1.00  0.00    -0.237 OA
ATOM     75  O   UNL A   1      32.520  35.000  29.745  1.00  0.00    -0.237 OA
ATOM     76  O   UNL A   1      34.089  35.950  28.101  1.00  0.00    -0.744 OA
ENDBRANCH  72  73
ENDBRANCH  40  65
BRANCH  52  77
ATOM     77  C   UNL A   1      39.898  33.818  37.201  1.00  0.00     0.058 A 
ATOM     78  C   UNL A   1      40.483  35.094  37.259  1.00  0.00     0.135 A 
ATOM     79  C   UNL A   1      39.009  33.462  38.228  1.00  0.00     0.135 A 
ATOM     80  F   UNL A   1      41.343  35.487  36.304  1.00  0.00    -0.206 F 
ATOM     81  C   UNL A   1      40.242  35.958  38.321  1.00  0.00     0.059 A 
ATOM     82  C   UNL A   1      38.725  34.325  39.282  1.00  0.00     0.059 A 
ATOM     83  F   UNL A   1      38.406  32.262  38.216  1.00  0.00    -0.206 F 
ATOM     84  C   UNL A   1      39.367  35.560  39.333  1.00  0.00     0.060 A 
BRANCH  84  85
ATOM     85  S   UNL A   1      39.079  36.681  40.718  1.00  0.00     0.124 S 
ATOM     86  O   UNL A   1      38.335  35.826  41.637  1.00  0.00    -0.237 OA
ATOM     87  O   UNL A   1      40.436  37.026  41.130  1.00  0.00    -0.237 OA
ATOM     88  O   UNL A   1      38.316  37.772  40.119  1.00  0.00    -0.744 OA
ENDBRANCH  84  85
ENDBRANCH  52  77
ENDBRANCH  26  27
ENDBRANCH  18  21
ENDBRANCH   1  17
TORSDOF 14
ENDMDL
