MODEL 1
REMARK VINA RESULT:     -12.1      0.000      0.000
REMARK SMILES Cc1noc(C)c1COc1ccc(C(=O)NCCCNC(=O)c2ccc(-c3c4nc(c(-c5c(F)cc(S(=O)(=O)[O-])cc5F)c5ccc([nH]5)c(-c5c(F)cc(S(=O)(=O)[O-])cc5F)c5nc(c(-c6c(F)cc(S(=O)(=O)[O-])cc6F)c6ccc3[nH]6)C=C5)C=C4)cc2)cc1
REMARK SMILES IDX 18 1 17 2 16 3 14 4 15 5 13 7 10 8 11 9 90 10 12 11 89 12
REMARK SMILES IDX 9 13 8 14 7 15 1 16 2 17 3 18 4 19 5 20 6 21 19 22 20 23
REMARK SMILES IDX 21 24 22 26 23 27 24 28 88 29 25 30 87 31 26 32 27 33 28 34
REMARK SMILES IDX 81 35 29 36 86 37 80 38 82 39 30 40 85 41 79 42 78 43 31 45
REMARK SMILES IDX 65 46 44 47 64 48 45 49 48 50 63 51 83 52 46 53 47 54 62 56
REMARK SMILES IDX 84 57 49 58 32 59 33 60 42 61 34 62 35 63 41 64 43 65 36 66
REMARK SMILES IDX 37 67 38 68 39 69 40 70 66 71 67 72 76 73 68 74 69 75 75 76
REMARK SMILES IDX 77 77 70 78 71 79 72 80 73 81 74 82 50 83 51 84 60 85 52 86
REMARK SMILES IDX 53 87 59 88 61 89 54 90 55 91 56 92 57 93 58 94
REMARK H PARENT 16 6 20 25 82 44 48 55
REMARK Flexibility Score: inf
ROOT
ATOM      1  C   UNL A   1      37.308  23.085  26.041  1.00  0.00     0.042 C 
ENDROOT
BRANCH   1   2
ATOM      2  C   UNL A   1      36.983  22.988  24.551  1.00  0.00     0.118 C 
BRANCH   2   3
ATOM      3  N   UNL A   1      35.902  23.884  24.172  1.00  0.00    -0.352 N 
ATOM      4  C   UNL A   1      34.538  23.722  24.207  1.00  0.00     0.251 C 
ATOM      5  O   UNL A   1      33.822  24.694  23.974  1.00  0.00    -0.269 OA
ATOM      6  H   UNL A   1      36.198  24.759  23.832  1.00  0.00     0.163 HD
BRANCH   4   7
ATOM      7  C   UNL A   1      33.905  22.426  24.566  1.00  0.00     0.040 A 
ATOM      8  C   UNL A   1      32.811  19.964  25.327  1.00  0.00     0.119 A 
ATOM      9  C   UNL A   1      33.347  20.807  26.297  1.00  0.00     0.047 A 
ATOM     10  C   UNL A   1      32.728  20.391  24.005  1.00  0.00     0.047 A 
ATOM     11  C   UNL A   1      33.898  22.035  25.914  1.00  0.00     0.017 A 
ATOM     12  C   UNL A   1      33.264  21.617  23.630  1.00  0.00     0.017 A 
BRANCH   8  13
ATOM     13  O   UNL A   1      32.268  18.765  25.699  1.00  0.00    -0.489 OA
BRANCH  13  14
ATOM     14  C   UNL A   1      32.357  17.778  24.651  1.00  0.00     0.271 C 
BRANCH  14  15
ATOM     15  C   UNL A   1      33.334  16.682  24.905  1.00  0.00     0.055 A 
ATOM     16  C   UNL A   1      35.633  17.880  24.523  1.00  0.00     0.071 C 
ATOM     17  C   UNL A   1      34.756  16.726  24.836  1.00  0.00     0.087 A 
ATOM     18  N   UNL A   1      35.295  15.546  25.161  1.00  0.00    -0.085 NA
ATOM     19  O   UNL A   1      34.238  14.714  25.462  1.00  0.00    -0.361 OA
ATOM     20  C   UNL A   1      33.071  15.392  25.319  1.00  0.00     0.140 A 
ATOM     21  C   UNL A   1      31.842  14.643  25.643  1.00  0.00     0.091 C 
ENDBRANCH  14  15
ENDBRANCH  13  14
ENDBRANCH   8  13
ENDBRANCH   4   7
ENDBRANCH   2   3
ENDBRANCH   1   2
BRANCH   1  22
ATOM     22  C   UNL A   1      38.188  24.277  26.396  1.00  0.00     0.118 C 
BRANCH  22  23
ATOM     23  N   UNL A   1      39.592  24.026  26.105  1.00  0.00    -0.352 N 
ATOM     24  C   UNL A   1      40.708  24.721  26.502  1.00  0.00     0.251 C 
ATOM     25  H   UNL A   1      39.768  23.239  25.540  1.00  0.00     0.163 HD
ATOM     26  O   UNL A   1      41.788  24.476  25.972  1.00  0.00    -0.269 OA
BRANCH  24  27
ATOM     27  C   UNL A   1      40.611  25.762  27.549  1.00  0.00     0.039 A 
ATOM     28  C   UNL A   1      39.643  25.629  28.548  1.00  0.00     0.014 A 
ATOM     29  C   UNL A   1      41.446  26.883  27.531  1.00  0.00     0.014 A 
ATOM     30  C   UNL A   1      39.543  26.594  29.554  1.00  0.00     0.010 A 
ATOM     31  C   UNL A   1      41.397  27.802  28.574  1.00  0.00     0.010 A 
ATOM     32  C   UNL A   1      40.439  27.674  29.591  1.00  0.00    -0.014 A 
BRANCH  32  33
ATOM     33  C   UNL A   1      40.383  28.696  30.669  1.00  0.00     0.031 A 
ATOM     34  C   UNL A   1      41.276  28.565  31.874  1.00  0.00     0.074 A 
ATOM     35  C   UNL A   1      39.480  29.695  30.597  1.00  0.00     0.049 A 
ATOM     36  N   UNL A   1      41.301  29.281  32.967  1.00  0.00    -0.248 NA
ATOM     37  C   UNL A   1      42.250  27.461  31.859  1.00  0.00     0.031 C 
ATOM     38  C   UNL A   1      38.537  29.906  29.497  1.00  0.00     0.029 A 
ATOM     39  N   UNL A   1      39.196  30.710  31.476  1.00  0.00    -0.354 N 
ATOM     40  C   UNL A   1      42.274  28.707  33.776  1.00  0.00     0.074 A 
ATOM     41  C   UNL A   1      42.781  27.551  33.069  1.00  0.00     0.031 C 
ATOM     42  C   UNL A   1      37.789  30.989  29.760  1.00  0.00     0.029 A 
ATOM     43  C   UNL A   1      38.168  31.525  31.065  1.00  0.00     0.049 A 
ATOM     44  H   UNL A   1      39.684  30.842  32.322  1.00  0.00     0.167 HD
ATOM     45  C   UNL A   1      42.719  29.118  34.987  1.00  0.00     0.037 A 
ATOM     46  C   UNL A   1      37.584  32.574  31.676  1.00  0.00     0.037 A 
ATOM     47  C   UNL A   1      42.224  30.285  35.670  1.00  0.00     0.049 A 
ATOM     48  C   UNL A   1      38.091  33.009  33.026  1.00  0.00     0.074 A 
ATOM     49  C   UNL A   1      42.644  30.817  36.876  1.00  0.00     0.029 A 
ATOM     50  N   UNL A   1      41.201  31.100  35.207  1.00  0.00    -0.354 N 
ATOM     51  N   UNL A   1      39.048  32.485  33.754  1.00  0.00    -0.248 NA
ATOM     52  C   UNL A   1      37.443  34.177  33.636  1.00  0.00     0.031 C 
ATOM     53  C   UNL A   1      41.845  31.928  37.165  1.00  0.00     0.029 A 
ATOM     54  C   UNL A   1      40.965  32.121  36.112  1.00  0.00     0.049 A 
ATOM     55  H   UNL A   1      40.717  30.972  34.360  1.00  0.00     0.167 HD
ATOM     56  C   UNL A   1      39.142  33.282  34.889  1.00  0.00     0.074 A 
ATOM     57  C   UNL A   1      38.147  34.324  34.751  1.00  0.00     0.031 C 
ATOM     58  C   UNL A   1      39.981  33.164  35.948  1.00  0.00     0.037 A 
BRANCH  45  59
ATOM     59  C   UNL A   1      43.793  28.300  35.653  1.00  0.00     0.058 A 
ATOM     60  C   UNL A   1      43.483  27.265  36.551  1.00  0.00     0.135 A 
ATOM     61  C   UNL A   1      45.148  28.528  35.363  1.00  0.00     0.135 A 
ATOM     62  F   UNL A   1      42.206  27.011  36.876  1.00  0.00    -0.206 F 
ATOM     63  C   UNL A   1      44.479  26.509  37.163  1.00  0.00     0.059 A 
ATOM     64  C   UNL A   1      46.160  27.763  35.939  1.00  0.00     0.059 A 
ATOM     65  F   UNL A   1      45.503  29.503  34.512  1.00  0.00    -0.206 F 
ATOM     66  C   UNL A   1      45.815  26.766  36.850  1.00  0.00     0.060 A 
BRANCH  66  67
ATOM     67  S   UNL A   1      47.092  25.773  37.649  1.00  0.00     0.124 S 
ATOM     68  O   UNL A   1      48.054  25.608  36.564  1.00  0.00    -0.237 OA
ATOM     69  O   UNL A   1      47.518  26.635  38.746  1.00  0.00    -0.237 OA
ATOM     70  O   UNL A   1      46.382  24.561  38.048  1.00  0.00    -0.744 OA
ENDBRANCH  66  67
ENDBRANCH  45  59
BRANCH  46  71
ATOM     71  C   UNL A   1      36.469  33.299  31.008  1.00  0.00     0.058 A 
ATOM     72  C   UNL A   1      35.161  33.227  31.506  1.00  0.00     0.135 A 
ATOM     73  C   UNL A   1      36.692  34.090  29.869  1.00  0.00     0.135 A 
ATOM     74  F   UNL A   1      34.896  32.481  32.589  1.00  0.00    -0.206 F 
ATOM     75  C   UNL A   1      34.107  33.896  30.891  1.00  0.00     0.059 A 
ATOM     76  C   UNL A   1      35.660  34.790  29.252  1.00  0.00     0.059 A 
ATOM     77  F   UNL A   1      37.929  34.208  29.363  1.00  0.00    -0.206 F 
ATOM     78  C   UNL A   1      34.367  34.677  29.764  1.00  0.00     0.060 A 
BRANCH  78  79
ATOM     79  S   UNL A   1      33.000  35.573  28.998  1.00  0.00     0.124 S 
ATOM     80  O   UNL A   1      32.435  34.553  28.121  1.00  0.00    -0.237 OA
ATOM     81  O   UNL A   1      32.190  35.941  30.155  1.00  0.00    -0.237 OA
ATOM     82  O   UNL A   1      33.663  36.687  28.325  1.00  0.00    -0.744 OA
ENDBRANCH  78  79
ENDBRANCH  46  71
BRANCH  58  83
ATOM     83  C   UNL A   1      39.902  34.214  37.022  1.00  0.00     0.058 A 
ATOM     84  C   UNL A   1      40.459  35.490  36.854  1.00  0.00     0.135 A 
ATOM     85  C   UNL A   1      39.193  33.958  38.208  1.00  0.00     0.135 A 
ATOM     86  F   UNL A   1      41.154  35.784  35.744  1.00  0.00    -0.206 F 
ATOM     87  C   UNL A   1      40.329  36.473  37.830  1.00  0.00     0.059 A 
ATOM     88  C   UNL A   1      39.025  34.934  39.184  1.00  0.00     0.059 A 
ATOM     89  F   UNL A   1      38.633  32.755  38.415  1.00  0.00    -0.206 F 
ATOM     90  C   UNL A   1      39.604  36.187  38.990  1.00  0.00     0.060 A 
BRANCH  90  91
ATOM     91  S   UNL A   1      39.396  37.488  40.224  1.00  0.00     0.124 S 
ATOM     92  O   UNL A   1      40.780  37.872  40.483  1.00  0.00    -0.237 OA
ATOM     93  O   UNL A   1      38.589  38.470  39.508  1.00  0.00    -0.237 OA
ATOM     94  O   UNL A   1      38.717  36.809  41.324  1.00  0.00    -0.744 OA
ENDBRANCH  90  91
ENDBRANCH  58  83
ENDBRANCH  32  33
ENDBRANCH  24  27
ENDBRANCH  22  23
ENDBRANCH   1  22
TORSDOF 16
ENDMDL
MODEL 2
REMARK VINA RESULT:     -12.1      5.876     12.657
REMARK SMILES Cc1noc(C)c1COc1ccc(C(=O)NCCCNC(=O)c2ccc(-c3c4nc(c(-c5c(F)cc(S(=O)(=O)[O-])cc5F)c5ccc([nH]5)c(-c5c(F)cc(S(=O)(=O)[O-])cc5F)c5nc(c(-c6c(F)cc(S(=O)(=O)[O-])cc6F)c6ccc3[nH]6)C=C5)C=C4)cc2)cc1
REMARK SMILES IDX 18 1 17 2 16 3 14 4 15 5 13 7 10 8 11 9 90 10 12 11 89 12
REMARK SMILES IDX 9 13 8 14 7 15 1 16 2 17 3 18 4 19 5 20 6 21 19 22 20 23
REMARK SMILES IDX 21 24 22 26 23 27 24 28 88 29 25 30 87 31 26 32 27 33 28 34
REMARK SMILES IDX 81 35 29 36 86 37 80 38 82 39 30 40 85 41 79 42 78 43 31 45
REMARK SMILES IDX 65 46 44 47 64 48 45 49 48 50 63 51 83 52 46 53 47 54 62 56
REMARK SMILES IDX 84 57 49 58 32 59 33 60 42 61 34 62 35 63 41 64 43 65 36 66
REMARK SMILES IDX 37 67 38 68 39 69 40 70 66 71 67 72 76 73 68 74 69 75 75 76
REMARK SMILES IDX 77 77 70 78 71 79 72 80 73 81 74 82 50 83 51 84 60 85 52 86
REMARK SMILES IDX 53 87 59 88 61 89 54 90 55 91 56 92 57 93 58 94
REMARK H PARENT 16 6 20 25 82 44 48 55
REMARK Flexibility Score: inf
ROOT
ATOM      1  C   UNL A   1      33.571  33.720  28.190  1.00  0.00     0.042 C 
ENDROOT
BRANCH   1   2
ATOM      2  C   UNL A   1      34.045  34.906  29.030  1.00  0.00     0.118 C 
BRANCH   2   3
ATOM      3  N   UNL A   1      33.321  35.003  30.288  1.00  0.00    -0.352 N 
ATOM      4  C   UNL A   1      33.703  34.711  31.576  1.00  0.00     0.251 C 
ATOM      5  O   UNL A   1      32.952  35.025  32.498  1.00  0.00    -0.269 OA
ATOM      6  H   UNL A   1      32.398  35.336  30.203  1.00  0.00     0.163 HD
BRANCH   4   7
ATOM      7  C   UNL A   1      35.010  34.077  31.888  1.00  0.00     0.040 A 
ATOM      8  C   UNL A   1      37.406  32.777  32.523  1.00  0.00     0.119 A 
ATOM      9  C   UNL A   1      36.364  32.055  31.949  1.00  0.00     0.047 A 
ATOM     10  C   UNL A   1      37.291  34.155  32.683  1.00  0.00     0.047 A 
ATOM     11  C   UNL A   1      35.164  32.705  31.636  1.00  0.00     0.017 A 
ATOM     12  C   UNL A   1      36.103  34.800  32.360  1.00  0.00     0.017 A 
BRANCH   8  13
ATOM     13  O   UNL A   1      38.581  32.144  32.826  1.00  0.00    -0.489 OA
BRANCH  13  14
ATOM     14  C   UNL A   1      38.386  30.746  33.120  1.00  0.00     0.271 C 
BRANCH  14  15
ATOM     15  C   UNL A   1      39.221  30.219  34.236  1.00  0.00     0.055 A 
ATOM     16  C   UNL A   1      41.084  28.887  32.964  1.00  0.00     0.071 C 
ATOM     17  C   UNL A   1      40.384  29.401  34.167  1.00  0.00     0.087 A 
ATOM     18  N   UNL A   1      40.879  29.154  35.384  1.00  0.00    -0.085 NA
ATOM     19  O   UNL A   1      40.058  29.816  36.271  1.00  0.00    -0.361 OA
ATOM     20  C   UNL A   1      39.076  30.458  35.588  1.00  0.00     0.140 A 
ATOM     21  C   UNL A   1      38.131  31.248  36.401  1.00  0.00     0.091 C 
ENDBRANCH  14  15
ENDBRANCH  13  14
ENDBRANCH   8  13
ENDBRANCH   4   7
ENDBRANCH   2   3
ENDBRANCH   1   2
BRANCH   1  22
ATOM     22  C   UNL A   1      34.534  32.539  28.206  1.00  0.00     0.118 C 
BRANCH  22  23
ATOM     23  N   UNL A   1      33.842  31.268  28.046  1.00  0.00    -0.352 N 
ATOM     24  C   UNL A   1      34.354  30.000  27.926  1.00  0.00     0.251 C 
ATOM     25  H   UNL A   1      32.860  31.327  28.021  1.00  0.00     0.163 HD
ATOM     26  O   UNL A   1      33.615  29.083  27.581  1.00  0.00    -0.269 OA
BRANCH  24  27
ATOM     27  C   UNL A   1      35.786  29.739  28.199  1.00  0.00     0.039 A 
ATOM     28  C   UNL A   1      36.169  29.345  29.484  1.00  0.00     0.014 A 
ATOM     29  C   UNL A   1      36.753  29.915  27.205  1.00  0.00     0.014 A 
ATOM     30  C   UNL A   1      37.513  29.081  29.759  1.00  0.00     0.010 A 
ATOM     31  C   UNL A   1      38.079  29.579  27.459  1.00  0.00     0.010 A 
ATOM     32  C   UNL A   1      38.476  29.168  28.741  1.00  0.00    -0.014 A 
BRANCH  32  33
ATOM     33  C   UNL A   1      39.907  28.858  28.992  1.00  0.00     0.031 A 
ATOM     34  C   UNL A   1      40.823  29.925  29.530  1.00  0.00     0.074 A 
ATOM     35  C   UNL A   1      40.395  27.644  28.667  1.00  0.00     0.049 A 
ATOM     36  N   UNL A   1      42.117  29.890  29.710  1.00  0.00    -0.248 NA
ATOM     37  C   UNL A   1      40.203  31.213  29.883  1.00  0.00     0.031 C 
ATOM     38  C   UNL A   1      39.614  26.540  28.105  1.00  0.00     0.029 A 
ATOM     39  N   UNL A   1      41.669  27.140  28.745  1.00  0.00    -0.354 N 
ATOM     40  C   UNL A   1      42.470  31.151  30.177  1.00  0.00     0.074 A 
ATOM     41  C   UNL A   1      41.260  31.944  30.203  1.00  0.00     0.031 C 
ATOM     42  C   UNL A   1      40.421  25.487  27.903  1.00  0.00     0.029 A 
ATOM     43  C   UNL A   1      41.784  25.852  28.279  1.00  0.00     0.049 A 
ATOM     44  H   UNL A   1      42.430  27.653  29.103  1.00  0.00     0.167 HD
ATOM     45  C   UNL A   1      43.686  31.599  30.568  1.00  0.00     0.037 A 
ATOM     46  C   UNL A   1      42.866  25.059  28.151  1.00  0.00     0.037 A 
ATOM     47  C   UNL A   1      44.879  30.793  30.562  1.00  0.00     0.049 A 
ATOM     48  C   UNL A   1      44.210  25.582  28.586  1.00  0.00     0.074 A 
ATOM     49  C   UNL A   1      46.150  31.135  30.987  1.00  0.00     0.029 A 
ATOM     50  N   UNL A   1      44.948  29.483  30.108  1.00  0.00    -0.354 N 
ATOM     51  N   UNL A   1      44.517  26.760  29.075  1.00  0.00    -0.248 NA
ATOM     52  C   UNL A   1      45.354  24.669  28.457  1.00  0.00     0.031 C 
ATOM     53  C   UNL A   1      46.998  30.048  30.748  1.00  0.00     0.029 A 
ATOM     54  C   UNL A   1      46.243  29.009  30.227  1.00  0.00     0.049 A 
ATOM     55  H   UNL A   1      44.188  28.967  29.755  1.00  0.00     0.167 HD
ATOM     56  C   UNL A   1      45.880  26.717  29.347  1.00  0.00     0.074 A 
ATOM     57  C   UNL A   1      46.338  25.395  28.970  1.00  0.00     0.031 C 
ATOM     58  C   UNL A   1      46.678  27.682  29.865  1.00  0.00     0.037 A 
BRANCH  45  59
ATOM     59  C   UNL A   1      43.790  33.026  31.035  1.00  0.00     0.058 A 
ATOM     60  C   UNL A   1      43.537  33.387  32.368  1.00  0.00     0.135 A 
ATOM     61  C   UNL A   1      44.183  34.042  30.148  1.00  0.00     0.135 A 
ATOM     62  F   UNL A   1      43.144  32.462  33.257  1.00  0.00    -0.206 F 
ATOM     63  C   UNL A   1      43.636  34.707  32.798  1.00  0.00     0.059 A 
ATOM     64  C   UNL A   1      44.319  35.364  30.562  1.00  0.00     0.059 A 
ATOM     65  F   UNL A   1      44.438  33.755  28.862  1.00  0.00    -0.206 F 
ATOM     66  C   UNL A   1      44.028  35.690  31.886  1.00  0.00     0.060 A 
BRANCH  66  67
ATOM     67  S   UNL A   1      44.157  37.395  32.461  1.00  0.00     0.124 S 
ATOM     68  O   UNL A   1      45.569  37.474  32.824  1.00  0.00    -0.237 OA
ATOM     69  O   UNL A   1      43.765  38.154  31.279  1.00  0.00    -0.237 OA
ATOM     70  O   UNL A   1      43.219  37.450  33.578  1.00  0.00    -0.744 OA
ENDBRANCH  66  67
ENDBRANCH  45  59
BRANCH  46  71
ATOM     71  C   UNL A   1      42.721  23.682  27.607  1.00  0.00     0.058 A 
ATOM     72  C   UNL A   1      42.882  23.426  26.238  1.00  0.00     0.135 A 
ATOM     73  C   UNL A   1      42.434  22.593  28.446  1.00  0.00     0.135 A 
ATOM     74  F   UNL A   1      43.152  24.435  25.395  1.00  0.00    -0.206 F 
ATOM     75  C   UNL A   1      42.746  22.145  25.714  1.00  0.00     0.059 A 
ATOM     76  C   UNL A   1      42.320  21.298  27.949  1.00  0.00     0.059 A 
ATOM     77  F   UNL A   1      42.289  22.780  29.767  1.00  0.00    -0.206 F 
ATOM     78  C   UNL A   1      42.465  21.086  26.578  1.00  0.00     0.060 A 
BRANCH  78  79
ATOM     79  S   UNL A   1      42.331  19.421  25.893  1.00  0.00     0.124 S 
ATOM     80  O   UNL A   1      40.917  19.361  25.542  1.00  0.00    -0.237 OA
ATOM     81  O   UNL A   1      43.266  19.476  24.772  1.00  0.00    -0.237 OA
ATOM     82  O   UNL A   1      42.743  18.566  27.002  1.00  0.00    -0.744 OA
ENDBRANCH  78  79
ENDBRANCH  46  71
BRANCH  58  83
ATOM     83  C   UNL A   1      48.122  27.338  30.110  1.00  0.00     0.058 A 
ATOM     84  C   UNL A   1      49.120  27.610  29.163  1.00  0.00     0.135 A 
ATOM     85  C   UNL A   1      48.518  26.794  31.343  1.00  0.00     0.135 A 
ATOM     86  F   UNL A   1      48.795  28.122  27.965  1.00  0.00    -0.206 F 
ATOM     87  C   UNL A   1      50.460  27.341  29.423  1.00  0.00     0.059 A 
ATOM     88  C   UNL A   1      49.854  26.544  31.637  1.00  0.00     0.059 A 
ATOM     89  F   UNL A   1      47.602  26.523  32.288  1.00  0.00    -0.206 F 
ATOM     90  C   UNL A   1      50.818  26.814  30.667  1.00  0.00     0.060 A 
BRANCH  90  91
ATOM     91  S   UNL A   1      52.565  26.521  31.013  1.00  0.00     0.124 S 
ATOM     92  O   UNL A   1      52.918  27.713  31.776  1.00  0.00    -0.237 OA
ATOM     93  O   UNL A   1      52.528  25.272  31.767  1.00  0.00    -0.237 OA
ATOM     94  O   UNL A   1      53.164  26.426  29.685  1.00  0.00    -0.744 OA
ENDBRANCH  90  91
ENDBRANCH  58  83
ENDBRANCH  32  33
ENDBRANCH  24  27
ENDBRANCH  22  23
ENDBRANCH   1  22
TORSDOF 16
ENDMDL
MODEL 3
REMARK VINA RESULT:     -12.0      4.220      7.367
REMARK SMILES Cc1noc(C)c1COc1ccc(C(=O)NCCCNC(=O)c2ccc(-c3c4nc(c(-c5c(F)cc(S(=O)(=O)[O-])cc5F)c5ccc([nH]5)c(-c5c(F)cc(S(=O)(=O)[O-])cc5F)c5nc(c(-c6c(F)cc(S(=O)(=O)[O-])cc6F)c6ccc3[nH]6)C=C5)C=C4)cc2)cc1
REMARK SMILES IDX 18 1 17 2 16 3 14 4 15 5 13 7 10 8 11 9 90 10 12 11 89 12
REMARK SMILES IDX 9 13 8 14 7 15 1 16 2 17 3 18 4 19 5 20 6 21 19 22 20 23
REMARK SMILES IDX 21 24 22 26 23 27 24 28 88 29 25 30 87 31 26 32 27 33 28 34
REMARK SMILES IDX 81 35 29 36 86 37 80 38 82 39 30 40 85 41 79 42 78 43 31 45
REMARK SMILES IDX 65 46 44 47 64 48 45 49 48 50 63 51 83 52 46 53 47 54 62 56
REMARK SMILES IDX 84 57 49 58 32 59 33 60 42 61 34 62 35 63 41 64 43 65 36 66
REMARK SMILES IDX 37 67 38 68 39 69 40 70 66 71 67 72 76 73 68 74 69 75 75 76
REMARK SMILES IDX 77 77 70 78 71 79 72 80 73 81 74 82 50 83 51 84 60 85 52 86
REMARK SMILES IDX 53 87 59 88 61 89 54 90 55 91 56 92 57 93 58 94
REMARK H PARENT 16 6 20 25 82 44 48 55
REMARK Flexibility Score: inf
ROOT
ATOM      1  C   UNL A   1      40.823  20.135  26.372  1.00  0.00     0.042 C 
ENDROOT
BRANCH   1   2
ATOM      2  C   UNL A   1      42.304  19.850  26.620  1.00  0.00     0.118 C 
BRANCH   2   3
ATOM      3  N   UNL A   1      43.055  19.759  25.377  1.00  0.00    -0.352 N 
ATOM      4  C   UNL A   1      43.964  20.615  24.805  1.00  0.00     0.251 C 
ATOM      5  O   UNL A   1      44.584  20.239  23.812  1.00  0.00    -0.269 OA
ATOM      6  H   UNL A   1      42.882  18.941  24.856  1.00  0.00     0.163 HD
BRANCH   4   7
ATOM      7  C   UNL A   1      44.256  21.955  25.377  1.00  0.00     0.040 A 
ATOM      8  C   UNL A   1      44.766  24.534  26.340  1.00  0.00     0.119 A 
ATOM      9  C   UNL A   1      43.616  24.295  25.593  1.00  0.00     0.047 A 
ATOM     10  C   UNL A   1      45.600  23.476  26.691  1.00  0.00     0.047 A 
ATOM     11  C   UNL A   1      43.365  23.006  25.108  1.00  0.00     0.017 A 
ATOM     12  C   UNL A   1      45.341  22.194  26.219  1.00  0.00     0.017 A 
BRANCH   8  13
ATOM     13  O   UNL A   1      45.011  25.792  26.819  1.00  0.00    -0.489 OA
BRANCH  13  14
ATOM     14  C   UNL A   1      44.339  26.808  26.047  1.00  0.00     0.271 C 
BRANCH  14  15
ATOM     15  C   UNL A   1      45.087  28.091  25.917  1.00  0.00     0.055 A 
ATOM     16  C   UNL A   1      47.073  27.426  24.342  1.00  0.00     0.071 C 
ATOM     17  C   UNL A   1      46.282  28.353  25.187  1.00  0.00     0.087 A 
ATOM     18  N   UNL A   1      46.639  29.638  25.284  1.00  0.00    -0.085 NA
ATOM     19  O   UNL A   1      45.679  30.242  26.067  1.00  0.00    -0.361 OA
ATOM     20  C   UNL A   1      44.750  29.324  26.436  1.00  0.00     0.140 A 
ATOM     21  C   UNL A   1      43.629  29.829  27.252  1.00  0.00     0.091 C 
ENDBRANCH  14  15
ENDBRANCH  13  14
ENDBRANCH   8  13
ENDBRANCH   4   7
ENDBRANCH   2   3
ENDBRANCH   1   2
BRANCH   1  22
ATOM     22  C   UNL A   1      40.412  21.563  26.709  1.00  0.00     0.118 C 
BRANCH  22  23
ATOM     23  N   UNL A   1      39.295  22.017  25.894  1.00  0.00    -0.352 N 
ATOM     24  C   UNL A   1      38.612  23.207  25.928  1.00  0.00     0.251 C 
ATOM     25  H   UNL A   1      38.983  21.375  25.216  1.00  0.00     0.163 HD
ATOM     26  O   UNL A   1      37.560  23.315  25.305  1.00  0.00    -0.269 OA
BRANCH  24  27
ATOM     27  C   UNL A   1      39.131  24.349  26.715  1.00  0.00     0.039 A 
ATOM     28  C   UNL A   1      40.001  25.254  26.101  1.00  0.00     0.014 A 
ATOM     29  C   UNL A   1      38.791  24.510  28.061  1.00  0.00     0.014 A 
ATOM     30  C   UNL A   1      40.491  26.346  26.823  1.00  0.00     0.010 A 
ATOM     31  C   UNL A   1      39.218  25.638  28.755  1.00  0.00     0.010 A 
ATOM     32  C   UNL A   1      40.081  26.562  28.148  1.00  0.00    -0.014 A 
BRANCH  32  33
ATOM     33  C   UNL A   1      40.555  27.734  28.929  1.00  0.00     0.031 A 
ATOM     34  C   UNL A   1      41.908  27.698  29.588  1.00  0.00     0.074 A 
ATOM     35  C   UNL A   1      39.740  28.793  29.106  1.00  0.00     0.049 A 
ATOM     36  N   UNL A   1      42.455  28.564  30.400  1.00  0.00    -0.248 NA
ATOM     37  C   UNL A   1      42.744  26.516  29.322  1.00  0.00     0.031 C 
ATOM     38  C   UNL A   1      38.394  28.928  28.548  1.00  0.00     0.029 A 
ATOM     39  N   UNL A   1      39.919  29.951  29.822  1.00  0.00    -0.354 N 
ATOM     40  C   UNL A   1      43.687  28.025  30.757  1.00  0.00     0.074 A 
ATOM     41  C   UNL A   1      43.783  26.733  30.113  1.00  0.00     0.031 C 
ATOM     42  C   UNL A   1      37.874  30.106  28.929  1.00  0.00     0.029 A 
ATOM     43  C   UNL A   1      38.831  30.791  29.794  1.00  0.00     0.049 A 
ATOM     44  H   UNL A   1      40.749  30.160  30.308  1.00  0.00     0.167 HD
ATOM     45  C   UNL A   1      44.656  28.567  31.532  1.00  0.00     0.037 A 
ATOM     46  C   UNL A   1      38.620  31.971  30.409  1.00  0.00     0.037 A 
ATOM     47  C   UNL A   1      44.559  29.865  32.146  1.00  0.00     0.049 A 
ATOM     48  C   UNL A   1      39.709  32.551  31.272  1.00  0.00     0.074 A 
ATOM     49  C   UNL A   1      45.506  30.529  32.907  1.00  0.00     0.029 A 
ATOM     50  N   UNL A   1      43.451  30.698  32.071  1.00  0.00    -0.354 N 
ATOM     51  N   UNL A   1      40.889  32.052  31.556  1.00  0.00    -0.248 NA
ATOM     52  C   UNL A   1      39.443  33.855  31.894  1.00  0.00     0.031 C 
ATOM     53  C   UNL A   1      44.953  31.742  33.330  1.00  0.00     0.029 A 
ATOM     54  C   UNL A   1      43.684  31.860  32.787  1.00  0.00     0.049 A 
ATOM     55  H   UNL A   1      42.623  30.492  31.581  1.00  0.00     0.167 HD
ATOM     56  C   UNL A   1      41.519  32.997  32.358  1.00  0.00     0.074 A 
ATOM     57  C   UNL A   1      40.591  34.098  32.512  1.00  0.00     0.031 C 
ATOM     58  C   UNL A   1      42.756  32.957  32.913  1.00  0.00     0.037 A 
BRANCH  45  59
ATOM     59  C   UNL A   1      45.904  27.758  31.760  1.00  0.00     0.058 A 
ATOM     60  C   UNL A   1      45.996  26.820  32.801  1.00  0.00     0.135 A 
ATOM     61  C   UNL A   1      47.011  27.894  30.906  1.00  0.00     0.135 A 
ATOM     62  F   UNL A   1      44.975  26.657  33.657  1.00  0.00    -0.206 F 
ATOM     63  C   UNL A   1      47.150  26.071  33.008  1.00  0.00     0.059 A 
ATOM     64  C   UNL A   1      48.165  27.133  31.074  1.00  0.00     0.059 A 
ATOM     65  F   UNL A   1      46.979  28.775  29.894  1.00  0.00    -0.206 F 
ATOM     66  C   UNL A   1      48.231  26.235  32.139  1.00  0.00     0.060 A 
BRANCH  66  67
ATOM     67  S   UNL A   1      49.718  25.253  32.419  1.00  0.00     0.124 S 
ATOM     68  O   UNL A   1      49.213  24.209  33.306  1.00  0.00    -0.237 OA
ATOM     69  O   UNL A   1      50.066  24.820  31.070  1.00  0.00    -0.237 OA
ATOM     70  O   UNL A   1      50.644  26.202  33.029  1.00  0.00    -0.744 OA
ENDBRANCH  66  67
ENDBRANCH  45  59
BRANCH  46  71
ATOM     71  C   UNL A   1      37.334  32.693  30.214  1.00  0.00     0.058 A 
ATOM     72  C   UNL A   1      36.250  32.484  31.079  1.00  0.00     0.135 A 
ATOM     73  C   UNL A   1      37.166  33.616  29.169  1.00  0.00     0.135 A 
ATOM     74  F   UNL A   1      36.359  31.608  32.089  1.00  0.00    -0.206 F 
ATOM     75  C   UNL A   1      35.040  33.147  30.908  1.00  0.00     0.059 A 
ATOM     76  C   UNL A   1      35.974  34.313  28.993  1.00  0.00     0.059 A 
ATOM     77  F   UNL A   1      38.177  33.868  28.324  1.00  0.00    -0.206 F 
ATOM     78  C   UNL A   1      34.911  34.063  29.861  1.00  0.00     0.060 A 
BRANCH  78  79
ATOM     79  S   UNL A   1      33.350  34.949  29.673  1.00  0.00     0.124 S 
ATOM     80  O   UNL A   1      32.640  34.096  28.726  1.00  0.00    -0.237 OA
ATOM     81  O   UNL A   1      32.835  34.954  31.039  1.00  0.00    -0.237 OA
ATOM     82  O   UNL A   1      33.762  36.253  29.161  1.00  0.00    -0.744 OA
ENDBRANCH  78  79
ENDBRANCH  46  71
BRANCH  58  83
ATOM     83  C   UNL A   1      43.208  34.158  33.697  1.00  0.00     0.058 A 
ATOM     84  C   UNL A   1      43.856  35.242  33.086  1.00  0.00     0.135 A 
ATOM     85  C   UNL A   1      42.921  34.254  35.069  1.00  0.00     0.135 A 
ATOM     86  F   UNL A   1      44.161  35.199  31.779  1.00  0.00    -0.206 F 
ATOM     87  C   UNL A   1      44.217  36.374  33.810  1.00  0.00     0.059 A 
ATOM     88  C   UNL A   1      43.246  35.387  35.807  1.00  0.00     0.059 A 
ATOM     89  F   UNL A   1      42.294  33.248  35.700  1.00  0.00    -0.206 F 
ATOM     90  C   UNL A   1      43.902  36.440  35.170  1.00  0.00     0.060 A 
BRANCH  90  91
ATOM     91  S   UNL A   1      44.327  37.936  36.085  1.00  0.00     0.124 S 
ATOM     92  O   UNL A   1      43.945  38.979  35.139  1.00  0.00    -0.237 OA
ATOM     93  O   UNL A   1      43.489  37.821  37.275  1.00  0.00    -0.237 OA
ATOM     94  O   UNL A   1      45.761  37.796  36.320  1.00  0.00    -0.744 OA
ENDBRANCH  90  91
ENDBRANCH  58  83
ENDBRANCH  32  33
ENDBRANCH  24  27
ENDBRANCH  22  23
ENDBRANCH   1  22
TORSDOF 16
ENDMDL
