MODEL 1
REMARK VINA RESULT:     -12.9      0.000      0.000
REMARK SMILES C[NH+]1CCC(NC(=O)N[C@H]2C=C[C@H](C(=O)NCCCNC(=O)c3ccc(-c4c5nc(c(-c6c(F)cc(S(=O)(=O)[O-])cc6F)c6ccc([nH]6)c(-c6c(F)cc(S(=O)(=O)[O-])cc6F)c6nc(c(-c7c(F)cc(S(=O)(=O)[O-])cc7F)c7ccc4[nH]7)C=C6)C=C5)cc3)C2)CC1
REMARK SMILES IDX 18 1 17 2 16 3 14 4 15 5 13 7 10 8 11 9 89 10 12 11 9 12
REMARK SMILES IDX 6 13 7 14 8 16 5 18 1 19 2 20 3 21 91 22 4 24 90 25 19 26
REMARK SMILES IDX 20 27 21 28 22 30 23 31 24 32 88 33 25 34 87 35 26 36 27 37
REMARK SMILES IDX 28 38 81 39 29 40 86 41 80 42 82 43 30 44 85 45 79 46 78 47
REMARK SMILES IDX 31 49 65 50 44 51 64 52 45 53 48 54 63 55 83 56 46 57 47 58
REMARK SMILES IDX 62 60 84 61 49 62 32 63 33 64 42 65 34 66 35 67 41 68 43 69
REMARK SMILES IDX 36 70 37 71 38 72 39 73 40 74 66 75 67 76 76 77 68 78 69 79
REMARK SMILES IDX 75 80 77 81 70 82 71 83 72 84 73 85 74 86 50 87 51 88 60 89
REMARK SMILES IDX 52 90 53 91 59 92 61 93 54 94 55 95 56 96 57 97 58 98
REMARK H PARENT 16 6 6 15 9 17 2 23 20 29 82 48 48 59
REMARK Flexibility Score: inf
ROOT
ATOM      1  C   UNL A   1      37.367  23.455  25.358  1.00  0.00     0.042 C 
ENDROOT
BRANCH   1   2
ATOM      2  C   UNL A   1      36.880  22.029  25.625  1.00  0.00     0.117 C 
BRANCH   2   3
ATOM      3  N   UNL A   1      35.580  21.978  26.278  1.00  0.00    -0.356 N 
ATOM      4  C   UNL A   1      34.330  21.942  25.709  1.00  0.00     0.227 C 
ATOM      5  O   UNL A   1      33.353  21.744  26.430  1.00  0.00    -0.274 OA
ATOM      6  H   UNL A   1      35.599  21.967  27.262  1.00  0.00     0.163 HD
BRANCH   4   7
ATOM      7  C   UNL A   1      34.216  22.126  24.198  1.00  0.00     0.103 C 
ATOM      8  C   UNL A   1      32.808  23.673  22.906  1.00  0.00     0.107 C 
ATOM      9  C   UNL A   1      32.257  22.293  22.885  1.00  0.00    -0.006 C 
ATOM     10  C   UNL A   1      34.086  23.595  23.745  1.00  0.00     0.047 C 
ATOM     11  C   UNL A   1      32.986  21.461  23.638  1.00  0.00    -0.016 C 
BRANCH   8  12
ATOM     12  N   UNL A   1      32.888  24.281  21.587  1.00  0.00    -0.332 N 
ATOM     13  N   UNL A   1      32.651  26.650  21.523  1.00  0.00    -0.335 N 
ATOM     14  C   UNL A   1      32.808  25.453  20.960  1.00  0.00     0.315 C 
ATOM     15  H   UNL A   1      32.526  27.371  20.864  1.00  0.00     0.165 HD
ATOM     16  O   UNL A   1      32.886  25.422  19.727  1.00  0.00    -0.249 OA
ATOM     17  H   UNL A   1      33.064  23.577  20.922  1.00  0.00     0.165 HD
BRANCH  13  18
ATOM     18  C   UNL A   1      32.622  27.123  22.887  1.00  0.00     0.095 C 
ATOM     19  C   UNL A   1      32.348  29.304  26.517  1.00  0.00     0.332 C 
ATOM     20  N   UNL A   1      32.330  29.017  25.080  1.00  0.00    -0.337 N 
ATOM     21  C   UNL A   1      31.258  28.068  24.756  1.00  0.00     0.264 C 
ATOM     22  C   UNL A   1      33.657  28.566  24.638  1.00  0.00     0.264 C 
ATOM     23  H   UNL A   1      32.121  29.871  24.562  1.00  0.00     0.347 HD
ATOM     24  C   UNL A   1      31.249  27.658  23.283  1.00  0.00     0.086 C 
ATOM     25  C   UNL A   1      33.677  28.193  23.155  1.00  0.00     0.086 C 
ENDBRANCH  13  18
ENDBRANCH   8  12
ENDBRANCH   4   7
ENDBRANCH   2   3
ENDBRANCH   1   2
BRANCH   1  26
ATOM     26  C   UNL A   1      38.253  24.021  26.465  1.00  0.00     0.118 C 
BRANCH  26  27
ATOM     27  N   UNL A   1      39.675  23.879  26.174  1.00  0.00    -0.352 N 
ATOM     28  C   UNL A   1      40.756  24.604  26.613  1.00  0.00     0.251 C 
ATOM     29  H   UNL A   1      39.897  23.140  25.562  1.00  0.00     0.163 HD
ATOM     30  O   UNL A   1      41.864  24.344  26.146  1.00  0.00    -0.269 OA
BRANCH  28  31
ATOM     31  C   UNL A   1      40.607  25.707  27.594  1.00  0.00     0.039 A 
ATOM     32  C   UNL A   1      39.628  25.588  28.588  1.00  0.00     0.014 A 
ATOM     33  C   UNL A   1      41.393  26.860  27.540  1.00  0.00     0.014 A 
ATOM     34  C   UNL A   1      39.491  26.583  29.562  1.00  0.00     0.010 A 
ATOM     35  C   UNL A   1      41.312  27.809  28.556  1.00  0.00     0.010 A 
ATOM     36  C   UNL A   1      40.361  27.683  29.578  1.00  0.00    -0.014 A 
BRANCH  36  37
ATOM     37  C   UNL A   1      40.301  28.713  30.648  1.00  0.00     0.031 A 
ATOM     38  C   UNL A   1      41.202  28.610  31.849  1.00  0.00     0.074 A 
ATOM     39  C   UNL A   1      39.375  29.690  30.582  1.00  0.00     0.049 A 
ATOM     40  N   UNL A   1      41.218  29.336  32.938  1.00  0.00    -0.248 NA
ATOM     41  C   UNL A   1      42.192  27.522  31.840  1.00  0.00     0.031 C 
ATOM     42  C   UNL A   1      38.411  29.871  29.494  1.00  0.00     0.029 A 
ATOM     43  N   UNL A   1      39.082  30.707  31.455  1.00  0.00    -0.354 N 
ATOM     44  C   UNL A   1      42.196  28.779  33.752  1.00  0.00     0.074 A 
ATOM     45  C   UNL A   1      42.716  27.623  33.052  1.00  0.00     0.031 C 
ATOM     46  C   UNL A   1      37.653  30.949  29.752  1.00  0.00     0.029 A 
ATOM     47  C   UNL A   1      38.047  31.512  31.039  1.00  0.00     0.049 A 
ATOM     48  H   UNL A   1      39.568  30.849  32.299  1.00  0.00     0.167 HD
ATOM     49  C   UNL A   1      42.639  29.202  34.960  1.00  0.00     0.037 A 
ATOM     50  C   UNL A   1      37.476  32.579  31.631  1.00  0.00     0.037 A 
ATOM     51  C   UNL A   1      42.142  30.373  35.633  1.00  0.00     0.049 A 
ATOM     52  C   UNL A   1      37.993  33.043  32.964  1.00  0.00     0.074 A 
ATOM     53  C   UNL A   1      42.564  30.923  36.833  1.00  0.00     0.029 A 
ATOM     54  N   UNL A   1      41.114  31.179  35.164  1.00  0.00    -0.354 N 
ATOM     55  N   UNL A   1      38.952  32.532  33.698  1.00  0.00    -0.248 NA
ATOM     56  C   UNL A   1      37.354  34.230  33.547  1.00  0.00     0.031 C 
ATOM     57  C   UNL A   1      41.769  32.043  37.103  1.00  0.00     0.029 A 
ATOM     58  C   UNL A   1      40.879  32.214  36.055  1.00  0.00     0.049 A 
ATOM     59  H   UNL A   1      40.624  31.036  34.323  1.00  0.00     0.167 HD
ATOM     60  C   UNL A   1      39.050  33.350  34.817  1.00  0.00     0.074 A 
ATOM     61  C   UNL A   1      38.057  34.393  34.660  1.00  0.00     0.031 C 
ATOM     62  C   UNL A   1      39.888  33.248  35.879  1.00  0.00     0.037 A 
BRANCH  49  63
ATOM     63  C   UNL A   1      43.717  28.387  35.625  1.00  0.00     0.058 A 
ATOM     64  C   UNL A   1      45.079  28.626  35.376  1.00  0.00     0.135 A 
ATOM     65  C   UNL A   1      43.386  27.351  36.512  1.00  0.00     0.135 A 
ATOM     66  F   UNL A   1      45.451  29.596  34.526  1.00  0.00    -0.206 F 
ATOM     67  C   UNL A   1      46.072  27.834  35.944  1.00  0.00     0.059 A 
ATOM     68  C   UNL A   1      44.366  26.565  37.115  1.00  0.00     0.059 A 
ATOM     69  F   UNL A   1      42.101  27.081  36.790  1.00  0.00    -0.206 F 
ATOM     70  C   UNL A   1      45.704  26.799  36.804  1.00  0.00     0.060 A 
BRANCH  70  71
ATOM     71  S   UNL A   1      47.000  25.756  37.504  1.00  0.00     0.124 S 
ATOM     72  O   UNL A   1      48.194  26.324  36.883  1.00  0.00    -0.237 OA
ATOM     73  O   UNL A   1      46.858  25.993  38.936  1.00  0.00    -0.237 OA
ATOM     74  O   UNL A   1      46.638  24.416  37.054  1.00  0.00    -0.744 OA
ENDBRANCH  70  71
ENDBRANCH  49  63
BRANCH  50  75
ATOM     75  C   UNL A   1      36.379  33.303  30.938  1.00  0.00     0.058 A 
ATOM     76  C   UNL A   1      35.060  33.222  31.410  1.00  0.00     0.135 A 
ATOM     77  C   UNL A   1      36.626  34.120  29.823  1.00  0.00     0.135 A 
ATOM     78  F   UNL A   1      34.774  32.448  32.469  1.00  0.00    -0.206 F 
ATOM     79  C   UNL A   1      34.024  33.921  30.802  1.00  0.00     0.059 A 
ATOM     80  C   UNL A   1      35.609  34.846  29.211  1.00  0.00     0.059 A 
ATOM     81  F   UNL A   1      37.874  34.244  29.345  1.00  0.00    -0.206 F 
ATOM     82  C   UNL A   1      34.309  34.736  29.705  1.00  0.00     0.060 A 
BRANCH  82  83
ATOM     83  S   UNL A   1      32.969  35.699  28.970  1.00  0.00     0.124 S 
ATOM     84  O   UNL A   1      33.704  36.782  28.327  1.00  0.00    -0.237 OA
ATOM     85  O   UNL A   1      32.351  34.727  28.074  1.00  0.00    -0.237 OA
ATOM     86  O   UNL A   1      32.159  36.080  30.122  1.00  0.00    -0.744 OA
ENDBRANCH  82  83
ENDBRANCH  50  75
BRANCH  62  87
ATOM     87  C   UNL A   1      39.790  34.308  36.939  1.00  0.00     0.058 A 
ATOM     88  C   UNL A   1      40.419  35.554  36.796  1.00  0.00     0.135 A 
ATOM     89  C   UNL A   1      39.013  34.092  38.089  1.00  0.00     0.135 A 
ATOM     90  F   UNL A   1      41.180  35.806  35.719  1.00  0.00    -0.206 F 
ATOM     91  C   UNL A   1      40.297  36.544  37.765  1.00  0.00     0.059 A 
ATOM     92  C   UNL A   1      38.857  35.076  39.059  1.00  0.00     0.059 A 
ATOM     93  F   UNL A   1      38.383  32.920  38.269  1.00  0.00    -0.206 F 
ATOM     94  C   UNL A   1      39.513  36.296  38.893  1.00  0.00     0.060 A 
BRANCH  94  95
ATOM     95  S   UNL A   1      39.329  37.602  40.126  1.00  0.00     0.124 S 
ATOM     96  O   UNL A   1      38.233  38.384  39.562  1.00  0.00    -0.237 OA
ATOM     97  O   UNL A   1      39.012  36.849  41.336  1.00  0.00    -0.237 OA
ATOM     98  O   UNL A   1      40.633  38.257  40.125  1.00  0.00    -0.744 OA
ENDBRANCH  94  95
ENDBRANCH  62  87
ENDBRANCH  36  37
ENDBRANCH  28  31
ENDBRANCH  26  27
ENDBRANCH   1  26
TORSDOF 15
ENDMDL
MODEL 2
REMARK VINA RESULT:     -12.7      6.630     12.293
REMARK SMILES C[NH+]1CCC(NC(=O)N[C@H]2C=C[C@H](C(=O)NCCCNC(=O)c3ccc(-c4c5nc(c(-c6c(F)cc(S(=O)(=O)[O-])cc6F)c6ccc([nH]6)c(-c6c(F)cc(S(=O)(=O)[O-])cc6F)c6nc(c(-c7c(F)cc(S(=O)(=O)[O-])cc7F)c7ccc4[nH]7)C=C6)C=C5)cc3)C2)CC1
REMARK SMILES IDX 18 1 17 2 16 3 14 4 15 5 13 7 10 8 11 9 89 10 12 11 9 12
REMARK SMILES IDX 6 13 7 14 8 16 5 18 1 19 2 20 3 21 91 22 4 24 90 25 19 26
REMARK SMILES IDX 20 27 21 28 22 30 23 31 24 32 88 33 25 34 87 35 26 36 27 37
REMARK SMILES IDX 28 38 81 39 29 40 86 41 80 42 82 43 30 44 85 45 79 46 78 47
REMARK SMILES IDX 31 49 65 50 44 51 64 52 45 53 48 54 63 55 83 56 46 57 47 58
REMARK SMILES IDX 62 60 84 61 49 62 32 63 33 64 42 65 34 66 35 67 41 68 43 69
REMARK SMILES IDX 36 70 37 71 38 72 39 73 40 74 66 75 67 76 76 77 68 78 69 79
REMARK SMILES IDX 75 80 77 81 70 82 71 83 72 84 73 85 74 86 50 87 51 88 60 89
REMARK SMILES IDX 52 90 53 91 59 92 61 93 54 94 55 95 56 96 57 97 58 98
REMARK H PARENT 16 6 6 15 9 17 2 23 20 29 82 48 48 59
REMARK Flexibility Score: inf
ROOT
ATOM      1  C   UNL A   1      33.766  29.379  27.303  1.00  0.00     0.042 C 
ENDROOT
BRANCH   1   2
ATOM      2  C   UNL A   1      33.131  29.986  26.050  1.00  0.00     0.117 C 
BRANCH   2   3
ATOM      3  N   UNL A   1      33.416  29.233  24.837  1.00  0.00    -0.356 N 
ATOM      4  C   UNL A   1      32.743  28.157  24.312  1.00  0.00     0.227 C 
ATOM      5  O   UNL A   1      33.048  27.753  23.191  1.00  0.00    -0.274 OA
ATOM      6  H   UNL A   1      34.199  29.537  24.323  1.00  0.00     0.163 HD
BRANCH   4   7
ATOM      7  C   UNL A   1      31.625  27.527  25.140  1.00  0.00     0.103 C 
ATOM      8  C   UNL A   1      30.901  25.182  25.274  1.00  0.00     0.107 C 
ATOM      9  C   UNL A   1      29.972  25.988  24.441  1.00  0.00    -0.006 C 
ATOM     10  C   UNL A   1      31.983  26.156  25.749  1.00  0.00     0.047 C 
ATOM     11  C   UNL A   1      30.396  27.252  24.314  1.00  0.00    -0.016 C 
BRANCH   8  12
ATOM     12  N   UNL A   1      30.222  24.369  26.271  1.00  0.00    -0.332 N 
ATOM     13  N   UNL A   1      31.305  22.330  26.857  1.00  0.00    -0.335 N 
ATOM     14  C   UNL A   1      30.310  23.214  26.927  1.00  0.00     0.315 C 
ATOM     15  H   UNL A   1      31.120  21.503  27.358  1.00  0.00     0.165 HD
ATOM     16  O   UNL A   1      29.369  22.935  27.677  1.00  0.00    -0.249 OA
ATOM     17  H   UNL A   1      29.409  24.840  26.566  1.00  0.00     0.165 HD
BRANCH  13  18
ATOM     18  C   UNL A   1      32.595  22.318  26.208  1.00  0.00     0.095 C 
ATOM     19  C   UNL A   1      36.624  21.769  24.994  1.00  0.00     0.332 C 
ATOM     20  N   UNL A   1      35.402  21.661  25.797  1.00  0.00    -0.337 N 
ATOM     21  C   UNL A   1      34.348  20.971  25.043  1.00  0.00     0.264 C 
ATOM     22  C   UNL A   1      34.995  22.988  26.279  1.00  0.00     0.264 C 
ATOM     23  H   UNL A   1      35.582  21.090  26.622  1.00  0.00     0.347 HD
ATOM     24  C   UNL A   1      33.018  20.912  25.794  1.00  0.00     0.086 C 
ATOM     25  C   UNL A   1      33.688  22.941  27.071  1.00  0.00     0.086 C 
ENDBRANCH  13  18
ENDBRANCH   8  12
ENDBRANCH   4   7
ENDBRANCH   2   3
ENDBRANCH   1   2
BRANCH   1  26
ATOM     26  C   UNL A   1      35.144  29.947  27.633  1.00  0.00     0.118 C 
BRANCH  26  27
ATOM     27  N   UNL A   1      35.208  30.517  28.974  1.00  0.00    -0.352 N 
ATOM     28  C   UNL A   1      36.237  30.554  29.884  1.00  0.00     0.251 C 
ATOM     29  H   UNL A   1      34.376  30.947  29.278  1.00  0.00     0.163 HD
ATOM     30  O   UNL A   1      36.014  31.018  31.001  1.00  0.00    -0.269 OA
BRANCH  28  31
ATOM     31  C   UNL A   1      37.581  30.014  29.561  1.00  0.00     0.039 A 
ATOM     32  C   UNL A   1      37.995  30.010  28.223  1.00  0.00     0.014 A 
ATOM     33  C   UNL A   1      38.427  29.494  30.542  1.00  0.00     0.014 A 
ATOM     34  C   UNL A   1      39.273  29.557  27.884  1.00  0.00     0.010 A 
ATOM     35  C   UNL A   1      39.729  29.120  30.216  1.00  0.00     0.010 A 
ATOM     36  C   UNL A   1      40.168  29.146  28.885  1.00  0.00    -0.014 A 
BRANCH  36  37
ATOM     37  C   UNL A   1      41.563  28.741  28.570  1.00  0.00     0.031 A 
ATOM     38  C   UNL A   1      42.665  29.767  28.563  1.00  0.00     0.074 A 
ATOM     39  C   UNL A   1      41.822  27.471  28.203  1.00  0.00     0.049 A 
ATOM     40  N   UNL A   1      43.915  29.637  28.201  1.00  0.00    -0.248 NA
ATOM     41  C   UNL A   1      42.302  31.129  28.986  1.00  0.00     0.031 C 
ATOM     42  C   UNL A   1      40.833  26.394  28.123  1.00  0.00     0.029 A 
ATOM     43  N   UNL A   1      42.994  26.873  27.815  1.00  0.00    -0.354 N 
ATOM     44  C   UNL A   1      44.480  30.900  28.325  1.00  0.00     0.074 A 
ATOM     45  C   UNL A   1      43.422  31.794  28.748  1.00  0.00     0.031 C 
ATOM     46  C   UNL A   1      41.444  25.263  27.737  1.00  0.00     0.029 A 
ATOM     47  C   UNL A   1      42.857  25.540  27.503  1.00  0.00     0.049 A 
ATOM     48  H   UNL A   1      43.852  27.351  27.764  1.00  0.00     0.167 HD
ATOM     49  C   UNL A   1      45.766  31.280  28.129  1.00  0.00     0.037 A 
ATOM     50  C   UNL A   1      43.766  24.644  27.073  1.00  0.00     0.037 A 
ATOM     51  C   UNL A   1      46.820  30.378  27.743  1.00  0.00     0.049 A 
ATOM     52  C   UNL A   1      45.191  25.080  26.877  1.00  0.00     0.074 A 
ATOM     53  C   UNL A   1      48.168  30.649  27.575  1.00  0.00     0.029 A 
ATOM     54  N   UNL A   1      46.646  29.030  27.467  1.00  0.00    -0.354 N 
ATOM     55  N   UNL A   1      45.719  26.270  27.046  1.00  0.00    -0.248 NA
ATOM     56  C   UNL A   1      46.146  24.054  26.436  1.00  0.00     0.031 C 
ATOM     57  C   UNL A   1      48.802  29.470  27.167  1.00  0.00     0.029 A 
ATOM     58  C   UNL A   1      47.859  28.457  27.119  1.00  0.00     0.049 A 
ATOM     59  H   UNL A   1      45.787  28.551  27.512  1.00  0.00     0.167 HD
ATOM     60  C   UNL A   1      47.071  26.129  26.758  1.00  0.00     0.074 A 
ATOM     61  C   UNL A   1      47.281  24.738  26.411  1.00  0.00     0.031 C 
ATOM     62  C   UNL A   1      48.050  27.067  26.781  1.00  0.00     0.037 A 
BRANCH  49  63
ATOM     63  C   UNL A   1      46.095  32.734  28.331  1.00  0.00     0.058 A 
ATOM     64  C   UNL A   1      46.478  33.235  29.587  1.00  0.00     0.135 A 
ATOM     65  C   UNL A   1      46.019  33.642  27.262  1.00  0.00     0.135 A 
ATOM     66  F   UNL A   1      46.553  32.415  30.647  1.00  0.00    -0.206 F 
ATOM     67  C   UNL A   1      46.723  34.590  29.787  1.00  0.00     0.059 A 
ATOM     68  C   UNL A   1      46.290  34.997  27.433  1.00  0.00     0.059 A 
ATOM     69  F   UNL A   1      45.664  33.218  26.039  1.00  0.00    -0.206 F 
ATOM     70  C   UNL A   1      46.617  35.465  28.705  1.00  0.00     0.060 A 
BRANCH  70  71
ATOM     71  S   UNL A   1      46.901  37.225  28.986  1.00  0.00     0.124 S 
ATOM     72  O   UNL A   1      47.739  37.568  27.841  1.00  0.00    -0.237 OA
ATOM     73  O   UNL A   1      45.548  37.770  28.966  1.00  0.00    -0.237 OA
ATOM     74  O   UNL A   1      47.568  37.257  30.283  1.00  0.00    -0.744 OA
ENDBRANCH  70  71
ENDBRANCH  49  63
BRANCH  50  75
ATOM     75  C   UNL A   1      43.357  23.234  26.842  1.00  0.00     0.058 A 
ATOM     76  C   UNL A   1      43.272  22.719  25.540  1.00  0.00     0.135 A 
ATOM     77  C   UNL A   1      43.083  22.364  27.910  1.00  0.00     0.135 A 
ATOM     78  F   UNL A   1      43.517  23.515  24.488  1.00  0.00    -0.206 F 
ATOM     79  C   UNL A   1      42.928  21.393  25.301  1.00  0.00     0.059 A 
ATOM     80  C   UNL A   1      42.758  21.028  27.697  1.00  0.00     0.059 A 
ATOM     81  F   UNL A   1      43.168  22.805  29.174  1.00  0.00    -0.206 F 
ATOM     82  C   UNL A   1      42.678  20.553  26.388  1.00  0.00     0.060 A 
BRANCH  82  83
ATOM     83  S   UNL A   1      42.307  18.814  26.069  1.00  0.00     0.124 S 
ATOM     84  O   UNL A   1      43.238  18.509  24.989  1.00  0.00    -0.237 OA
ATOM     85  O   UNL A   1      42.601  18.197  27.359  1.00  0.00    -0.237 OA
ATOM     86  O   UNL A   1      40.895  18.835  25.701  1.00  0.00    -0.744 OA
ENDBRANCH  82  83
ENDBRANCH  50  75
BRANCH  62  87
ATOM     87  C   UNL A   1      49.445  26.616  26.452  1.00  0.00     0.058 A 
ATOM     88  C   UNL A   1      50.262  25.992  27.406  1.00  0.00     0.135 A 
ATOM     89  C   UNL A   1      49.950  26.761  25.149  1.00  0.00     0.135 A 
ATOM     90  F   UNL A   1      49.830  25.837  28.668  1.00  0.00    -0.206 F 
ATOM     91  C   UNL A   1      51.540  25.546  27.088  1.00  0.00     0.059 A 
ATOM     92  C   UNL A   1      51.215  26.301  24.801  1.00  0.00     0.059 A 
ATOM     93  F   UNL A   1      49.204  27.343  24.196  1.00  0.00    -0.206 F 
ATOM     94  C   UNL A   1      52.008  25.703  25.781  1.00  0.00     0.060 A 
BRANCH  94  95
ATOM     95  S   UNL A   1      53.652  25.084  25.367  1.00  0.00     0.124 S 
ATOM     96  O   UNL A   1      54.461  25.667  26.433  1.00  0.00    -0.237 OA
ATOM     97  O   UNL A   1      53.468  23.637  25.430  1.00  0.00    -0.237 OA
ATOM     98  O   UNL A   1      53.891  25.622  24.031  1.00  0.00    -0.744 OA
ENDBRANCH  94  95
ENDBRANCH  62  87
ENDBRANCH  36  37
ENDBRANCH  28  31
ENDBRANCH  26  27
ENDBRANCH   1  26
TORSDOF 15
ENDMDL
MODEL 3
REMARK VINA RESULT:     -12.5      1.460      2.189
REMARK SMILES C[NH+]1CCC(NC(=O)N[C@H]2C=C[C@H](C(=O)NCCCNC(=O)c3ccc(-c4c5nc(c(-c6c(F)cc(S(=O)(=O)[O-])cc6F)c6ccc([nH]6)c(-c6c(F)cc(S(=O)(=O)[O-])cc6F)c6nc(c(-c7c(F)cc(S(=O)(=O)[O-])cc7F)c7ccc4[nH]7)C=C6)C=C5)cc3)C2)CC1
REMARK SMILES IDX 18 1 17 2 16 3 14 4 15 5 13 7 10 8 11 9 89 10 12 11 9 12
REMARK SMILES IDX 6 13 7 14 8 16 5 18 1 19 2 20 3 21 91 22 4 24 90 25 19 26
REMARK SMILES IDX 20 27 21 28 22 30 23 31 24 32 88 33 25 34 87 35 26 36 27 37
REMARK SMILES IDX 28 38 81 39 29 40 86 41 80 42 82 43 30 44 85 45 79 46 78 47
REMARK SMILES IDX 31 49 65 50 44 51 64 52 45 53 48 54 63 55 83 56 46 57 47 58
REMARK SMILES IDX 62 60 84 61 49 62 32 63 33 64 42 65 34 66 35 67 41 68 43 69
REMARK SMILES IDX 36 70 37 71 38 72 39 73 40 74 66 75 67 76 76 77 68 78 69 79
REMARK SMILES IDX 75 80 77 81 70 82 71 83 72 84 73 85 74 86 50 87 51 88 60 89
REMARK SMILES IDX 52 90 53 91 59 92 61 93 54 94 55 95 56 96 57 97 58 98
REMARK H PARENT 16 6 6 15 9 17 2 23 20 29 82 48 48 59
REMARK Flexibility Score: inf
ROOT
ATOM      1  C   UNL A   1      38.523  23.326  26.161  1.00  0.00     0.042 C 
ENDROOT
BRANCH   1   2
ATOM      2  C   UNL A   1      38.048  22.055  25.454  1.00  0.00     0.117 C 
BRANCH   2   3
ATOM      3  N   UNL A   1      37.378  22.316  24.188  1.00  0.00    -0.356 N 
ATOM      4  C   UNL A   1      36.093  22.747  23.965  1.00  0.00     0.227 C 
ATOM      5  O   UNL A   1      35.761  23.059  22.822  1.00  0.00    -0.274 OA
ATOM      6  H   UNL A   1      37.922  22.163  23.381  1.00  0.00     0.163 HD
BRANCH   4   7
ATOM      7  C   UNL A   1      35.144  22.841  25.156  1.00  0.00     0.103 C 
ATOM      8  C   UNL A   1      32.783  23.522  25.232  1.00  0.00     0.107 C 
ATOM      9  C   UNL A   1      33.674  24.605  25.723  1.00  0.00    -0.006 C 
ATOM     10  C   UNL A   1      33.708  22.359  24.863  1.00  0.00     0.047 C 
ATOM     11  C   UNL A   1      34.965  24.262  25.625  1.00  0.00    -0.016 C 
BRANCH   8  12
ATOM     12  N   UNL A   1      31.662  23.254  26.119  1.00  0.00    -0.332 N 
ATOM     13  N   UNL A   1      29.976  24.934  26.195  1.00  0.00    -0.335 N 
ATOM     14  C   UNL A   1      30.526  23.780  26.571  1.00  0.00     0.315 C 
ATOM     15  H   UNL A   1      29.181  25.172  26.726  1.00  0.00     0.165 HD
ATOM     16  O   UNL A   1      29.922  23.129  27.431  1.00  0.00    -0.249 OA
ATOM     17  H   UNL A   1      31.787  22.368  26.530  1.00  0.00     0.165 HD
BRANCH  13  18
ATOM     18  C   UNL A   1      30.289  25.914  25.181  1.00  0.00     0.095 C 
ATOM     19  C   UNL A   1      30.655  29.316  22.671  1.00  0.00     0.332 C 
ATOM     20  N   UNL A   1      30.220  28.468  23.785  1.00  0.00    -0.337 N 
ATOM     21  C   UNL A   1      31.361  28.104  24.634  1.00  0.00     0.264 C 
ATOM     22  C   UNL A   1      29.481  27.305  23.277  1.00  0.00     0.264 C 
ATOM     23  H   UNL A   1      29.576  28.989  24.382  1.00  0.00     0.347 HD
ATOM     24  C   UNL A   1      30.984  27.142  25.761  1.00  0.00     0.086 C 
ATOM     25  C   UNL A   1      29.057  26.354  24.396  1.00  0.00     0.086 C 
ENDBRANCH  13  18
ENDBRANCH   8  12
ENDBRANCH   4   7
ENDBRANCH   2   3
ENDBRANCH   1   2
BRANCH   1  26
ATOM     26  C   UNL A   1      39.829  23.151  26.933  1.00  0.00     0.118 C 
BRANCH  26  27
ATOM     27  N   UNL A   1      40.997  23.553  26.157  1.00  0.00    -0.352 N 
ATOM     28  C   UNL A   1      41.769  24.687  26.223  1.00  0.00     0.251 C 
ATOM     29  H   UNL A   1      41.279  22.903  25.472  1.00  0.00     0.163 HD
ATOM     30  O   UNL A   1      42.659  24.839  25.387  1.00  0.00    -0.269 OA
BRANCH  28  31
ATOM     31  C   UNL A   1      41.526  25.736  27.244  1.00  0.00     0.039 A 
ATOM     32  C   UNL A   1      40.571  25.490  28.239  1.00  0.00     0.014 A 
ATOM     33  C   UNL A   1      42.199  26.959  27.226  1.00  0.00     0.014 A 
ATOM     34  C   UNL A   1      40.350  26.433  29.248  1.00  0.00     0.010 A 
ATOM     35  C   UNL A   1      42.038  27.860  28.276  1.00  0.00     0.010 A 
ATOM     36  C   UNL A   1      41.112  27.610  29.299  1.00  0.00    -0.014 A 
BRANCH  36  37
ATOM     37  C   UNL A   1      40.965  28.591  30.405  1.00  0.00     0.031 A 
ATOM     38  C   UNL A   1      41.845  28.497  31.622  1.00  0.00     0.074 A 
ATOM     39  C   UNL A   1      39.982  29.511  30.353  1.00  0.00     0.049 A 
ATOM     40  N   UNL A   1      41.792  29.179  32.737  1.00  0.00    -0.248 NA
ATOM     41  C   UNL A   1      42.901  27.473  31.596  1.00  0.00     0.031 C 
ATOM     42  C   UNL A   1      39.032  29.675  29.250  1.00  0.00     0.029 A 
ATOM     43  N   UNL A   1      39.607  30.473  31.257  1.00  0.00    -0.354 N 
ATOM     44  C   UNL A   1      42.786  28.652  33.553  1.00  0.00     0.074 A 
ATOM     45  C   UNL A   1      43.391  27.558  32.823  1.00  0.00     0.031 C 
ATOM     46  C   UNL A   1      38.202  30.692  29.531  1.00  0.00     0.029 A 
ATOM     47  C   UNL A   1      38.532  31.228  30.848  1.00  0.00     0.049 A 
ATOM     48  H   UNL A   1      40.064  30.611  32.117  1.00  0.00     0.167 HD
ATOM     49  C   UNL A   1      43.175  29.054  34.787  1.00  0.00     0.037 A 
ATOM     50  C   UNL A   1      37.884  32.233  31.465  1.00  0.00     0.037 A 
ATOM     51  C   UNL A   1      42.592  30.165  35.492  1.00  0.00     0.049 A 
ATOM     52  C   UNL A   1      38.342  32.677  32.827  1.00  0.00     0.074 A 
ATOM     53  C   UNL A   1      42.952  30.692  36.720  1.00  0.00     0.029 A 
ATOM     54  N   UNL A   1      41.526  30.924  35.029  1.00  0.00    -0.354 N 
ATOM     55  N   UNL A   1      39.315  32.197  33.564  1.00  0.00    -0.248 NA
ATOM     56  C   UNL A   1      37.617  33.798  33.439  1.00  0.00     0.031 C 
ATOM     57  C   UNL A   1      42.083  31.750  37.014  1.00  0.00     0.029 A 
ATOM     58  C   UNL A   1      41.207  31.907  35.952  1.00  0.00     0.049 A 
ATOM     59  H   UNL A   1      41.064  30.783  34.171  1.00  0.00     0.167 HD
ATOM     60  C   UNL A   1      39.338  32.975  34.715  1.00  0.00     0.074 A 
ATOM     61  C   UNL A   1      38.284  33.960  34.573  1.00  0.00     0.031 C 
ATOM     62  C   UNL A   1      40.157  32.883  35.791  1.00  0.00     0.037 A 
BRANCH  49  63
ATOM     63  C   UNL A   1      44.287  28.282  35.446  1.00  0.00     0.058 A 
ATOM     64  C   UNL A   1      45.636  28.620  35.247  1.00  0.00     0.135 A 
ATOM     65  C   UNL A   1      44.004  27.187  36.277  1.00  0.00     0.135 A 
ATOM     66  F   UNL A   1      45.965  29.650  34.451  1.00  0.00    -0.206 F 
ATOM     67  C   UNL A   1      46.665  27.869  35.808  1.00  0.00     0.059 A 
ATOM     68  C   UNL A   1      45.017  26.440  36.873  1.00  0.00     0.059 A 
ATOM     69  F   UNL A   1      42.732  26.822  36.506  1.00  0.00    -0.206 F 
ATOM     70  C   UNL A   1      46.345  26.774  36.611  1.00  0.00     0.060 A 
BRANCH  70  71
ATOM     71  S   UNL A   1      47.689  25.787  37.301  1.00  0.00     0.124 S 
ATOM     72  O   UNL A   1      46.967  24.611  37.778  1.00  0.00    -0.237 OA
ATOM     73  O   UNL A   1      48.550  25.574  36.143  1.00  0.00    -0.237 OA
ATOM     74  O   UNL A   1      48.242  26.647  38.342  1.00  0.00    -0.744 OA
ENDBRANCH  70  71
ENDBRANCH  49  63
BRANCH  50  75
ATOM     75  C   UNL A   1      36.758  32.916  30.774  1.00  0.00     0.058 A 
ATOM     76  C   UNL A   1      35.431  32.664  31.152  1.00  0.00     0.135 A 
ATOM     77  C   UNL A   1      36.983  33.858  29.758  1.00  0.00     0.135 A 
ATOM     78  F   UNL A   1      35.167  31.766  32.114  1.00  0.00    -0.206 F 
ATOM     79  C   UNL A   1      34.364  33.318  30.546  1.00  0.00     0.059 A 
ATOM     80  C   UNL A   1      35.932  34.542  29.152  1.00  0.00     0.059 A 
ATOM     81  F   UNL A   1      38.235  34.146  29.374  1.00  0.00    -0.206 F 
ATOM     82  C   UNL A   1      34.625  34.261  29.550  1.00  0.00     0.060 A 
BRANCH  82  83
ATOM     83  S   UNL A   1      33.237  35.159  28.824  1.00  0.00     0.124 S 
ATOM     84  O   UNL A   1      32.476  35.533  30.011  1.00  0.00    -0.237 OA
ATOM     85  O   UNL A   1      33.911  36.251  28.128  1.00  0.00    -0.237 OA
ATOM     86  O   UNL A   1      32.611  34.166  27.958  1.00  0.00    -0.744 OA
ENDBRANCH  82  83
ENDBRANCH  50  75
BRANCH  62  87
ATOM     87  C   UNL A   1      39.971  33.893  36.888  1.00  0.00     0.058 A 
ATOM     88  C   UNL A   1      40.556  35.166  36.825  1.00  0.00     0.135 A 
ATOM     89  C   UNL A   1      39.152  33.600  37.991  1.00  0.00     0.135 A 
ATOM     90  F   UNL A   1      41.355  35.492  35.797  1.00  0.00    -0.206 F 
ATOM     91  C   UNL A   1      40.353  36.109  37.827  1.00  0.00     0.059 A 
ATOM     92  C   UNL A   1      38.914  34.536  38.992  1.00  0.00     0.059 A 
ATOM     93  F   UNL A   1      38.560  32.399  38.094  1.00  0.00    -0.206 F 
ATOM     94  C   UNL A   1      39.529  35.785  38.907  1.00  0.00     0.060 A 
BRANCH  94  95
ATOM     95  S   UNL A   1      39.238  37.030  40.182  1.00  0.00     0.124 S 
ATOM     96  O   UNL A   1      40.598  37.313  40.629  1.00  0.00    -0.237 OA
ATOM     97  O   UNL A   1      38.582  38.098  39.433  1.00  0.00    -0.237 OA
ATOM     98  O   UNL A   1      38.390  36.337  41.147  1.00  0.00    -0.744 OA
ENDBRANCH  94  95
ENDBRANCH  62  87
ENDBRANCH  36  37
ENDBRANCH  28  31
ENDBRANCH  26  27
ENDBRANCH   1  26
TORSDOF 15
ENDMDL
