MODEL 1
REMARK VINA RESULT:     -13.5      0.000      0.000
REMARK SMILES O=C(Cn1cc(/C=C2\SC(=S)N(C[C@H]3CCCO3)C2=O)c2ccccc21)NCCCNC(=O)c1ccc(-c2c3nc(c(-c4c(F)cc(S(=O)(=O)[O-])cc4F)c4ccc([nH]4)c(-c4c(F)cc(S(=O)(=O)[O-])cc4F)c4nc(c(-c5c(F)cc(S(=O)(=O)[O-])cc5F)c5ccc2[nH]5)C=C4)C=C3)cc1
REMARK SMILES IDX 28 1 27 2 1 3 2 4 3 6 4 7 5 8 26 9 6 10 21 11 25 12 22 13
REMARK SMILES IDX 24 14 23 15 7 16 8 17 9 18 19 19 10 20 12 21 20 22 11 23
REMARK SMILES IDX 13 24 14 25 15 26 18 27 16 28 17 29 29 30 30 31 31 32 32 33
REMARK SMILES IDX 33 35 34 36 35 37 99 38 36 39 98 40 37 41 38 42 39 43 92 44
REMARK SMILES IDX 40 45 97 46 91 47 93 48 41 49 96 50 90 51 89 52 42 54 76 55
REMARK SMILES IDX 55 56 75 57 56 58 59 59 74 60 94 61 57 62 58 63 73 65 95 66
REMARK SMILES IDX 60 67 43 68 44 69 53 70 45 71 46 72 52 73 54 74 47 75 48 76
REMARK SMILES IDX 49 77 50 78 51 79 77 80 78 81 87 82 79 83 80 84 86 85 88 86
REMARK SMILES IDX 81 87 82 88 83 89 84 90 85 91 61 92 62 93 71 94 63 95 64 96
REMARK SMILES IDX 70 97 72 98 65 99 66 100 67 101 68 102 69 103
REMARK H PARENT 27 5 31 34 93 53 59 64
REMARK Flexibility Score: inf
ROOT
ATOM      1  C   UNL A   1      39.607  22.604  26.748  1.00  0.00     0.117 C 
ENDROOT
BRANCH   1   2
ATOM      2  N   UNL A   1      38.846  22.151  25.594  1.00  0.00    -0.354 N 
ATOM      3  O   UNL A   1      36.977  23.408  26.081  1.00  0.00    -0.273 OA
ATOM      4  C   UNL A   1      37.593  22.674  25.314  1.00  0.00     0.239 C 
ATOM      5  H   UNL A   1      39.226  21.461  25.004  1.00  0.00     0.163 HD
BRANCH   4   6
ATOM      6  C   UNL A   1      37.025  22.272  23.977  1.00  0.00     0.222 C 
BRANCH   6   7
ATOM      7  N   UNL A   1      35.590  22.479  23.771  1.00  0.00    -0.337 N 
ATOM      8  C   UNL A   1      35.145  23.567  23.048  1.00  0.00     0.095 A 
ATOM      9  C   UNL A   1      34.505  21.825  24.329  1.00  0.00     0.049 A 
ATOM     10  C   UNL A   1      33.784  23.656  23.199  1.00  0.00     0.001 A 
ATOM     11  C   UNL A   1      33.368  22.605  24.058  1.00  0.00     0.007 A 
ATOM     12  C   UNL A   1      34.384  20.622  25.046  1.00  0.00     0.027 A 
ATOM     13  C   UNL A   1      32.122  22.216  24.602  1.00  0.00     0.011 A 
ATOM     14  C   UNL A   1      33.146  20.263  25.584  1.00  0.00     0.002 A 
ATOM     15  C   UNL A   1      32.029  21.059  25.382  1.00  0.00     0.001 A 
BRANCH  10  16
ATOM     16  C   UNL A   1      32.986  24.667  22.595  1.00  0.00     0.031 C 
ATOM     17  C   UNL A   1      32.660  25.845  23.147  1.00  0.00     0.081 C 
ATOM     18  S   UNL A   1      33.172  26.497  24.650  1.00  0.00    -0.054 SA
ATOM     19  C   UNL A   1      31.803  26.822  22.444  1.00  0.00     0.266 C 
ATOM     20  C   UNL A   1      32.479  28.077  24.305  1.00  0.00     0.148 C 
ATOM     21  N   UNL A   1      31.823  28.041  23.090  1.00  0.00    -0.290 N 
ATOM     22  O   UNL A   1      31.159  26.551  21.430  1.00  0.00    -0.268 OA
ATOM     23  S   UNL A   1      32.642  29.364  25.352  1.00  0.00    -0.052 S 
BRANCH  21  24
ATOM     24  C   UNL A   1      31.117  29.170  22.486  1.00  0.00     0.159 C 
BRANCH  24  25
ATOM     25  C   UNL A   1      29.640  29.297  22.925  1.00  0.00     0.138 C 
ATOM     26  C   UNL A   1      29.249  30.614  23.583  1.00  0.00     0.036 C 
ATOM     27  O   UNL A   1      28.825  29.233  21.730  1.00  0.00    -0.376 OA
ATOM     28  C   UNL A   1      29.007  31.506  22.392  1.00  0.00     0.031 C 
ATOM     29  C   UNL A   1      28.319  30.548  21.443  1.00  0.00     0.160 C 
ENDBRANCH  24  25
ENDBRANCH  21  24
ENDBRANCH  10  16
ENDBRANCH   6   7
ENDBRANCH   4   6
ENDBRANCH   1   2
BRANCH   1  30
ATOM     30  C   UNL A   1      40.446  21.518  27.417  1.00  0.00     0.042 C 
BRANCH  30  31
ATOM     31  C   UNL A   1      41.945  21.806  27.522  1.00  0.00     0.118 C 
BRANCH  31  32
ATOM     32  N   UNL A   1      42.578  22.220  26.285  1.00  0.00    -0.352 N 
ATOM     33  C   UNL A   1      43.147  23.387  25.843  1.00  0.00     0.251 C 
ATOM     34  H   UNL A   1      42.606  21.502  25.611  1.00  0.00     0.163 HD
ATOM     35  O   UNL A   1      43.891  23.275  24.863  1.00  0.00    -0.269 OA
BRANCH  33  36
ATOM     36  C   UNL A   1      42.896  24.749  26.398  1.00  0.00     0.039 A 
ATOM     37  C   UNL A   1      43.384  25.226  27.611  1.00  0.00     0.014 A 
ATOM     38  C   UNL A   1      42.004  25.569  25.672  1.00  0.00     0.014 A 
ATOM     39  C   UNL A   1      42.935  26.449  28.114  1.00  0.00     0.010 A 
ATOM     40  C   UNL A   1      41.560  26.797  26.169  1.00  0.00     0.010 A 
ATOM     41  C   UNL A   1      41.996  27.227  27.415  1.00  0.00    -0.014 A 
BRANCH  41  42
ATOM     42  C   UNL A   1      41.597  28.508  28.011  1.00  0.00     0.031 A 
ATOM     43  C   UNL A   1      42.609  29.587  27.864  1.00  0.00     0.074 A 
ATOM     44  C   UNL A   1      40.428  28.789  28.631  1.00  0.00     0.049 A 
ATOM     45  N   UNL A   1      43.415  30.032  28.770  1.00  0.00    -0.248 NA
ATOM     46  C   UNL A   1      42.854  30.138  26.525  1.00  0.00     0.031 C 
ATOM     47  C   UNL A   1      39.196  27.998  28.643  1.00  0.00     0.029 A 
ATOM     48  N   UNL A   1      40.083  29.903  29.355  1.00  0.00    -0.354 N 
ATOM     49  C   UNL A   1      44.115  31.082  28.180  1.00  0.00     0.074 A 
ATOM     50  C   UNL A   1      43.851  30.994  26.768  1.00  0.00     0.031 C 
ATOM     51  C   UNL A   1      38.187  28.741  29.156  1.00  0.00     0.029 A 
ATOM     52  C   UNL A   1      38.731  29.990  29.666  1.00  0.00     0.049 A 
ATOM     53  H   UNL A   1      40.739  30.584  29.631  1.00  0.00     0.167 HD
ATOM     54  C   UNL A   1      44.649  32.078  28.942  1.00  0.00     0.037 A 
ATOM     55  C   UNL A   1      38.096  31.004  30.308  1.00  0.00     0.037 A 
ATOM     56  C   UNL A   1      44.653  31.717  30.335  1.00  0.00     0.049 A 
ATOM     57  C   UNL A   1      39.087  31.684  31.174  1.00  0.00     0.074 A 
ATOM     58  C   UNL A   1      45.398  30.917  31.173  1.00  0.00     0.029 A 
ATOM     59  N   UNL A   1      43.488  32.018  30.986  1.00  0.00    -0.354 N 
ATOM     60  N   UNL A   1      39.666  31.116  32.197  1.00  0.00    -0.248 NA
ATOM     61  C   UNL A   1      39.674  32.949  30.747  1.00  0.00     0.031 C 
ATOM     62  C   UNL A   1      44.551  30.598  32.277  1.00  0.00     0.029 A 
ATOM     63  C   UNL A   1      43.323  31.231  32.094  1.00  0.00     0.049 A 
ATOM     64  H   UNL A   1      42.851  32.711  30.695  1.00  0.00     0.167 HD
ATOM     65  C   UNL A   1      40.907  31.717  32.265  1.00  0.00     0.074 A 
ATOM     66  C   UNL A   1      40.788  32.939  31.483  1.00  0.00     0.031 C 
ATOM     67  C   UNL A   1      42.007  31.017  32.658  1.00  0.00     0.037 A 
BRANCH  54  68
ATOM     68  C   UNL A   1      44.729  33.538  28.537  1.00  0.00     0.058 A 
ATOM     69  C   UNL A   1      45.998  34.156  28.444  1.00  0.00     0.135 A 
ATOM     70  C   UNL A   1      43.628  34.420  28.562  1.00  0.00     0.135 A 
ATOM     71  F   UNL A   1      47.119  33.417  28.413  1.00  0.00    -0.206 F 
ATOM     72  C   UNL A   1      46.160  35.543  28.454  1.00  0.00     0.059 A 
ATOM     73  C   UNL A   1      43.765  35.805  28.523  1.00  0.00     0.059 A 
ATOM     74  F   UNL A   1      42.373  33.988  28.725  1.00  0.00    -0.206 F 
ATOM     75  C   UNL A   1      45.035  36.359  28.511  1.00  0.00     0.060 A 
BRANCH  75  76
ATOM     76  S   UNL A   1      45.242  38.146  28.628  1.00  0.00     0.124 S 
ATOM     77  O   UNL A   1      43.862  38.608  28.542  1.00  0.00    -0.237 OA
ATOM     78  O   UNL A   1      45.886  38.289  29.929  1.00  0.00    -0.237 OA
ATOM     79  O   UNL A   1      46.088  38.461  27.480  1.00  0.00    -0.744 OA
ENDBRANCH  75  76
ENDBRANCH  54  68
BRANCH  55  80
ATOM     80  C   UNL A   1      36.761  31.600  30.022  1.00  0.00     0.058 A 
ATOM     81  C   UNL A   1      35.984  32.173  31.048  1.00  0.00     0.135 A 
ATOM     82  C   UNL A   1      36.373  31.909  28.705  1.00  0.00     0.135 A 
ATOM     83  F   UNL A   1      36.283  31.937  32.335  1.00  0.00    -0.206 F 
ATOM     84  C   UNL A   1      34.936  33.062  30.785  1.00  0.00     0.059 A 
ATOM     85  C   UNL A   1      35.327  32.787  28.418  1.00  0.00     0.059 A 
ATOM     86  F   UNL A   1      37.065  31.440  27.655  1.00  0.00    -0.206 F 
ATOM     87  C   UNL A   1      34.635  33.387  29.464  1.00  0.00     0.060 A 
BRANCH  87  88
ATOM     88  S   UNL A   1      33.421  34.685  29.125  1.00  0.00     0.124 S 
ATOM     89  O   UNL A   1      34.263  35.764  28.619  1.00  0.00    -0.237 OA
ATOM     90  O   UNL A   1      32.550  34.043  28.146  1.00  0.00    -0.237 OA
ATOM     91  O   UNL A   1      32.812  34.929  30.430  1.00  0.00    -0.744 OA
ENDBRANCH  87  88
ENDBRANCH  55  80
BRANCH  67  92
ATOM     92  C   UNL A   1      41.816  29.865  33.597  1.00  0.00     0.058 A 
ATOM     93  C   UNL A   1      41.660  28.525  33.214  1.00  0.00     0.135 A 
ATOM     94  C   UNL A   1      41.896  30.141  34.971  1.00  0.00     0.135 A 
ATOM     95  F   UNL A   1      41.645  28.172  31.920  1.00  0.00    -0.206 F 
ATOM     96  C   UNL A   1      41.570  27.504  34.164  1.00  0.00     0.059 A 
ATOM     97  C   UNL A   1      41.840  29.139  35.931  1.00  0.00     0.059 A 
ATOM     98  F   UNL A   1      42.082  31.403  35.394  1.00  0.00    -0.206 F 
ATOM     99  C   UNL A   1      41.671  27.820  35.520  1.00  0.00     0.060 A 
BRANCH  99 100
ATOM    100  S   UNL A   1      41.656  26.491  36.742  1.00  0.00     0.124 S 
ATOM    101  O   UNL A   1      40.449  26.788  37.506  1.00  0.00    -0.237 OA
ATOM    102  O   UNL A   1      41.600  25.297  35.903  1.00  0.00    -0.237 OA
ATOM    103  O   UNL A   1      42.912  26.676  37.464  1.00  0.00    -0.744 OA
ENDBRANCH  99 100
ENDBRANCH  67  92
ENDBRANCH  41  42
ENDBRANCH  33  36
ENDBRANCH  31  32
ENDBRANCH  30  31
ENDBRANCH   1  30
TORSDOF 17
ENDMDL
MODEL 2
REMARK VINA RESULT:     -12.9      3.274     10.044
REMARK SMILES O=C(Cn1cc(/C=C2\SC(=S)N(C[C@H]3CCCO3)C2=O)c2ccccc21)NCCCNC(=O)c1ccc(-c2c3nc(c(-c4c(F)cc(S(=O)(=O)[O-])cc4F)c4ccc([nH]4)c(-c4c(F)cc(S(=O)(=O)[O-])cc4F)c4nc(c(-c5c(F)cc(S(=O)(=O)[O-])cc5F)c5ccc2[nH]5)C=C4)C=C3)cc1
REMARK SMILES IDX 28 1 27 2 1 3 2 4 3 6 4 7 5 8 26 9 6 10 21 11 25 12 22 13
REMARK SMILES IDX 24 14 23 15 7 16 8 17 9 18 19 19 10 20 12 21 20 22 11 23
REMARK SMILES IDX 13 24 14 25 15 26 18 27 16 28 17 29 29 30 30 31 31 32 32 33
REMARK SMILES IDX 33 35 34 36 35 37 99 38 36 39 98 40 37 41 38 42 39 43 92 44
REMARK SMILES IDX 40 45 97 46 91 47 93 48 41 49 96 50 90 51 89 52 42 54 76 55
REMARK SMILES IDX 55 56 75 57 56 58 59 59 74 60 94 61 57 62 58 63 73 65 95 66
REMARK SMILES IDX 60 67 43 68 44 69 53 70 45 71 46 72 52 73 54 74 47 75 48 76
REMARK SMILES IDX 49 77 50 78 51 79 77 80 78 81 87 82 79 83 80 84 86 85 88 86
REMARK SMILES IDX 81 87 82 88 83 89 84 90 85 91 61 92 62 93 71 94 63 95 64 96
REMARK SMILES IDX 70 97 72 98 65 99 66 100 67 101 68 102 69 103
REMARK H PARENT 27 5 31 34 93 53 59 64
REMARK Flexibility Score: inf
ROOT
ATOM      1  C   UNL A   1      35.028  31.592  28.009  1.00  0.00     0.117 C 
ENDROOT
BRANCH   1   2
ATOM      2  N   UNL A   1      33.664  31.112  27.851  1.00  0.00    -0.354 N 
ATOM      3  O   UNL A   1      34.230  29.353  26.473  1.00  0.00    -0.273 OA
ATOM      4  C   UNL A   1      33.392  29.952  27.142  1.00  0.00     0.239 C 
ATOM      5  H   UNL A   1      32.922  31.620  28.252  1.00  0.00     0.163 HD
BRANCH   4   6
ATOM      6  C   UNL A   1      31.969  29.466  27.247  1.00  0.00     0.222 C 
BRANCH   6   7
ATOM      7  N   UNL A   1      31.589  28.326  26.410  1.00  0.00    -0.337 N 
ATOM      8  C   UNL A   1      31.670  27.042  26.912  1.00  0.00     0.095 A 
ATOM      9  C   UNL A   1      31.279  28.273  25.062  1.00  0.00     0.049 A 
ATOM     10  C   UNL A   1      31.485  26.164  25.874  1.00  0.00     0.001 A 
ATOM     11  C   UNL A   1      31.304  26.920  24.686  1.00  0.00     0.007 A 
ATOM     12  C   UNL A   1      30.973  29.267  24.116  1.00  0.00     0.027 A 
ATOM     13  C   UNL A   1      31.116  26.581  23.326  1.00  0.00     0.011 A 
ATOM     14  C   UNL A   1      30.804  28.910  22.776  1.00  0.00     0.002 A 
ATOM     15  C   UNL A   1      30.892  27.586  22.379  1.00  0.00     0.001 A 
BRANCH  10  16
ATOM     16  C   UNL A   1      31.511  24.749  26.022  1.00  0.00     0.031 C 
ATOM     17  C   UNL A   1      32.468  23.929  25.567  1.00  0.00     0.081 C 
ATOM     18  S   UNL A   1      33.942  24.337  24.786  1.00  0.00    -0.054 SA
ATOM     19  C   UNL A   1      32.390  22.465  25.753  1.00  0.00     0.266 C 
ATOM     20  C   UNL A   1      34.554  22.691  24.878  1.00  0.00     0.148 C 
ATOM     21  N   UNL A   1      33.595  21.869  25.437  1.00  0.00    -0.290 N 
ATOM     22  O   UNL A   1      31.371  21.883  26.126  1.00  0.00    -0.268 OA
ATOM     23  S   UNL A   1      36.078  22.280  24.342  1.00  0.00    -0.052 S 
BRANCH  21  24
ATOM     24  C   UNL A   1      33.748  20.431  25.658  1.00  0.00     0.159 C 
BRANCH  24  25
ATOM     25  C   UNL A   1      33.107  19.554  24.559  1.00  0.00     0.138 C 
ATOM     26  C   UNL A   1      34.000  18.474  23.961  1.00  0.00     0.036 C 
ATOM     27  O   UNL A   1      32.015  18.825  25.168  1.00  0.00    -0.376 OA
ATOM     28  C   UNL A   1      33.874  17.361  24.970  1.00  0.00     0.031 C 
ATOM     29  C   UNL A   1      32.405  17.448  25.322  1.00  0.00     0.160 C 
ENDBRANCH  24  25
ENDBRANCH  21  24
ENDBRANCH  10  16
ENDBRANCH   6   7
ENDBRANCH   4   6
ENDBRANCH   1   2
BRANCH   1  30
ATOM     30  C   UNL A   1      35.170  33.111  27.980  1.00  0.00     0.042 C 
BRANCH  30  31
ATOM     31  C   UNL A   1      35.650  33.760  29.280  1.00  0.00     0.118 C 
BRANCH  31  32
ATOM     32  N   UNL A   1      35.082  33.199  30.491  1.00  0.00    -0.352 N 
ATOM     33  C   UNL A   1      35.569  32.406  31.499  1.00  0.00     0.251 C 
ATOM     34  H   UNL A   1      34.136  33.439  30.616  1.00  0.00     0.163 HD
ATOM     35  O   UNL A   1      34.904  32.406  32.540  1.00  0.00    -0.269 OA
BRANCH  33  36
ATOM     36  C   UNL A   1      36.768  31.523  31.418  1.00  0.00     0.039 A 
ATOM     37  C   UNL A   1      38.088  31.961  31.363  1.00  0.00     0.014 A 
ATOM     38  C   UNL A   1      36.521  30.139  31.279  1.00  0.00     0.014 A 
ATOM     39  C   UNL A   1      39.117  31.052  31.105  1.00  0.00     0.010 A 
ATOM     40  C   UNL A   1      37.549  29.227  31.028  1.00  0.00     0.010 A 
ATOM     41  C   UNL A   1      38.853  29.687  30.902  1.00  0.00    -0.014 A 
BRANCH  41  42
ATOM     42  C   UNL A   1      40.000  28.803  30.655  1.00  0.00     0.031 A 
ATOM     43  C   UNL A   1      40.884  28.612  31.835  1.00  0.00     0.074 A 
ATOM     44  C   UNL A   1      40.295  28.153  29.506  1.00  0.00     0.049 A 
ATOM     45  N   UNL A   1      42.036  29.156  32.046  1.00  0.00    -0.248 NA
ATOM     46  C   UNL A   1      40.370  27.842  32.976  1.00  0.00     0.031 C 
ATOM     47  C   UNL A   1      39.443  27.959  28.331  1.00  0.00     0.029 A 
ATOM     48  N   UNL A   1      41.437  27.468  29.173  1.00  0.00    -0.354 N 
ATOM     49  C   UNL A   1      42.502  28.618  33.243  1.00  0.00     0.074 A 
ATOM     50  C   UNL A   1      41.377  27.952  33.846  1.00  0.00     0.031 C 
ATOM     51  C   UNL A   1      40.010  27.044  27.509  1.00  0.00     0.029 A 
ATOM     52  C   UNL A   1      41.337  26.718  28.007  1.00  0.00     0.049 A 
ATOM     53  H   UNL A   1      42.259  27.506  29.714  1.00  0.00     0.167 HD
ATOM     54  C   UNL A   1      43.838  28.561  33.508  1.00  0.00     0.037 A 
ATOM     55  C   UNL A   1      42.275  25.893  27.474  1.00  0.00     0.037 A 
ATOM     56  C   UNL A   1      44.583  29.372  32.581  1.00  0.00     0.049 A 
ATOM     57  C   UNL A   1      43.605  26.371  27.919  1.00  0.00     0.074 A 
ATOM     58  C   UNL A   1      44.857  30.709  32.396  1.00  0.00     0.029 A 
ATOM     59  N   UNL A   1      44.914  28.723  31.423  1.00  0.00    -0.354 N 
ATOM     60  N   UNL A   1      44.114  27.523  27.575  1.00  0.00    -0.248 NA
ATOM     61  C   UNL A   1      44.295  25.684  29.004  1.00  0.00     0.031 C 
ATOM     62  C   UNL A   1      45.188  30.860  31.016  1.00  0.00     0.029 A 
ATOM     63  C   UNL A   1      45.133  29.610  30.404  1.00  0.00     0.049 A 
ATOM     64  H   UNL A   1      44.985  27.744  31.334  1.00  0.00     0.167 HD
ATOM     65  C   UNL A   1      44.899  27.885  28.650  1.00  0.00     0.074 A 
ATOM     66  C   UNL A   1      45.115  26.658  29.402  1.00  0.00     0.031 C 
ATOM     67  C   UNL A   1      45.025  29.190  29.023  1.00  0.00     0.037 A 
BRANCH  54  68
ATOM     68  C   UNL A   1      44.531  27.441  34.262  1.00  0.00     0.058 A 
ATOM     69  C   UNL A   1      44.477  26.127  33.742  1.00  0.00     0.135 A 
ATOM     70  C   UNL A   1      44.948  27.542  35.606  1.00  0.00     0.135 A 
ATOM     71  F   UNL A   1      44.092  25.908  32.474  1.00  0.00    -0.206 F 
ATOM     72  C   UNL A   1      44.742  24.999  34.522  1.00  0.00     0.059 A 
ATOM     73  C   UNL A   1      45.264  26.434  36.387  1.00  0.00     0.059 A 
ATOM     74  F   UNL A   1      44.975  28.710  36.258  1.00  0.00    -0.206 F 
ATOM     75  C   UNL A   1      45.119  25.164  35.851  1.00  0.00     0.060 A 
BRANCH  75  76
ATOM     76  S   UNL A   1      45.361  23.712  36.890  1.00  0.00     0.124 S 
ATOM     77  O   UNL A   1      44.627  22.694  36.148  1.00  0.00    -0.237 OA
ATOM     78  O   UNL A   1      46.815  23.582  36.889  1.00  0.00    -0.237 OA
ATOM     79  O   UNL A   1      44.775  24.111  38.165  1.00  0.00    -0.744 OA
ENDBRANCH  75  76
ENDBRANCH  54  68
BRANCH  55  80
ATOM     80  C   UNL A   1      42.093  24.563  26.831  1.00  0.00     0.058 A 
ATOM     81  C   UNL A   1      43.029  24.068  25.902  1.00  0.00     0.135 A 
ATOM     82  C   UNL A   1      41.183  23.625  27.353  1.00  0.00     0.135 A 
ATOM     83  F   UNL A   1      43.939  24.889  25.354  1.00  0.00    -0.206 F 
ATOM     84  C   UNL A   1      43.111  22.710  25.572  1.00  0.00     0.059 A 
ATOM     85  C   UNL A   1      41.239  22.267  27.033  1.00  0.00     0.059 A 
ATOM     86  F   UNL A   1      40.270  23.986  28.268  1.00  0.00    -0.206 F 
ATOM     87  C   UNL A   1      42.228  21.812  26.169  1.00  0.00     0.060 A 
BRANCH  87  88
ATOM     88  S   UNL A   1      42.458  20.036  25.904  1.00  0.00     0.124 S 
ATOM     89  O   UNL A   1      43.567  20.012  24.956  1.00  0.00    -0.237 OA
ATOM     90  O   UNL A   1      42.761  19.561  27.250  1.00  0.00    -0.237 OA
ATOM     91  O   UNL A   1      41.171  19.603  25.369  1.00  0.00    -0.744 OA
ENDBRANCH  87  88
ENDBRANCH  55  80
BRANCH  67  92
ATOM     92  C   UNL A   1      44.878  30.245  27.969  1.00  0.00     0.058 A 
ATOM     93  C   UNL A   1      43.661  30.768  27.509  1.00  0.00     0.135 A 
ATOM     94  C   UNL A   1      46.059  30.821  27.475  1.00  0.00     0.135 A 
ATOM     95  F   UNL A   1      42.490  30.318  27.986  1.00  0.00    -0.206 F 
ATOM     96  C   UNL A   1      43.623  31.811  26.581  1.00  0.00     0.059 A 
ATOM     97  C   UNL A   1      46.045  31.880  26.575  1.00  0.00     0.059 A 
ATOM     98  F   UNL A   1      47.254  30.385  27.908  1.00  0.00    -0.206 F 
ATOM     99  C   UNL A   1      44.821  32.366  26.127  1.00  0.00     0.060 A 
BRANCH  99 100
ATOM    100  S   UNL A   1      44.771  33.780  25.005  1.00  0.00     0.124 S 
ATOM    101  O   UNL A   1      44.436  33.151  23.732  1.00  0.00    -0.237 OA
ATOM    102  O   UNL A   1      43.727  34.612  25.597  1.00  0.00    -0.237 OA
ATOM    103  O   UNL A   1      46.120  34.334  25.090  1.00  0.00    -0.744 OA
ENDBRANCH  99 100
ENDBRANCH  67  92
ENDBRANCH  41  42
ENDBRANCH  33  36
ENDBRANCH  31  32
ENDBRANCH  30  31
ENDBRANCH   1  30
TORSDOF 17
ENDMDL
MODEL 3
REMARK VINA RESULT:     -12.9      3.299     10.071
REMARK SMILES O=C(Cn1cc(/C=C2\SC(=S)N(C[C@H]3CCCO3)C2=O)c2ccccc21)NCCCNC(=O)c1ccc(-c2c3nc(c(-c4c(F)cc(S(=O)(=O)[O-])cc4F)c4ccc([nH]4)c(-c4c(F)cc(S(=O)(=O)[O-])cc4F)c4nc(c(-c5c(F)cc(S(=O)(=O)[O-])cc5F)c5ccc2[nH]5)C=C4)C=C3)cc1
REMARK SMILES IDX 28 1 27 2 1 3 2 4 3 6 4 7 5 8 26 9 6 10 21 11 25 12 22 13
REMARK SMILES IDX 24 14 23 15 7 16 8 17 9 18 19 19 10 20 12 21 20 22 11 23
REMARK SMILES IDX 13 24 14 25 15 26 18 27 16 28 17 29 29 30 30 31 31 32 32 33
REMARK SMILES IDX 33 35 34 36 35 37 99 38 36 39 98 40 37 41 38 42 39 43 92 44
REMARK SMILES IDX 40 45 97 46 91 47 93 48 41 49 96 50 90 51 89 52 42 54 76 55
REMARK SMILES IDX 55 56 75 57 56 58 59 59 74 60 94 61 57 62 58 63 73 65 95 66
REMARK SMILES IDX 60 67 43 68 44 69 53 70 45 71 46 72 52 73 54 74 47 75 48 76
REMARK SMILES IDX 49 77 50 78 51 79 77 80 78 81 87 82 79 83 80 84 86 85 88 86
REMARK SMILES IDX 81 87 82 88 83 89 84 90 85 91 61 92 62 93 71 94 63 95 64 96
REMARK SMILES IDX 70 97 72 98 65 99 66 100 67 101 68 102 69 103
REMARK H PARENT 27 5 31 34 93 53 59 64
REMARK Flexibility Score: inf
ROOT
ATOM      1  C   UNL A   1      35.259  31.271  28.024  1.00  0.00     0.117 C 
ENDROOT
BRANCH   1   2
ATOM      2  N   UNL A   1      33.860  30.933  27.814  1.00  0.00    -0.354 N 
ATOM      3  O   UNL A   1      34.293  29.183  26.378  1.00  0.00    -0.273 OA
ATOM      4  C   UNL A   1      33.498  29.833  27.051  1.00  0.00     0.239 C 
ATOM      5  H   UNL A   1      33.160  31.494  28.218  1.00  0.00     0.163 HD
BRANCH   4   6
ATOM      6  C   UNL A   1      32.033  29.483  27.103  1.00  0.00     0.222 C 
BRANCH   6   7
ATOM      7  N   UNL A   1      31.585  28.361  26.275  1.00  0.00    -0.337 N 
ATOM      8  C   UNL A   1      31.627  27.074  26.772  1.00  0.00     0.095 A 
ATOM      9  C   UNL A   1      31.236  28.324  24.935  1.00  0.00     0.049 A 
ATOM     10  C   UNL A   1      31.379  26.206  25.738  1.00  0.00     0.001 A 
ATOM     11  C   UNL A   1      31.196  26.973  24.556  1.00  0.00     0.007 A 
ATOM     12  C   UNL A   1      30.945  29.332  23.999  1.00  0.00     0.027 A 
ATOM     13  C   UNL A   1      30.958  26.645  23.201  1.00  0.00     0.011 A 
ATOM     14  C   UNL A   1      30.725  28.986  22.664  1.00  0.00     0.002 A 
ATOM     15  C   UNL A   1      30.749  27.660  22.263  1.00  0.00     0.001 A 
BRANCH  10  16
ATOM     16  C   UNL A   1      31.351  24.791  25.883  1.00  0.00     0.031 C 
ATOM     17  C   UNL A   1      32.341  23.949  25.557  1.00  0.00     0.081 C 
ATOM     18  S   UNL A   1      33.915  24.323  24.981  1.00  0.00    -0.054 SA
ATOM     19  C   UNL A   1      32.205  22.487  25.725  1.00  0.00     0.266 C 
ATOM     20  C   UNL A   1      34.470  22.662  25.148  1.00  0.00     0.148 C 
ATOM     21  N   UNL A   1      33.426  21.863  25.571  1.00  0.00    -0.290 N 
ATOM     22  O   UNL A   1      31.132  21.929  25.958  1.00  0.00    -0.268 OA
ATOM     23  S   UNL A   1      36.043  22.215  24.818  1.00  0.00    -0.052 S 
BRANCH  21  24
ATOM     24  C   UNL A   1      33.515  20.422  25.806  1.00  0.00     0.159 C 
BRANCH  24  25
ATOM     25  C   UNL A   1      33.313  19.564  24.536  1.00  0.00     0.138 C 
ATOM     26  C   UNL A   1      34.311  18.432  24.328  1.00  0.00     0.036 C 
ATOM     27  O   UNL A   1      32.033  18.900  24.661  1.00  0.00    -0.376 OA
ATOM     28  C   UNL A   1      33.741  17.340  25.198  1.00  0.00     0.031 C 
ATOM     29  C   UNL A   1      32.259  17.507  24.944  1.00  0.00     0.160 C 
ENDBRANCH  24  25
ENDBRANCH  21  24
ENDBRANCH  10  16
ENDBRANCH   6   7
ENDBRANCH   4   6
ENDBRANCH   1   2
BRANCH   1  30
ATOM     30  C   UNL A   1      35.580  32.755  27.862  1.00  0.00     0.042 C 
BRANCH  30  31
ATOM     31  C   UNL A   1      35.790  33.536  29.162  1.00  0.00     0.118 C 
BRANCH  31  32
ATOM     32  N   UNL A   1      35.212  32.926  30.343  1.00  0.00    -0.352 N 
ATOM     33  C   UNL A   1      35.708  32.159  31.366  1.00  0.00     0.251 C 
ATOM     34  H   UNL A   1      34.247  33.100  30.430  1.00  0.00     0.163 HD
ATOM     35  O   UNL A   1      35.002  32.104  32.378  1.00  0.00    -0.269 OA
BRANCH  33  36
ATOM     36  C   UNL A   1      36.968  31.360  31.331  1.00  0.00     0.039 A 
ATOM     37  C   UNL A   1      38.256  31.886  31.370  1.00  0.00     0.014 A 
ATOM     38  C   UNL A   1      36.824  29.969  31.134  1.00  0.00     0.014 A 
ATOM     39  C   UNL A   1      39.358  31.057  31.146  1.00  0.00     0.010 A 
ATOM     40  C   UNL A   1      37.925  29.135  30.918  1.00  0.00     0.010 A 
ATOM     41  C   UNL A   1      39.199  29.685  30.885  1.00  0.00    -0.014 A 
BRANCH  41  42
ATOM     42  C   UNL A   1      40.416  28.888  30.681  1.00  0.00     0.031 A 
ATOM     43  C   UNL A   1      41.222  28.683  31.914  1.00  0.00     0.074 A 
ATOM     44  C   UNL A   1      40.835  28.324  29.526  1.00  0.00     0.049 A 
ATOM     45  N   UNL A   1      42.318  29.284  32.240  1.00  0.00    -0.248 NA
ATOM     46  C   UNL A   1      40.677  27.820  32.970  1.00  0.00     0.031 C 
ATOM     47  C   UNL A   1      40.086  28.145  28.280  1.00  0.00     0.029 A 
ATOM     48  N   UNL A   1      42.042  27.730  29.245  1.00  0.00    -0.354 N 
ATOM     49  C   UNL A   1      42.729  28.708  33.439  1.00  0.00     0.074 A 
ATOM     50  C   UNL A   1      41.609  27.942  33.919  1.00  0.00     0.031 C 
ATOM     51  C   UNL A   1      40.770  27.315  27.457  1.00  0.00     0.029 A 
ATOM     52  C   UNL A   1      42.075  27.042  28.037  1.00  0.00     0.049 A 
ATOM     53  H   UNL A   1      42.817  27.786  29.849  1.00  0.00     0.167 HD
ATOM     54  C   UNL A   1      44.043  28.717  33.802  1.00  0.00     0.037 A 
ATOM     55  C   UNL A   1      43.101  26.308  27.535  1.00  0.00     0.037 A 
ATOM     56  C   UNL A   1      44.800  29.623  32.979  1.00  0.00     0.049 A 
ATOM     57  C   UNL A   1      44.361  26.840  28.106  1.00  0.00     0.074 A 
ATOM     58  C   UNL A   1      44.999  30.982  32.886  1.00  0.00     0.029 A 
ATOM     59  N   UNL A   1      45.256  29.062  31.818  1.00  0.00    -0.354 N 
ATOM     60  N   UNL A   1      44.819  28.038  27.862  1.00  0.00    -0.248 NA
ATOM     61  C   UNL A   1      45.013  26.134  29.203  1.00  0.00     0.031 C 
ATOM     62  C   UNL A   1      45.420  31.232  31.545  1.00  0.00     0.029 A 
ATOM     63  C   UNL A   1      45.490  30.018  30.866  1.00  0.00     0.049 A 
ATOM     64  H   UNL A   1      45.397  28.096  31.683  1.00  0.00     0.167 HD
ATOM     65  C   UNL A   1      45.498  28.385  29.011  1.00  0.00     0.074 A 
ATOM     66  C   UNL A   1      45.738  27.132  29.713  1.00  0.00     0.031 C 
ATOM     67  C   UNL A   1      45.511  29.671  29.461  1.00  0.00     0.037 A 
BRANCH  54  68
ATOM     68  C   UNL A   1      44.750  27.600  34.547  1.00  0.00     0.058 A 
ATOM     69  C   UNL A   1      44.797  26.311  33.969  1.00  0.00     0.135 A 
ATOM     70  C   UNL A   1      45.082  27.659  35.918  1.00  0.00     0.135 A 
ATOM     71  F   UNL A   1      44.500  26.131  32.671  1.00  0.00    -0.206 F 
ATOM     72  C   UNL A   1      45.076  25.163  34.714  1.00  0.00     0.059 A 
ATOM     73  C   UNL A   1      45.411  26.534  36.667  1.00  0.00     0.059 A 
ATOM     74  F   UNL A   1      45.007  28.795  36.620  1.00  0.00    -0.206 F 
ATOM     75  C   UNL A   1      45.366  25.285  36.069  1.00  0.00     0.060 A 
BRANCH  75  76
ATOM     76  S   UNL A   1      45.625  23.800  37.056  1.00  0.00     0.124 S 
ATOM     77  O   UNL A   1      44.882  22.805  36.292  1.00  0.00    -0.237 OA
ATOM     78  O   UNL A   1      47.079  23.672  37.031  1.00  0.00    -0.237 OA
ATOM     79  O   UNL A   1      45.057  24.156  38.352  1.00  0.00    -0.744 OA
ENDBRANCH  75  76
ENDBRANCH  54  68
BRANCH  55  80
ATOM     80  C   UNL A   1      43.053  25.007  26.811  1.00  0.00     0.058 A 
ATOM     81  C   UNL A   1      43.418  24.915  25.453  1.00  0.00     0.135 A 
ATOM     82  C   UNL A   1      42.965  23.791  27.513  1.00  0.00     0.135 A 
ATOM     83  F   UNL A   1      43.531  26.024  24.706  1.00  0.00    -0.206 F 
ATOM     84  C   UNL A   1      43.754  23.698  24.850  1.00  0.00     0.059 A 
ATOM     85  C   UNL A   1      43.288  22.564  26.930  1.00  0.00     0.059 A 
ATOM     86  F   UNL A   1      42.656  23.769  28.819  1.00  0.00    -0.206 F 
ATOM     87  C   UNL A   1      43.715  22.530  25.608  1.00  0.00     0.060 A 
BRANCH  87  88
ATOM     88  S   UNL A   1      44.340  20.989  24.894  1.00  0.00     0.124 S 
ATOM     89  O   UNL A   1      43.292  20.040  25.255  1.00  0.00    -0.237 OA
ATOM     90  O   UNL A   1      44.434  21.324  23.477  1.00  0.00    -0.237 OA
ATOM     91  O   UNL A   1      45.618  20.794  25.571  1.00  0.00    -0.744 OA
ENDBRANCH  87  88
ENDBRANCH  55  80
BRANCH  67  92
ATOM     92  C   UNL A   1      45.374  30.774  28.455  1.00  0.00     0.058 A 
ATOM     93  C   UNL A   1      46.429  31.346  27.730  1.00  0.00     0.135 A 
ATOM     94  C   UNL A   1      44.072  31.199  28.148  1.00  0.00     0.135 A 
ATOM     95  F   UNL A   1      47.695  30.942  27.917  1.00  0.00    -0.206 F 
ATOM     96  C   UNL A   1      46.197  32.315  26.751  1.00  0.00     0.059 A 
ATOM     97  C   UNL A   1      43.815  32.139  27.157  1.00  0.00     0.059 A 
ATOM     98  F   UNL A   1      43.019  30.659  28.786  1.00  0.00    -0.206 F 
ATOM     99  C   UNL A   1      44.885  32.698  26.465  1.00  0.00     0.060 A 
BRANCH  99 100
ATOM    100  S   UNL A   1      44.578  33.875  25.131  1.00  0.00     0.124 S 
ATOM    101  O   UNL A   1      45.894  34.475  24.941  1.00  0.00    -0.237 OA
ATOM    102  O   UNL A   1      44.112  33.009  24.052  1.00  0.00    -0.237 OA
ATOM    103  O   UNL A   1      43.562  34.765  25.687  1.00  0.00    -0.744 OA
ENDBRANCH  99 100
ENDBRANCH  67  92
ENDBRANCH  41  42
ENDBRANCH  33  36
ENDBRANCH  31  32
ENDBRANCH  30  31
ENDBRANCH   1  30
TORSDOF 17
ENDMDL
