MODEL 1
REMARK VINA RESULT:     -13.7      0.000      0.000
REMARK SMILES Cc1ccc([C@H](CC2CCCC2)C(=O)NCCCNC(=O)c2ccc(-c3c4nc(c(-c5c(F)cc(S(=O)(=O)[O-])cc5F)c5ccc([nH]5)c(-c5c(F)cc(S(=O)(=O)[O-])cc5F)c5nc(c(-c6c(F)cc(S(=O)(=O)[O-])cc6F)c6ccc3[nH]6)C=C5)C=C4)cc2)cc1
REMARK SMILES IDX 17 1 16 2 15 3 13 4 14 5 6 7 5 8 1 9 2 10 3 11 89 12 4 13
REMARK SMILES IDX 88 14 7 15 8 16 9 17 12 18 10 19 11 20 18 21 19 22 20 23
REMARK SMILES IDX 21 25 22 26 23 27 87 28 24 29 86 30 25 31 26 32 27 33 80 34
REMARK SMILES IDX 28 35 85 36 79 37 81 38 29 39 84 40 78 41 77 42 30 44 64 45
REMARK SMILES IDX 43 46 63 47 44 48 47 49 62 50 82 51 45 52 46 53 61 55 83 56
REMARK SMILES IDX 48 57 31 58 32 59 41 60 33 61 34 62 40 63 42 64 35 65 36 66
REMARK SMILES IDX 37 67 38 68 39 69 65 70 66 71 75 72 67 73 68 74 74 75 76 76
REMARK SMILES IDX 69 77 70 78 71 79 72 80 73 81 49 82 50 83 59 84 51 85 52 86
REMARK SMILES IDX 58 87 60 88 53 89 54 90 55 91 56 92 57 93
REMARK H PARENT 15 6 19 24 81 43 47 54
REMARK Flexibility Score: inf
ROOT
ATOM      1  C   UNL A   1      33.178  29.395  27.057  1.00  0.00     0.042 C 
ENDROOT
BRANCH   1   2
ATOM      2  C   UNL A   1      32.604  30.174  25.887  1.00  0.00     0.117 C 
BRANCH   2   3
ATOM      3  N   UNL A   1      32.995  29.614  24.595  1.00  0.00    -0.356 N 
ATOM      4  C   UNL A   1      32.255  28.939  23.664  1.00  0.00     0.227 C 
ATOM      5  O   UNL A   1      32.791  28.687  22.581  1.00  0.00    -0.274 OA
ATOM      6  H   UNL A   1      33.941  29.743  24.358  1.00  0.00     0.163 HD
BRANCH   4   7
ATOM      7  C   UNL A   1      30.823  28.459  23.943  1.00  0.00     0.109 C 
BRANCH   7   8
ATOM      8  C   UNL A   1      30.687  26.993  24.384  1.00  0.00    -0.036 A 
ATOM      9  C   UNL A   1      31.117  22.817  25.411  1.00  0.00     0.044 C 
ATOM     10  C   UNL A   1      30.882  24.253  25.059  1.00  0.00    -0.051 A 
ATOM     11  C   UNL A   1      30.649  24.639  23.739  1.00  0.00     0.004 A 
ATOM     12  C   UNL A   1      30.868  25.230  26.055  1.00  0.00     0.004 A 
ATOM     13  C   UNL A   1      30.546  25.992  23.408  1.00  0.00     0.005 A 
ATOM     14  C   UNL A   1      30.735  26.581  25.723  1.00  0.00     0.005 A 
ENDBRANCH   7   8
BRANCH   7  15
ATOM     15  C   UNL A   1      29.884  28.808  22.751  1.00  0.00     0.022 C 
BRANCH  15  16
ATOM     16  C   UNL A   1      29.468  30.283  22.661  1.00  0.00    -0.010 C 
ATOM     17  C   UNL A   1      28.944  30.737  21.300  1.00  0.00     0.003 C 
ATOM     18  C   UNL A   1      28.264  30.570  23.565  1.00  0.00     0.003 C 
ATOM     19  C   UNL A   1      28.162  32.013  21.608  1.00  0.00     0.000 C 
ATOM     20  C   UNL A   1      27.707  31.894  23.060  1.00  0.00     0.000 C 
ENDBRANCH  15  16
ENDBRANCH   7  15
ENDBRANCH   4   7
ENDBRANCH   2   3
ENDBRANCH   1   2
BRANCH   1  21
ATOM     21  C   UNL A   1      34.695  29.340  27.027  1.00  0.00     0.118 C 
BRANCH  21  22
ATOM     22  N   UNL A   1      35.337  30.599  27.385  1.00  0.00    -0.352 N 
ATOM     23  C   UNL A   1      36.557  30.783  28.015  1.00  0.00     0.251 C 
ATOM     24  H   UNL A   1      34.842  31.417  27.152  1.00  0.00     0.163 HD
ATOM     25  O   UNL A   1      36.903  31.881  28.420  1.00  0.00    -0.269 OA
BRANCH  23  26
ATOM     26  C   UNL A   1      37.463  29.617  28.100  1.00  0.00     0.039 A 
ATOM     27  C   UNL A   1      37.470  28.881  29.290  1.00  0.00     0.014 A 
ATOM     28  C   UNL A   1      38.458  29.440  27.145  1.00  0.00     0.014 A 
ATOM     29  C   UNL A   1      38.586  28.112  29.610  1.00  0.00     0.010 A 
ATOM     30  C   UNL A   1      39.607  28.772  27.512  1.00  0.00     0.010 A 
ATOM     31  C   UNL A   1      39.690  28.140  28.763  1.00  0.00    -0.014 A 
BRANCH  31  32
ATOM     32  C   UNL A   1      41.001  27.591  29.094  1.00  0.00     0.031 A 
ATOM     33  C   UNL A   1      41.300  26.176  28.763  1.00  0.00     0.074 A 
ATOM     34  C   UNL A   1      41.983  28.398  29.553  1.00  0.00     0.049 A 
ATOM     35  N   UNL A   1      42.375  25.556  29.112  1.00  0.00    -0.248 NA
ATOM     36  C   UNL A   1      40.349  25.306  28.070  1.00  0.00     0.031 C 
ATOM     37  C   UNL A   1      43.421  28.149  29.499  1.00  0.00     0.029 A 
ATOM     38  N   UNL A   1      41.859  29.524  30.371  1.00  0.00    -0.354 N 
ATOM     39  C   UNL A   1      42.403  24.355  28.445  1.00  0.00     0.074 A 
ATOM     40  C   UNL A   1      41.071  24.191  27.928  1.00  0.00     0.031 C 
ATOM     41  C   UNL A   1      44.035  28.915  30.412  1.00  0.00     0.029 A 
ATOM     42  C   UNL A   1      43.000  29.556  31.200  1.00  0.00     0.049 A 
ATOM     43  H   UNL A   1      41.117  30.172  30.369  1.00  0.00     0.167 HD
ATOM     44  C   UNL A   1      43.600  23.720  28.298  1.00  0.00     0.037 A 
ATOM     45  C   UNL A   1      42.896  29.449  32.559  1.00  0.00     0.037 A 
ATOM     46  C   UNL A   1      44.573  24.242  29.261  1.00  0.00     0.049 A 
ATOM     47  C   UNL A   1      43.584  28.238  33.146  1.00  0.00     0.074 A 
ATOM     48  C   UNL A   1      45.687  25.056  29.162  1.00  0.00     0.029 A 
ATOM     49  N   UNL A   1      44.289  24.133  30.623  1.00  0.00    -0.354 N 
ATOM     50  N   UNL A   1      44.014  27.225  32.443  1.00  0.00    -0.248 NA
ATOM     51  C   UNL A   1      43.831  28.063  34.575  1.00  0.00     0.031 C 
ATOM     52  C   UNL A   1      46.000  25.526  30.468  1.00  0.00     0.029 A 
ATOM     53  C   UNL A   1      45.108  24.960  31.365  1.00  0.00     0.049 A 
ATOM     54  H   UNL A   1      43.596  23.545  31.003  1.00  0.00     0.167 HD
ATOM     55  C   UNL A   1      44.519  26.261  33.279  1.00  0.00     0.074 A 
ATOM     56  C   UNL A   1      44.421  26.854  34.601  1.00  0.00     0.031 C 
ATOM     57  C   UNL A   1      44.950  25.050  32.813  1.00  0.00     0.037 A 
BRANCH  44  58
ATOM     58  C   UNL A   1      43.954  22.777  27.154  1.00  0.00     0.058 A 
ATOM     59  C   UNL A   1      43.151  21.641  26.892  1.00  0.00     0.135 A 
ATOM     60  C   UNL A   1      45.133  22.836  26.375  1.00  0.00     0.135 A 
ATOM     61  F   UNL A   1      42.005  21.433  27.556  1.00  0.00    -0.206 F 
ATOM     62  C   UNL A   1      43.504  20.647  25.968  1.00  0.00     0.059 A 
ATOM     63  C   UNL A   1      45.483  21.880  25.418  1.00  0.00     0.059 A 
ATOM     64  F   UNL A   1      46.056  23.788  26.531  1.00  0.00    -0.206 F 
ATOM     65  C   UNL A   1      44.677  20.772  25.238  1.00  0.00     0.060 A 
BRANCH  65  66
ATOM     66  S   UNL A   1      45.167  19.477  24.083  1.00  0.00     0.124 S 
ATOM     67  O   UNL A   1      46.611  19.671  24.008  1.00  0.00    -0.237 OA
ATOM     68  O   UNL A   1      44.720  18.266  24.763  1.00  0.00    -0.237 OA
ATOM     69  O   UNL A   1      44.431  19.811  22.866  1.00  0.00    -0.744 OA
ENDBRANCH  65  66
ENDBRANCH  44  58
BRANCH  45  70
ATOM     70  C   UNL A   1      41.677  30.112  33.097  1.00  0.00     0.058 A 
ATOM     71  C   UNL A   1      41.687  31.520  33.144  1.00  0.00     0.135 A 
ATOM     72  C   UNL A   1      40.431  29.469  33.065  1.00  0.00     0.135 A 
ATOM     73  F   UNL A   1      42.854  32.181  33.208  1.00  0.00    -0.206 F 
ATOM     74  C   UNL A   1      40.528  32.261  32.952  1.00  0.00     0.059 A 
ATOM     75  C   UNL A   1      39.253  30.196  32.887  1.00  0.00     0.059 A 
ATOM     76  F   UNL A   1      40.363  28.130  33.032  1.00  0.00    -0.206 F 
ATOM     77  C   UNL A   1      39.330  31.582  32.740  1.00  0.00     0.060 A 
BRANCH  77  78
ATOM     78  S   UNL A   1      37.944  32.521  32.052  1.00  0.00     0.124 S 
ATOM     79  O   UNL A   1      37.025  31.463  31.648  1.00  0.00    -0.237 OA
ATOM     80  O   UNL A   1      37.529  33.310  33.211  1.00  0.00    -0.237 OA
ATOM     81  O   UNL A   1      38.556  33.274  30.964  1.00  0.00    -0.744 OA
ENDBRANCH  77  78
ENDBRANCH  45  70
BRANCH  57  82
ATOM     82  C   UNL A   1      45.320  23.853  33.668  1.00  0.00     0.058 A 
ATOM     83  C   UNL A   1      46.594  23.640  34.226  1.00  0.00     0.135 A 
ATOM     84  C   UNL A   1      44.324  22.928  34.065  1.00  0.00     0.135 A 
ATOM     85  F   UNL A   1      47.596  24.507  34.033  1.00  0.00    -0.206 F 
ATOM     86  C   UNL A   1      46.879  22.549  35.052  1.00  0.00     0.059 A 
ATOM     87  C   UNL A   1      44.574  21.867  34.934  1.00  0.00     0.059 A 
ATOM     88  F   UNL A   1      43.061  23.032  33.629  1.00  0.00    -0.206 F 
ATOM     89  C   UNL A   1      45.863  21.665  35.401  1.00  0.00     0.060 A 
BRANCH  89  90
ATOM     90  S   UNL A   1      46.201  20.290  36.515  1.00  0.00     0.124 S 
ATOM     91  O   UNL A   1      45.735  20.826  37.790  1.00  0.00    -0.237 OA
ATOM     92  O   UNL A   1      45.395  19.207  35.958  1.00  0.00    -0.237 OA
ATOM     93  O   UNL A   1      47.644  20.112  36.392  1.00  0.00    -0.744 OA
ENDBRANCH  89  90
ENDBRANCH  57  82
ENDBRANCH  31  32
ENDBRANCH  23  26
ENDBRANCH  21  22
ENDBRANCH   1  21
TORSDOF 16
ENDMDL
MODEL 2
REMARK VINA RESULT:     -13.6      5.091     11.998
REMARK SMILES Cc1ccc([C@H](CC2CCCC2)C(=O)NCCCNC(=O)c2ccc(-c3c4nc(c(-c5c(F)cc(S(=O)(=O)[O-])cc5F)c5ccc([nH]5)c(-c5c(F)cc(S(=O)(=O)[O-])cc5F)c5nc(c(-c6c(F)cc(S(=O)(=O)[O-])cc6F)c6ccc3[nH]6)C=C5)C=C4)cc2)cc1
REMARK SMILES IDX 17 1 16 2 15 3 13 4 14 5 6 7 5 8 1 9 2 10 3 11 89 12 4 13
REMARK SMILES IDX 88 14 7 15 8 16 9 17 12 18 10 19 11 20 18 21 19 22 20 23
REMARK SMILES IDX 21 25 22 26 23 27 87 28 24 29 86 30 25 31 26 32 27 33 80 34
REMARK SMILES IDX 28 35 85 36 79 37 81 38 29 39 84 40 78 41 77 42 30 44 64 45
REMARK SMILES IDX 43 46 63 47 44 48 47 49 62 50 82 51 45 52 46 53 61 55 83 56
REMARK SMILES IDX 48 57 31 58 32 59 41 60 33 61 34 62 40 63 42 64 35 65 36 66
REMARK SMILES IDX 37 67 38 68 39 69 65 70 66 71 75 72 67 73 68 74 74 75 76 76
REMARK SMILES IDX 69 77 70 78 71 79 72 80 73 81 49 82 50 83 59 84 51 85 52 86
REMARK SMILES IDX 58 87 60 88 53 89 54 90 55 91 56 92 57 93
REMARK H PARENT 15 6 19 24 81 43 47 54
REMARK Flexibility Score: inf
ROOT
ATOM      1  C   UNL A   1      37.411  22.780  25.003  1.00  0.00     0.042 C 
ENDROOT
BRANCH   1   2
ATOM      2  C   UNL A   1      36.767  21.481  25.453  1.00  0.00     0.117 C 
BRANCH   2   3
ATOM      3  N   UNL A   1      35.661  21.696  26.382  1.00  0.00    -0.356 N 
ATOM      4  C   UNL A   1      34.327  21.427  26.246  1.00  0.00     0.227 C 
ATOM      5  O   UNL A   1      33.608  21.576  27.238  1.00  0.00    -0.274 OA
ATOM      6  H   UNL A   1      35.915  22.100  27.242  1.00  0.00     0.163 HD
BRANCH   4   7
ATOM      7  C   UNL A   1      33.709  20.994  24.908  1.00  0.00     0.109 C 
BRANCH   7   8
ATOM      8  C   UNL A   1      33.158  22.131  24.032  1.00  0.00    -0.036 A 
ATOM      9  C   UNL A   1      31.697  25.794  22.264  1.00  0.00     0.044 C 
ATOM     10  C   UNL A   1      32.170  24.482  22.809  1.00  0.00    -0.051 A 
ATOM     11  C   UNL A   1      31.323  23.673  23.566  1.00  0.00     0.004 A 
ATOM     12  C   UNL A   1      33.465  24.034  22.544  1.00  0.00     0.004 A 
ATOM     13  C   UNL A   1      31.811  22.509  24.165  1.00  0.00     0.005 A 
ATOM     14  C   UNL A   1      33.940  22.853  23.121  1.00  0.00     0.005 A 
ENDBRANCH   7   8
BRANCH   7  15
ATOM     15  C   UNL A   1      32.668  19.857  25.125  1.00  0.00     0.022 C 
BRANCH  15  16
ATOM     16  C   UNL A   1      33.267  18.460  25.343  1.00  0.00    -0.010 C 
ATOM     17  C   UNL A   1      32.326  17.290  25.068  1.00  0.00     0.003 C 
ATOM     18  C   UNL A   1      34.399  18.186  24.346  1.00  0.00     0.003 C 
ATOM     19  C   UNL A   1      33.260  16.098  24.866  1.00  0.00     0.000 C 
ATOM     20  C   UNL A   1      34.588  16.675  24.381  1.00  0.00     0.000 C 
ENDBRANCH  15  16
ENDBRANCH   7  15
ENDBRANCH   4   7
ENDBRANCH   2   3
ENDBRANCH   1   2
BRANCH   1  21
ATOM     21  C   UNL A   1      37.766  23.685  26.171  1.00  0.00     0.118 C 
BRANCH  21  22
ATOM     22  N   UNL A   1      38.966  23.275  26.889  1.00  0.00    -0.352 N 
ATOM     23  C   UNL A   1      39.900  24.083  27.516  1.00  0.00     0.251 C 
ATOM     24  H   UNL A   1      39.133  22.306  26.933  1.00  0.00     0.163 HD
ATOM     25  O   UNL A   1      40.955  23.632  27.930  1.00  0.00    -0.269 OA
BRANCH  23  26
ATOM     26  C   UNL A   1      39.534  25.499  27.742  1.00  0.00     0.039 A 
ATOM     27  C   UNL A   1      40.057  26.456  26.866  1.00  0.00     0.014 A 
ATOM     28  C   UNL A   1      38.930  25.877  28.936  1.00  0.00     0.014 A 
ATOM     29  C   UNL A   1      40.152  27.782  27.283  1.00  0.00     0.010 A 
ATOM     30  C   UNL A   1      39.128  27.164  29.391  1.00  0.00     0.010 A 
ATOM     31  C   UNL A   1      39.776  28.110  28.582  1.00  0.00    -0.014 A 
BRANCH  31  32
ATOM     32  C   UNL A   1      40.053  29.390  29.225  1.00  0.00     0.031 A 
ATOM     33  C   UNL A   1      39.055  30.483  29.126  1.00  0.00     0.074 A 
ATOM     34  C   UNL A   1      41.129  29.531  30.031  1.00  0.00     0.049 A 
ATOM     35  N   UNL A   1      39.243  31.685  29.553  1.00  0.00    -0.248 NA
ATOM     36  C   UNL A   1      37.769  30.324  28.445  1.00  0.00     0.031 C 
ATOM     37  C   UNL A   1      41.314  30.528  31.082  1.00  0.00     0.029 A 
ATOM     38  N   UNL A   1      42.381  28.924  29.907  1.00  0.00    -0.354 N 
ATOM     39  C   UNL A   1      38.039  32.344  29.497  1.00  0.00     0.074 A 
ATOM     40  C   UNL A   1      37.200  31.509  28.681  1.00  0.00     0.031 C 
ATOM     41  C   UNL A   1      42.622  30.647  31.350  1.00  0.00     0.029 A 
ATOM     42  C   UNL A   1      43.336  29.857  30.365  1.00  0.00     0.049 A 
ATOM     43  H   UNL A   1      42.563  28.018  29.565  1.00  0.00     0.167 HD
ATOM     44  C   UNL A   1      37.867  33.452  30.272  1.00  0.00     0.037 A 
ATOM     45  C   UNL A   1      44.297  30.358  29.532  1.00  0.00     0.037 A 
ATOM     46  C   UNL A   1      39.165  33.976  30.705  1.00  0.00     0.049 A 
ATOM     47  C   UNL A   1      44.228  31.854  29.324  1.00  0.00     0.074 A 
ATOM     48  C   UNL A   1      39.848  33.990  31.907  1.00  0.00     0.029 A 
ATOM     49  N   UNL A   1      40.081  34.375  29.731  1.00  0.00    -0.354 N 
ATOM     50  N   UNL A   1      43.209  32.596  29.664  1.00  0.00    -0.248 NA
ATOM     51  C   UNL A   1      45.295  32.633  28.702  1.00  0.00     0.031 C 
ATOM     52  C   UNL A   1      41.211  34.291  31.631  1.00  0.00     0.029 A 
ATOM     53  C   UNL A   1      41.346  34.507  30.269  1.00  0.00     0.049 A 
ATOM     54  H   UNL A   1      39.856  34.539  28.786  1.00  0.00     0.167 HD
ATOM     55  C   UNL A   1      43.427  33.892  29.272  1.00  0.00     0.074 A 
ATOM     56  C   UNL A   1      44.767  33.870  28.714  1.00  0.00     0.031 C 
ATOM     57  C   UNL A   1      42.477  34.865  29.417  1.00  0.00     0.037 A 
BRANCH  44  58
ATOM     58  C   UNL A   1      36.528  33.942  30.810  1.00  0.00     0.058 A 
ATOM     59  C   UNL A   1      35.521  34.385  29.920  1.00  0.00     0.135 A 
ATOM     60  C   UNL A   1      36.214  34.145  32.175  1.00  0.00     0.135 A 
ATOM     61  F   UNL A   1      35.670  34.274  28.592  1.00  0.00    -0.206 F 
ATOM     62  C   UNL A   1      34.333  34.998  30.346  1.00  0.00     0.059 A 
ATOM     63  C   UNL A   1      35.020  34.714  32.623  1.00  0.00     0.059 A 
ATOM     64  F   UNL A   1      37.069  33.865  33.162  1.00  0.00    -0.206 F 
ATOM     65  C   UNL A   1      34.093  35.165  31.703  1.00  0.00     0.060 A 
BRANCH  65  66
ATOM     66  S   UNL A   1      32.595  35.996  32.261  1.00  0.00     0.124 S 
ATOM     67  O   UNL A   1      33.099  36.825  33.351  1.00  0.00    -0.237 OA
ATOM     68  O   UNL A   1      32.167  36.709  31.063  1.00  0.00    -0.237 OA
ATOM     69  O   UNL A   1      31.726  34.894  32.669  1.00  0.00    -0.744 OA
ENDBRANCH  65  66
ENDBRANCH  44  58
BRANCH  45  70
ATOM     70  C   UNL A   1      44.783  29.357  28.544  1.00  0.00     0.058 A 
ATOM     71  C   UNL A   1      45.668  28.370  29.020  1.00  0.00     0.135 A 
ATOM     72  C   UNL A   1      44.045  29.067  27.387  1.00  0.00     0.135 A 
ATOM     73  F   UNL A   1      46.421  28.612  30.106  1.00  0.00    -0.206 F 
ATOM     74  C   UNL A   1      45.665  27.081  28.503  1.00  0.00     0.059 A 
ATOM     75  C   UNL A   1      44.038  27.782  26.843  1.00  0.00     0.059 A 
ATOM     76  F   UNL A   1      43.195  29.975  26.883  1.00  0.00    -0.206 F 
ATOM     77  C   UNL A   1      44.782  26.779  27.469  1.00  0.00     0.060 A 
BRANCH  77  78
ATOM     78  S   UNL A   1      44.465  25.033  27.118  1.00  0.00     0.124 S 
ATOM     79  O   UNL A   1      43.347  25.104  26.185  1.00  0.00    -0.237 OA
ATOM     80  O   UNL A   1      45.743  24.619  26.542  1.00  0.00    -0.237 OA
ATOM     81  O   UNL A   1      44.156  24.478  28.431  1.00  0.00    -0.744 OA
ENDBRANCH  77  78
ENDBRANCH  45  70
BRANCH  57  82
ATOM     82  C   UNL A   1      42.540  36.260  28.829  1.00  0.00     0.058 A 
ATOM     83  C   UNL A   1      43.137  37.364  29.465  1.00  0.00     0.135 A 
ATOM     84  C   UNL A   1      42.100  36.493  27.503  1.00  0.00     0.135 A 
ATOM     85  F   UNL A   1      43.706  37.252  30.672  1.00  0.00    -0.206 F 
ATOM     86  C   UNL A   1      43.220  38.624  28.864  1.00  0.00     0.059 A 
ATOM     87  C   UNL A   1      42.225  37.725  26.864  1.00  0.00     0.059 A 
ATOM     88  F   UNL A   1      41.538  35.519  26.772  1.00  0.00    -0.206 F 
ATOM     89  C   UNL A   1      42.760  38.797  27.562  1.00  0.00     0.060 A 
BRANCH  89  90
ATOM     90  S   UNL A   1      42.918  40.398  26.751  1.00  0.00     0.124 S 
ATOM     91  O   UNL A   1      41.532  40.683  26.395  1.00  0.00    -0.237 OA
ATOM     92  O   UNL A   1      43.484  41.245  27.798  1.00  0.00    -0.237 OA
ATOM     93  O   UNL A   1      43.813  40.116  25.634  1.00  0.00    -0.744 OA
ENDBRANCH  89  90
ENDBRANCH  57  82
ENDBRANCH  31  32
ENDBRANCH  23  26
ENDBRANCH  21  22
ENDBRANCH   1  21
TORSDOF 16
ENDMDL
MODEL 3
REMARK VINA RESULT:     -13.5      0.957      2.729
REMARK SMILES Cc1ccc([C@H](CC2CCCC2)C(=O)NCCCNC(=O)c2ccc(-c3c4nc(c(-c5c(F)cc(S(=O)(=O)[O-])cc5F)c5ccc([nH]5)c(-c5c(F)cc(S(=O)(=O)[O-])cc5F)c5nc(c(-c6c(F)cc(S(=O)(=O)[O-])cc6F)c6ccc3[nH]6)C=C5)C=C4)cc2)cc1
REMARK SMILES IDX 17 1 16 2 15 3 13 4 14 5 6 7 5 8 1 9 2 10 3 11 89 12 4 13
REMARK SMILES IDX 88 14 7 15 8 16 9 17 12 18 10 19 11 20 18 21 19 22 20 23
REMARK SMILES IDX 21 25 22 26 23 27 87 28 24 29 86 30 25 31 26 32 27 33 80 34
REMARK SMILES IDX 28 35 85 36 79 37 81 38 29 39 84 40 78 41 77 42 30 44 64 45
REMARK SMILES IDX 43 46 63 47 44 48 47 49 62 50 82 51 45 52 46 53 61 55 83 56
REMARK SMILES IDX 48 57 31 58 32 59 41 60 33 61 34 62 40 63 42 64 35 65 36 66
REMARK SMILES IDX 37 67 38 68 39 69 65 70 66 71 75 72 67 73 68 74 74 75 76 76
REMARK SMILES IDX 69 77 70 78 71 79 72 80 73 81 49 82 50 83 59 84 51 85 52 86
REMARK SMILES IDX 58 87 60 88 53 89 54 90 55 91 56 92 57 93
REMARK H PARENT 15 6 19 24 81 43 47 54
REMARK Flexibility Score: inf
ROOT
ATOM      1  C   UNL A   1      34.248  28.964  25.787  1.00  0.00     0.042 C 
ENDROOT
BRANCH   1   2
ATOM      2  C   UNL A   1      33.804  27.525  25.590  1.00  0.00     0.117 C 
BRANCH   2   3
ATOM      3  N   UNL A   1      32.594  27.204  26.342  1.00  0.00    -0.356 N 
ATOM      4  C   UNL A   1      31.361  26.803  25.906  1.00  0.00     0.227 C 
ATOM      5  O   UNL A   1      30.536  26.458  26.757  1.00  0.00    -0.274 OA
ATOM      6  H   UNL A   1      32.678  27.291  27.319  1.00  0.00     0.163 HD
BRANCH   4   7
ATOM      7  C   UNL A   1      30.974  26.812  24.420  1.00  0.00     0.109 C 
BRANCH   7   8
ATOM      8  C   UNL A   1      30.267  28.085  23.925  1.00  0.00    -0.036 A 
ATOM      9  C   UNL A   1      27.781  31.545  23.201  1.00  0.00     0.044 C 
ATOM     10  C   UNL A   1      28.673  30.355  23.371  1.00  0.00    -0.051 A 
ATOM     11  C   UNL A   1      28.265  29.088  22.953  1.00  0.00     0.004 A 
ATOM     12  C   UNL A   1      29.944  30.498  23.930  1.00  0.00     0.004 A 
ATOM     13  C   UNL A   1      29.056  27.969  23.222  1.00  0.00     0.005 A 
ATOM     14  C   UNL A   1      30.745  29.379  24.169  1.00  0.00     0.005 A 
ENDBRANCH   7   8
BRANCH   7  15
ATOM     15  C   UNL A   1      30.192  25.519  24.047  1.00  0.00     0.022 C 
BRANCH  15  16
ATOM     16  C   UNL A   1      30.982  24.499  23.213  1.00  0.00    -0.010 C 
ATOM     17  C   UNL A   1      32.350  24.967  22.724  1.00  0.00     0.003 C 
ATOM     18  C   UNL A   1      31.359  23.275  24.055  1.00  0.00     0.003 C 
ATOM     19  C   UNL A   1      33.092  23.673  22.394  1.00  0.00     0.000 C 
ATOM     20  C   UNL A   1      32.466  22.589  23.268  1.00  0.00     0.000 C 
ENDBRANCH  15  16
ENDBRANCH   7  15
ENDBRANCH   4   7
ENDBRANCH   2   3
ENDBRANCH   1   2
BRANCH   1  21
ATOM     21  C   UNL A   1      34.410  29.324  27.253  1.00  0.00     0.118 C 
BRANCH  21  22
ATOM     22  N   UNL A   1      35.089  30.595  27.475  1.00  0.00    -0.352 N 
ATOM     23  C   UNL A   1      36.351  30.804  28.006  1.00  0.00     0.251 C 
ATOM     24  H   UNL A   1      34.589  31.402  27.216  1.00  0.00     0.163 HD
ATOM     25  O   UNL A   1      36.737  31.922  28.306  1.00  0.00    -0.269 OA
BRANCH  23  26
ATOM     26  C   UNL A   1      37.247  29.632  28.116  1.00  0.00     0.039 A 
ATOM     27  C   UNL A   1      37.307  28.969  29.346  1.00  0.00     0.014 A 
ATOM     28  C   UNL A   1      38.189  29.384  27.124  1.00  0.00     0.014 A 
ATOM     29  C   UNL A   1      38.430  28.205  29.655  1.00  0.00     0.010 A 
ATOM     30  C   UNL A   1      39.348  28.723  27.472  1.00  0.00     0.010 A 
ATOM     31  C   UNL A   1      39.488  28.166  28.753  1.00  0.00    -0.014 A 
BRANCH  31  32
ATOM     32  C   UNL A   1      40.809  27.619  29.049  1.00  0.00     0.031 A 
ATOM     33  C   UNL A   1      41.094  26.199  28.730  1.00  0.00     0.074 A 
ATOM     34  C   UNL A   1      41.806  28.431  29.465  1.00  0.00     0.049 A 
ATOM     35  N   UNL A   1      42.180  25.582  29.053  1.00  0.00    -0.248 NA
ATOM     36  C   UNL A   1      40.120  25.320  28.081  1.00  0.00     0.031 C 
ATOM     37  C   UNL A   1      43.242  28.178  29.367  1.00  0.00     0.029 A 
ATOM     38  N   UNL A   1      41.710  29.569  30.269  1.00  0.00    -0.354 N 
ATOM     39  C   UNL A   1      42.184  24.371  28.403  1.00  0.00     0.074 A 
ATOM     40  C   UNL A   1      40.836  24.202  27.932  1.00  0.00     0.031 C 
ATOM     41  C   UNL A   1      43.886  28.956  30.249  1.00  0.00     0.029 A 
ATOM     42  C   UNL A   1      42.878  29.611  31.060  1.00  0.00     0.049 A 
ATOM     43  H   UNL A   1      40.970  30.218  30.282  1.00  0.00     0.167 HD
ATOM     44  C   UNL A   1      43.374  23.732  28.227  1.00  0.00     0.037 A 
ATOM     45  C   UNL A   1      42.817  29.524  32.424  1.00  0.00     0.037 A 
ATOM     46  C   UNL A   1      44.379  24.265  29.150  1.00  0.00     0.049 A 
ATOM     47  C   UNL A   1      43.523  28.320  33.006  1.00  0.00     0.074 A 
ATOM     48  C   UNL A   1      45.490  25.075  29.004  1.00  0.00     0.029 A 
ATOM     49  N   UNL A   1      44.139  24.177  30.522  1.00  0.00    -0.354 N 
ATOM     50  N   UNL A   1      43.928  27.296  32.305  1.00  0.00    -0.248 NA
ATOM     51  C   UNL A   1      43.815  28.166  34.429  1.00  0.00     0.031 C 
ATOM     52  C   UNL A   1      45.847  25.564  30.292  1.00  0.00     0.029 A 
ATOM     53  C   UNL A   1      44.982  25.013  31.225  1.00  0.00     0.049 A 
ATOM     54  H   UNL A   1      43.457  23.596  30.933  1.00  0.00     0.167 HD
ATOM     55  C   UNL A   1      44.458  26.344  33.138  1.00  0.00     0.074 A 
ATOM     56  C   UNL A   1      44.404  26.957  34.453  1.00  0.00     0.031 C 
ATOM     57  C   UNL A   1      44.871  25.124  32.677  1.00  0.00     0.037 A 
BRANCH  44  58
ATOM     58  C   UNL A   1      43.690  22.771  27.087  1.00  0.00     0.058 A 
ATOM     59  C   UNL A   1      43.084  21.492  27.043  1.00  0.00     0.135 A 
ATOM     60  C   UNL A   1      44.676  22.971  26.092  1.00  0.00     0.135 A 
ATOM     61  F   UNL A   1      42.138  21.142  27.927  1.00  0.00    -0.206 F 
ATOM     62  C   UNL A   1      43.448  20.501  26.121  1.00  0.00     0.059 A 
ATOM     63  C   UNL A   1      45.023  22.013  25.137  1.00  0.00     0.059 A 
ATOM     64  F   UNL A   1      45.413  24.082  26.017  1.00  0.00    -0.206 F 
ATOM     65  C   UNL A   1      44.425  20.768  25.172  1.00  0.00     0.060 A 
BRANCH  65  66
ATOM     66  S   UNL A   1      44.936  19.485  24.014  1.00  0.00     0.124 S 
ATOM     67  O   UNL A   1      46.379  19.447  24.224  1.00  0.00    -0.237 OA
ATOM     68  O   UNL A   1      44.191  18.323  24.484  1.00  0.00    -0.237 OA
ATOM     69  O   UNL A   1      44.512  20.009  22.718  1.00  0.00    -0.744 OA
ENDBRANCH  65  66
ENDBRANCH  44  58
BRANCH  45  70
ATOM     70  C   UNL A   1      41.618  30.198  32.991  1.00  0.00     0.058 A 
ATOM     71  C   UNL A   1      41.682  31.597  33.133  1.00  0.00     0.135 A 
ATOM     72  C   UNL A   1      40.349  29.608  32.901  1.00  0.00     0.135 A 
ATOM     73  F   UNL A   1      42.873  32.205  33.256  1.00  0.00    -0.206 F 
ATOM     74  C   UNL A   1      40.555  32.395  32.978  1.00  0.00     0.059 A 
ATOM     75  C   UNL A   1      39.202  30.392  32.758  1.00  0.00     0.059 A 
ATOM     76  F   UNL A   1      40.228  28.278  32.776  1.00  0.00    -0.206 F 
ATOM     77  C   UNL A   1      39.335  31.781  32.706  1.00  0.00     0.060 A 
BRANCH  77  78
ATOM     78  S   UNL A   1      37.997  32.818  32.067  1.00  0.00     0.124 S 
ATOM     79  O   UNL A   1      36.851  31.919  32.136  1.00  0.00    -0.237 OA
ATOM     80  O   UNL A   1      37.998  33.915  33.034  1.00  0.00    -0.237 OA
ATOM     81  O   UNL A   1      38.450  33.160  30.725  1.00  0.00    -0.744 OA
ENDBRANCH  77  78
ENDBRANCH  45  70
BRANCH  57  82
ATOM     82  C   UNL A   1      45.268  23.940  33.536  1.00  0.00     0.058 A 
ATOM     83  C   UNL A   1      46.520  23.795  34.159  1.00  0.00     0.135 A 
ATOM     84  C   UNL A   1      44.309  22.952  33.869  1.00  0.00     0.135 A 
ATOM     85  F   UNL A   1      47.478  24.723  34.030  1.00  0.00    -0.206 F 
ATOM     86  C   UNL A   1      46.827  22.711  34.987  1.00  0.00     0.059 A 
ATOM     87  C   UNL A   1      44.575  21.895  34.738  1.00  0.00     0.059 A 
ATOM     88  F   UNL A   1      43.066  22.987  33.368  1.00  0.00    -0.206 F 
ATOM     89  C   UNL A   1      45.848  21.763  35.271  1.00  0.00     0.060 A 
BRANCH  89  90
ATOM     90  S   UNL A   1      46.209  20.394  36.387  1.00  0.00     0.124 S 
ATOM     91  O   UNL A   1      45.425  19.317  35.790  1.00  0.00    -0.237 OA
ATOM     92  O   UNL A   1      47.659  20.251  36.276  1.00  0.00    -0.237 OA
ATOM     93  O   UNL A   1      45.734  20.885  37.675  1.00  0.00    -0.744 OA
ENDBRANCH  89  90
ENDBRANCH  57  82
ENDBRANCH  31  32
ENDBRANCH  23  26
ENDBRANCH  21  22
ENDBRANCH   1  21
TORSDOF 16
ENDMDL
