MODEL 1
REMARK VINA RESULT:     -13.4      0.000      0.000
REMARK SMILES O=C(NCCCNC(=O)c1cc(Cl)ccc1N1C(=O)CC2(CCCC2)C1=O)c1ccc(-c2c3nc(c(-c4c(F)cc(S(=O)(=O)[O-])cc4F)c4ccc([nH]4)c(-c4c(F)cc(S(=O)(=O)[O-])cc4F)c4nc(c(-c5c(F)cc(S(=O)(=O)[O-])cc5F)c5ccc2[nH]5)C=C4)C=C3)cc1
REMARK SMILES IDX 4 1 3 2 1 3 2 4 28 6 29 7 93 8 30 9 92 10 31 11 32 12 33 13
REMARK SMILES IDX 86 14 34 15 91 16 85 17 87 18 35 19 90 20 84 21 83 22 36 24
REMARK SMILES IDX 70 25 49 26 69 27 50 28 53 29 68 30 88 31 51 32 52 33 67 35
REMARK SMILES IDX 89 36 54 37 37 38 38 39 47 40 39 41 40 42 46 43 48 44 41 45
REMARK SMILES IDX 42 46 43 47 44 48 45 49 71 50 72 51 81 52 73 53 74 54 80 55
REMARK SMILES IDX 82 56 75 57 76 58 77 59 78 60 79 61 55 62 56 63 65 64 57 65
REMARK SMILES IDX 58 66 64 67 66 68 59 69 60 70 61 71 62 72 63 73 5 74 6 75
REMARK SMILES IDX 7 76 8 77 9 79 10 80 11 81 16 82 12 83 15 84 13 85 14 86
REMARK SMILES IDX 17 87 18 88 26 89 19 90 20 91 21 92 27 93 22 94 25 95 23 96
REMARK SMILES IDX 24 97
REMARK H PARENT 3 5 87 23 53 34 7 78
REMARK Flexibility Score: inf
ROOT
ATOM      1  C   UNL A   1      38.149  24.109  26.508  1.00  0.00     0.118 C 
ENDROOT
BRANCH   1   2
ATOM      2  N   UNL A   1      39.547  24.038  26.097  1.00  0.00    -0.352 N 
ATOM      3  O   UNL A   1      41.685  24.674  25.851  1.00  0.00    -0.269 OA
ATOM      4  C   UNL A   1      40.633  24.791  26.474  1.00  0.00     0.251 C 
ATOM      5  H   UNL A   1      39.745  23.333  25.440  1.00  0.00     0.163 HD
BRANCH   4   6
ATOM      6  C   UNL A   1      40.545  25.746  27.603  1.00  0.00     0.039 A 
ATOM      7  C   UNL A   1      39.569  25.609  28.589  1.00  0.00     0.014 A 
ATOM      8  C   UNL A   1      41.493  26.771  27.705  1.00  0.00     0.014 A 
ATOM      9  C   UNL A   1      39.438  26.577  29.578  1.00  0.00     0.010 A 
ATOM     10  C   UNL A   1      41.421  27.690  28.757  1.00  0.00     0.010 A 
ATOM     11  C   UNL A   1      40.373  27.620  29.686  1.00  0.00    -0.014 A 
BRANCH  11  12
ATOM     12  C   UNL A   1      40.265  28.572  30.821  1.00  0.00     0.031 A 
ATOM     13  C   UNL A   1      41.181  28.479  32.009  1.00  0.00     0.074 A 
ATOM     14  C   UNL A   1      39.347  29.557  30.749  1.00  0.00     0.049 A 
ATOM     15  N   UNL A   1      41.239  29.252  33.064  1.00  0.00    -0.248 NA
ATOM     16  C   UNL A   1      42.151  27.373  32.025  1.00  0.00     0.031 C 
ATOM     17  C   UNL A   1      38.389  29.736  29.654  1.00  0.00     0.029 A 
ATOM     18  N   UNL A   1      39.079  30.602  31.595  1.00  0.00    -0.354 N 
ATOM     19  C   UNL A   1      42.235  28.720  33.876  1.00  0.00     0.074 A 
ATOM     20  C   UNL A   1      42.739  27.542  33.201  1.00  0.00     0.031 C 
ATOM     21  C   UNL A   1      37.676  30.850  29.868  1.00  0.00     0.029 A 
ATOM     22  C   UNL A   1      38.082  31.434  31.140  1.00  0.00     0.049 A 
ATOM     23  H   UNL A   1      39.554  30.744  32.445  1.00  0.00     0.167 HD
ATOM     24  C   UNL A   1      42.689  29.178  35.068  1.00  0.00     0.037 A 
ATOM     25  C   UNL A   1      37.544  32.538  31.691  1.00  0.00     0.037 A 
ATOM     26  C   UNL A   1      42.194  30.363  35.722  1.00  0.00     0.049 A 
ATOM     27  C   UNL A   1      38.065  33.023  33.011  1.00  0.00     0.074 A 
ATOM     28  C   UNL A   1      42.615  30.928  36.914  1.00  0.00     0.029 A 
ATOM     29  N   UNL A   1      41.170  31.166  35.241  1.00  0.00    -0.354 N 
ATOM     30  N   UNL A   1      39.026  32.520  33.749  1.00  0.00    -0.248 NA
ATOM     31  C   UNL A   1      37.429  34.218  33.578  1.00  0.00     0.031 C 
ATOM     32  C   UNL A   1      41.821  32.051  37.171  1.00  0.00     0.029 A 
ATOM     33  C   UNL A   1      40.932  32.211  36.120  1.00  0.00     0.049 A 
ATOM     34  H   UNL A   1      40.682  31.016  34.399  1.00  0.00     0.167 HD
ATOM     35  C   UNL A   1      39.115  33.342  34.866  1.00  0.00     0.074 A 
ATOM     36  C   UNL A   1      38.125  34.387  34.694  1.00  0.00     0.031 C 
ATOM     37  C   UNL A   1      39.938  33.239  35.937  1.00  0.00     0.037 A 
BRANCH  24  38
ATOM     38  C   UNL A   1      43.771  28.389  35.754  1.00  0.00     0.058 A 
ATOM     39  C   UNL A   1      43.473  27.371  36.673  1.00  0.00     0.135 A 
ATOM     40  C   UNL A   1      45.122  28.624  35.451  1.00  0.00     0.135 A 
ATOM     41  F   UNL A   1      42.199  27.115  37.007  1.00  0.00    -0.206 F 
ATOM     42  C   UNL A   1      44.477  26.628  37.286  1.00  0.00     0.059 A 
ATOM     43  C   UNL A   1      46.143  27.878  36.037  1.00  0.00     0.059 A 
ATOM     44  F   UNL A   1      45.463  29.584  34.578  1.00  0.00    -0.206 F 
ATOM     45  C   UNL A   1      45.810  26.890  36.963  1.00  0.00     0.060 A 
BRANCH  45  46
ATOM     46  S   UNL A   1      47.103  25.916  37.763  1.00  0.00     0.124 S 
ATOM     47  O   UNL A   1      46.444  25.528  39.007  1.00  0.00    -0.237 OA
ATOM     48  O   UNL A   1      47.325  24.839  36.803  1.00  0.00    -0.237 OA
ATOM     49  O   UNL A   1      48.205  26.863  37.905  1.00  0.00    -0.744 OA
ENDBRANCH  45  46
ENDBRANCH  24  38
BRANCH  25  50
ATOM     50  C   UNL A   1      36.448  33.250  30.984  1.00  0.00     0.058 A 
ATOM     51  C   UNL A   1      35.133  33.217  31.469  1.00  0.00     0.135 A 
ATOM     52  C   UNL A   1      36.704  34.011  29.832  1.00  0.00     0.135 A 
ATOM     53  F   UNL A   1      34.840  32.500  32.564  1.00  0.00    -0.206 F 
ATOM     54  C   UNL A   1      34.107  33.908  30.833  1.00  0.00     0.059 A 
ATOM     55  C   UNL A   1      35.701  34.730  29.194  1.00  0.00     0.059 A 
ATOM     56  F   UNL A   1      37.951  34.088  29.341  1.00  0.00    -0.206 F 
ATOM     57  C   UNL A   1      34.403  34.666  29.697  1.00  0.00     0.060 A 
BRANCH  57  58
ATOM     58  S   UNL A   1      33.080  35.613  28.915  1.00  0.00     0.124 S 
ATOM     59  O   UNL A   1      32.487  34.614  28.033  1.00  0.00    -0.237 OA
ATOM     60  O   UNL A   1      32.269  36.017  30.059  1.00  0.00    -0.237 OA
ATOM     61  O   UNL A   1      33.795  36.699  28.252  1.00  0.00    -0.744 OA
ENDBRANCH  57  58
ENDBRANCH  25  50
BRANCH  37  62
ATOM     62  C   UNL A   1      39.810  34.291  36.999  1.00  0.00     0.058 A 
ATOM     63  C   UNL A   1      40.439  35.539  36.874  1.00  0.00     0.135 A 
ATOM     64  C   UNL A   1      39.026  34.060  38.140  1.00  0.00     0.135 A 
ATOM     65  F   UNL A   1      41.208  35.804  35.806  1.00  0.00    -0.206 F 
ATOM     66  C   UNL A   1      40.313  36.516  37.856  1.00  0.00     0.059 A 
ATOM     67  C   UNL A   1      38.868  35.030  39.123  1.00  0.00     0.059 A 
ATOM     68  F   UNL A   1      38.398  32.885  38.303  1.00  0.00    -0.206 F 
ATOM     69  C   UNL A   1      39.526  36.252  38.978  1.00  0.00     0.060 A 
BRANCH  69  70
ATOM     70  S   UNL A   1      39.348  37.534  40.235  1.00  0.00     0.124 S 
ATOM     71  O   UNL A   1      38.419  38.454  39.586  1.00  0.00    -0.237 OA
ATOM     72  O   UNL A   1      38.813  36.791  41.371  1.00  0.00    -0.237 OA
ATOM     73  O   UNL A   1      40.710  38.033  40.405  1.00  0.00    -0.744 OA
ENDBRANCH  69  70
ENDBRANCH  37  62
ENDBRANCH  11  12
ENDBRANCH   4   6
ENDBRANCH   1   2
BRANCH   1  74
ATOM     74  C   UNL A   1      37.185  23.723  25.393  1.00  0.00     0.042 C 
BRANCH  74  75
ATOM     75  C   UNL A   1      36.760  22.262  25.412  1.00  0.00     0.118 C 
BRANCH  75  76
ATOM     76  N   UNL A   1      35.930  21.928  26.562  1.00  0.00    -0.352 N 
ATOM     77  C   UNL A   1      34.629  21.496  26.623  1.00  0.00     0.253 C 
ATOM     78  H   UNL A   1      36.374  22.028  27.434  1.00  0.00     0.163 HD
ATOM     79  O   UNL A   1      34.060  21.421  27.711  1.00  0.00    -0.269 OA
BRANCH  77  80
ATOM     80  C   UNL A   1      33.911  21.064  25.401  1.00  0.00     0.065 A 
ATOM     81  C   UNL A   1      34.055  19.723  25.003  1.00  0.00     0.036 A 
ATOM     82  C   UNL A   1      32.934  21.881  24.792  1.00  0.00     0.065 A 
ATOM     83  C   UNL A   1      33.308  19.223  23.944  1.00  0.00     0.041 A 
ATOM     84  C   UNL A   1      32.161  21.334  23.751  1.00  0.00     0.029 A 
ATOM     85  Cl  UNL A   1      33.534  17.596  23.434  1.00  0.00    -0.084 Cl
ATOM     86  C   UNL A   1      32.365  20.023  23.311  1.00  0.00     0.023 A 
BRANCH  82  87
ATOM     87  N   UNL A   1      32.680  23.214  25.202  1.00  0.00    -0.249 N 
ATOM     88  C   UNL A   1      31.734  23.552  26.140  1.00  0.00     0.234 C 
ATOM     89  C   UNL A   1      33.335  24.315  24.695  1.00  0.00     0.240 C 
ATOM     90  O   UNL A   1      30.914  22.828  26.690  1.00  0.00    -0.274 OA
ATOM     91  C   UNL A   1      31.908  25.002  26.491  1.00  0.00     0.118 C 
ATOM     92  C   UNL A   1      32.749  25.553  25.343  1.00  0.00     0.059 C 
ATOM     93  O   UNL A   1      34.148  24.337  23.779  1.00  0.00    -0.273 OA
ATOM     94  C   UNL A   1      31.907  26.368  24.356  1.00  0.00     0.017 C 
ATOM     95  C   UNL A   1      33.804  26.563  25.780  1.00  0.00     0.017 C 
ATOM     96  C   UNL A   1      31.844  27.767  24.966  1.00  0.00     0.001 C 
ATOM     97  C   UNL A   1      33.045  27.880  25.905  1.00  0.00     0.001 C 
ENDBRANCH  82  87
ENDBRANCH  77  80
ENDBRANCH  75  76
ENDBRANCH  74  75
ENDBRANCH   1  74
TORSDOF 14
ENDMDL
MODEL 2
REMARK VINA RESULT:     -13.1      1.367      2.988
REMARK SMILES O=C(NCCCNC(=O)c1cc(Cl)ccc1N1C(=O)CC2(CCCC2)C1=O)c1ccc(-c2c3nc(c(-c4c(F)cc(S(=O)(=O)[O-])cc4F)c4ccc([nH]4)c(-c4c(F)cc(S(=O)(=O)[O-])cc4F)c4nc(c(-c5c(F)cc(S(=O)(=O)[O-])cc5F)c5ccc2[nH]5)C=C4)C=C3)cc1
REMARK SMILES IDX 4 1 3 2 1 3 2 4 28 6 29 7 93 8 30 9 92 10 31 11 32 12 33 13
REMARK SMILES IDX 86 14 34 15 91 16 85 17 87 18 35 19 90 20 84 21 83 22 36 24
REMARK SMILES IDX 70 25 49 26 69 27 50 28 53 29 68 30 88 31 51 32 52 33 67 35
REMARK SMILES IDX 89 36 54 37 37 38 38 39 47 40 39 41 40 42 46 43 48 44 41 45
REMARK SMILES IDX 42 46 43 47 44 48 45 49 71 50 72 51 81 52 73 53 74 54 80 55
REMARK SMILES IDX 82 56 75 57 76 58 77 59 78 60 79 61 55 62 56 63 65 64 57 65
REMARK SMILES IDX 58 66 64 67 66 68 59 69 60 70 61 71 62 72 63 73 5 74 6 75
REMARK SMILES IDX 7 76 8 77 9 79 10 80 11 81 16 82 12 83 15 84 13 85 14 86
REMARK SMILES IDX 17 87 18 88 26 89 19 90 20 91 21 92 27 93 22 94 25 95 23 96
REMARK SMILES IDX 24 97
REMARK H PARENT 3 5 87 23 53 34 7 78
REMARK Flexibility Score: inf
ROOT
ATOM      1  C   UNL A   1      38.877  23.698  26.795  1.00  0.00     0.118 C 
ENDROOT
BRANCH   1   2
ATOM      2  N   UNL A   1      40.150  23.993  26.147  1.00  0.00    -0.352 N 
ATOM      3  O   UNL A   1      41.958  25.176  25.537  1.00  0.00    -0.269 OA
ATOM      4  C   UNL A   1      41.035  25.027  26.335  1.00  0.00     0.251 C 
ATOM      5  H   UNL A   1      40.420  23.342  25.459  1.00  0.00     0.163 HD
BRANCH   4   6
ATOM      6  C   UNL A   1      40.881  25.967  27.469  1.00  0.00     0.039 A 
ATOM      7  C   UNL A   1      41.687  27.099  27.583  1.00  0.00     0.014 A 
ATOM      8  C   UNL A   1      39.872  25.738  28.413  1.00  0.00     0.014 A 
ATOM      9  C   UNL A   1      41.597  27.907  28.711  1.00  0.00     0.010 A 
ATOM     10  C   UNL A   1      39.717  26.607  29.497  1.00  0.00     0.010 A 
ATOM     11  C   UNL A   1      40.599  27.683  29.673  1.00  0.00    -0.014 A 
BRANCH  11  12
ATOM     12  C   UNL A   1      40.464  28.632  30.808  1.00  0.00     0.031 A 
ATOM     13  C   UNL A   1      41.377  28.561  32.000  1.00  0.00     0.074 A 
ATOM     14  C   UNL A   1      39.522  29.595  30.732  1.00  0.00     0.049 A 
ATOM     15  N   UNL A   1      41.412  29.336  33.055  1.00  0.00    -0.248 NA
ATOM     16  C   UNL A   1      42.373  27.479  32.019  1.00  0.00     0.031 C 
ATOM     17  C   UNL A   1      38.565  29.750  29.632  1.00  0.00     0.029 A 
ATOM     18  N   UNL A   1      39.225  30.633  31.576  1.00  0.00    -0.354 N 
ATOM     19  C   UNL A   1      42.417  28.828  33.871  1.00  0.00     0.074 A 
ATOM     20  C   UNL A   1      42.952  27.663  33.198  1.00  0.00     0.031 C 
ATOM     21  C   UNL A   1      37.824  30.847  29.844  1.00  0.00     0.029 A 
ATOM     22  C   UNL A   1      38.211  31.440  31.118  1.00  0.00     0.049 A 
ATOM     23  H   UNL A   1      39.693  30.786  32.429  1.00  0.00     0.167 HD
ATOM     24  C   UNL A   1      42.855  29.296  35.064  1.00  0.00     0.037 A 
ATOM     25  C   UNL A   1      37.644  32.531  31.666  1.00  0.00     0.037 A 
ATOM     26  C   UNL A   1      42.328  30.470  35.716  1.00  0.00     0.049 A 
ATOM     27  C   UNL A   1      38.147  33.028  32.989  1.00  0.00     0.074 A 
ATOM     28  C   UNL A   1      42.731  31.045  36.910  1.00  0.00     0.029 A 
ATOM     29  N   UNL A   1      41.287  31.247  35.231  1.00  0.00    -0.354 N 
ATOM     30  N   UNL A   1      39.117  32.549  33.731  1.00  0.00    -0.248 NA
ATOM     31  C   UNL A   1      37.480  34.207  33.553  1.00  0.00     0.031 C 
ATOM     32  C   UNL A   1      41.909  32.148  37.164  1.00  0.00     0.029 A 
ATOM     33  C   UNL A   1      41.020  32.286  36.109  1.00  0.00     0.049 A 
ATOM     34  H   UNL A   1      40.807  31.086  34.387  1.00  0.00     0.167 HD
ATOM     35  C   UNL A   1      39.182  33.373  34.847  1.00  0.00     0.074 A 
ATOM     36  C   UNL A   1      38.167  34.393  34.672  1.00  0.00     0.031 C 
ATOM     37  C   UNL A   1      40.003  33.289  35.922  1.00  0.00     0.037 A 
BRANCH  24  38
ATOM     38  C   UNL A   1      43.953  28.534  35.754  1.00  0.00     0.058 A 
ATOM     39  C   UNL A   1      43.677  27.498  36.660  1.00  0.00     0.135 A 
ATOM     40  C   UNL A   1      45.300  28.813  35.470  1.00  0.00     0.135 A 
ATOM     41  F   UNL A   1      42.407  27.199  36.977  1.00  0.00    -0.206 F 
ATOM     42  C   UNL A   1      44.696  26.780  37.277  1.00  0.00     0.059 A 
ATOM     43  C   UNL A   1      46.336  28.093  36.060  1.00  0.00     0.059 A 
ATOM     44  F   UNL A   1      45.621  29.793  34.611  1.00  0.00    -0.206 F 
ATOM     45  C   UNL A   1      46.024  27.086  36.973  1.00  0.00     0.060 A 
BRANCH  45  46
ATOM     46  S   UNL A   1      47.337  26.144  37.778  1.00  0.00     0.124 S 
ATOM     47  O   UNL A   1      46.615  24.948  38.203  1.00  0.00    -0.237 OA
ATOM     48  O   UNL A   1      48.295  25.951  36.694  1.00  0.00    -0.237 OA
ATOM     49  O   UNL A   1      47.779  27.026  38.853  1.00  0.00    -0.744 OA
ENDBRANCH  45  46
ENDBRANCH  24  38
BRANCH  25  50
ATOM     50  C   UNL A   1      36.534  33.216  30.955  1.00  0.00     0.058 A 
ATOM     51  C   UNL A   1      35.210  33.104  31.401  1.00  0.00     0.135 A 
ATOM     52  C   UNL A   1      36.783  34.030  29.839  1.00  0.00     0.135 A 
ATOM     53  F   UNL A   1      34.923  32.333  32.461  1.00  0.00    -0.206 F 
ATOM     54  C   UNL A   1      34.168  33.769  30.762  1.00  0.00     0.059 A 
ATOM     55  C   UNL A   1      35.763  34.725  29.199  1.00  0.00     0.059 A 
ATOM     56  F   UNL A   1      38.038  34.185  29.386  1.00  0.00    -0.206 F 
ATOM     57  C   UNL A   1      34.457  34.580  29.663  1.00  0.00     0.060 A 
BRANCH  57  58
ATOM     58  S   UNL A   1      33.111  35.492  28.878  1.00  0.00     0.124 S 
ATOM     59  O   UNL A   1      32.469  34.447  28.091  1.00  0.00    -0.237 OA
ATOM     60  O   UNL A   1      32.356  35.982  30.027  1.00  0.00    -0.237 OA
ATOM     61  O   UNL A   1      33.808  36.523  28.114  1.00  0.00    -0.744 OA
ENDBRANCH  57  58
ENDBRANCH  25  50
BRANCH  37  62
ATOM     62  C   UNL A   1      39.845  34.338  36.984  1.00  0.00     0.058 A 
ATOM     63  C   UNL A   1      40.512  35.570  36.902  1.00  0.00     0.135 A 
ATOM     64  C   UNL A   1      38.994  34.121  38.079  1.00  0.00     0.135 A 
ATOM     65  F   UNL A   1      41.344  35.820  35.879  1.00  0.00    -0.206 F 
ATOM     66  C   UNL A   1      40.358  36.544  37.883  1.00  0.00     0.059 A 
ATOM     67  C   UNL A   1      38.808  35.089  39.059  1.00  0.00     0.059 A 
ATOM     68  F   UNL A   1      38.327  32.962  38.198  1.00  0.00    -0.206 F 
ATOM     69  C   UNL A   1      39.505  36.293  38.959  1.00  0.00     0.060 A 
BRANCH  69  70
ATOM     70  S   UNL A   1      39.293  37.573  40.214  1.00  0.00     0.124 S 
ATOM     71  O   UNL A   1      38.233  38.386  39.627  1.00  0.00    -0.237 OA
ATOM     72  O   UNL A   1      38.918  36.799  41.393  1.00  0.00    -0.237 OA
ATOM     73  O   UNL A   1      40.607  38.205  40.279  1.00  0.00    -0.744 OA
ENDBRANCH  69  70
ENDBRANCH  37  62
ENDBRANCH  11  12
ENDBRANCH   4   6
ENDBRANCH   1   2
BRANCH   1  74
ATOM     74  C   UNL A   1      37.677  24.005  25.908  1.00  0.00     0.042 C 
BRANCH  74  75
ATOM     75  C   UNL A   1      37.080  22.787  25.220  1.00  0.00     0.118 C 
BRANCH  75  76
ATOM     76  N   UNL A   1      36.482  23.102  23.929  1.00  0.00    -0.352 N 
ATOM     77  C   UNL A   1      35.209  23.506  23.614  1.00  0.00     0.253 C 
ATOM     78  H   UNL A   1      37.089  23.010  23.160  1.00  0.00     0.163 HD
ATOM     79  O   UNL A   1      34.860  23.567  22.436  1.00  0.00    -0.269 OA
BRANCH  77  80
ATOM     80  C   UNL A   1      34.259  23.924  24.671  1.00  0.00     0.065 A 
ATOM     81  C   UNL A   1      34.247  25.282  25.034  1.00  0.00     0.036 A 
ATOM     82  C   UNL A   1      33.240  23.062  25.132  1.00  0.00     0.065 A 
ATOM     83  C   UNL A   1      33.293  25.763  25.924  1.00  0.00     0.041 A 
ATOM     84  C   UNL A   1      32.261  23.586  25.997  1.00  0.00     0.029 A 
ATOM     85  Cl  UNL A   1      33.326  27.415  26.398  1.00  0.00    -0.084 Cl
ATOM     86  C   UNL A   1      32.303  24.920  26.412  1.00  0.00     0.023 A 
BRANCH  82  87
ATOM     87  N   UNL A   1      33.145  21.703  24.738  1.00  0.00    -0.249 N 
ATOM     88  C   UNL A   1      32.370  21.270  23.690  1.00  0.00     0.234 C 
ATOM     89  C   UNL A   1      33.800  20.669  25.371  1.00  0.00     0.240 C 
ATOM     90  O   UNL A   1      31.585  21.915  23.005  1.00  0.00    -0.274 OA
ATOM     91  C   UNL A   1      32.697  19.830  23.418  1.00  0.00     0.118 C 
ATOM     92  C   UNL A   1      33.404  19.374  24.691  1.00  0.00     0.059 C 
ATOM     93  O   UNL A   1      34.474  20.733  26.391  1.00  0.00    -0.273 OA
ATOM     94  C   UNL A   1      32.492  18.521  25.579  1.00  0.00     0.017 C 
ATOM     95  C   UNL A   1      34.582  18.437  24.442  1.00  0.00     0.017 C 
ATOM     96  C   UNL A   1      32.619  17.106  25.016  1.00  0.00     0.001 C 
ATOM     97  C   UNL A   1      33.946  17.063  24.260  1.00  0.00     0.001 C 
ENDBRANCH  82  87
ENDBRANCH  77  80
ENDBRANCH  75  76
ENDBRANCH  74  75
ENDBRANCH   1  74
TORSDOF 14
ENDMDL
MODEL 3
REMARK VINA RESULT:     -13.1      6.880     12.090
REMARK SMILES O=C(NCCCNC(=O)c1cc(Cl)ccc1N1C(=O)CC2(CCCC2)C1=O)c1ccc(-c2c3nc(c(-c4c(F)cc(S(=O)(=O)[O-])cc4F)c4ccc([nH]4)c(-c4c(F)cc(S(=O)(=O)[O-])cc4F)c4nc(c(-c5c(F)cc(S(=O)(=O)[O-])cc5F)c5ccc2[nH]5)C=C4)C=C3)cc1
REMARK SMILES IDX 4 1 3 2 1 3 2 4 28 6 29 7 93 8 30 9 92 10 31 11 32 12 33 13
REMARK SMILES IDX 86 14 34 15 91 16 85 17 87 18 35 19 90 20 84 21 83 22 36 24
REMARK SMILES IDX 70 25 49 26 69 27 50 28 53 29 68 30 88 31 51 32 52 33 67 35
REMARK SMILES IDX 89 36 54 37 37 38 38 39 47 40 39 41 40 42 46 43 48 44 41 45
REMARK SMILES IDX 42 46 43 47 44 48 45 49 71 50 72 51 81 52 73 53 74 54 80 55
REMARK SMILES IDX 82 56 75 57 76 58 77 59 78 60 79 61 55 62 56 63 65 64 57 65
REMARK SMILES IDX 58 66 64 67 66 68 59 69 60 70 61 71 62 72 63 73 5 74 6 75
REMARK SMILES IDX 7 76 8 77 9 79 10 80 11 81 16 82 12 83 15 84 13 85 14 86
REMARK SMILES IDX 17 87 18 88 26 89 19 90 20 91 21 92 27 93 22 94 25 95 23 96
REMARK SMILES IDX 24 97
REMARK H PARENT 3 5 87 23 53 34 7 78
REMARK Flexibility Score: inf
ROOT
ATOM      1  C   UNL A   1      35.386  30.359  27.762  1.00  0.00     0.118 C 
ENDROOT
BRANCH   1   2
ATOM      2  N   UNL A   1      35.388  30.445  29.217  1.00  0.00    -0.352 N 
ATOM      3  O   UNL A   1      36.059  30.083  31.329  1.00  0.00    -0.269 OA
ATOM      4  C   UNL A   1      36.351  30.101  30.136  1.00  0.00     0.251 C 
ATOM      5  H   UNL A   1      34.561  30.809  29.607  1.00  0.00     0.163 HD
BRANCH   4   6
ATOM      6  C   UNL A   1      37.721  29.738  29.705  1.00  0.00     0.039 A 
ATOM      7  C   UNL A   1      38.672  29.294  30.624  1.00  0.00     0.014 A 
ATOM      8  C   UNL A   1      38.047  29.795  28.345  1.00  0.00     0.014 A 
ATOM      9  C   UNL A   1      39.980  29.063  30.214  1.00  0.00     0.010 A 
ATOM     10  C   UNL A   1      39.338  29.466  27.919  1.00  0.00     0.010 A 
ATOM     11  C   UNL A   1      40.326  29.128  28.855  1.00  0.00    -0.014 A 
BRANCH  11  12
ATOM     12  C   UNL A   1      41.707  28.767  28.442  1.00  0.00     0.031 A 
ATOM     13  C   UNL A   1      42.818  29.779  28.461  1.00  0.00     0.074 A 
ATOM     14  C   UNL A   1      41.958  27.491  28.084  1.00  0.00     0.049 A 
ATOM     15  N   UNL A   1      44.083  29.616  28.164  1.00  0.00    -0.248 NA
ATOM     16  C   UNL A   1      42.468  31.153  28.852  1.00  0.00     0.031 C 
ATOM     17  C   UNL A   1      40.954  26.425  28.010  1.00  0.00     0.029 A 
ATOM     18  N   UNL A   1      43.129  26.867  27.738  1.00  0.00    -0.354 N 
ATOM     19  C   UNL A   1      44.676  30.864  28.315  1.00  0.00     0.074 A 
ATOM     20  C   UNL A   1      43.627  31.782  28.706  1.00  0.00     0.031 C 
ATOM     21  C   UNL A   1      41.559  25.271  27.692  1.00  0.00     0.029 A 
ATOM     22  C   UNL A   1      42.979  25.523  27.484  1.00  0.00     0.049 A 
ATOM     23  H   UNL A   1      43.992  27.335  27.678  1.00  0.00     0.167 HD
ATOM     24  C   UNL A   1      45.977  31.208  28.148  1.00  0.00     0.037 A 
ATOM     25  C   UNL A   1      43.882  24.597  27.112  1.00  0.00     0.037 A 
ATOM     26  C   UNL A   1      47.018  30.282  27.778  1.00  0.00     0.049 A 
ATOM     27  C   UNL A   1      45.314  25.005  26.933  1.00  0.00     0.074 A 
ATOM     28  C   UNL A   1      48.371  30.528  27.620  1.00  0.00     0.029 A 
ATOM     29  N   UNL A   1      46.823  28.936  27.507  1.00  0.00    -0.354 N 
ATOM     30  N   UNL A   1      45.859  26.185  27.107  1.00  0.00    -0.248 NA
ATOM     31  C   UNL A   1      46.253  23.961  26.506  1.00  0.00     0.031 C 
ATOM     32  C   UNL A   1      48.989  29.338  27.218  1.00  0.00     0.029 A 
ATOM     33  C   UNL A   1      48.028  28.341  27.165  1.00  0.00     0.049 A 
ATOM     34  H   UNL A   1      45.957  28.470  27.551  1.00  0.00     0.167 HD
ATOM     35  C   UNL A   1      47.209  26.025  26.816  1.00  0.00     0.074 A 
ATOM     36  C   UNL A   1      47.399  24.629  26.476  1.00  0.00     0.031 C 
ATOM     37  C   UNL A   1      48.198  26.951  26.825  1.00  0.00     0.037 A 
BRANCH  24  38
ATOM     38  C   UNL A   1      46.350  32.650  28.354  1.00  0.00     0.058 A 
ATOM     39  C   UNL A   1      46.778  33.132  29.601  1.00  0.00     0.135 A 
ATOM     40  C   UNL A   1      46.326  33.552  27.278  1.00  0.00     0.135 A 
ATOM     41  F   UNL A   1      46.808  32.316  30.666  1.00  0.00    -0.206 F 
ATOM     42  C   UNL A   1      47.146  34.462  29.780  1.00  0.00     0.059 A 
ATOM     43  C   UNL A   1      46.710  34.882  27.429  1.00  0.00     0.059 A 
ATOM     44  F   UNL A   1      45.927  33.144  26.063  1.00  0.00    -0.206 F 
ATOM     45  C   UNL A   1      47.107  35.331  28.688  1.00  0.00     0.060 A 
BRANCH  45  46
ATOM     46  S   UNL A   1      47.591  37.053  28.933  1.00  0.00     0.124 S 
ATOM     47  O   UNL A   1      49.028  36.921  29.153  1.00  0.00    -0.237 OA
ATOM     48  O   UNL A   1      47.199  37.673  27.671  1.00  0.00    -0.237 OA
ATOM     49  O   UNL A   1      46.813  37.463  30.098  1.00  0.00    -0.744 OA
ENDBRANCH  45  46
ENDBRANCH  24  38
BRANCH  25  50
ATOM     50  C   UNL A   1      43.443  23.197  26.882  1.00  0.00     0.058 A 
ATOM     51  C   UNL A   1      43.368  22.664  25.588  1.00  0.00     0.135 A 
ATOM     52  C   UNL A   1      43.130  22.351  27.959  1.00  0.00     0.135 A 
ATOM     53  F   UNL A   1      43.654  23.436  24.528  1.00  0.00    -0.206 F 
ATOM     54  C   UNL A   1      42.991  21.344  25.366  1.00  0.00     0.059 A 
ATOM     55  C   UNL A   1      42.775  21.022  27.764  1.00  0.00     0.059 A 
ATOM     56  F   UNL A   1      43.206  22.810  29.218  1.00  0.00    -0.206 F 
ATOM     57  C   UNL A   1      42.699  20.529  26.463  1.00  0.00     0.060 A 
BRANCH  57  58
ATOM     58  S   UNL A   1      42.274  18.799  26.172  1.00  0.00     0.124 S 
ATOM     59  O   UNL A   1      43.205  18.443  25.108  1.00  0.00    -0.237 OA
ATOM     60  O   UNL A   1      42.530  18.193  27.475  1.00  0.00    -0.237 OA
ATOM     61  O   UNL A   1      40.867  18.862  25.788  1.00  0.00    -0.744 OA
ENDBRANCH  57  58
ENDBRANCH  25  50
BRANCH  37  62
ATOM     62  C   UNL A   1      49.577  26.477  26.468  1.00  0.00     0.058 A 
ATOM     63  C   UNL A   1      50.441  25.942  27.436  1.00  0.00     0.135 A 
ATOM     64  C   UNL A   1      50.028  26.532  25.140  1.00  0.00     0.135 A 
ATOM     65  F   UNL A   1      50.059  25.878  28.721  1.00  0.00    -0.206 F 
ATOM     66  C   UNL A   1      51.716  25.497  27.103  1.00  0.00     0.059 A 
ATOM     67  C   UNL A   1      51.290  26.073  24.781  1.00  0.00     0.059 A 
ATOM     68  F   UNL A   1      49.237  27.030  24.177  1.00  0.00    -0.206 F 
ATOM     69  C   UNL A   1      52.132  25.568  25.772  1.00  0.00     0.060 A 
BRANCH  69  70
ATOM     70  S   UNL A   1      53.779  24.965  25.345  1.00  0.00     0.124 S 
ATOM     71  O   UNL A   1      54.522  25.251  26.567  1.00  0.00    -0.237 OA
ATOM     72  O   UNL A   1      53.536  23.553  25.067  1.00  0.00    -0.237 OA
ATOM     73  O   UNL A   1      54.144  25.772  24.184  1.00  0.00    -0.744 OA
ENDBRANCH  69  70
ENDBRANCH  37  62
ENDBRANCH  11  12
ENDBRANCH   4   6
ENDBRANCH   1   2
BRANCH   1  74
ATOM     74  C   UNL A   1      34.698  29.103  27.244  1.00  0.00     0.042 C 
BRANCH  74  75
ATOM     75  C   UNL A   1      33.329  29.349  26.625  1.00  0.00     0.118 C 
BRANCH  75  76
ATOM     76  N   UNL A   1      32.322  28.400  27.081  1.00  0.00    -0.352 N 
ATOM     77  C   UNL A   1      31.887  27.226  26.519  1.00  0.00     0.253 C 
ATOM     78  H   UNL A   1      31.884  28.639  27.929  1.00  0.00     0.163 HD
ATOM     79  O   UNL A   1      30.907  26.649  26.988  1.00  0.00    -0.269 OA
BRANCH  77  80
ATOM     80  C   UNL A   1      32.614  26.610  25.384  1.00  0.00     0.065 A 
ATOM     81  C   UNL A   1      33.666  25.729  25.688  1.00  0.00     0.036 A 
ATOM     82  C   UNL A   1      32.131  26.703  24.061  1.00  0.00     0.065 A 
ATOM     83  C   UNL A   1      34.302  25.020  24.675  1.00  0.00     0.041 A 
ATOM     84  C   UNL A   1      32.765  25.940  23.062  1.00  0.00     0.029 A 
ATOM     85  Cl  UNL A   1      35.622  23.987  25.057  1.00  0.00    -0.084 Cl
ATOM     86  C   UNL A   1      33.860  25.125  23.362  1.00  0.00     0.023 A 
BRANCH  82  87
ATOM     87  N   UNL A   1      31.020  27.508  23.701  1.00  0.00    -0.249 N 
ATOM     88  C   UNL A   1      29.742  27.020  23.567  1.00  0.00     0.234 C 
ATOM     89  C   UNL A   1      31.100  28.856  23.428  1.00  0.00     0.240 C 
ATOM     90  O   UNL A   1      29.360  25.858  23.627  1.00  0.00    -0.274 OA
ATOM     91  C   UNL A   1      28.802  28.182  23.415  1.00  0.00     0.118 C 
ATOM     92  C   UNL A   1      29.720  29.341  23.035  1.00  0.00     0.059 C 
ATOM     93  O   UNL A   1      32.114  29.540  23.364  1.00  0.00    -0.273 OA
ATOM     94  C   UNL A   1      29.635  29.671  21.541  1.00  0.00     0.017 C 
ATOM     95  C   UNL A   1      29.338  30.668  23.682  1.00  0.00     0.017 C 
ATOM     96  C   UNL A   1      28.429  30.601  21.418  1.00  0.00     0.001 C 
ATOM     97  C   UNL A   1      28.220  31.216  22.802  1.00  0.00     0.001 C 
ENDBRANCH  82  87
ENDBRANCH  77  80
ENDBRANCH  75  76
ENDBRANCH  74  75
ENDBRANCH   1  74
TORSDOF 14
ENDMDL
