MODEL 1
REMARK VINA RESULT:     -11.6      0.000      0.000
REMARK SMILES COc1ccc(C[NH2+]Cc2cccn2-c2sc(C)c(C)c2C(=O)NCCCNC(=O)c2ccc(-c3c4nc(c(-c5c(F)cc(S(=O)(=O)[O-])cc5F)c5ccc([nH]5)c(-c5c(F)cc(S(=O)(=O)[O-])cc5F)c5nc(c(-c6c(F)cc(S(=O)(=O)[O-])cc6F)c6ccc3[nH]6)C=C5)C=C4)cc2)cc1
REMARK SMILES IDX 22 1 23 2 24 3 21 5 15 6 16 7 17 8 19 9 18 10 20 11 14 12
REMARK SMILES IDX 10 13 11 14 12 15 13 16 9 17 8 18 7 21 6 22 3 23 4 24 98 25
REMARK SMILES IDX 5 26 97 27 2 28 1 29 25 30 26 31 27 32 28 33 29 34 30 36
REMARK SMILES IDX 31 37 32 38 96 39 33 40 95 41 34 42 35 43 36 44 89 45 37 46
REMARK SMILES IDX 94 47 88 48 90 49 38 50 93 51 87 52 86 53 39 55 73 56 52 57
REMARK SMILES IDX 72 58 53 59 56 60 71 61 91 62 54 63 55 64 70 66 92 67 57 68
REMARK SMILES IDX 40 69 41 70 50 71 42 72 43 73 49 74 51 75 44 76 45 77 46 78
REMARK SMILES IDX 47 79 48 80 74 81 75 82 84 83 76 84 77 85 83 86 85 87 78 88
REMARK SMILES IDX 79 89 80 90 81 91 82 92 58 93 59 94 68 95 60 96 61 97 67 98
REMARK SMILES IDX 69 99 62 100 63 101 64 102 65 103 66 104
REMARK H PARENT 24 4 8 19 8 20 28 35 90 54 56 65
REMARK Flexibility Score: inf
ROOT
ATOM      1  C   UNL A   1      30.524  25.585  26.127  1.00  0.00     0.254 C 
ATOM      2  O   UNL A   1      29.478  25.046  26.494  1.00  0.00    -0.269 OA
ATOM      3  N   UNL A   1      31.011  26.565  26.958  1.00  0.00    -0.352 N 
ATOM      4  H   UNL A   1      30.461  26.771  27.749  1.00  0.00     0.163 HD
ENDROOT
BRANCH   1   5
ATOM      5  C   UNL A   1      31.147  25.184  24.841  1.00  0.00     0.078 A 
ATOM      6  C   UNL A   1      31.827  24.032  24.455  1.00  0.00     0.113 A 
ATOM      7  S   UNL A   1      31.748  23.796  22.761  1.00  0.00    -0.122 S 
ATOM      8  C   UNL A   1      31.613  25.479  22.522  1.00  0.00     0.007 A 
ATOM      9  C   UNL A   1      31.078  26.074  23.656  1.00  0.00    -0.022 A 
ATOM     10  C   UNL A   1      31.966  26.066  21.197  1.00  0.00     0.057 C 
ATOM     11  C   UNL A   1      30.528  27.472  23.682  1.00  0.00     0.046 C 
BRANCH   6  12
ATOM     12  N   UNL A   1      32.340  22.929  25.143  1.00  0.00    -0.306 N 
ATOM     13  C   UNL A   1      33.484  22.864  25.965  1.00  0.00     0.078 A 
ATOM     14  C   UNL A   1      33.600  21.554  26.412  1.00  0.00     0.029 A 
ATOM     15  C   UNL A   1      32.565  20.794  25.834  1.00  0.00     0.020 A 
ATOM     16  C   UNL A   1      31.833  21.645  25.040  1.00  0.00     0.092 A 
BRANCH  13  17
ATOM     17  C   UNL A   1      34.333  24.027  26.419  1.00  0.00     0.316 C 
BRANCH  17  18
ATOM     18  N   UNL A   1      35.034  24.692  25.319  1.00  0.00    -0.338 N 
ATOM     19  H   UNL A   1      34.371  25.237  24.768  1.00  0.00     0.346 HD
ATOM     20  H   UNL A   1      35.749  25.319  25.687  1.00  0.00     0.346 HD
BRANCH  18  21
ATOM     21  C   UNL A   1      35.646  23.673  24.483  1.00  0.00     0.297 C 
BRANCH  21  22
ATOM     22  C   UNL A   1      36.978  23.153  24.938  1.00  0.00     0.006 A 
ATOM     23  C   UNL A   1      39.149  21.992  26.264  1.00  0.00     0.118 A 
ATOM     24  C   UNL A   1      38.417  21.251  25.335  1.00  0.00     0.047 A 
ATOM     25  C   UNL A   1      38.866  23.344  26.452  1.00  0.00     0.047 A 
ATOM     26  C   UNL A   1      37.333  21.827  24.675  1.00  0.00     0.013 A 
ATOM     27  C   UNL A   1      37.790  23.925  25.782  1.00  0.00     0.013 A 
BRANCH  23  28
ATOM     28  O   UNL A   1      40.137  21.315  26.929  1.00  0.00    -0.497 OA
ATOM     29  C   UNL A   1      40.508  20.085  26.309  1.00  0.00     0.278 C 
ENDBRANCH  23  28
ENDBRANCH  21  22
ENDBRANCH  18  21
ENDBRANCH  17  18
ENDBRANCH  13  17
ENDBRANCH   6  12
ENDBRANCH   1   5
BRANCH   3  30
ATOM     30  C   UNL A   1      32.214  27.322  26.818  1.00  0.00     0.118 C 
BRANCH  30  31
ATOM     31  C   UNL A   1      32.174  28.817  27.063  1.00  0.00     0.042 C 
BRANCH  31  32
ATOM     32  C   UNL A   1      33.546  29.439  27.215  1.00  0.00     0.118 C 
BRANCH  32  33
ATOM     33  N   UNL A   1      33.539  30.723  27.911  1.00  0.00    -0.352 N 
ATOM     34  C   UNL A   1      34.541  31.242  28.710  1.00  0.00     0.251 C 
ATOM     35  H   UNL A   1      32.735  31.278  27.799  1.00  0.00     0.163 HD
ATOM     36  O   UNL A   1      34.358  32.239  29.382  1.00  0.00    -0.269 OA
BRANCH  34  37
ATOM     37  C   UNL A   1      35.818  30.497  28.782  1.00  0.00     0.039 A 
ATOM     38  C   UNL A   1      36.707  30.597  27.710  1.00  0.00     0.014 A 
ATOM     39  C   UNL A   1      36.172  29.822  29.954  1.00  0.00     0.014 A 
ATOM     40  C   UNL A   1      38.006  30.126  27.867  1.00  0.00     0.010 A 
ATOM     41  C   UNL A   1      37.483  29.418  30.137  1.00  0.00     0.010 A 
ATOM     42  C   UNL A   1      38.408  29.591  29.100  1.00  0.00    -0.014 A 
BRANCH  42  43
ATOM     43  C   UNL A   1      39.844  29.318  29.337  1.00  0.00     0.031 A 
ATOM     44  C   UNL A   1      40.575  30.501  29.985  1.00  0.00     0.074 A 
ATOM     45  C   UNL A   1      40.304  28.094  28.948  1.00  0.00     0.049 A 
ATOM     46  N   UNL A   1      41.794  30.917  29.821  1.00  0.00    -0.248 NA
ATOM     47  C   UNL A   1      39.805  31.423  30.862  1.00  0.00     0.031 C 
ATOM     48  C   UNL A   1      39.450  27.049  28.349  1.00  0.00     0.029 A 
ATOM     49  N   UNL A   1      41.533  27.465  28.974  1.00  0.00    -0.354 N 
ATOM     50  C   UNL A   1      41.994  32.008  30.699  1.00  0.00     0.074 A 
ATOM     51  C   UNL A   1      40.700  32.356  31.204  1.00  0.00     0.031 C 
ATOM     52  C   UNL A   1      40.176  25.963  28.026  1.00  0.00     0.029 A 
ATOM     53  C   UNL A   1      41.565  26.180  28.369  1.00  0.00     0.049 A 
ATOM     54  H   UNL A   1      42.327  27.877  29.383  1.00  0.00     0.167 HD
ATOM     55  C   UNL A   1      43.233  32.462  31.063  1.00  0.00     0.037 A 
ATOM     56  C   UNL A   1      42.634  25.367  28.106  1.00  0.00     0.037 A 
ATOM     57  C   UNL A   1      44.239  31.639  30.476  1.00  0.00     0.049 A 
ATOM     58  C   UNL A   1      43.807  26.047  28.683  1.00  0.00     0.074 A 
ATOM     59  C   UNL A   1      44.716  31.500  29.200  1.00  0.00     0.029 A 
ATOM     60  N   UNL A   1      44.678  30.580  31.235  1.00  0.00    -0.354 N 
ATOM     61  N   UNL A   1      44.071  26.145  29.952  1.00  0.00    -0.248 NA
ATOM     62  C   UNL A   1      44.717  26.761  27.775  1.00  0.00     0.031 C 
ATOM     63  C   UNL A   1      45.067  30.135  29.116  1.00  0.00     0.029 A 
ATOM     64  C   UNL A   1      44.928  29.539  30.376  1.00  0.00     0.049 A 
ATOM     65  H   UNL A   1      44.791  30.570  32.213  1.00  0.00     0.167 HD
ATOM     66  C   UNL A   1      44.970  27.185  29.992  1.00  0.00     0.074 A 
ATOM     67  C   UNL A   1      45.541  27.299  28.670  1.00  0.00     0.031 C 
ATOM     68  C   UNL A   1      44.789  28.191  30.885  1.00  0.00     0.037 A 
BRANCH  55  69
ATOM     69  C   UNL A   1      43.709  33.428  32.123  1.00  0.00     0.058 A 
ATOM     70  C   UNL A   1      43.474  33.083  33.481  1.00  0.00     0.135 A 
ATOM     71  C   UNL A   1      44.041  34.767  31.881  1.00  0.00     0.135 A 
ATOM     72  F   UNL A   1      43.223  31.810  33.833  1.00  0.00    -0.206 F 
ATOM     73  C   UNL A   1      43.408  34.028  34.499  1.00  0.00     0.059 A 
ATOM     74  C   UNL A   1      44.028  35.729  32.900  1.00  0.00     0.059 A 
ATOM     75  F   UNL A   1      44.305  35.201  30.643  1.00  0.00    -0.206 F 
ATOM     76  C   UNL A   1      43.645  35.360  34.190  1.00  0.00     0.060 A 
BRANCH  76  77
ATOM     77  S   UNL A   1      43.397  36.600  35.479  1.00  0.00     0.124 S 
ATOM     78  O   UNL A   1      42.124  36.177  36.053  1.00  0.00    -0.237 OA
ATOM     79  O   UNL A   1      44.569  36.405  36.330  1.00  0.00    -0.237 OA
ATOM     80  O   UNL A   1      43.376  37.855  34.737  1.00  0.00    -0.744 OA
ENDBRANCH  76  77
ENDBRANCH  55  69
BRANCH  56  81
ATOM     81  C   UNL A   1      42.901  24.125  27.275  1.00  0.00     0.058 A 
ATOM     82  C   UNL A   1      42.544  23.927  25.933  1.00  0.00     0.135 A 
ATOM     83  C   UNL A   1      43.691  23.072  27.818  1.00  0.00     0.135 A 
ATOM     84  F   UNL A   1      41.657  24.714  25.319  1.00  0.00    -0.206 F 
ATOM     85  C   UNL A   1      43.083  22.891  25.150  1.00  0.00     0.059 A 
ATOM     86  C   UNL A   1      44.268  22.058  27.058  1.00  0.00     0.059 A 
ATOM     87  F   UNL A   1      43.968  23.000  29.128  1.00  0.00    -0.206 F 
ATOM     88  C   UNL A   1      43.990  21.997  25.708  1.00  0.00     0.060 A 
BRANCH  88  89
ATOM     89  S   UNL A   1      44.898  20.834  24.671  1.00  0.00     0.124 S 
ATOM     90  O   UNL A   1      44.962  21.547  23.401  1.00  0.00    -0.237 OA
ATOM     91  O   UNL A   1      46.162  20.689  25.385  1.00  0.00    -0.237 OA
ATOM     92  O   UNL A   1      44.046  19.647  24.689  1.00  0.00    -0.744 OA
ENDBRANCH  88  89
ENDBRANCH  56  81
BRANCH  68  93
ATOM     93  C   UNL A   1      44.054  27.780  32.148  1.00  0.00     0.058 A 
ATOM     94  C   UNL A   1      42.699  28.107  32.312  1.00  0.00     0.135 A 
ATOM     95  C   UNL A   1      44.674  27.158  33.245  1.00  0.00     0.135 A 
ATOM     96  F   UNL A   1      42.030  28.707  31.314  1.00  0.00    -0.206 F 
ATOM     97  C   UNL A   1      42.003  27.833  33.494  1.00  0.00     0.059 A 
ATOM     98  C   UNL A   1      44.001  26.857  34.431  1.00  0.00     0.059 A 
ATOM     99  F   UNL A   1      45.966  26.839  33.197  1.00  0.00    -0.206 F 
ATOM    100  C   UNL A   1      42.661  27.205  34.551  1.00  0.00     0.060 A 
BRANCH 100 101
ATOM    101  S   UNL A   1      41.749  26.845  36.068  1.00  0.00     0.124 S 
ATOM    102  O   UNL A   1      40.716  25.925  35.602  1.00  0.00    -0.237 OA
ATOM    103  O   UNL A   1      42.782  26.257  36.915  1.00  0.00    -0.237 OA
ATOM    104  O   UNL A   1      41.263  28.154  36.499  1.00  0.00    -0.744 OA
ENDBRANCH 100 101
ENDBRANCH  68  93
ENDBRANCH  42  43
ENDBRANCH  34  37
ENDBRANCH  32  33
ENDBRANCH  31  32
ENDBRANCH  30  31
ENDBRANCH   3  30
TORSDOF 19
ENDMDL
MODEL 2
REMARK VINA RESULT:     -11.5      3.148      8.905
REMARK SMILES COc1ccc(C[NH2+]Cc2cccn2-c2sc(C)c(C)c2C(=O)NCCCNC(=O)c2ccc(-c3c4nc(c(-c5c(F)cc(S(=O)(=O)[O-])cc5F)c5ccc([nH]5)c(-c5c(F)cc(S(=O)(=O)[O-])cc5F)c5nc(c(-c6c(F)cc(S(=O)(=O)[O-])cc6F)c6ccc3[nH]6)C=C5)C=C4)cc2)cc1
REMARK SMILES IDX 22 1 23 2 24 3 21 5 15 6 16 7 17 8 19 9 18 10 20 11 14 12
REMARK SMILES IDX 10 13 11 14 12 15 13 16 9 17 8 18 7 21 6 22 3 23 4 24 98 25
REMARK SMILES IDX 5 26 97 27 2 28 1 29 25 30 26 31 27 32 28 33 29 34 30 36
REMARK SMILES IDX 31 37 32 38 96 39 33 40 95 41 34 42 35 43 36 44 89 45 37 46
REMARK SMILES IDX 94 47 88 48 90 49 38 50 93 51 87 52 86 53 39 55 73 56 52 57
REMARK SMILES IDX 72 58 53 59 56 60 71 61 91 62 54 63 55 64 70 66 92 67 57 68
REMARK SMILES IDX 40 69 41 70 50 71 42 72 43 73 49 74 51 75 44 76 45 77 46 78
REMARK SMILES IDX 47 79 48 80 74 81 75 82 84 83 76 84 77 85 83 86 85 87 78 88
REMARK SMILES IDX 79 89 80 90 81 91 82 92 58 93 59 94 68 95 60 96 61 97 67 98
REMARK SMILES IDX 69 99 62 100 63 101 64 102 65 103 66 104
REMARK H PARENT 24 4 8 19 8 20 28 35 90 54 56 65
REMARK Flexibility Score: inf
ROOT
ATOM      1  C   UNL A   1      31.509  27.755  26.974  1.00  0.00     0.254 C 
ATOM      2  O   UNL A   1      30.706  27.729  27.909  1.00  0.00    -0.269 OA
ATOM      3  N   UNL A   1      32.810  28.034  27.317  1.00  0.00    -0.352 N 
ATOM      4  H   UNL A   1      32.974  28.223  28.269  1.00  0.00     0.163 HD
ENDROOT
BRANCH   1   5
ATOM      5  C   UNL A   1      31.031  27.532  25.587  1.00  0.00     0.078 A 
ATOM      6  C   UNL A   1      30.699  26.371  24.892  1.00  0.00     0.113 A 
ATOM      7  S   UNL A   1      29.612  26.698  23.611  1.00  0.00    -0.122 S 
ATOM      8  C   UNL A   1      30.242  28.277  23.465  1.00  0.00     0.007 A 
ATOM      9  C   UNL A   1      30.795  28.677  24.674  1.00  0.00    -0.022 A 
ATOM     10  C   UNL A   1      30.060  29.028  22.190  1.00  0.00     0.057 C 
ATOM     11  C   UNL A   1      31.144  30.102  24.999  1.00  0.00     0.046 C 
BRANCH   6  12
ATOM     12  N   UNL A   1      30.860  25.007  25.145  1.00  0.00    -0.306 N 
ATOM     13  C   UNL A   1      31.096  23.966  24.223  1.00  0.00     0.078 A 
ATOM     14  C   UNL A   1      31.165  22.781  24.944  1.00  0.00     0.029 A 
ATOM     15  C   UNL A   1      30.926  23.071  26.301  1.00  0.00     0.020 A 
ATOM     16  C   UNL A   1      30.710  24.425  26.393  1.00  0.00     0.092 A 
BRANCH  13  17
ATOM     17  C   UNL A   1      31.388  24.119  22.749  1.00  0.00     0.316 C 
BRANCH  17  18
ATOM     18  N   UNL A   1      32.710  23.618  22.370  1.00  0.00    -0.338 N 
ATOM     19  H   UNL A   1      32.874  22.713  22.810  1.00  0.00     0.346 HD
ATOM     20  H   UNL A   1      32.765  23.506  21.358  1.00  0.00     0.346 HD
BRANCH  18  21
ATOM     21  C   UNL A   1      33.708  24.572  22.821  1.00  0.00     0.297 C 
BRANCH  21  22
ATOM     22  C   UNL A   1      34.826  24.019  23.657  1.00  0.00     0.006 A 
ATOM     23  C   UNL A   1      36.534  22.521  25.287  1.00  0.00     0.118 A 
ATOM     24  C   UNL A   1      36.610  22.405  23.898  1.00  0.00     0.047 A 
ATOM     25  C   UNL A   1      35.682  23.464  25.860  1.00  0.00     0.047 A 
ATOM     26  C   UNL A   1      35.757  23.148  23.084  1.00  0.00     0.013 A 
ATOM     27  C   UNL A   1      34.838  24.219  25.046  1.00  0.00     0.013 A 
BRANCH  23  28
ATOM     28  O   UNL A   1      37.346  21.685  26.006  1.00  0.00    -0.497 OA
ATOM     29  C   UNL A   1      38.732  22.008  25.910  1.00  0.00     0.278 C 
ENDBRANCH  23  28
ENDBRANCH  21  22
ENDBRANCH  18  21
ENDBRANCH  17  18
ENDBRANCH  13  17
ENDBRANCH   6  12
ENDBRANCH   1   5
BRANCH   3  30
ATOM     30  C   UNL A   1      33.954  28.086  26.463  1.00  0.00     0.118 C 
BRANCH  30  31
ATOM     31  C   UNL A   1      35.013  29.141  26.715  1.00  0.00     0.042 C 
BRANCH  31  32
ATOM     32  C   UNL A   1      34.907  29.786  28.081  1.00  0.00     0.118 C 
BRANCH  32  33
ATOM     33  N   UNL A   1      35.542  31.098  28.166  1.00  0.00    -0.352 N 
ATOM     34  C   UNL A   1      36.859  31.367  28.488  1.00  0.00     0.251 C 
ATOM     35  H   UNL A   1      34.970  31.876  27.973  1.00  0.00     0.163 HD
ATOM     36  O   UNL A   1      37.237  32.504  28.703  1.00  0.00    -0.269 OA
BRANCH  34  37
ATOM     37  C   UNL A   1      37.776  30.217  28.644  1.00  0.00     0.039 A 
ATOM     38  C   UNL A   1      38.769  30.023  27.680  1.00  0.00     0.014 A 
ATOM     39  C   UNL A   1      37.727  29.429  29.798  1.00  0.00     0.014 A 
ATOM     40  C   UNL A   1      39.792  29.118  27.940  1.00  0.00     0.010 A 
ATOM     41  C   UNL A   1      38.782  28.582  30.090  1.00  0.00     0.010 A 
ATOM     42  C   UNL A   1      39.828  28.444  29.170  1.00  0.00    -0.014 A 
BRANCH  42  43
ATOM     43  C   UNL A   1      41.038  27.673  29.537  1.00  0.00     0.031 A 
ATOM     44  C   UNL A   1      41.241  26.431  28.660  1.00  0.00     0.074 A 
ATOM     45  C   UNL A   1      41.776  28.155  30.579  1.00  0.00     0.049 A 
ATOM     46  N   UNL A   1      41.726  25.266  28.964  1.00  0.00    -0.248 NA
ATOM     47  C   UNL A   1      40.725  26.450  27.264  1.00  0.00     0.031 C 
ATOM     48  C   UNL A   1      41.447  29.392  31.314  1.00  0.00     0.029 A 
ATOM     49  N   UNL A   1      42.925  27.746  31.227  1.00  0.00    -0.354 N 
ATOM     50  C   UNL A   1      41.755  24.492  27.781  1.00  0.00     0.074 A 
ATOM     51  C   UNL A   1      41.000  25.224  26.808  1.00  0.00     0.031 C 
ATOM     52  C   UNL A   1      42.321  29.602  32.315  1.00  0.00     0.029 A 
ATOM     53  C   UNL A   1      43.298  28.535  32.347  1.00  0.00     0.049 A 
ATOM     54  H   UNL A   1      43.447  26.966  30.933  1.00  0.00     0.167 HD
ATOM     55  C   UNL A   1      42.520  23.366  27.637  1.00  0.00     0.037 A 
ATOM     56  C   UNL A   1      44.284  28.323  33.272  1.00  0.00     0.037 A 
ATOM     57  C   UNL A   1      43.294  23.157  28.817  1.00  0.00     0.049 A 
ATOM     58  C   UNL A   1      45.002  27.117  32.826  1.00  0.00     0.074 A 
ATOM     59  C   UNL A   1      42.987  22.731  30.081  1.00  0.00     0.029 A 
ATOM     60  N   UNL A   1      44.553  23.710  28.824  1.00  0.00    -0.354 N 
ATOM     61  N   UNL A   1      45.810  27.055  31.810  1.00  0.00    -0.248 NA
ATOM     62  C   UNL A   1      44.725  25.846  33.511  1.00  0.00     0.031 C 
ATOM     63  C   UNL A   1      43.894  23.433  30.905  1.00  0.00     0.029 A 
ATOM     64  C   UNL A   1      44.802  24.138  30.104  1.00  0.00     0.049 A 
ATOM     65  H   UNL A   1      45.162  23.786  28.055  1.00  0.00     0.167 HD
ATOM     66  C   UNL A   1      45.868  25.706  31.553  1.00  0.00     0.074 A 
ATOM     67  C   UNL A   1      45.463  25.030  32.764  1.00  0.00     0.031 C 
ATOM     68  C   UNL A   1      45.701  25.259  30.282  1.00  0.00     0.037 A 
BRANCH  55  69
ATOM     69  C   UNL A   1      42.894  22.516  26.445  1.00  0.00     0.058 A 
ATOM     70  C   UNL A   1      42.566  21.135  26.492  1.00  0.00     0.135 A 
ATOM     71  C   UNL A   1      43.827  22.890  25.469  1.00  0.00     0.135 A 
ATOM     72  F   UNL A   1      41.627  20.681  27.340  1.00  0.00    -0.206 F 
ATOM     73  C   UNL A   1      43.236  20.175  25.742  1.00  0.00     0.059 A 
ATOM     74  C   UNL A   1      44.479  21.944  24.668  1.00  0.00     0.059 A 
ATOM     75  F   UNL A   1      44.194  24.169  25.317  1.00  0.00    -0.206 F 
ATOM     76  C   UNL A   1      44.225  20.587  24.860  1.00  0.00     0.060 A 
BRANCH  76  77
ATOM     77  S   UNL A   1      45.201  19.325  24.013  1.00  0.00     0.124 S 
ATOM     78  O   UNL A   1      44.947  18.151  24.841  1.00  0.00    -0.237 OA
ATOM     79  O   UNL A   1      44.596  19.303  22.683  1.00  0.00    -0.237 OA
ATOM     80  O   UNL A   1      46.556  19.861  24.065  1.00  0.00    -0.744 OA
ENDBRANCH  76  77
ENDBRANCH  55  69
BRANCH  56  81
ATOM     81  C   UNL A   1      44.665  28.886  34.630  1.00  0.00     0.058 A 
ATOM     82  C   UNL A   1      43.822  29.026  35.742  1.00  0.00     0.135 A 
ATOM     83  C   UNL A   1      46.026  29.208  34.900  1.00  0.00     0.135 A 
ATOM     84  F   UNL A   1      42.493  28.947  35.630  1.00  0.00    -0.206 F 
ATOM     85  C   UNL A   1      44.308  29.266  37.039  1.00  0.00     0.059 A 
ATOM     86  C   UNL A   1      46.540  29.411  36.179  1.00  0.00     0.059 A 
ATOM     87  F   UNL A   1      46.936  29.309  33.922  1.00  0.00    -0.206 F 
ATOM     88  C   UNL A   1      45.676  29.399  37.254  1.00  0.00     0.060 A 
BRANCH  88  89
ATOM     89  S   UNL A   1      46.347  29.435  38.927  1.00  0.00     0.124 S 
ATOM     90  O   UNL A   1      46.815  30.812  39.036  1.00  0.00    -0.237 OA
ATOM     91  O   UNL A   1      45.188  29.090  39.744  1.00  0.00    -0.237 OA
ATOM     92  O   UNL A   1      47.390  28.413  38.883  1.00  0.00    -0.744 OA
ENDBRANCH  88  89
ENDBRANCH  56  81
BRANCH  68  93
ATOM     93  C   UNL A   1      46.123  26.249  29.212  1.00  0.00     0.058 A 
ATOM     94  C   UNL A   1      47.484  26.506  28.987  1.00  0.00     0.135 A 
ATOM     95  C   UNL A   1      45.220  27.027  28.468  1.00  0.00     0.135 A 
ATOM     96  F   UNL A   1      48.416  25.809  29.659  1.00  0.00    -0.206 F 
ATOM     97  C   UNL A   1      47.921  27.475  28.079  1.00  0.00     0.059 A 
ATOM     98  C   UNL A   1      45.625  27.991  27.543  1.00  0.00     0.059 A 
ATOM     99  F   UNL A   1      43.906  26.880  28.637  1.00  0.00    -0.206 F 
ATOM    100  C   UNL A   1      46.984  28.214  27.357  1.00  0.00     0.060 A 
BRANCH 100 101
ATOM    101  S   UNL A   1      47.560  29.456  26.178  1.00  0.00     0.124 S 
ATOM    102  O   UNL A   1      47.215  30.706  26.847  1.00  0.00    -0.237 OA
ATOM    103  O   UNL A   1      48.986  29.159  26.091  1.00  0.00    -0.237 OA
ATOM    104  O   UNL A   1      46.791  29.169  24.969  1.00  0.00    -0.744 OA
ENDBRANCH 100 101
ENDBRANCH  68  93
ENDBRANCH  42  43
ENDBRANCH  34  37
ENDBRANCH  32  33
ENDBRANCH  31  32
ENDBRANCH  30  31
ENDBRANCH   3  30
TORSDOF 19
ENDMDL
MODEL 3
REMARK VINA RESULT:     -11.1      1.661      2.353
REMARK SMILES COc1ccc(C[NH2+]Cc2cccn2-c2sc(C)c(C)c2C(=O)NCCCNC(=O)c2ccc(-c3c4nc(c(-c5c(F)cc(S(=O)(=O)[O-])cc5F)c5ccc([nH]5)c(-c5c(F)cc(S(=O)(=O)[O-])cc5F)c5nc(c(-c6c(F)cc(S(=O)(=O)[O-])cc6F)c6ccc3[nH]6)C=C5)C=C4)cc2)cc1
REMARK SMILES IDX 22 1 23 2 24 3 21 5 15 6 16 7 17 8 19 9 18 10 20 11 14 12
REMARK SMILES IDX 10 13 11 14 12 15 13 16 9 17 8 18 7 21 6 22 3 23 4 24 98 25
REMARK SMILES IDX 5 26 97 27 2 28 1 29 25 30 26 31 27 32 28 33 29 34 30 36
REMARK SMILES IDX 31 37 32 38 96 39 33 40 95 41 34 42 35 43 36 44 89 45 37 46
REMARK SMILES IDX 94 47 88 48 90 49 38 50 93 51 87 52 86 53 39 55 73 56 52 57
REMARK SMILES IDX 72 58 53 59 56 60 71 61 91 62 54 63 55 64 70 66 92 67 57 68
REMARK SMILES IDX 40 69 41 70 50 71 42 72 43 73 49 74 51 75 44 76 45 77 46 78
REMARK SMILES IDX 47 79 48 80 74 81 75 82 84 83 76 84 77 85 83 86 85 87 78 88
REMARK SMILES IDX 79 89 80 90 81 91 82 92 58 93 59 94 68 95 60 96 61 97 67 98
REMARK SMILES IDX 69 99 62 100 63 101 64 102 65 103 66 104
REMARK H PARENT 24 4 8 19 8 20 28 35 90 54 56 65
REMARK Flexibility Score: inf
ROOT
ATOM      1  C   UNL A   1      31.667  27.842  27.161  1.00  0.00     0.254 C 
ATOM      2  O   UNL A   1      30.857  27.834  28.090  1.00  0.00    -0.269 OA
ATOM      3  N   UNL A   1      32.930  28.281  27.479  1.00  0.00    -0.352 N 
ATOM      4  H   UNL A   1      33.061  28.582  28.407  1.00  0.00     0.163 HD
ENDROOT
BRANCH   1   5
ATOM      5  C   UNL A   1      31.233  27.430  25.803  1.00  0.00     0.078 A 
ATOM      6  C   UNL A   1      31.007  26.178  25.238  1.00  0.00     0.113 A 
ATOM      7  S   UNL A   1      29.921  26.274  23.918  1.00  0.00    -0.122 S 
ATOM      8  C   UNL A   1      30.427  27.873  23.604  1.00  0.00     0.007 A 
ATOM      9  C   UNL A   1      30.924  28.445  24.766  1.00  0.00    -0.022 A 
ATOM     10  C   UNL A   1      30.210  28.463  22.252  1.00  0.00     0.057 C 
ATOM     11  C   UNL A   1      31.154  29.921  24.936  1.00  0.00     0.046 C 
BRANCH   6  12
ATOM     12  N   UNL A   1      31.269  24.867  25.642  1.00  0.00    -0.306 N 
ATOM     13  C   UNL A   1      32.424  24.092  25.408  1.00  0.00     0.078 A 
ATOM     14  C   UNL A   1      32.214  22.847  25.987  1.00  0.00     0.029 A 
ATOM     15  C   UNL A   1      30.917  22.826  26.536  1.00  0.00     0.020 A 
ATOM     16  C   UNL A   1      30.351  24.053  26.284  1.00  0.00     0.092 A 
BRANCH  13  17
ATOM     17  C   UNL A   1      33.719  24.570  24.793  1.00  0.00     0.316 C 
BRANCH  17  18
ATOM     18  N   UNL A   1      34.826  23.631  24.983  1.00  0.00    -0.338 N 
ATOM     19  H   UNL A   1      34.523  22.857  25.573  1.00  0.00     0.346 HD
ATOM     20  H   UNL A   1      35.128  23.259  24.083  1.00  0.00     0.346 HD
BRANCH  18  21
ATOM     21  C   UNL A   1      35.921  24.337  25.624  1.00  0.00     0.297 C 
BRANCH  21  22
ATOM     22  C   UNL A   1      37.229  23.605  25.701  1.00  0.00     0.006 A 
ATOM     23  C   UNL A   1      39.443  22.028  26.359  1.00  0.00     0.118 A 
ATOM     24  C   UNL A   1      38.426  21.509  25.555  1.00  0.00     0.047 A 
ATOM     25  C   UNL A   1      39.408  23.367  26.744  1.00  0.00     0.047 A 
ATOM     26  C   UNL A   1      37.320  22.293  25.229  1.00  0.00     0.013 A 
ATOM     27  C   UNL A   1      38.310  24.157  26.406  1.00  0.00     0.013 A 
BRANCH  23  28
ATOM     28  O   UNL A   1      40.441  21.156  26.703  1.00  0.00    -0.497 OA
ATOM     29  C   UNL A   1      40.263  19.843  26.177  1.00  0.00     0.278 C 
ENDBRANCH  23  28
ENDBRANCH  21  22
ENDBRANCH  18  21
ENDBRANCH  17  18
ENDBRANCH  13  17
ENDBRANCH   6  12
ENDBRANCH   1   5
BRANCH   3  30
ATOM     30  C   UNL A   1      34.076  28.355  26.630  1.00  0.00     0.118 C 
BRANCH  30  31
ATOM     31  C   UNL A   1      34.978  29.570  26.716  1.00  0.00     0.042 C 
BRANCH  31  32
ATOM     32  C   UNL A   1      35.343  29.950  28.135  1.00  0.00     0.118 C 
BRANCH  32  33
ATOM     33  N   UNL A   1      34.635  31.125  28.634  1.00  0.00    -0.352 N 
ATOM     34  C   UNL A   1      35.075  32.016  29.596  1.00  0.00     0.251 C 
ATOM     35  H   UNL A   1      33.749  31.302  28.245  1.00  0.00     0.163 HD
ATOM     36  O   UNL A   1      34.331  32.857  30.063  1.00  0.00    -0.269 OA
BRANCH  34  37
ATOM     37  C   UNL A   1      36.459  31.859  30.096  1.00  0.00     0.039 A 
ATOM     38  C   UNL A   1      36.680  31.014  31.186  1.00  0.00     0.014 A 
ATOM     39  C   UNL A   1      37.525  32.443  29.406  1.00  0.00     0.014 A 
ATOM     40  C   UNL A   1      37.985  30.652  31.502  1.00  0.00     0.010 A 
ATOM     41  C   UNL A   1      38.819  32.027  29.675  1.00  0.00     0.010 A 
ATOM     42  C   UNL A   1      39.047  31.112  30.709  1.00  0.00    -0.014 A 
BRANCH  42  43
ATOM     43  C   UNL A   1      40.396  30.534  30.901  1.00  0.00     0.031 A 
ATOM     44  C   UNL A   1      41.297  31.409  31.783  1.00  0.00     0.074 A 
ATOM     45  C   UNL A   1      40.646  29.346  30.278  1.00  0.00     0.049 A 
ATOM     46  N   UNL A   1      42.577  31.614  31.721  1.00  0.00    -0.248 NA
ATOM     47  C   UNL A   1      40.665  32.268  32.820  1.00  0.00     0.031 C 
ATOM     48  C   UNL A   1      39.648  28.619  29.470  1.00  0.00     0.029 A 
ATOM     49  N   UNL A   1      41.738  28.507  30.189  1.00  0.00    -0.354 N 
ATOM     50  C   UNL A   1      42.929  32.454  32.803  1.00  0.00     0.074 A 
ATOM     51  C   UNL A   1      41.696  32.931  33.354  1.00  0.00     0.031 C 
ATOM     52  C   UNL A   1      40.180  27.501  28.943  1.00  0.00     0.029 A 
ATOM     53  C   UNL A   1      41.567  27.384  29.338  1.00  0.00     0.049 A 
ATOM     54  H   UNL A   1      42.574  28.674  30.682  1.00  0.00     0.167 HD
ATOM     55  C   UNL A   1      44.211  32.588  33.265  1.00  0.00     0.037 A 
ATOM     56  C   UNL A   1      42.483  26.453  28.927  1.00  0.00     0.037 A 
ATOM     57  C   UNL A   1      45.078  31.724  32.534  1.00  0.00     0.049 A 
ATOM     58  C   UNL A   1      43.730  26.775  29.642  1.00  0.00     0.074 A 
ATOM     59  C   UNL A   1      45.583  31.752  31.262  1.00  0.00     0.029 A 
ATOM     60  N   UNL A   1      45.281  30.473  33.069  1.00  0.00    -0.354 N 
ATOM     61  N   UNL A   1      43.946  26.571  30.908  1.00  0.00    -0.248 NA
ATOM     62  C   UNL A   1      44.797  27.471  28.908  1.00  0.00     0.031 C 
ATOM     63  C   UNL A   1      45.686  30.389  30.908  1.00  0.00     0.029 A 
ATOM     64  C   UNL A   1      45.381  29.594  32.019  1.00  0.00     0.049 A 
ATOM     65  H   UNL A   1      45.343  30.250  34.025  1.00  0.00     0.167 HD
ATOM     66  C   UNL A   1      45.015  27.396  31.168  1.00  0.00     0.074 A 
ATOM     67  C   UNL A   1      45.660  27.658  29.902  1.00  0.00     0.031 C 
ATOM     68  C   UNL A   1      44.976  28.222  32.244  1.00  0.00     0.037 A 
BRANCH  55  69
ATOM     69  C   UNL A   1      44.801  33.220  34.504  1.00  0.00     0.058 A 
ATOM     70  C   UNL A   1      44.482  32.635  35.758  1.00  0.00     0.135 A 
ATOM     71  C   UNL A   1      45.340  34.513  34.552  1.00  0.00     0.135 A 
ATOM     72  F   UNL A   1      44.030  31.371  35.830  1.00  0.00    -0.206 F 
ATOM     73  C   UNL A   1      44.535  33.340  36.955  1.00  0.00     0.059 A 
ATOM     74  C   UNL A   1      45.448  35.225  35.753  1.00  0.00     0.059 A 
ATOM     75  F   UNL A   1      45.699  35.155  33.433  1.00  0.00    -0.206 F 
ATOM     76  C   UNL A   1      44.981  34.654  36.937  1.00  0.00     0.060 A 
BRANCH  76  77
ATOM     77  S   UNL A   1      44.892  35.613  38.464  1.00  0.00     0.124 S 
ATOM     78  O   UNL A   1      45.759  34.841  39.348  1.00  0.00    -0.237 OA
ATOM     79  O   UNL A   1      45.411  36.914  38.048  1.00  0.00    -0.237 OA
ATOM     80  O   UNL A   1      43.470  35.593  38.789  1.00  0.00    -0.744 OA
ENDBRANCH  76  77
ENDBRANCH  55  69
BRANCH  56  81
ATOM     81  C   UNL A   1      42.561  25.371  27.865  1.00  0.00     0.058 A 
ATOM     82  C   UNL A   1      42.523  25.561  26.476  1.00  0.00     0.135 A 
ATOM     83  C   UNL A   1      42.818  24.025  28.251  1.00  0.00     0.135 A 
ATOM     84  F   UNL A   1      42.113  26.712  25.936  1.00  0.00    -0.206 F 
ATOM     85  C   UNL A   1      42.900  24.563  25.562  1.00  0.00     0.059 A 
ATOM     86  C   UNL A   1      43.232  23.027  27.371  1.00  0.00     0.059 A 
ATOM     87  F   UNL A   1      42.709  23.621  29.524  1.00  0.00    -0.206 F 
ATOM     88  C   UNL A   1      43.310  23.316  26.025  1.00  0.00     0.060 A 
BRANCH  88  89
ATOM     89  S   UNL A   1      44.052  22.114  24.904  1.00  0.00     0.124 S 
ATOM     90  O   UNL A   1      43.430  20.869  25.339  1.00  0.00    -0.237 OA
ATOM     91  O   UNL A   1      43.644  22.606  23.592  1.00  0.00    -0.237 OA
ATOM     92  O   UNL A   1      45.480  22.242  25.188  1.00  0.00    -0.744 OA
ENDBRANCH  88  89
ENDBRANCH  56  81
BRANCH  68  93
ATOM     93  C   UNL A   1      44.118  27.715  33.389  1.00  0.00     0.058 A 
ATOM     94  C   UNL A   1      44.581  26.675  34.209  1.00  0.00     0.135 A 
ATOM     95  C   UNL A   1      42.809  28.160  33.639  1.00  0.00     0.135 A 
ATOM     96  F   UNL A   1      45.821  26.187  34.036  1.00  0.00    -0.206 F 
ATOM     97  C   UNL A   1      43.792  26.111  35.217  1.00  0.00     0.059 A 
ATOM     98  C   UNL A   1      42.003  27.628  34.649  1.00  0.00     0.059 A 
ATOM     99  F   UNL A   1      42.269  29.121  32.891  1.00  0.00    -0.206 F 
ATOM    100  C   UNL A   1      42.502  26.595  35.433  1.00  0.00     0.060 A 
BRANCH 100 101
ATOM    101  S   UNL A   1      41.495  25.868  36.745  1.00  0.00     0.124 S 
ATOM    102  O   UNL A   1      40.513  25.094  35.993  1.00  0.00    -0.237 OA
ATOM    103  O   UNL A   1      42.479  25.087  37.488  1.00  0.00    -0.237 OA
ATOM    104  O   UNL A   1      40.960  27.028  37.454  1.00  0.00    -0.744 OA
ENDBRANCH 100 101
ENDBRANCH  68  93
ENDBRANCH  42  43
ENDBRANCH  34  37
ENDBRANCH  32  33
ENDBRANCH  31  32
ENDBRANCH  30  31
ENDBRANCH   3  30
TORSDOF 19
ENDMDL
