MODEL 1
REMARK VINA RESULT:     -10.9      0.000      0.000
REMARK SMILES CC(C)N(CC(=O)NCCCNC(=O)c1ccc(-c2c3nc(c(-c4c(F)cc(S(=O)(=O)[O-])cc4F)c4ccc([nH]4)c(-c4c(F)cc(S(=O)(=O)[O-])cc4F)c4nc(c(-c5c(F)cc(S(=O)(=O)[O-])cc5F)c5ccc2[nH]5)C=C4)C=C3)cc1)C(=O)NC1C(C)(C)C1(C)C
REMARK SMILES IDX 10 1 9 2 8 3 6 4 7 5 5 7 4 8 2 9 1 10 3 11 81 12 82 13 83 14
REMARK SMILES IDX 84 16 85 17 88 18 86 19 87 20 89 21 90 22 11 23 12 24 13 25
REMARK SMILES IDX 14 27 15 28 16 29 80 30 17 31 79 32 18 33 19 34 20 35 73 36
REMARK SMILES IDX 21 37 78 38 72 39 74 40 22 41 77 42 71 43 70 44 23 46 57 47
REMARK SMILES IDX 36 48 56 49 37 50 40 51 55 52 75 53 38 54 39 55 54 57 76 58
REMARK SMILES IDX 41 59 24 60 25 61 34 62 26 63 27 64 33 65 35 66 28 67 29 68
REMARK SMILES IDX 30 69 31 70 32 71 58 72 59 73 68 74 60 75 61 76 67 77 69 78
REMARK SMILES IDX 62 79 63 80 64 81 65 82 66 83 42 84 43 85 52 86 44 87 45 88
REMARK SMILES IDX 51 89 53 90 46 91 47 92 48 93 49 94 50 95
REMARK H PARENT 8 6 83 15 12 26 74 45 40 56
REMARK Flexibility Score: inf
ROOT
ATOM      1  C   UNL A   1      34.007  28.548  25.470  1.00  0.00     0.042 C 
ENDROOT
BRANCH   1   2
ATOM      2  C   UNL A   1      33.055  27.947  24.441  1.00  0.00     0.117 C 
BRANCH   2   3
ATOM      3  N   UNL A   1      33.695  27.145  23.420  1.00  0.00    -0.354 N 
ATOM      4  C   UNL A   1      33.159  26.168  22.637  1.00  0.00     0.239 C 
ATOM      5  O   UNL A   1      33.669  26.005  21.520  1.00  0.00    -0.273 OA
ATOM      6  H   UNL A   1      34.650  27.332  23.271  1.00  0.00     0.163 HD
BRANCH   4   7
ATOM      7  C   UNL A   1      31.867  25.422  22.985  1.00  0.00     0.221 C 
BRANCH   7   8
ATOM      8  N   UNL A   1      31.855  24.417  24.049  1.00  0.00    -0.313 N 
BRANCH   8   9
ATOM      9  C   UNL A   1      31.084  24.800  25.269  1.00  0.00     0.081 C 
ATOM     10  C   UNL A   1      32.001  25.056  26.470  1.00  0.00     0.031 C 
ATOM     11  C   UNL A   1      30.090  25.955  25.099  1.00  0.00     0.031 C 
ENDBRANCH   8   9
BRANCH   8  12
ATOM     12  C   UNL A   1      32.135  23.086  23.848  1.00  0.00     0.318 C 
ATOM     13  O   UNL A   1      31.258  22.278  23.525  1.00  0.00    -0.249 OA
ATOM     14  N   UNL A   1      33.369  22.538  23.952  1.00  0.00    -0.334 N 
ATOM     15  H   UNL A   1      33.350  21.582  23.714  1.00  0.00     0.165 HD
BRANCH  14  16
ATOM     16  C   UNL A   1      34.690  22.949  24.307  1.00  0.00     0.096 C 
ATOM     17  C   UNL A   1      35.249  22.873  25.723  1.00  0.00    -0.007 C 
ATOM     18  C   UNL A   1      35.738  21.879  24.669  1.00  0.00    -0.007 C 
ATOM     19  C   UNL A   1      36.245  23.905  26.210  1.00  0.00     0.014 C 
ATOM     20  C   UNL A   1      34.349  22.391  26.834  1.00  0.00     0.014 C 
ATOM     21  C   UNL A   1      35.389  20.421  24.877  1.00  0.00     0.014 C 
ATOM     22  C   UNL A   1      37.129  22.046  24.087  1.00  0.00     0.014 C 
ENDBRANCH  14  16
ENDBRANCH   8  12
ENDBRANCH   7   8
ENDBRANCH   4   7
ENDBRANCH   2   3
ENDBRANCH   1   2
BRANCH   1  23
ATOM     23  C   UNL A   1      33.511  28.570  26.911  1.00  0.00     0.118 C 
BRANCH  23  24
ATOM     24  N   UNL A   1      33.465  29.898  27.499  1.00  0.00    -0.352 N 
ATOM     25  C   UNL A   1      34.388  30.617  28.213  1.00  0.00     0.251 C 
ATOM     26  H   UNL A   1      32.613  30.369  27.357  1.00  0.00     0.163 HD
ATOM     27  O   UNL A   1      34.038  31.698  28.697  1.00  0.00    -0.269 OA
BRANCH  25  28
ATOM     28  C   UNL A   1      35.764  30.126  28.450  1.00  0.00     0.039 A 
ATOM     29  C   UNL A   1      36.661  30.136  27.375  1.00  0.00     0.014 A 
ATOM     30  C   UNL A   1      36.177  29.609  29.680  1.00  0.00     0.014 A 
ATOM     31  C   UNL A   1      37.981  29.711  27.553  1.00  0.00     0.010 A 
ATOM     32  C   UNL A   1      37.513  29.253  29.878  1.00  0.00     0.010 A 
ATOM     33  C   UNL A   1      38.434  29.311  28.820  1.00  0.00    -0.014 A 
BRANCH  33  34
ATOM     34  C   UNL A   1      39.865  28.985  29.064  1.00  0.00     0.031 A 
ATOM     35  C   UNL A   1      40.810  30.030  29.594  1.00  0.00     0.074 A 
ATOM     36  C   UNL A   1      40.329  27.759  28.746  1.00  0.00     0.049 A 
ATOM     37  N   UNL A   1      42.107  29.965  29.757  1.00  0.00    -0.248 NA
ATOM     38  C   UNL A   1      40.222  31.324  29.977  1.00  0.00     0.031 C 
ATOM     39  C   UNL A   1      39.522  26.661  28.208  1.00  0.00     0.029 A 
ATOM     40  N   UNL A   1      41.597  27.232  28.811  1.00  0.00    -0.354 N 
ATOM     41  C   UNL A   1      42.493  31.204  30.253  1.00  0.00     0.074 A 
ATOM     42  C   UNL A   1      41.298  32.019  30.322  1.00  0.00     0.031 C 
ATOM     43  C   UNL A   1      40.307  25.592  28.006  1.00  0.00     0.029 A 
ATOM     44  C   UNL A   1      41.682  25.939  28.348  1.00  0.00     0.049 A 
ATOM     45  H   UNL A   1      42.371  27.732  29.157  1.00  0.00     0.167 HD
ATOM     46  C   UNL A   1      43.725  31.620  30.634  1.00  0.00     0.037 A 
ATOM     47  C   UNL A   1      42.750  25.131  28.189  1.00  0.00     0.037 A 
ATOM     48  C   UNL A   1      44.910  30.801  30.575  1.00  0.00     0.049 A 
ATOM     49  C   UNL A   1      44.117  25.639  28.562  1.00  0.00     0.074 A 
ATOM     50  C   UNL A   1      46.198  31.123  30.971  1.00  0.00     0.029 A 
ATOM     51  N   UNL A   1      44.956  29.503  30.089  1.00  0.00    -0.354 N 
ATOM     52  N   UNL A   1      44.456  26.801  29.067  1.00  0.00    -0.248 NA
ATOM     53  C   UNL A   1      45.250  24.729  28.337  1.00  0.00     0.031 C 
ATOM     54  C   UNL A   1      47.030  30.037  30.681  1.00  0.00     0.029 A 
ATOM     55  C   UNL A   1      46.253  29.020  30.151  1.00  0.00     0.049 A 
ATOM     56  H   UNL A   1      44.182  29.000  29.749  1.00  0.00     0.167 HD
ATOM     57  C   UNL A   1      45.835  26.751  29.243  1.00  0.00     0.074 A 
ATOM     58  C   UNL A   1      46.265  25.441  28.805  1.00  0.00     0.031 C 
ATOM     59  C   UNL A   1      46.668  27.707  29.722  1.00  0.00     0.037 A 
BRANCH  46  60
ATOM     60  C   UNL A   1      43.862  33.023  31.161  1.00  0.00     0.058 A 
ATOM     61  C   UNL A   1      43.928  34.127  30.297  1.00  0.00     0.135 A 
ATOM     62  C   UNL A   1      43.866  33.272  32.544  1.00  0.00     0.135 A 
ATOM     63  F   UNL A   1      43.941  33.945  28.967  1.00  0.00    -0.206 F 
ATOM     64  C   UNL A   1      44.017  35.427  30.784  1.00  0.00     0.059 A 
ATOM     65  C   UNL A   1      43.926  34.567  33.052  1.00  0.00     0.059 A 
ATOM     66  F   UNL A   1      43.803  32.254  33.415  1.00  0.00    -0.206 F 
ATOM     67  C   UNL A   1      44.013  35.638  32.164  1.00  0.00     0.060 A 
BRANCH  67  68
ATOM     68  S   UNL A   1      44.114  37.333  32.776  1.00  0.00     0.124 S 
ATOM     69  O   UNL A   1      44.012  38.096  31.535  1.00  0.00    -0.237 OA
ATOM     70  O   UNL A   1      42.956  37.413  33.663  1.00  0.00    -0.237 OA
ATOM     71  O   UNL A   1      45.412  37.382  33.438  1.00  0.00    -0.744 OA
ENDBRANCH  67  68
ENDBRANCH  46  60
BRANCH  47  72
ATOM     72  C   UNL A   1      42.578  23.757  27.644  1.00  0.00     0.058 A 
ATOM     73  C   UNL A   1      42.441  22.655  28.501  1.00  0.00     0.135 A 
ATOM     74  C   UNL A   1      42.564  23.514  26.262  1.00  0.00     0.135 A 
ATOM     75  F   UNL A   1      42.456  22.835  29.831  1.00  0.00    -0.206 F 
ATOM     76  C   UNL A   1      42.322  21.359  28.010  1.00  0.00     0.059 A 
ATOM     77  C   UNL A   1      42.417  22.231  25.746  1.00  0.00     0.059 A 
ATOM     78  F   UNL A   1      42.676  24.536  25.398  1.00  0.00    -0.206 F 
ATOM     79  C   UNL A   1      42.313  21.157  26.629  1.00  0.00     0.060 A 
BRANCH  79  80
ATOM     80  S   UNL A   1      42.134  19.473  26.001  1.00  0.00     0.124 S 
ATOM     81  O   UNL A   1      43.046  19.487  24.863  1.00  0.00    -0.237 OA
ATOM     82  O   UNL A   1      42.555  18.672  27.147  1.00  0.00    -0.237 OA
ATOM     83  O   UNL A   1      40.715  19.387  25.673  1.00  0.00    -0.744 OA
ENDBRANCH  79  80
ENDBRANCH  47  72
BRANCH  59  84
ATOM     84  C   UNL A   1      48.130  27.367  29.826  1.00  0.00     0.058 A 
ATOM     85  C   UNL A   1      49.044  27.733  28.826  1.00  0.00     0.135 A 
ATOM     86  C   UNL A   1      48.631  26.723  30.970  1.00  0.00     0.135 A 
ATOM     87  F   UNL A   1      48.615  28.341  27.708  1.00  0.00    -0.206 F 
ATOM     88  C   UNL A   1      50.403  27.462  28.950  1.00  0.00     0.059 A 
ATOM     89  C   UNL A   1      49.990  26.467  31.127  1.00  0.00     0.059 A 
ATOM     90  F   UNL A   1      47.801  26.357  31.959  1.00  0.00    -0.206 F 
ATOM     91  C   UNL A   1      50.868  26.835  30.108  1.00  0.00     0.060 A 
BRANCH  91  92
ATOM     92  S   UNL A   1      52.641  26.542  30.278  1.00  0.00     0.124 S 
ATOM     93  O   UNL A   1      52.996  26.093  28.936  1.00  0.00    -0.237 OA
ATOM     94  O   UNL A   1      53.140  27.859  30.660  1.00  0.00    -0.237 OA
ATOM     95  O   UNL A   1      52.719  25.523  31.322  1.00  0.00    -0.744 OA
ENDBRANCH  91  92
ENDBRANCH  59  84
ENDBRANCH  33  34
ENDBRANCH  25  28
ENDBRANCH  23  24
ENDBRANCH   1  23
TORSDOF 17
ENDMDL
MODEL 2
REMARK VINA RESULT:     -10.8      1.168      2.028
REMARK SMILES CC(C)N(CC(=O)NCCCNC(=O)c1ccc(-c2c3nc(c(-c4c(F)cc(S(=O)(=O)[O-])cc4F)c4ccc([nH]4)c(-c4c(F)cc(S(=O)(=O)[O-])cc4F)c4nc(c(-c5c(F)cc(S(=O)(=O)[O-])cc5F)c5ccc2[nH]5)C=C4)C=C3)cc1)C(=O)NC1C(C)(C)C1(C)C
REMARK SMILES IDX 10 1 9 2 8 3 6 4 7 5 5 7 4 8 2 9 1 10 3 11 81 12 82 13 83 14
REMARK SMILES IDX 84 16 85 17 88 18 86 19 87 20 89 21 90 22 11 23 12 24 13 25
REMARK SMILES IDX 14 27 15 28 16 29 80 30 17 31 79 32 18 33 19 34 20 35 73 36
REMARK SMILES IDX 21 37 78 38 72 39 74 40 22 41 77 42 71 43 70 44 23 46 57 47
REMARK SMILES IDX 36 48 56 49 37 50 40 51 55 52 75 53 38 54 39 55 54 57 76 58
REMARK SMILES IDX 41 59 24 60 25 61 34 62 26 63 27 64 33 65 35 66 28 67 29 68
REMARK SMILES IDX 30 69 31 70 32 71 58 72 59 73 68 74 60 75 61 76 67 77 69 78
REMARK SMILES IDX 62 79 63 80 64 81 65 82 66 83 42 84 43 85 52 86 44 87 45 88
REMARK SMILES IDX 51 89 53 90 46 91 47 92 48 93 49 94 50 95
REMARK H PARENT 8 6 83 15 12 26 74 45 40 56
REMARK Flexibility Score: inf
ROOT
ATOM      1  C   UNL A   1      32.086  27.715  26.998  1.00  0.00     0.042 C 
ENDROOT
BRANCH   1   2
ATOM      2  C   UNL A   1      32.002  26.567  25.999  1.00  0.00     0.117 C 
BRANCH   2   3
ATOM      3  N   UNL A   1      31.346  25.377  26.497  1.00  0.00    -0.354 N 
ATOM      4  C   UNL A   1      31.867  24.137  26.712  1.00  0.00     0.239 C 
ATOM      5  O   UNL A   1      31.342  23.458  27.606  1.00  0.00    -0.273 OA
ATOM      6  H   UNL A   1      30.390  25.478  26.710  1.00  0.00     0.163 HD
BRANCH   4   7
ATOM      7  C   UNL A   1      33.160  23.640  26.058  1.00  0.00     0.221 C 
BRANCH   7   8
ATOM      8  N   UNL A   1      33.112  22.632  24.998  1.00  0.00    -0.313 N 
BRANCH   8   9
ATOM      9  C   UNL A   1      32.849  23.168  23.629  1.00  0.00     0.081 C 
ATOM     10  C   UNL A   1      31.351  23.216  23.310  1.00  0.00     0.031 C 
ATOM     11  C   UNL A   1      33.510  24.511  23.297  1.00  0.00     0.031 C 
ENDBRANCH   8   9
BRANCH   8  12
ATOM     12  C   UNL A   1      33.664  21.377  25.110  1.00  0.00     0.318 C 
ATOM     13  O   UNL A   1      33.008  20.355  24.882  1.00  0.00    -0.249 OA
ATOM     14  N   UNL A   1      34.953  21.133  25.444  1.00  0.00    -0.334 N 
ATOM     15  H   UNL A   1      35.147  20.168  25.412  1.00  0.00     0.165 HD
BRANCH  14  16
ATOM     16  C   UNL A   1      36.112  21.875  25.829  1.00  0.00     0.096 C 
ATOM     17  C   UNL A   1      37.527  21.526  25.387  1.00  0.00    -0.007 C 
ATOM     18  C   UNL A   1      36.831  22.744  24.779  1.00  0.00    -0.007 C 
ATOM     19  C   UNL A   1      38.704  21.793  26.302  1.00  0.00     0.014 C 
ATOM     20  C   UNL A   1      37.741  20.295  24.539  1.00  0.00     0.014 C 
ATOM     21  C   UNL A   1      36.504  22.690  23.302  1.00  0.00     0.014 C 
ATOM     22  C   UNL A   1      37.265  24.133  25.208  1.00  0.00     0.014 C 
ENDBRANCH  14  16
ENDBRANCH   8  12
ENDBRANCH   7   8
ENDBRANCH   4   7
ENDBRANCH   2   3
ENDBRANCH   1   2
BRANCH   1  23
ATOM     23  C   UNL A   1      33.479  28.274  27.264  1.00  0.00     0.118 C 
BRANCH  23  24
ATOM     24  N   UNL A   1      33.495  29.689  27.593  1.00  0.00    -0.352 N 
ATOM     25  C   UNL A   1      34.471  30.498  28.114  1.00  0.00     0.251 C 
ATOM     26  H   UNL A   1      32.648  30.153  27.405  1.00  0.00     0.163 HD
ATOM     27  O   UNL A   1      34.171  31.661  28.402  1.00  0.00    -0.269 OA
BRANCH  25  28
ATOM     28  C   UNL A   1      35.845  30.015  28.375  1.00  0.00     0.039 A 
ATOM     29  C   UNL A   1      36.771  30.066  27.326  1.00  0.00     0.014 A 
ATOM     30  C   UNL A   1      36.230  29.466  29.600  1.00  0.00     0.014 A 
ATOM     31  C   UNL A   1      38.091  29.650  27.529  1.00  0.00     0.010 A 
ATOM     32  C   UNL A   1      37.564  29.119  29.825  1.00  0.00     0.010 A 
ATOM     33  C   UNL A   1      38.513  29.218  28.795  1.00  0.00    -0.014 A 
BRANCH  33  34
ATOM     34  C   UNL A   1      39.940  28.900  29.070  1.00  0.00     0.031 A 
ATOM     35  C   UNL A   1      40.869  29.952  29.616  1.00  0.00     0.074 A 
ATOM     36  C   UNL A   1      40.418  27.676  28.764  1.00  0.00     0.049 A 
ATOM     37  N   UNL A   1      42.162  29.894  29.805  1.00  0.00    -0.248 NA
ATOM     38  C   UNL A   1      40.266  31.243  29.983  1.00  0.00     0.031 C 
ATOM     39  C   UNL A   1      39.627  26.572  28.214  1.00  0.00     0.029 A 
ATOM     40  N   UNL A   1      41.686  27.156  28.857  1.00  0.00    -0.354 N 
ATOM     41  C   UNL A   1      42.532  31.137  30.305  1.00  0.00     0.074 A 
ATOM     42  C   UNL A   1      41.331  31.945  30.348  1.00  0.00     0.031 C 
ATOM     43  C   UNL A   1      40.422  25.507  28.031  1.00  0.00     0.029 A 
ATOM     44  C   UNL A   1      41.788  25.862  28.399  1.00  0.00     0.049 A 
ATOM     45  H   UNL A   1      42.450  27.661  29.218  1.00  0.00     0.167 HD
ATOM     46  C   UNL A   1      43.754  31.560  30.711  1.00  0.00     0.037 A 
ATOM     47  C   UNL A   1      42.863  25.060  28.266  1.00  0.00     0.037 A 
ATOM     48  C   UNL A   1      44.944  30.748  30.678  1.00  0.00     0.049 A 
ATOM     49  C   UNL A   1      44.220  25.576  28.664  1.00  0.00     0.074 A 
ATOM     50  C   UNL A   1      46.221  31.078  31.099  1.00  0.00     0.029 A 
ATOM     51  N   UNL A   1      45.007  29.449  30.197  1.00  0.00    -0.354 N 
ATOM     52  N   UNL A   1      44.542  26.741  29.173  1.00  0.00    -0.248 NA
ATOM     53  C   UNL A   1      45.362  24.671  28.465  1.00  0.00     0.031 C 
ATOM     54  C   UNL A   1      47.065  29.995  30.829  1.00  0.00     0.029 A 
ATOM     55  C   UNL A   1      46.305  28.972  30.287  1.00  0.00     0.049 A 
ATOM     56  H   UNL A   1      44.242  28.940  29.843  1.00  0.00     0.167 HD
ATOM     57  C   UNL A   1      45.917  26.699  29.377  1.00  0.00     0.074 A 
ATOM     58  C   UNL A   1      46.363  25.390  28.952  1.00  0.00     0.031 C 
ATOM     59  C   UNL A   1      46.735  27.660  29.870  1.00  0.00     0.037 A 
BRANCH  46  60
ATOM     60  C   UNL A   1      43.872  32.965  31.236  1.00  0.00     0.058 A 
ATOM     61  C   UNL A   1      44.129  34.048  30.381  1.00  0.00     0.135 A 
ATOM     62  C   UNL A   1      43.667  33.241  32.598  1.00  0.00     0.135 A 
ATOM     63  F   UNL A   1      44.345  33.841  29.073  1.00  0.00    -0.206 F 
ATOM     64  C   UNL A   1      44.202  35.352  30.860  1.00  0.00     0.059 A 
ATOM     65  C   UNL A   1      43.708  34.542  33.095  1.00  0.00     0.059 A 
ATOM     66  F   UNL A   1      43.417  32.244  33.460  1.00  0.00    -0.206 F 
ATOM     67  C   UNL A   1      43.988  35.590  32.219  1.00  0.00     0.060 A 
BRANCH  67  68
ATOM     68  S   UNL A   1      44.071  37.290  32.819  1.00  0.00     0.124 S 
ATOM     69  O   UNL A   1      42.991  37.305  33.801  1.00  0.00    -0.237 OA
ATOM     70  O   UNL A   1      45.423  37.362  33.367  1.00  0.00    -0.237 OA
ATOM     71  O   UNL A   1      43.840  38.088  31.620  1.00  0.00    -0.744 OA
ENDBRANCH  67  68
ENDBRANCH  46  60
BRANCH  47  72
ATOM     72  C   UNL A   1      42.709  23.683  27.721  1.00  0.00     0.058 A 
ATOM     73  C   UNL A   1      42.784  23.443  26.340  1.00  0.00     0.135 A 
ATOM     74  C   UNL A   1      42.469  22.585  28.562  1.00  0.00     0.135 A 
ATOM     75  F   UNL A   1      43.004  24.462  25.494  1.00  0.00    -0.206 F 
ATOM     76  C   UNL A   1      42.600  22.170  25.810  1.00  0.00     0.059 A 
ATOM     77  C   UNL A   1      42.310  21.298  28.057  1.00  0.00     0.059 A 
ATOM     78  F   UNL A   1      42.403  22.758  29.891  1.00  0.00    -0.206 F 
ATOM     79  C   UNL A   1      42.361  21.104  26.678  1.00  0.00     0.060 A 
BRANCH  79  80
ATOM     80  S   UNL A   1      42.148  19.452  25.981  1.00  0.00     0.124 S 
ATOM     81  O   UNL A   1      40.704  19.403  25.780  1.00  0.00    -0.237 OA
ATOM     82  O   UNL A   1      42.958  19.522  24.769  1.00  0.00    -0.237 OA
ATOM     83  O   UNL A   1      42.670  18.577  27.025  1.00  0.00    -0.744 OA
ENDBRANCH  79  80
ENDBRANCH  47  72
BRANCH  59  84
ATOM     84  C   UNL A   1      48.197  27.328  30.005  1.00  0.00     0.058 A 
ATOM     85  C   UNL A   1      49.116  27.629  28.989  1.00  0.00     0.135 A 
ATOM     86  C   UNL A   1      48.691  26.761  31.192  1.00  0.00     0.135 A 
ATOM     87  F   UNL A   1      48.694  28.161  27.831  1.00  0.00    -0.206 F 
ATOM     88  C   UNL A   1      50.475  27.367  29.139  1.00  0.00     0.059 A 
ATOM     89  C   UNL A   1      50.049  26.517  31.373  1.00  0.00     0.059 A 
ATOM     90  F   UNL A   1      47.855  26.461  32.198  1.00  0.00    -0.206 F 
ATOM     91  C   UNL A   1      50.933  26.817  30.338  1.00  0.00     0.060 A 
BRANCH  91  92
ATOM     92  S   UNL A   1      52.704  26.536  30.538  1.00  0.00     0.124 S 
ATOM     93  O   UNL A   1      52.723  25.406  31.460  1.00  0.00    -0.237 OA
ATOM     94  O   UNL A   1      53.131  26.248  29.172  1.00  0.00    -0.237 OA
ATOM     95  O   UNL A   1      53.190  27.800  31.085  1.00  0.00    -0.744 OA
ENDBRANCH  91  92
ENDBRANCH  59  84
ENDBRANCH  33  34
ENDBRANCH  25  28
ENDBRANCH  23  24
ENDBRANCH   1  23
TORSDOF 17
ENDMDL
MODEL 3
REMARK VINA RESULT:     -10.5      2.676      3.525
REMARK SMILES CC(C)N(CC(=O)NCCCNC(=O)c1ccc(-c2c3nc(c(-c4c(F)cc(S(=O)(=O)[O-])cc4F)c4ccc([nH]4)c(-c4c(F)cc(S(=O)(=O)[O-])cc4F)c4nc(c(-c5c(F)cc(S(=O)(=O)[O-])cc5F)c5ccc2[nH]5)C=C4)C=C3)cc1)C(=O)NC1C(C)(C)C1(C)C
REMARK SMILES IDX 10 1 9 2 8 3 6 4 7 5 5 7 4 8 2 9 1 10 3 11 81 12 82 13 83 14
REMARK SMILES IDX 84 16 85 17 88 18 86 19 87 20 89 21 90 22 11 23 12 24 13 25
REMARK SMILES IDX 14 27 15 28 16 29 80 30 17 31 79 32 18 33 19 34 20 35 73 36
REMARK SMILES IDX 21 37 78 38 72 39 74 40 22 41 77 42 71 43 70 44 23 46 57 47
REMARK SMILES IDX 36 48 56 49 37 50 40 51 55 52 75 53 38 54 39 55 54 57 76 58
REMARK SMILES IDX 41 59 24 60 25 61 34 62 26 63 27 64 33 65 35 66 28 67 29 68
REMARK SMILES IDX 30 69 31 70 32 71 58 72 59 73 68 74 60 75 61 76 67 77 69 78
REMARK SMILES IDX 62 79 63 80 64 81 65 82 66 83 42 84 43 85 52 86 44 87 45 88
REMARK SMILES IDX 51 89 53 90 46 91 47 92 48 93 49 94 50 95
REMARK H PARENT 8 6 83 15 12 26 74 45 40 56
REMARK Flexibility Score: inf
ROOT
ATOM      1  C   UNL A   1      34.197  31.202  27.575  1.00  0.00     0.042 C 
ENDROOT
BRANCH   1   2
ATOM      2  C   UNL A   1      33.914  29.824  26.988  1.00  0.00     0.117 C 
BRANCH   2   3
ATOM      3  N   UNL A   1      32.572  29.332  27.217  1.00  0.00    -0.354 N 
ATOM      4  C   UNL A   1      32.106  28.054  27.157  1.00  0.00     0.239 C 
ATOM      5  O   UNL A   1      31.140  27.777  27.882  1.00  0.00    -0.273 OA
ATOM      6  H   UNL A   1      31.903  30.018  27.447  1.00  0.00     0.163 HD
BRANCH   4   7
ATOM      7  C   UNL A   1      32.825  26.928  26.409  1.00  0.00     0.221 C 
BRANCH   7   8
ATOM      8  N   UNL A   1      32.073  25.785  25.889  1.00  0.00    -0.313 N 
BRANCH   8   9
ATOM      9  C   UNL A   1      31.702  25.877  24.446  1.00  0.00     0.081 C 
ATOM     10  C   UNL A   1      30.376  26.617  24.241  1.00  0.00     0.031 C 
ATOM     11  C   UNL A   1      32.779  26.441  23.512  1.00  0.00     0.031 C 
ENDBRANCH   8   9
BRANCH   8  12
ATOM     12  C   UNL A   1      32.051  24.547  26.488  1.00  0.00     0.318 C 
ATOM     13  O   UNL A   1      31.242  24.270  27.380  1.00  0.00    -0.249 OA
ATOM     14  N   UNL A   1      32.869  23.520  26.158  1.00  0.00    -0.334 N 
ATOM     15  H   UNL A   1      32.645  22.712  26.675  1.00  0.00     0.165 HD
BRANCH  14  16
ATOM     16  C   UNL A   1      33.965  23.274  25.274  1.00  0.00     0.096 C 
ATOM     17  C   UNL A   1      34.469  21.881  24.917  1.00  0.00    -0.007 C 
ATOM     18  C   UNL A   1      33.685  22.683  23.878  1.00  0.00    -0.007 C 
ATOM     19  C   UNL A   1      35.939  21.647  24.639  1.00  0.00     0.014 C 
ATOM     20  C   UNL A   1      33.822  20.685  25.571  1.00  0.00     0.014 C 
ATOM     21  C   UNL A   1      32.331  22.148  23.466  1.00  0.00     0.014 C 
ATOM     22  C   UNL A   1      34.428  23.295  22.705  1.00  0.00     0.014 C 
ENDBRANCH  14  16
ENDBRANCH   8  12
ENDBRANCH   7   8
ENDBRANCH   4   7
ENDBRANCH   2   3
ENDBRANCH   1   2
BRANCH   1  23
ATOM     23  C   UNL A   1      35.529  31.364  28.298  1.00  0.00     0.118 C 
BRANCH  23  24
ATOM     24  N   UNL A   1      35.491  30.981  29.699  1.00  0.00    -0.352 N 
ATOM     25  C   UNL A   1      36.430  30.413  30.520  1.00  0.00     0.251 C 
ATOM     26  H   UNL A   1      34.631  31.164  30.141  1.00  0.00     0.163 HD
ATOM     27  O   UNL A   1      36.086  30.085  31.660  1.00  0.00    -0.269 OA
BRANCH  25  28
ATOM     28  C   UNL A   1      37.817  30.148  30.075  1.00  0.00     0.039 A 
ATOM     29  C   UNL A   1      38.802  29.979  31.055  1.00  0.00     0.014 A 
ATOM     30  C   UNL A   1      38.181  30.116  28.727  1.00  0.00     0.014 A 
ATOM     31  C   UNL A   1      40.121  29.697  30.688  1.00  0.00     0.010 A 
ATOM     32  C   UNL A   1      39.482  29.763  28.361  1.00  0.00     0.010 A 
ATOM     33  C   UNL A   1      40.465  29.538  29.337  1.00  0.00    -0.014 A 
BRANCH  33  34
ATOM     34  C   UNL A   1      41.829  29.106  28.930  1.00  0.00     0.031 A 
ATOM     35  C   UNL A   1      42.958  30.099  28.858  1.00  0.00     0.074 A 
ATOM     36  C   UNL A   1      42.036  27.825  28.561  1.00  0.00     0.049 A 
ATOM     37  N   UNL A   1      44.178  29.932  28.413  1.00  0.00    -0.248 NA
ATOM     38  C   UNL A   1      42.675  31.462  29.334  1.00  0.00     0.031 C 
ATOM     39  C   UNL A   1      41.022  26.768  28.568  1.00  0.00     0.029 A 
ATOM     40  N   UNL A   1      43.163  27.195  28.091  1.00  0.00    -0.354 N 
ATOM     41  C   UNL A   1      44.806  31.164  28.548  1.00  0.00     0.074 A 
ATOM     42  C   UNL A   1      43.818  32.083  29.075  1.00  0.00     0.031 C 
ATOM     43  C   UNL A   1      41.574  25.623  28.138  1.00  0.00     0.029 A 
ATOM     44  C   UNL A   1      42.964  25.871  27.774  1.00  0.00     0.049 A 
ATOM     45  H   UNL A   1      44.031  27.649  27.990  1.00  0.00     0.167 HD
ATOM     46  C   UNL A   1      46.092  31.496  28.277  1.00  0.00     0.037 A 
ATOM     47  C   UNL A   1      43.799  24.964  27.226  1.00  0.00     0.037 A 
ATOM     48  C   UNL A   1      47.075  30.575  27.765  1.00  0.00     0.049 A 
ATOM     49  C   UNL A   1      45.204  25.375  26.876  1.00  0.00     0.074 A 
ATOM     50  C   UNL A   1      48.412  30.810  27.491  1.00  0.00     0.029 A 
ATOM     51  N   UNL A   1      46.831  29.247  27.447  1.00  0.00    -0.354 N 
ATOM     52  N   UNL A   1      45.791  26.535  27.049  1.00  0.00    -0.248 NA
ATOM     53  C   UNL A   1      46.059  24.356  26.251  1.00  0.00     0.031 C 
ATOM     54  C   UNL A   1      48.963  29.638  26.964  1.00  0.00     0.029 A 
ATOM     55  C   UNL A   1      47.984  28.658  26.956  1.00  0.00     0.049 A 
ATOM     56  H   UNL A   1      45.965  28.791  27.553  1.00  0.00     0.167 HD
ATOM     57  C   UNL A   1      47.090  26.377  26.577  1.00  0.00     0.074 A 
ATOM     58  C   UNL A   1      47.207  25.007  26.126  1.00  0.00     0.031 C 
ATOM     59  C   UNL A   1      48.092  27.287  26.520  1.00  0.00     0.037 A 
BRANCH  46  60
ATOM     60  C   UNL A   1      46.521  32.915  28.537  1.00  0.00     0.058 A 
ATOM     61  C   UNL A   1      46.360  33.918  27.569  1.00  0.00     0.135 A 
ATOM     62  C   UNL A   1      47.043  33.289  29.787  1.00  0.00     0.135 A 
ATOM     63  F   UNL A   1      45.878  33.614  26.354  1.00  0.00    -0.206 F 
ATOM     64  C   UNL A   1      46.722  35.237  27.822  1.00  0.00     0.059 A 
ATOM     65  C   UNL A   1      47.386  34.608  30.070  1.00  0.00     0.059 A 
ATOM     66  F   UNL A   1      47.217  32.370  30.750  1.00  0.00    -0.206 F 
ATOM     67  C   UNL A   1      47.233  35.573  29.076  1.00  0.00     0.060 A 
BRANCH  67  68
ATOM     68  S   UNL A   1      47.683  37.293  29.390  1.00  0.00     0.124 S 
ATOM     69  O   UNL A   1      46.447  37.816  29.967  1.00  0.00    -0.237 OA
ATOM     70  O   UNL A   1      48.805  37.158  30.316  1.00  0.00    -0.237 OA
ATOM     71  O   UNL A   1      48.023  37.805  28.067  1.00  0.00    -0.744 OA
ENDBRANCH  67  68
ENDBRANCH  46  60
BRANCH  47  72
ATOM     72  C   UNL A   1      43.330  23.576  26.964  1.00  0.00     0.058 A 
ATOM     73  C   UNL A   1      43.213  22.647  28.008  1.00  0.00     0.135 A 
ATOM     74  C   UNL A   1      43.008  23.145  25.667  1.00  0.00     0.135 A 
ATOM     75  F   UNL A   1      43.517  23.008  29.264  1.00  0.00    -0.206 F 
ATOM     76  C   UNL A   1      42.818  21.333  27.775  1.00  0.00     0.059 A 
ATOM     77  C   UNL A   1      42.583  21.845  25.414  1.00  0.00     0.059 A 
ATOM     78  F   UNL A   1      43.089  23.998  24.634  1.00  0.00    -0.206 F 
ATOM     79  C   UNL A   1      42.507  20.941  26.472  1.00  0.00     0.060 A 
BRANCH  79  80
ATOM     80  S   UNL A   1      41.972  19.241  26.184  1.00  0.00     0.124 S 
ATOM     81  O   UNL A   1      42.817  18.855  25.060  1.00  0.00    -0.237 OA
ATOM     82  O   UNL A   1      42.278  18.602  27.461  1.00  0.00    -0.237 OA
ATOM     83  O   UNL A   1      40.551  19.381  25.887  1.00  0.00    -0.744 OA
ENDBRANCH  79  80
ENDBRANCH  47  72
BRANCH  59  84
ATOM     84  C   UNL A   1      49.418  26.829  25.976  1.00  0.00     0.058 A 
ATOM     85  C   UNL A   1      49.779  27.046  24.637  1.00  0.00     0.135 A 
ATOM     86  C   UNL A   1      50.362  26.222  26.821  1.00  0.00     0.135 A 
ATOM     87  F   UNL A   1      48.908  27.612  23.786  1.00  0.00    -0.206 F 
ATOM     88  C   UNL A   1      51.026  26.667  24.151  1.00  0.00     0.059 A 
ATOM     89  C   UNL A   1      51.626  25.860  26.362  1.00  0.00     0.059 A 
ATOM     90  F   UNL A   1      50.071  25.997  28.111  1.00  0.00    -0.206 F 
ATOM     91  C   UNL A   1      51.946  26.080  25.023  1.00  0.00     0.060 A 
BRANCH  91  92
ATOM     92  S   UNL A   1      53.579  25.646  24.390  1.00  0.00     0.124 S 
ATOM     93  O   UNL A   1      54.446  26.498  25.197  1.00  0.00    -0.237 OA
ATOM     94  O   UNL A   1      53.655  24.216  24.674  1.00  0.00    -0.237 OA
ATOM     95  O   UNL A   1      53.499  25.994  22.974  1.00  0.00    -0.744 OA
ENDBRANCH  91  92
ENDBRANCH  59  84
ENDBRANCH  33  34
ENDBRANCH  25  28
ENDBRANCH  23  24
ENDBRANCH   1  23
TORSDOF 17
ENDMDL
