MODEL 1
REMARK VINA RESULT:     -12.0      0.000      0.000
REMARK SMILES Cc1noc(C[N@@H+]2CCC[C@H]2C(=O)NCCCNC(=O)c2ccc(-c3c4nc(c(-c5c(F)cc(S(=O)(=O)[O-])cc5F)c5ccc([nH]5)c(-c5c(F)cc(S(=O)(=O)[O-])cc5F)c5nc(c(-c6c(F)cc(S(=O)(=O)[O-])cc6F)c6ccc3[nH]6)C=C5)C=C4)cc2)n1
REMARK SMILES IDX 16 1 15 2 14 3 12 4 13 5 11 7 7 8 8 9 9 11 10 12 6 13 5 14
REMARK SMILES IDX 1 15 2 16 3 17 87 18 4 19 17 20 18 21 19 22 20 24 21 25
REMARK SMILES IDX 22 26 86 27 23 28 85 29 24 30 25 31 26 32 79 33 27 34 84 35
REMARK SMILES IDX 78 36 80 37 28 38 83 39 77 40 76 41 29 43 63 44 42 45 62 46
REMARK SMILES IDX 43 47 46 48 61 49 81 50 44 51 45 52 60 54 82 55 47 56 30 57
REMARK SMILES IDX 31 58 40 59 32 60 33 61 39 62 41 63 34 64 35 65 36 66 37 67
REMARK SMILES IDX 38 68 64 69 65 70 74 71 66 72 67 73 73 74 75 75 68 76 69 77
REMARK SMILES IDX 70 78 71 79 72 80 48 81 49 82 58 83 50 84 51 85 57 86 59 87
REMARK SMILES IDX 52 88 53 89 54 90 55 91 56 92
REMARK H PARENT 14 6 7 10 18 23 80 42 46 53
REMARK Flexibility Score: inf
ROOT
ATOM      1  C   UNL A   1      37.335  23.594  25.349  1.00  0.00     0.042 C 
ENDROOT
BRANCH   1   2
ATOM      2  C   UNL A   1      36.947  22.122  25.436  1.00  0.00     0.118 C 
BRANCH   2   3
ATOM      3  N   UNL A   1      36.019  21.865  26.522  1.00  0.00    -0.351 N 
ATOM      4  C   UNL A   1      34.663  21.691  26.487  1.00  0.00     0.278 C 
ATOM      5  O   UNL A   1      34.081  21.495  27.556  1.00  0.00    -0.268 OA
ATOM      6  H   UNL A   1      36.427  21.807  27.416  1.00  0.00     0.163 HD
BRANCH   4   7
ATOM      7  C   UNL A   1      33.936  21.696  25.124  1.00  0.00     0.274 C 
ATOM      8  N   UNL A   1      32.709  20.877  25.272  1.00  0.00    -0.317 N 
ATOM      9  C   UNL A   1      31.605  21.816  25.501  1.00  0.00     0.263 C 
ATOM     10  H   UNL A   1      32.807  20.248  26.068  1.00  0.00     0.349 HD
ATOM     11  C   UNL A   1      31.977  23.117  24.815  1.00  0.00     0.068 C 
ATOM     12  C   UNL A   1      33.492  23.110  24.738  1.00  0.00     0.081 C 
BRANCH   8  13
ATOM     13  C   UNL A   1      32.473  19.917  24.177  1.00  0.00     0.364 C 
BRANCH  13  14
ATOM     14  C   UNL A   1      32.798  18.496  24.476  1.00  0.00     0.281 A 
ATOM     15  C   UNL A   1      32.349  15.271  25.741  1.00  0.00     0.093 C 
ATOM     16  C   UNL A   1      32.794  16.497  25.056  1.00  0.00     0.169 A 
ATOM     17  N   UNL A   1      33.502  16.477  23.920  1.00  0.00    -0.063 NA
ATOM     18  N   UNL A   1      32.390  17.737  25.469  1.00  0.00    -0.191 NA
ATOM     19  O   UNL A   1      33.512  17.818  23.531  1.00  0.00    -0.333 OA
ENDBRANCH  13  14
ENDBRANCH   8  13
ENDBRANCH   4   7
ENDBRANCH   2   3
ENDBRANCH   1   2
BRANCH   1  20
ATOM     20  C   UNL A   1      38.245  24.067  26.481  1.00  0.00     0.118 C 
BRANCH  20  21
ATOM     21  N   UNL A   1      39.661  23.904  26.173  1.00  0.00    -0.352 N 
ATOM     22  C   UNL A   1      40.744  24.654  26.555  1.00  0.00     0.251 C 
ATOM     23  H   UNL A   1      39.874  23.131  25.601  1.00  0.00     0.163 HD
ATOM     24  O   UNL A   1      41.840  24.434  26.036  1.00  0.00    -0.269 OA
BRANCH  22  25
ATOM     25  C   UNL A   1      40.606  25.732  27.558  1.00  0.00     0.039 A 
ATOM     26  C   UNL A   1      39.658  25.591  28.575  1.00  0.00     0.014 A 
ATOM     27  C   UNL A   1      41.384  26.890  27.488  1.00  0.00     0.014 A 
ATOM     28  C   UNL A   1      39.540  26.576  29.560  1.00  0.00     0.010 A 
ATOM     29  C   UNL A   1      41.321  27.833  28.513  1.00  0.00     0.010 A 
ATOM     30  C   UNL A   1      40.398  27.688  29.560  1.00  0.00    -0.014 A 
BRANCH  30  31
ATOM     31  C   UNL A   1      40.350  28.707  30.641  1.00  0.00     0.031 A 
ATOM     32  C   UNL A   1      41.251  28.582  31.840  1.00  0.00     0.074 A 
ATOM     33  C   UNL A   1      39.446  29.706  30.578  1.00  0.00     0.049 A 
ATOM     34  N   UNL A   1      41.290  29.313  32.924  1.00  0.00    -0.248 NA
ATOM     35  C   UNL A   1      42.219  27.473  31.830  1.00  0.00     0.031 C 
ATOM     36  C   UNL A   1      38.492  29.917  29.486  1.00  0.00     0.029 A 
ATOM     37  N   UNL A   1      39.171  30.725  31.457  1.00  0.00    -0.354 N 
ATOM     38  C   UNL A   1      42.273  28.748  33.728  1.00  0.00     0.074 A 
ATOM     39  C   UNL A   1      42.767  27.580  33.031  1.00  0.00     0.031 C 
ATOM     40  C   UNL A   1      37.752  31.006  29.752  1.00  0.00     0.029 A 
ATOM     41  C   UNL A   1      38.144  31.544  31.051  1.00  0.00     0.049 A 
ATOM     42  H   UNL A   1      39.663  30.856  32.299  1.00  0.00     0.167 HD
ATOM     43  C   UNL A   1      42.738  29.175  34.927  1.00  0.00     0.037 A 
ATOM     44  C   UNL A   1      37.571  32.601  31.660  1.00  0.00     0.037 A 
ATOM     45  C   UNL A   1      42.252  30.347  35.609  1.00  0.00     0.049 A 
ATOM     46  C   UNL A   1      38.086  33.042  33.004  1.00  0.00     0.074 A 
ATOM     47  C   UNL A   1      42.689  30.888  36.806  1.00  0.00     0.029 A 
ATOM     48  N   UNL A   1      41.220  31.157  35.158  1.00  0.00    -0.354 N 
ATOM     49  N   UNL A   1      39.053  32.526  33.726  1.00  0.00    -0.248 NA
ATOM     50  C   UNL A   1      37.437  34.208  33.617  1.00  0.00     0.031 C 
ATOM     51  C   UNL A   1      41.886  31.994  37.105  1.00  0.00     0.029 A 
ATOM     52  C   UNL A   1      40.991  32.180  36.064  1.00  0.00     0.049 A 
ATOM     53  H   UNL A   1      40.723  31.024  34.318  1.00  0.00     0.167 HD
ATOM     54  C   UNL A   1      39.153  33.329  34.858  1.00  0.00     0.074 A 
ATOM     55  C   UNL A   1      38.151  34.366  34.723  1.00  0.00     0.031 C 
ATOM     56  C   UNL A   1      40.000  33.218  35.911  1.00  0.00     0.037 A 
BRANCH  43  57
ATOM     57  C   UNL A   1      43.828  28.367  35.583  1.00  0.00     0.058 A 
ATOM     58  C   UNL A   1      45.186  28.597  35.306  1.00  0.00     0.135 A 
ATOM     59  C   UNL A   1      43.514  27.375  36.525  1.00  0.00     0.135 A 
ATOM     60  F   UNL A   1      45.544  29.524  34.404  1.00  0.00    -0.206 F 
ATOM     61  C   UNL A   1      46.190  27.850  35.912  1.00  0.00     0.059 A 
ATOM     62  C   UNL A   1      44.504  26.636  37.169  1.00  0.00     0.059 A 
ATOM     63  F   UNL A   1      42.234  27.112  36.832  1.00  0.00    -0.206 F 
ATOM     64  C   UNL A   1      45.838  26.871  36.842  1.00  0.00     0.060 A 
BRANCH  64  65
ATOM     65  S   UNL A   1      47.156  25.911  37.620  1.00  0.00     0.124 S 
ATOM     66  O   UNL A   1      47.777  26.914  38.480  1.00  0.00    -0.237 OA
ATOM     67  O   UNL A   1      46.411  24.861  38.307  1.00  0.00    -0.237 OA
ATOM     68  O   UNL A   1      47.965  25.467  36.490  1.00  0.00    -0.744 OA
ENDBRANCH  64  65
ENDBRANCH  43  57
BRANCH  44  69
ATOM     69  C   UNL A   1      36.454  33.329  30.996  1.00  0.00     0.058 A 
ATOM     70  C   UNL A   1      36.688  34.144  29.879  1.00  0.00     0.135 A 
ATOM     71  C   UNL A   1      35.133  33.219  31.458  1.00  0.00     0.135 A 
ATOM     72  F   UNL A   1      37.935  34.288  29.403  1.00  0.00    -0.206 F 
ATOM     73  C   UNL A   1      35.658  34.840  29.254  1.00  0.00     0.059 A 
ATOM     74  C   UNL A   1      34.081  33.881  30.832  1.00  0.00     0.059 A 
ATOM     75  F   UNL A   1      34.851  32.439  32.513  1.00  0.00    -0.206 F 
ATOM     76  C   UNL A   1      34.356  34.699  29.737  1.00  0.00     0.060 A 
BRANCH  76  77
ATOM     77  S   UNL A   1      33.021  35.572  28.891  1.00  0.00     0.124 S 
ATOM     78  O   UNL A   1      32.244  36.081  30.015  1.00  0.00    -0.237 OA
ATOM     79  O   UNL A   1      33.751  36.568  28.115  1.00  0.00    -0.237 OA
ATOM     80  O   UNL A   1      32.379  34.523  28.104  1.00  0.00    -0.744 OA
ENDBRANCH  76  77
ENDBRANCH  44  69
BRANCH  56  81
ATOM     81  C   UNL A   1      39.924  34.272  36.982  1.00  0.00     0.058 A 
ATOM     82  C   UNL A   1      40.567  35.513  36.853  1.00  0.00     0.135 A 
ATOM     83  C   UNL A   1      39.136  34.059  38.126  1.00  0.00     0.135 A 
ATOM     84  F   UNL A   1      41.338  35.766  35.783  1.00  0.00    -0.206 F 
ATOM     85  C   UNL A   1      40.450  36.497  37.830  1.00  0.00     0.059 A 
ATOM     86  C   UNL A   1      38.979  35.040  39.100  1.00  0.00     0.059 A 
ATOM     87  F   UNL A   1      38.491  32.894  38.296  1.00  0.00    -0.206 F 
ATOM     88  C   UNL A   1      39.648  36.254  38.947  1.00  0.00     0.060 A 
BRANCH  88  89
ATOM     89  S   UNL A   1      39.468  37.557  40.183  1.00  0.00     0.124 S 
ATOM     90  O   UNL A   1      38.987  36.806  41.336  1.00  0.00    -0.237 OA
ATOM     91  O   UNL A   1      40.828  38.077  40.286  1.00  0.00    -0.237 OA
ATOM     92  O   UNL A   1      38.500  38.468  39.578  1.00  0.00    -0.744 OA
ENDBRANCH  88  89
ENDBRANCH  56  81
ENDBRANCH  30  31
ENDBRANCH  22  25
ENDBRANCH  20  21
ENDBRANCH   1  20
TORSDOF 15
ENDMDL
MODEL 2
REMARK VINA RESULT:     -11.9      7.320     13.842
REMARK SMILES Cc1noc(C[N@@H+]2CCC[C@H]2C(=O)NCCCNC(=O)c2ccc(-c3c4nc(c(-c5c(F)cc(S(=O)(=O)[O-])cc5F)c5ccc([nH]5)c(-c5c(F)cc(S(=O)(=O)[O-])cc5F)c5nc(c(-c6c(F)cc(S(=O)(=O)[O-])cc6F)c6ccc3[nH]6)C=C5)C=C4)cc2)n1
REMARK SMILES IDX 16 1 15 2 14 3 12 4 13 5 11 7 7 8 8 9 9 11 10 12 6 13 5 14
REMARK SMILES IDX 1 15 2 16 3 17 87 18 4 19 17 20 18 21 19 22 20 24 21 25
REMARK SMILES IDX 22 26 86 27 23 28 85 29 24 30 25 31 26 32 79 33 27 34 84 35
REMARK SMILES IDX 78 36 80 37 28 38 83 39 77 40 76 41 29 43 63 44 42 45 62 46
REMARK SMILES IDX 43 47 46 48 61 49 81 50 44 51 45 52 60 54 82 55 47 56 30 57
REMARK SMILES IDX 31 58 40 59 32 60 33 61 39 62 41 63 34 64 35 65 36 66 37 67
REMARK SMILES IDX 38 68 64 69 65 70 74 71 66 72 67 73 73 74 75 75 68 76 69 77
REMARK SMILES IDX 70 78 71 79 72 80 48 81 49 82 58 83 50 84 51 85 57 86 59 87
REMARK SMILES IDX 52 88 53 89 54 90 55 91 56 92
REMARK H PARENT 14 6 7 10 18 23 80 42 46 53
REMARK Flexibility Score: inf
ROOT
ATOM      1  C   UNL A   1      37.507  33.042  33.081  1.00  0.00     0.042 C 
ENDROOT
BRANCH   1   2
ATOM      2  C   UNL A   1      36.523  33.881  33.890  1.00  0.00     0.118 C 
BRANCH   2   3
ATOM      3  N   UNL A   1      35.180  33.335  33.854  1.00  0.00    -0.351 N 
ATOM      4  C   UNL A   1      34.085  33.760  33.153  1.00  0.00     0.278 C 
ATOM      5  O   UNL A   1      33.033  33.132  33.295  1.00  0.00    -0.268 OA
ATOM      6  H   UNL A   1      35.036  32.540  34.417  1.00  0.00     0.163 HD
BRANCH   4   7
ATOM      7  C   UNL A   1      34.224  34.959  32.189  1.00  0.00     0.274 C 
ATOM      8  N   UNL A   1      32.966  35.049  31.409  1.00  0.00    -0.317 N 
ATOM      9  C   UNL A   1      32.146  36.078  32.056  1.00  0.00     0.263 C 
ATOM     10  H   UNL A   1      32.484  34.151  31.426  1.00  0.00     0.349 HD
ATOM     11  C   UNL A   1      33.097  37.058  32.716  1.00  0.00     0.068 C 
ATOM     12  C   UNL A   1      34.373  36.274  32.959  1.00  0.00     0.081 C 
BRANCH   8  13
ATOM     13  C   UNL A   1      33.154  35.245  29.958  1.00  0.00     0.364 C 
BRANCH  13  14
ATOM     14  C   UNL A   1      34.006  34.238  29.270  1.00  0.00     0.281 A 
ATOM     15  C   UNL A   1      34.896  31.154  27.892  1.00  0.00     0.093 C 
ATOM     16  C   UNL A   1      34.791  32.557  28.324  1.00  0.00     0.169 A 
ATOM     17  N   UNL A   1      35.345  33.569  27.646  1.00  0.00    -0.063 NA
ATOM     18  N   UNL A   1      34.002  32.927  29.379  1.00  0.00    -0.191 NA
ATOM     19  O   UNL A   1      34.825  34.698  28.281  1.00  0.00    -0.333 OA
ENDBRANCH  13  14
ENDBRANCH   8  13
ENDBRANCH   4   7
ENDBRANCH   2   3
ENDBRANCH   1   2
BRANCH   1  20
ATOM     20  C   UNL A   1      37.062  32.772  31.645  1.00  0.00     0.118 C 
BRANCH  20  21
ATOM     21  N   UNL A   1      36.287  31.544  31.515  1.00  0.00    -0.352 N 
ATOM     22  C   UNL A   1      36.616  30.344  30.936  1.00  0.00     0.251 C 
ATOM     23  H   UNL A   1      35.384  31.581  31.905  1.00  0.00     0.163 HD
ATOM     24  O   UNL A   1      35.741  29.490  30.786  1.00  0.00    -0.269 OA
BRANCH  22  25
ATOM     25  C   UNL A   1      37.996  30.077  30.473  1.00  0.00     0.039 A 
ATOM     26  C   UNL A   1      38.957  29.682  31.407  1.00  0.00     0.014 A 
ATOM     27  C   UNL A   1      38.353  30.239  29.133  1.00  0.00     0.014 A 
ATOM     28  C   UNL A   1      40.256  29.381  30.987  1.00  0.00     0.010 A 
ATOM     29  C   UNL A   1      39.625  29.863  28.702  1.00  0.00     0.010 A 
ATOM     30  C   UNL A   1      40.591  29.431  29.624  1.00  0.00    -0.014 A 
BRANCH  30  31
ATOM     31  C   UNL A   1      41.940  29.037  29.140  1.00  0.00     0.031 A 
ATOM     32  C   UNL A   1      43.042  30.059  29.052  1.00  0.00     0.074 A 
ATOM     33  C   UNL A   1      42.155  27.775  28.714  1.00  0.00     0.049 A 
ATOM     34  N   UNL A   1      44.251  29.931  28.570  1.00  0.00    -0.248 NA
ATOM     35  C   UNL A   1      42.734  31.410  29.548  1.00  0.00     0.031 C 
ATOM     36  C   UNL A   1      41.160  26.700  28.715  1.00  0.00     0.029 A 
ATOM     37  N   UNL A   1      43.276  27.185  28.184  1.00  0.00    -0.354 N 
ATOM     38  C   UNL A   1      44.843  31.182  28.691  1.00  0.00     0.074 A 
ATOM     39  C   UNL A   1      43.842  32.070  29.242  1.00  0.00     0.031 C 
ATOM     40  C   UNL A   1      41.719  25.581  28.229  1.00  0.00     0.029 A 
ATOM     41  C   UNL A   1      43.096  25.866  27.838  1.00  0.00     0.049 A 
ATOM     42  H   UNL A   1      44.129  27.662  28.063  1.00  0.00     0.167 HD
ATOM     43  C   UNL A   1      46.111  31.554  28.393  1.00  0.00     0.037 A 
ATOM     44  C   UNL A   1      43.939  24.988  27.258  1.00  0.00     0.037 A 
ATOM     45  C   UNL A   1      47.108  30.662  27.860  1.00  0.00     0.049 A 
ATOM     46  C   UNL A   1      45.336  25.431  26.911  1.00  0.00     0.074 A 
ATOM     47  C   UNL A   1      48.434  30.931  27.566  1.00  0.00     0.029 A 
ATOM     48  N   UNL A   1      46.891  29.330  27.535  1.00  0.00    -0.354 N 
ATOM     49  N   UNL A   1      45.895  26.605  27.083  1.00  0.00    -0.248 NA
ATOM     50  C   UNL A   1      46.218  24.430  26.295  1.00  0.00     0.031 C 
ATOM     51  C   UNL A   1      49.003  29.777  27.016  1.00  0.00     0.029 A 
ATOM     52  C   UNL A   1      48.050  28.771  27.025  1.00  0.00     0.049 A 
ATOM     53  H   UNL A   1      46.036  28.853  27.651  1.00  0.00     0.167 HD
ATOM     54  C   UNL A   1      47.205  26.473  26.632  1.00  0.00     0.074 A 
ATOM     55  C   UNL A   1      47.355  25.104  26.185  1.00  0.00     0.031 C 
ATOM     56  C   UNL A   1      48.193  27.401  26.597  1.00  0.00     0.037 A 
BRANCH  43  57
ATOM     57  C   UNL A   1      46.495  32.991  28.636  1.00  0.00     0.058 A 
ATOM     58  C   UNL A   1      46.355  33.971  27.640  1.00  0.00     0.135 A 
ATOM     59  C   UNL A   1      46.975  33.400  29.891  1.00  0.00     0.135 A 
ATOM     60  F   UNL A   1      45.913  33.635  26.417  1.00  0.00    -0.206 F 
ATOM     61  C   UNL A   1      46.710  35.297  27.866  1.00  0.00     0.059 A 
ATOM     62  C   UNL A   1      47.306  34.727  30.150  1.00  0.00     0.059 A 
ATOM     63  F   UNL A   1      47.128  32.508  30.881  1.00  0.00    -0.206 F 
ATOM     64  C   UNL A   1      47.185  35.665  29.126  1.00  0.00     0.060 A 
BRANCH  64  65
ATOM     65  S   UNL A   1      47.641  37.390  29.403  1.00  0.00     0.124 S 
ATOM     66  O   UNL A   1      48.568  37.269  30.524  1.00  0.00    -0.237 OA
ATOM     67  O   UNL A   1      48.238  37.763  28.125  1.00  0.00    -0.237 OA
ATOM     68  O   UNL A   1      46.368  38.034  29.709  1.00  0.00    -0.744 OA
ENDBRANCH  64  65
ENDBRANCH  43  57
BRANCH  44  69
ATOM     69  C   UNL A   1      43.491  23.595  26.984  1.00  0.00     0.058 A 
ATOM     70  C   UNL A   1      43.175  23.182  25.681  1.00  0.00     0.135 A 
ATOM     71  C   UNL A   1      43.377  22.648  28.014  1.00  0.00     0.135 A 
ATOM     72  F   UNL A   1      43.260  24.053  24.663  1.00  0.00    -0.206 F 
ATOM     73  C   UNL A   1      42.744  21.888  25.409  1.00  0.00     0.059 A 
ATOM     74  C   UNL A   1      42.976  21.338  27.763  1.00  0.00     0.059 A 
ATOM     75  F   UNL A   1      43.683  22.985  29.276  1.00  0.00    -0.206 F 
ATOM     76  C   UNL A   1      42.651  20.972  26.458  1.00  0.00     0.060 A 
BRANCH  76  77
ATOM     77  S   UNL A   1      42.133  19.282  26.087  1.00  0.00     0.124 S 
ATOM     78  O   UNL A   1      42.402  18.608  27.351  1.00  0.00    -0.237 OA
ATOM     79  O   UNL A   1      40.725  19.463  25.747  1.00  0.00    -0.237 OA
ATOM     80  O   UNL A   1      42.995  18.903  24.972  1.00  0.00    -0.744 OA
ENDBRANCH  76  77
ENDBRANCH  44  69
BRANCH  56  81
ATOM     81  C   UNL A   1      49.546  26.961  26.106  1.00  0.00     0.058 A 
ATOM     82  C   UNL A   1      50.485  26.356  26.954  1.00  0.00     0.135 A 
ATOM     83  C   UNL A   1      49.878  27.088  24.746  1.00  0.00     0.135 A 
ATOM     84  F   UNL A   1      50.222  26.216  28.263  1.00  0.00    -0.206 F 
ATOM     85  C   UNL A   1      51.715  25.910  26.477  1.00  0.00     0.059 A 
ATOM     86  C   UNL A   1      51.087  26.622  24.241  1.00  0.00     0.059 A 
ATOM     87  F   UNL A   1      49.012  27.650  23.888  1.00  0.00    -0.206 F 
ATOM     88  C   UNL A   1      52.004  26.042  25.117  1.00  0.00     0.060 A 
BRANCH  88  89
ATOM     89  S   UNL A   1      53.583  25.417  24.505  1.00  0.00     0.124 S 
ATOM     90  O   UNL A   1      53.512  25.771  23.091  1.00  0.00    -0.237 OA
ATOM     91  O   UNL A   1      54.545  26.174  25.300  1.00  0.00    -0.237 OA
ATOM     92  O   UNL A   1      53.521  23.989  24.798  1.00  0.00    -0.744 OA
ENDBRANCH  88  89
ENDBRANCH  56  81
ENDBRANCH  30  31
ENDBRANCH  22  25
ENDBRANCH  20  21
ENDBRANCH   1  20
TORSDOF 15
ENDMDL
MODEL 3
REMARK VINA RESULT:     -11.7      7.327     14.047
REMARK SMILES Cc1noc(C[N@@H+]2CCC[C@H]2C(=O)NCCCNC(=O)c2ccc(-c3c4nc(c(-c5c(F)cc(S(=O)(=O)[O-])cc5F)c5ccc([nH]5)c(-c5c(F)cc(S(=O)(=O)[O-])cc5F)c5nc(c(-c6c(F)cc(S(=O)(=O)[O-])cc6F)c6ccc3[nH]6)C=C5)C=C4)cc2)n1
REMARK SMILES IDX 16 1 15 2 14 3 12 4 13 5 11 7 7 8 8 9 9 11 10 12 6 13 5 14
REMARK SMILES IDX 1 15 2 16 3 17 87 18 4 19 17 20 18 21 19 22 20 24 21 25
REMARK SMILES IDX 22 26 86 27 23 28 85 29 24 30 25 31 26 32 79 33 27 34 84 35
REMARK SMILES IDX 78 36 80 37 28 38 83 39 77 40 76 41 29 43 63 44 42 45 62 46
REMARK SMILES IDX 43 47 46 48 61 49 81 50 44 51 45 52 60 54 82 55 47 56 30 57
REMARK SMILES IDX 31 58 40 59 32 60 33 61 39 62 41 63 34 64 35 65 36 66 37 67
REMARK SMILES IDX 38 68 64 69 65 70 74 71 66 72 67 73 73 74 75 75 68 76 69 77
REMARK SMILES IDX 70 78 71 79 72 80 48 81 49 82 58 83 50 84 51 85 57 86 59 87
REMARK SMILES IDX 52 88 53 89 54 90 55 91 56 92
REMARK H PARENT 14 6 7 10 18 23 80 42 46 53
REMARK Flexibility Score: inf
ROOT
ATOM      1  C   UNL A   1      35.117  33.037  27.974  1.00  0.00     0.042 C 
ENDROOT
BRANCH   1   2
ATOM      2  C   UNL A   1      34.031  33.432  28.969  1.00  0.00     0.118 C 
BRANCH   2   3
ATOM      3  N   UNL A   1      33.647  34.824  28.835  1.00  0.00    -0.351 N 
ATOM      4  C   UNL A   1      33.234  35.711  29.791  1.00  0.00     0.278 C 
ATOM      5  O   UNL A   1      32.946  36.854  29.429  1.00  0.00    -0.268 OA
ATOM      6  H   UNL A   1      33.690  35.184  27.919  1.00  0.00     0.163 HD
BRANCH   4   7
ATOM      7  C   UNL A   1      33.196  35.263  31.269  1.00  0.00     0.274 C 
ATOM      8  N   UNL A   1      34.519  35.579  31.862  1.00  0.00    -0.317 N 
ATOM      9  C   UNL A   1      34.363  36.850  32.578  1.00  0.00     0.263 C 
ATOM     10  H   UNL A   1      35.215  35.674  31.124  1.00  0.00     0.349 HD
ATOM     11  C   UNL A   1      32.915  36.936  33.022  1.00  0.00     0.068 C 
ATOM     12  C   UNL A   1      32.147  36.050  32.060  1.00  0.00     0.081 C 
BRANCH   8  13
ATOM     13  C   UNL A   1      35.106  34.494  32.671  1.00  0.00     0.364 C 
BRANCH  13  14
ATOM     14  C   UNL A   1      36.407  33.954  32.189  1.00  0.00     0.281 A 
ATOM     15  C   UNL A   1      39.299  33.742  30.243  1.00  0.00     0.093 C 
ATOM     16  C   UNL A   1      38.229  33.605  31.245  1.00  0.00     0.169 A 
ATOM     17  N   UNL A   1      38.453  33.181  32.494  1.00  0.00    -0.063 NA
ATOM     18  N   UNL A   1      36.954  34.036  30.996  1.00  0.00    -0.191 NA
ATOM     19  O   UNL A   1      37.231  33.409  33.129  1.00  0.00    -0.333 OA
ENDBRANCH  13  14
ENDBRANCH   8  13
ENDBRANCH   4   7
ENDBRANCH   2   3
ENDBRANCH   1   2
BRANCH   1  20
ATOM     20  C   UNL A   1      35.909  31.794  28.374  1.00  0.00     0.118 C 
BRANCH  20  21
ATOM     21  N   UNL A   1      35.689  31.407  29.762  1.00  0.00    -0.352 N 
ATOM     22  C   UNL A   1      36.428  30.593  30.583  1.00  0.00     0.251 C 
ATOM     23  H   UNL A   1      34.884  31.793  30.177  1.00  0.00     0.163 HD
ATOM     24  O   UNL A   1      35.965  30.264  31.676  1.00  0.00    -0.269 OA
BRANCH  22  25
ATOM     25  C   UNL A   1      37.754  30.091  30.162  1.00  0.00     0.039 A 
ATOM     26  C   UNL A   1      38.041  30.004  28.797  1.00  0.00     0.014 A 
ATOM     27  C   UNL A   1      38.705  29.683  31.100  1.00  0.00     0.014 A 
ATOM     28  C   UNL A   1      39.303  29.575  28.376  1.00  0.00     0.010 A 
ATOM     29  C   UNL A   1      39.988  29.333  30.683  1.00  0.00     0.010 A 
ATOM     30  C   UNL A   1      40.301  29.273  29.316  1.00  0.00    -0.014 A 
BRANCH  30  31
ATOM     31  C   UNL A   1      41.676  28.895  28.896  1.00  0.00     0.031 A 
ATOM     32  C   UNL A   1      42.763  29.935  28.837  1.00  0.00     0.074 A 
ATOM     33  C   UNL A   1      41.931  27.631  28.499  1.00  0.00     0.049 A 
ATOM     34  N   UNL A   1      43.993  29.821  28.408  1.00  0.00    -0.248 NA
ATOM     35  C   UNL A   1      42.411  31.288  29.298  1.00  0.00     0.031 C 
ATOM     36  C   UNL A   1      40.955  26.538  28.476  1.00  0.00     0.029 A 
ATOM     37  N   UNL A   1      43.083  27.053  28.027  1.00  0.00    -0.354 N 
ATOM     38  C   UNL A   1      44.558  31.085  28.534  1.00  0.00     0.074 A 
ATOM     39  C   UNL A   1      43.519  31.963  29.027  1.00  0.00     0.031 C 
ATOM     40  C   UNL A   1      41.554  25.422  28.032  1.00  0.00     0.029 A 
ATOM     41  C   UNL A   1      42.941  25.726  27.694  1.00  0.00     0.049 A 
ATOM     42  H   UNL A   1      43.932  27.543  27.933  1.00  0.00     0.167 HD
ATOM     43  C   UNL A   1      45.831  31.475  28.283  1.00  0.00     0.037 A 
ATOM     44  C   UNL A   1      43.822  24.854  27.165  1.00  0.00     0.037 A 
ATOM     45  C   UNL A   1      46.864  30.592  27.806  1.00  0.00     0.049 A 
ATOM     46  C   UNL A   1      45.224  25.316  26.869  1.00  0.00     0.074 A 
ATOM     47  C   UNL A   1      48.197  30.880  27.564  1.00  0.00     0.029 A 
ATOM     48  N   UNL A   1      46.684  29.252  27.495  1.00  0.00    -0.354 N 
ATOM     49  N   UNL A   1      45.756  26.503  27.046  1.00  0.00    -0.248 NA
ATOM     50  C   UNL A   1      46.149  24.322  26.308  1.00  0.00     0.031 C 
ATOM     51  C   UNL A   1      48.809  29.729  27.057  1.00  0.00     0.029 A 
ATOM     52  C   UNL A   1      47.874  28.706  27.042  1.00  0.00     0.049 A 
ATOM     53  H   UNL A   1      45.834  28.762  27.582  1.00  0.00     0.167 HD
ATOM     54  C   UNL A   1      47.085  26.387  26.652  1.00  0.00     0.074 A 
ATOM     55  C   UNL A   1      47.277  25.014  26.234  1.00  0.00     0.031 C 
ATOM     56  C   UNL A   1      48.058  27.332  26.643  1.00  0.00     0.037 A 
BRANCH  43  57
ATOM     57  C   UNL A   1      46.179  32.922  28.518  1.00  0.00     0.058 A 
ATOM     58  C   UNL A   1      46.646  33.377  29.762  1.00  0.00     0.135 A 
ATOM     59  C   UNL A   1      46.078  33.859  27.476  1.00  0.00     0.135 A 
ATOM     60  F   UNL A   1      46.750  32.528  30.797  1.00  0.00    -0.206 F 
ATOM     61  C   UNL A   1      46.966  34.713  29.976  1.00  0.00     0.059 A 
ATOM     62  C   UNL A   1      46.424  35.195  27.658  1.00  0.00     0.059 A 
ATOM     63  F   UNL A   1      45.640  33.482  26.265  1.00  0.00    -0.206 F 
ATOM     64  C   UNL A   1      46.851  35.615  28.917  1.00  0.00     0.060 A 
BRANCH  64  65
ATOM     65  S   UNL A   1      47.271  37.346  29.213  1.00  0.00     0.124 S 
ATOM     66  O   UNL A   1      48.190  37.233  30.342  1.00  0.00    -0.237 OA
ATOM     67  O   UNL A   1      47.874  37.741  27.944  1.00  0.00    -0.237 OA
ATOM     68  O   UNL A   1      45.984  37.963  29.512  1.00  0.00    -0.744 OA
ENDBRANCH  64  65
ENDBRANCH  43  57
BRANCH  44  69
ATOM     69  C   UNL A   1      43.410  23.449  26.895  1.00  0.00     0.058 A 
ATOM     70  C   UNL A   1      43.229  22.536  27.944  1.00  0.00     0.135 A 
ATOM     71  C   UNL A   1      43.181  22.993  25.587  1.00  0.00     0.135 A 
ATOM     72  F   UNL A   1      43.444  22.921  29.212  1.00  0.00    -0.206 F 
ATOM     73  C   UNL A   1      42.856  21.217  27.709  1.00  0.00     0.059 A 
ATOM     74  C   UNL A   1      42.778  21.686  25.328  1.00  0.00     0.059 A 
ATOM     75  F   UNL A   1      43.323  23.830  24.548  1.00  0.00    -0.206 F 
ATOM     76  C   UNL A   1      42.630  20.802  26.396  1.00  0.00     0.060 A 
BRANCH  76  77
ATOM     77  S   UNL A   1      42.102  19.100  26.105  1.00  0.00     0.124 S 
ATOM     78  O   UNL A   1      42.505  18.451  27.346  1.00  0.00    -0.237 OA
ATOM     79  O   UNL A   1      40.665  19.256  25.903  1.00  0.00    -0.237 OA
ATOM     80  O   UNL A   1      42.855  18.712  24.916  1.00  0.00    -0.744 OA
ENDBRANCH  76  77
ENDBRANCH  44  69
BRANCH  56  81
ATOM     81  C   UNL A   1      49.438  26.909  26.216  1.00  0.00     0.058 A 
ATOM     82  C   UNL A   1      50.320  26.255  27.089  1.00  0.00     0.135 A 
ATOM     83  C   UNL A   1      49.855  27.103  24.888  1.00  0.00     0.135 A 
ATOM     84  F   UNL A   1      49.974  26.051  28.371  1.00  0.00    -0.206 F 
ATOM     85  C   UNL A   1      51.575  25.827  26.669  1.00  0.00     0.059 A 
ATOM     86  C   UNL A   1      51.093  26.655  24.437  1.00  0.00     0.059 A 
ATOM     87  F   UNL A   1      49.047  27.714  24.007  1.00  0.00    -0.206 F 
ATOM     88  C   UNL A   1      51.950  26.025  25.338  1.00  0.00     0.060 A 
BRANCH  88  89
ATOM     89  S   UNL A   1      53.563  25.423  24.795  1.00  0.00     0.124 S 
ATOM     90  O   UNL A   1      53.539  24.045  25.272  1.00  0.00    -0.237 OA
ATOM     91  O   UNL A   1      53.486  25.594  23.347  1.00  0.00    -0.237 OA
ATOM     92  O   UNL A   1      54.504  26.307  25.476  1.00  0.00    -0.744 OA
ENDBRANCH  88  89
ENDBRANCH  56  81
ENDBRANCH  30  31
ENDBRANCH  22  25
ENDBRANCH  20  21
ENDBRANCH   1  20
TORSDOF 15
ENDMDL
