MODEL 1
REMARK VINA RESULT:     -11.9      0.000      0.000
REMARK SMILES Cc1cc(C(=O)NC[C@@H]2CC[C@H](C(=O)NCCCNC(=O)c3ccc(-c4c5nc(c(-c6c(F)cc(S(=O)(=O)[O-])cc6F)c6ccc([nH]6)c(-c6c(F)cc(S(=O)(=O)[O-])cc6F)c6nc(c(-c7c(F)cc(S(=O)(=O)[O-])cc7F)c7ccc4[nH]7)C=C6)C=C5)cc3)O2)on1
REMARK SMILES IDX 17 1 16 2 15 3 13 4 14 5 12 7 9 8 10 9 88 10 11 11 8 12 7 13
REMARK SMILES IDX 5 14 6 15 4 17 1 18 2 19 3 20 90 21 89 22 18 23 19 24 20 25
REMARK SMILES IDX 21 27 22 28 23 29 87 30 24 31 86 32 25 33 26 34 27 35 80 36
REMARK SMILES IDX 28 37 85 38 79 39 81 40 29 41 84 42 78 43 77 44 30 46 64 47
REMARK SMILES IDX 43 48 63 49 44 50 47 51 62 52 82 53 45 54 46 55 61 57 83 58
REMARK SMILES IDX 48 59 31 60 32 61 41 62 33 63 34 64 40 65 42 66 35 67 36 68
REMARK SMILES IDX 37 69 38 70 39 71 65 72 66 73 75 74 67 75 68 76 74 77 76 78
REMARK SMILES IDX 69 79 70 80 71 81 72 82 73 83 49 84 50 85 59 86 51 87 52 88
REMARK SMILES IDX 58 89 60 90 53 91 54 92 55 93 56 94 57 95
REMARK H PARENT 15 6 7 16 19 26 81 45 47 56
REMARK Flexibility Score: inf
ROOT
ATOM      1  C   UNL A   1      34.602  29.553  27.596  1.00  0.00     0.042 C 
ENDROOT
BRANCH   1   2
ATOM      2  C   UNL A   1      33.412  29.882  26.708  1.00  0.00     0.117 C 
BRANCH   2   3
ATOM      3  N   UNL A   1      33.656  29.617  25.309  1.00  0.00    -0.354 N 
ATOM      4  C   UNL A   1      32.840  29.044  24.377  1.00  0.00     0.249 C 
ATOM      5  O   UNL A   1      33.260  28.986  23.216  1.00  0.00    -0.272 OA
ATOM      6  H   UNL A   1      34.543  29.891  24.979  1.00  0.00     0.163 HD
BRANCH   4   7
ATOM      7  C   UNL A   1      31.456  28.454  24.744  1.00  0.00     0.207 C 
ATOM      8  C   UNL A   1      30.257  26.560  24.041  1.00  0.00     0.138 C 
ATOM      9  C   UNL A   1      29.758  27.725  23.197  1.00  0.00     0.037 C 
ATOM     10  O   UNL A   1      31.407  27.026  24.768  1.00  0.00    -0.363 OA
ATOM     11  C   UNL A   1      30.320  28.957  23.868  1.00  0.00     0.045 C 
BRANCH   8  12
ATOM     12  C   UNL A   1      30.683  25.331  23.215  1.00  0.00     0.148 C 
BRANCH  12  13
ATOM     13  N   UNL A   1      31.508  25.684  22.077  1.00  0.00    -0.347 N 
ATOM     14  C   UNL A   1      32.803  25.356  21.761  1.00  0.00     0.289 C 
ATOM     15  O   UNL A   1      33.139  25.584  20.597  1.00  0.00    -0.266 OA
ATOM     16  H   UNL A   1      31.061  26.259  21.414  1.00  0.00     0.164 HD
BRANCH  14  17
ATOM     17  C   UNL A   1      33.703  24.786  22.738  1.00  0.00     0.224 A 
ATOM     18  C   UNL A   1      35.909  23.984  25.560  1.00  0.00     0.070 C 
ATOM     19  C   UNL A   1      35.078  24.102  24.341  1.00  0.00     0.081 A 
ATOM     20  C   UNL A   1      34.283  25.192  23.923  1.00  0.00     0.083 A 
ATOM     21  N   UNL A   1      35.026  23.103  23.456  1.00  0.00    -0.084 NA
ATOM     22  O   UNL A   1      34.177  23.533  22.456  1.00  0.00    -0.351 OA
ENDBRANCH  14  17
ENDBRANCH  12  13
ENDBRANCH   8  12
ENDBRANCH   4   7
ENDBRANCH   2   3
ENDBRANCH   1   2
BRANCH   1  23
ATOM     23  C   UNL A   1      35.441  30.775  27.934  1.00  0.00     0.118 C 
BRANCH  23  24
ATOM     24  N   UNL A   1      35.446  31.057  29.366  1.00  0.00    -0.352 N 
ATOM     25  C   UNL A   1      36.379  30.759  30.327  1.00  0.00     0.251 C 
ATOM     26  H   UNL A   1      34.653  31.540  29.695  1.00  0.00     0.163 HD
ATOM     27  O   UNL A   1      36.093  30.924  31.510  1.00  0.00    -0.269 OA
BRANCH  25  28
ATOM     28  C   UNL A   1      37.707  30.224  29.951  1.00  0.00     0.039 A 
ATOM     29  C   UNL A   1      38.086  30.239  28.605  1.00  0.00     0.014 A 
ATOM     30  C   UNL A   1      38.569  29.690  30.911  1.00  0.00     0.014 A 
ATOM     31  C   UNL A   1      39.356  29.785  28.236  1.00  0.00     0.010 A 
ATOM     32  C   UNL A   1      39.863  29.326  30.556  1.00  0.00     0.010 A 
ATOM     33  C   UNL A   1      40.269  29.361  29.215  1.00  0.00    -0.014 A 
BRANCH  33  34
ATOM     34  C   UNL A   1      41.647  28.936  28.864  1.00  0.00     0.031 A 
ATOM     35  C   UNL A   1      42.757  29.955  28.822  1.00  0.00     0.074 A 
ATOM     36  C   UNL A   1      41.880  27.660  28.495  1.00  0.00     0.049 A 
ATOM     37  N   UNL A   1      43.994  29.811  28.421  1.00  0.00    -0.248 NA
ATOM     38  C   UNL A   1      42.424  31.325  29.251  1.00  0.00     0.031 C 
ATOM     39  C   UNL A   1      40.873  26.597  28.433  1.00  0.00     0.029 A 
ATOM     40  N   UNL A   1      43.034  27.044  28.080  1.00  0.00    -0.354 N 
ATOM     41  C   UNL A   1      44.572  31.073  28.515  1.00  0.00     0.074 A 
ATOM     42  C   UNL A   1      43.543  31.978  28.975  1.00  0.00     0.031 C 
ATOM     43  C   UNL A   1      41.456  25.460  28.020  1.00  0.00     0.029 A 
ATOM     44  C   UNL A   1      42.867  25.718  27.752  1.00  0.00     0.049 A 
ATOM     45  H   UNL A   1      43.901  27.506  28.025  1.00  0.00     0.167 HD
ATOM     46  C   UNL A   1      45.850  31.436  28.260  1.00  0.00     0.037 A 
ATOM     47  C   UNL A   1      43.748  24.817  27.276  1.00  0.00     0.037 A 
ATOM     48  C   UNL A   1      46.886  30.515  27.872  1.00  0.00     0.049 A 
ATOM     49  C   UNL A   1      45.176  25.240  27.053  1.00  0.00     0.074 A 
ATOM     50  C   UNL A   1      48.234  30.766  27.695  1.00  0.00     0.029 A 
ATOM     51  N   UNL A   1      46.690  29.168  27.611  1.00  0.00    -0.354 N 
ATOM     52  N   UNL A   1      45.722  26.420  27.227  1.00  0.00    -0.248 NA
ATOM     53  C   UNL A   1      46.109  24.210  26.575  1.00  0.00     0.031 C 
ATOM     54  C   UNL A   1      48.849  29.578  27.291  1.00  0.00     0.029 A 
ATOM     55  C   UNL A   1      47.890  28.578  27.256  1.00  0.00     0.049 A 
ATOM     56  H   UNL A   1      45.825  28.701  27.669  1.00  0.00     0.167 HD
ATOM     57  C   UNL A   1      47.067  26.265  26.911  1.00  0.00     0.074 A 
ATOM     58  C   UNL A   1      47.254  24.877  26.545  1.00  0.00     0.031 C 
ATOM     59  C   UNL A   1      48.058  27.189  26.919  1.00  0.00     0.037 A 
BRANCH  46  60
ATOM     60  C   UNL A   1      46.221  32.884  28.411  1.00  0.00     0.058 A 
ATOM     61  C   UNL A   1      45.998  33.813  27.384  1.00  0.00     0.135 A 
ATOM     62  C   UNL A   1      46.726  33.363  29.632  1.00  0.00     0.135 A 
ATOM     63  F   UNL A   1      45.533  33.405  26.192  1.00  0.00    -0.206 F 
ATOM     64  C   UNL A   1      46.268  35.167  27.557  1.00  0.00     0.059 A 
ATOM     65  C   UNL A   1      46.981  34.716  29.835  1.00  0.00     0.059 A 
ATOM     66  F   UNL A   1      46.962  32.515  30.645  1.00  0.00    -0.206 F 
ATOM     67  C   UNL A   1      46.752  35.610  28.789  1.00  0.00     0.060 A 
BRANCH  67  68
ATOM     68  S   UNL A   1      47.048  37.377  29.014  1.00  0.00     0.124 S 
ATOM     69  O   UNL A   1      48.486  37.463  28.781  1.00  0.00    -0.237 OA
ATOM     70  O   UNL A   1      46.201  37.968  27.983  1.00  0.00    -0.237 OA
ATOM     71  O   UNL A   1      46.620  37.621  30.389  1.00  0.00    -0.744 OA
ENDBRANCH  67  68
ENDBRANCH  46  60
BRANCH  47  72
ATOM     72  C   UNL A   1      43.320  23.424  26.984  1.00  0.00     0.058 A 
ATOM     73  C   UNL A   1      43.130  22.495  28.019  1.00  0.00     0.135 A 
ATOM     74  C   UNL A   1      43.121  22.984  25.667  1.00  0.00     0.135 A 
ATOM     75  F   UNL A   1      43.310  22.868  29.295  1.00  0.00    -0.206 F 
ATOM     76  C   UNL A   1      42.796  21.170  27.759  1.00  0.00     0.059 A 
ATOM     77  C   UNL A   1      42.761  21.670  25.383  1.00  0.00     0.059 A 
ATOM     78  F   UNL A   1      43.267  23.837  24.642  1.00  0.00    -0.206 F 
ATOM     79  C   UNL A   1      42.621  20.765  26.434  1.00  0.00     0.060 A 
BRANCH  79  80
ATOM     80  S   UNL A   1      42.179  19.046  26.100  1.00  0.00     0.124 S 
ATOM     81  O   UNL A   1      40.754  19.160  25.821  1.00  0.00    -0.237 OA
ATOM     82  O   UNL A   1      43.032  18.723  24.960  1.00  0.00    -0.237 OA
ATOM     83  O   UNL A   1      42.529  18.367  27.345  1.00  0.00    -0.744 OA
ENDBRANCH  79  80
ENDBRANCH  47  72
BRANCH  59  84
ATOM     84  C   UNL A   1      49.442  26.722  26.567  1.00  0.00     0.058 A 
ATOM     85  C   UNL A   1      50.302  26.179  27.530  1.00  0.00     0.135 A 
ATOM     86  C   UNL A   1      49.887  26.770  25.236  1.00  0.00     0.135 A 
ATOM     87  F   UNL A   1      49.924  26.118  28.817  1.00  0.00    -0.206 F 
ATOM     88  C   UNL A   1      51.570  25.717  27.192  1.00  0.00     0.059 A 
ATOM     89  C   UNL A   1      51.139  26.290  24.870  1.00  0.00     0.059 A 
ATOM     90  F   UNL A   1      49.095  27.270  24.275  1.00  0.00    -0.206 F 
ATOM     91  C   UNL A   1      51.978  25.776  25.858  1.00  0.00     0.060 A 
BRANCH  91  92
ATOM     92  S   UNL A   1      53.611  25.141  25.423  1.00  0.00     0.124 S 
ATOM     93  O   UNL A   1      53.866  25.828  24.161  1.00  0.00    -0.237 OA
ATOM     94  O   UNL A   1      54.427  25.570  26.555  1.00  0.00    -0.237 OA
ATOM     95  O   UNL A   1      53.399  23.700  25.323  1.00  0.00    -0.744 OA
ENDBRANCH  91  92
ENDBRANCH  59  84
ENDBRANCH  33  34
ENDBRANCH  25  28
ENDBRANCH  23  24
ENDBRANCH   1  23
TORSDOF 16
ENDMDL
MODEL 2
REMARK VINA RESULT:     -11.9      1.394      2.074
REMARK SMILES Cc1cc(C(=O)NC[C@@H]2CC[C@H](C(=O)NCCCNC(=O)c3ccc(-c4c5nc(c(-c6c(F)cc(S(=O)(=O)[O-])cc6F)c6ccc([nH]6)c(-c6c(F)cc(S(=O)(=O)[O-])cc6F)c6nc(c(-c7c(F)cc(S(=O)(=O)[O-])cc7F)c7ccc4[nH]7)C=C6)C=C5)cc3)O2)on1
REMARK SMILES IDX 17 1 16 2 15 3 13 4 14 5 12 7 9 8 10 9 88 10 11 11 8 12 7 13
REMARK SMILES IDX 5 14 6 15 4 17 1 18 2 19 3 20 90 21 89 22 18 23 19 24 20 25
REMARK SMILES IDX 21 27 22 28 23 29 87 30 24 31 86 32 25 33 26 34 27 35 80 36
REMARK SMILES IDX 28 37 85 38 79 39 81 40 29 41 84 42 78 43 77 44 30 46 64 47
REMARK SMILES IDX 43 48 63 49 44 50 47 51 62 52 82 53 45 54 46 55 61 57 83 58
REMARK SMILES IDX 48 59 31 60 32 61 41 62 33 63 34 64 40 65 42 66 35 67 36 68
REMARK SMILES IDX 37 69 38 70 39 71 65 72 66 73 75 74 67 75 68 76 74 77 76 78
REMARK SMILES IDX 69 79 70 80 71 81 72 82 73 83 49 84 50 85 59 86 51 87 52 88
REMARK SMILES IDX 58 89 60 90 53 91 54 92 55 93 56 94 57 95
REMARK H PARENT 15 6 7 16 19 26 81 45 47 56
REMARK Flexibility Score: inf
ROOT
ATOM      1  C   UNL A   1      34.777  29.689  27.604  1.00  0.00     0.042 C 
ENDROOT
BRANCH   1   2
ATOM      2  C   UNL A   1      33.348  29.978  27.173  1.00  0.00     0.117 C 
BRANCH   2   3
ATOM      3  N   UNL A   1      32.414  28.951  27.574  1.00  0.00    -0.354 N 
ATOM      4  C   UNL A   1      31.904  27.909  26.854  1.00  0.00     0.249 C 
ATOM      5  O   UNL A   1      31.162  27.120  27.448  1.00  0.00    -0.272 OA
ATOM      6  H   UNL A   1      32.099  29.011  28.506  1.00  0.00     0.163 HD
BRANCH   4   7
ATOM      7  C   UNL A   1      32.203  27.726  25.346  1.00  0.00     0.207 C 
ATOM      8  C   UNL A   1      31.739  26.027  23.791  1.00  0.00     0.138 C 
ATOM      9  C   UNL A   1      33.149  25.768  24.304  1.00  0.00     0.037 C 
ATOM     10  O   UNL A   1      31.172  27.062  24.613  1.00  0.00    -0.363 OA
ATOM     11  C   UNL A   1      33.521  27.023  25.060  1.00  0.00     0.045 C 
BRANCH   8  12
ATOM     12  C   UNL A   1      30.813  24.798  23.868  1.00  0.00     0.148 C 
BRANCH  12  13
ATOM     13  N   UNL A   1      30.388  24.506  25.223  1.00  0.00    -0.347 N 
ATOM     14  C   UNL A   1      30.854  23.597  26.140  1.00  0.00     0.289 C 
ATOM     15  O   UNL A   1      30.468  23.768  27.298  1.00  0.00    -0.266 OA
ATOM     16  H   UNL A   1      29.635  25.055  25.540  1.00  0.00     0.164 HD
BRANCH  14  17
ATOM     17  C   UNL A   1      31.734  22.514  25.760  1.00  0.00     0.224 A 
ATOM     18  C   UNL A   1      34.500  20.255  24.912  1.00  0.00     0.070 C 
ATOM     19  C   UNL A   1      33.247  20.992  25.198  1.00  0.00     0.081 A 
ATOM     20  C   UNL A   1      33.094  22.330  25.623  1.00  0.00     0.083 A 
ATOM     21  N   UNL A   1      32.061  20.398  25.044  1.00  0.00    -0.084 NA
ATOM     22  O   UNL A   1      31.120  21.348  25.387  1.00  0.00    -0.351 OA
ENDBRANCH  14  17
ENDBRANCH  12  13
ENDBRANCH   8  12
ENDBRANCH   4   7
ENDBRANCH   2   3
ENDBRANCH   1   2
BRANCH   1  23
ATOM     23  C   UNL A   1      35.516  30.934  28.069  1.00  0.00     0.118 C 
BRANCH  23  24
ATOM     24  N   UNL A   1      35.513  31.062  29.522  1.00  0.00    -0.352 N 
ATOM     25  C   UNL A   1      36.425  30.633  30.455  1.00  0.00     0.251 C 
ATOM     26  H   UNL A   1      34.732  31.533  29.894  1.00  0.00     0.163 HD
ATOM     27  O   UNL A   1      36.129  30.681  31.645  1.00  0.00    -0.269 OA
BRANCH  25  28
ATOM     28  C   UNL A   1      37.738  30.096  30.035  1.00  0.00     0.039 A 
ATOM     29  C   UNL A   1      38.127  30.227  28.698  1.00  0.00     0.014 A 
ATOM     30  C   UNL A   1      38.578  29.448  30.943  1.00  0.00     0.014 A 
ATOM     31  C   UNL A   1      39.386  29.773  28.293  1.00  0.00     0.010 A 
ATOM     32  C   UNL A   1      39.863  29.081  30.561  1.00  0.00     0.010 A 
ATOM     33  C   UNL A   1      40.279  29.231  29.231  1.00  0.00    -0.014 A 
BRANCH  33  34
ATOM     34  C   UNL A   1      41.647  28.801  28.847  1.00  0.00     0.031 A 
ATOM     35  C   UNL A   1      42.756  29.818  28.759  1.00  0.00     0.074 A 
ATOM     36  C   UNL A   1      41.869  27.520  28.489  1.00  0.00     0.049 A 
ATOM     37  N   UNL A   1      43.980  29.668  28.325  1.00  0.00    -0.248 NA
ATOM     38  C   UNL A   1      42.435  31.195  29.179  1.00  0.00     0.031 C 
ATOM     39  C   UNL A   1      40.861  26.456  28.471  1.00  0.00     0.029 A 
ATOM     40  N   UNL A   1      43.011  26.897  28.051  1.00  0.00    -0.354 N 
ATOM     41  C   UNL A   1      44.561  30.931  28.385  1.00  0.00     0.074 A 
ATOM     42  C   UNL A   1      43.546  31.843  28.861  1.00  0.00     0.031 C 
ATOM     43  C   UNL A   1      41.432  25.313  28.057  1.00  0.00     0.029 A 
ATOM     44  C   UNL A   1      42.834  25.567  27.746  1.00  0.00     0.049 A 
ATOM     45  H   UNL A   1      43.876  27.358  27.964  1.00  0.00     0.167 HD
ATOM     46  C   UNL A   1      45.832  31.289  28.089  1.00  0.00     0.037 A 
ATOM     47  C   UNL A   1      43.702  24.659  27.258  1.00  0.00     0.037 A 
ATOM     48  C   UNL A   1      46.856  30.363  27.685  1.00  0.00     0.049 A 
ATOM     49  C   UNL A   1      45.123  25.078  26.989  1.00  0.00     0.074 A 
ATOM     50  C   UNL A   1      48.199  30.610  27.466  1.00  0.00     0.029 A 
ATOM     51  N   UNL A   1      46.652  29.013  27.449  1.00  0.00    -0.354 N 
ATOM     52  N   UNL A   1      45.673  26.259  27.131  1.00  0.00    -0.248 NA
ATOM     53  C   UNL A   1      46.041  24.041  26.499  1.00  0.00     0.031 C 
ATOM     54  C   UNL A   1      48.802  29.416  27.061  1.00  0.00     0.029 A 
ATOM     55  C   UNL A   1      47.842  28.417  27.068  1.00  0.00     0.049 A 
ATOM     56  H   UNL A   1      45.789  28.547  27.537  1.00  0.00     0.167 HD
ATOM     57  C   UNL A   1      47.009  26.100  26.778  1.00  0.00     0.074 A 
ATOM     58  C   UNL A   1      47.185  24.706  26.427  1.00  0.00     0.031 C 
ATOM     59  C   UNL A   1      48.000  27.023  26.746  1.00  0.00     0.037 A 
BRANCH  46  60
ATOM     60  C   UNL A   1      46.206  32.740  28.209  1.00  0.00     0.058 A 
ATOM     61  C   UNL A   1      46.059  33.630  27.135  1.00  0.00     0.135 A 
ATOM     62  C   UNL A   1      46.637  33.261  29.441  1.00  0.00     0.135 A 
ATOM     63  F   UNL A   1      45.668  33.181  25.933  1.00  0.00    -0.206 F 
ATOM     64  C   UNL A   1      46.331  34.987  27.275  1.00  0.00     0.059 A 
ATOM     65  C   UNL A   1      46.893  34.619  29.610  1.00  0.00     0.059 A 
ATOM     66  F   UNL A   1      46.800  32.450  30.498  1.00  0.00    -0.206 F 
ATOM     67  C   UNL A   1      46.741  35.474  28.518  1.00  0.00     0.060 A 
BRANCH  67  68
ATOM     68  S   UNL A   1      47.039  37.245  28.695  1.00  0.00     0.124 S 
ATOM     69  O   UNL A   1      47.904  37.510  27.551  1.00  0.00    -0.237 OA
ATOM     70  O   UNL A   1      45.691  37.798  28.613  1.00  0.00    -0.237 OA
ATOM     71  O   UNL A   1      47.679  37.353  30.003  1.00  0.00    -0.744 OA
ENDBRANCH  67  68
ENDBRANCH  46  60
BRANCH  47  72
ATOM     72  C   UNL A   1      43.265  23.261  26.998  1.00  0.00     0.058 A 
ATOM     73  C   UNL A   1      43.064  22.359  28.054  1.00  0.00     0.135 A 
ATOM     74  C   UNL A   1      43.070  22.791  25.691  1.00  0.00     0.135 A 
ATOM     75  F   UNL A   1      43.240  22.763  29.322  1.00  0.00    -0.206 F 
ATOM     76  C   UNL A   1      42.721  21.031  27.825  1.00  0.00     0.059 A 
ATOM     77  C   UNL A   1      42.702  21.473  25.437  1.00  0.00     0.059 A 
ATOM     78  F   UNL A   1      43.226  23.618  24.646  1.00  0.00    -0.206 F 
ATOM     79  C   UNL A   1      42.551  20.595  26.509  1.00  0.00     0.060 A 
BRANCH  79  80
ATOM     80  S   UNL A   1      42.098  18.872  26.215  1.00  0.00     0.124 S 
ATOM     81  O   UNL A   1      42.301  18.288  27.535  1.00  0.00    -0.237 OA
ATOM     82  O   UNL A   1      40.713  18.986  25.770  1.00  0.00    -0.237 OA
ATOM     83  O   UNL A   1      43.045  18.452  25.184  1.00  0.00    -0.744 OA
ENDBRANCH  79  80
ENDBRANCH  47  72
BRANCH  59  84
ATOM     84  C   UNL A   1      49.373  26.550  26.361  1.00  0.00     0.058 A 
ATOM     85  C   UNL A   1      49.869  26.713  25.061  1.00  0.00     0.135 A 
ATOM     86  C   UNL A   1      50.220  25.978  27.324  1.00  0.00     0.135 A 
ATOM     87  F   UNL A   1      49.095  27.249  24.104  1.00  0.00    -0.206 F 
ATOM     88  C   UNL A   1      51.154  26.304  24.719  1.00  0.00     0.059 A 
ATOM     89  C   UNL A   1      51.516  25.585  27.012  1.00  0.00     0.059 A 
ATOM     90  F   UNL A   1      49.794  25.811  28.586  1.00  0.00    -0.206 F 
ATOM     91  C   UNL A   1      51.971  25.743  25.703  1.00  0.00     0.060 A 
BRANCH  91  92
ATOM     92  S   UNL A   1      53.649  25.248  25.258  1.00  0.00     0.124 S 
ATOM     93  O   UNL A   1      53.578  23.800  25.414  1.00  0.00    -0.237 OA
ATOM     94  O   UNL A   1      53.766  25.734  23.886  1.00  0.00    -0.237 OA
ATOM     95  O   UNL A   1      54.478  25.947  26.235  1.00  0.00    -0.744 OA
ENDBRANCH  91  92
ENDBRANCH  59  84
ENDBRANCH  33  34
ENDBRANCH  25  28
ENDBRANCH  23  24
ENDBRANCH   1  23
TORSDOF 16
ENDMDL
MODEL 3
REMARK VINA RESULT:     -11.8      3.863      6.853
REMARK SMILES Cc1cc(C(=O)NC[C@@H]2CC[C@H](C(=O)NCCCNC(=O)c3ccc(-c4c5nc(c(-c6c(F)cc(S(=O)(=O)[O-])cc6F)c6ccc([nH]6)c(-c6c(F)cc(S(=O)(=O)[O-])cc6F)c6nc(c(-c7c(F)cc(S(=O)(=O)[O-])cc7F)c7ccc4[nH]7)C=C6)C=C5)cc3)O2)on1
REMARK SMILES IDX 17 1 16 2 15 3 13 4 14 5 12 7 9 8 10 9 88 10 11 11 8 12 7 13
REMARK SMILES IDX 5 14 6 15 4 17 1 18 2 19 3 20 90 21 89 22 18 23 19 24 20 25
REMARK SMILES IDX 21 27 22 28 23 29 87 30 24 31 86 32 25 33 26 34 27 35 80 36
REMARK SMILES IDX 28 37 85 38 79 39 81 40 29 41 84 42 78 43 77 44 30 46 64 47
REMARK SMILES IDX 43 48 63 49 44 50 47 51 62 52 82 53 45 54 46 55 61 57 83 58
REMARK SMILES IDX 48 59 31 60 32 61 41 62 33 63 34 64 40 65 42 66 35 67 36 68
REMARK SMILES IDX 37 69 38 70 39 71 65 72 66 73 75 74 67 75 68 76 74 77 76 78
REMARK SMILES IDX 69 79 70 80 71 81 72 82 73 83 49 84 50 85 59 86 51 87 52 88
REMARK SMILES IDX 58 89 60 90 53 91 54 92 55 93 56 94 57 95
REMARK H PARENT 15 6 7 16 19 26 81 45 47 56
REMARK Flexibility Score: inf
ROOT
ATOM      1  C   UNL A   1      33.672  33.838  28.200  1.00  0.00     0.042 C 
ENDROOT
BRANCH   1   2
ATOM      2  C   UNL A   1      33.819  35.046  29.111  1.00  0.00     0.117 C 
BRANCH   2   3
ATOM      3  N   UNL A   1      32.923  35.016  30.244  1.00  0.00    -0.354 N 
ATOM      4  C   UNL A   1      33.201  35.131  31.575  1.00  0.00     0.249 C 
ATOM      5  O   UNL A   1      32.242  35.139  32.355  1.00  0.00    -0.272 OA
ATOM      6  H   UNL A   1      31.971  34.896  30.022  1.00  0.00     0.163 HD
BRANCH   4   7
ATOM      7  C   UNL A   1      34.652  35.215  32.111  1.00  0.00     0.207 C 
ATOM      8  C   UNL A   1      36.169  33.630  32.953  1.00  0.00     0.138 C 
ATOM      9  C   UNL A   1      35.477  34.249  34.159  1.00  0.00     0.037 C 
ATOM     10  O   UNL A   1      35.471  34.091  31.782  1.00  0.00    -0.363 OA
ATOM     11  C   UNL A   1      34.742  35.451  33.610  1.00  0.00     0.045 C 
BRANCH   8  12
ATOM     12  C   UNL A   1      36.145  32.090  32.944  1.00  0.00     0.148 C 
BRANCH  12  13
ATOM     13  N   UNL A   1      37.472  31.513  32.860  1.00  0.00    -0.347 N 
ATOM     14  C   UNL A   1      38.339  31.092  33.838  1.00  0.00     0.289 C 
ATOM     15  O   UNL A   1      39.281  30.399  33.448  1.00  0.00    -0.266 OA
ATOM     16  H   UNL A   1      37.811  31.404  31.941  1.00  0.00     0.164 HD
BRANCH  14  17
ATOM     17  C   UNL A   1      38.150  31.446  35.227  1.00  0.00     0.224 A 
ATOM     18  C   UNL A   1      37.789  33.031  38.518  1.00  0.00     0.070 C 
ATOM     19  C   UNL A   1      37.905  32.195  37.302  1.00  0.00     0.081 A 
ATOM     20  C   UNL A   1      38.162  32.605  35.975  1.00  0.00     0.083 A 
ATOM     21  N   UNL A   1      37.782  30.867  37.378  1.00  0.00    -0.084 NA
ATOM     22  O   UNL A   1      37.942  30.402  36.087  1.00  0.00    -0.351 OA
ENDBRANCH  14  17
ENDBRANCH  12  13
ENDBRANCH   8  12
ENDBRANCH   4   7
ENDBRANCH   2   3
ENDBRANCH   1   2
BRANCH   1  23
ATOM     23  C   UNL A   1      34.408  32.613  28.720  1.00  0.00     0.118 C 
BRANCH  23  24
ATOM     24  N   UNL A   1      33.825  31.371  28.224  1.00  0.00    -0.352 N 
ATOM     25  C   UNL A   1      34.420  30.176  27.902  1.00  0.00     0.251 C 
ATOM     26  H   UNL A   1      32.848  31.394  28.101  1.00  0.00     0.163 HD
ATOM     27  O   UNL A   1      33.761  29.319  27.321  1.00  0.00    -0.269 OA
BRANCH  25  28
ATOM     28  C   UNL A   1      35.841  29.928  28.229  1.00  0.00     0.039 A 
ATOM     29  C   UNL A   1      36.181  29.555  29.533  1.00  0.00     0.014 A 
ATOM     30  C   UNL A   1      36.841  30.078  27.266  1.00  0.00     0.014 A 
ATOM     31  C   UNL A   1      37.512  29.266  29.849  1.00  0.00     0.010 A 
ATOM     32  C   UNL A   1      38.147  29.702  27.557  1.00  0.00     0.010 A 
ATOM     33  C   UNL A   1      38.500  29.300  28.853  1.00  0.00    -0.014 A 
BRANCH  33  34
ATOM     34  C   UNL A   1      39.910  28.934  29.139  1.00  0.00     0.031 A 
ATOM     35  C   UNL A   1      40.847  29.961  29.720  1.00  0.00     0.074 A 
ATOM     36  C   UNL A   1      40.367  27.714  28.792  1.00  0.00     0.049 A 
ATOM     37  N   UNL A   1      42.136  29.878  29.925  1.00  0.00    -0.248 NA
ATOM     38  C   UNL A   1      40.267  31.266  30.083  1.00  0.00     0.031 C 
ATOM     39  C   UNL A   1      39.572  26.656  28.163  1.00  0.00     0.029 A 
ATOM     40  N   UNL A   1      41.619  27.162  28.899  1.00  0.00    -0.354 N 
ATOM     41  C   UNL A   1      42.525  31.125  30.405  1.00  0.00     0.074 A 
ATOM     42  C   UNL A   1      41.344  31.959  30.425  1.00  0.00     0.031 C 
ATOM     43  C   UNL A   1      40.351  25.582  27.953  1.00  0.00     0.029 A 
ATOM     44  C   UNL A   1      41.707  25.884  28.398  1.00  0.00     0.049 A 
ATOM     45  H   UNL A   1      42.384  27.637  29.299  1.00  0.00     0.167 HD
ATOM     46  C   UNL A   1      43.751  31.528  30.809  1.00  0.00     0.037 A 
ATOM     47  C   UNL A   1      42.764  25.055  28.295  1.00  0.00     0.037 A 
ATOM     48  C   UNL A   1      44.905  30.671  30.854  1.00  0.00     0.049 A 
ATOM     49  C   UNL A   1      44.105  25.516  28.803  1.00  0.00     0.074 A 
ATOM     50  C   UNL A   1      46.166  30.954  31.348  1.00  0.00     0.029 A 
ATOM     51  N   UNL A   1      44.938  29.364  30.396  1.00  0.00    -0.354 N 
ATOM     52  N   UNL A   1      44.433  26.671  29.329  1.00  0.00    -0.248 NA
ATOM     53  C   UNL A   1      45.217  24.560  28.710  1.00  0.00     0.031 C 
ATOM     54  C   UNL A   1      46.973  29.829  31.156  1.00  0.00     0.029 A 
ATOM     55  C   UNL A   1      46.202  28.832  30.580  1.00  0.00     0.049 A 
ATOM     56  H   UNL A   1      44.175  28.884  29.999  1.00  0.00     0.167 HD
ATOM     57  C   UNL A   1      45.780  26.569  29.658  1.00  0.00     0.074 A 
ATOM     58  C   UNL A   1      46.203  25.237  29.281  1.00  0.00     0.031 C 
ATOM     59  C   UNL A   1      46.596  27.494  30.219  1.00  0.00     0.037 A 
BRANCH  46  60
ATOM     60  C   UNL A   1      43.917  32.952  31.261  1.00  0.00     0.058 A 
ATOM     61  C   UNL A   1      44.175  33.989  30.352  1.00  0.00     0.135 A 
ATOM     62  C   UNL A   1      43.730  33.293  32.612  1.00  0.00     0.135 A 
ATOM     63  F   UNL A   1      44.379  33.715  29.054  1.00  0.00    -0.206 F 
ATOM     64  C   UNL A   1      44.248  35.315  30.765  1.00  0.00     0.059 A 
ATOM     65  C   UNL A   1      43.776  34.616  33.043  1.00  0.00     0.059 A 
ATOM     66  F   UNL A   1      43.486  32.338  33.523  1.00  0.00    -0.206 F 
ATOM     67  C   UNL A   1      44.040  35.620  32.112  1.00  0.00     0.060 A 
BRANCH  67  68
ATOM     68  S   UNL A   1      44.086  37.351  32.621  1.00  0.00     0.124 S 
ATOM     69  O   UNL A   1      45.448  37.467  33.130  1.00  0.00    -0.237 OA
ATOM     70  O   UNL A   1      43.814  38.051  31.370  1.00  0.00    -0.237 OA
ATOM     71  O   UNL A   1      43.031  37.438  33.627  1.00  0.00    -0.744 OA
ENDBRANCH  67  68
ENDBRANCH  46  60
BRANCH  47  72
ATOM     72  C   UNL A   1      42.608  23.703  27.697  1.00  0.00     0.058 A 
ATOM     73  C   UNL A   1      42.455  22.568  28.509  1.00  0.00     0.135 A 
ATOM     74  C   UNL A   1      42.639  23.513  26.308  1.00  0.00     0.135 A 
ATOM     75  F   UNL A   1      42.421  22.700  29.844  1.00  0.00    -0.206 F 
ATOM     76  C   UNL A   1      42.376  21.289  27.969  1.00  0.00     0.059 A 
ATOM     77  C   UNL A   1      42.536  22.245  25.742  1.00  0.00     0.059 A 
ATOM     78  F   UNL A   1      42.761  24.566  25.486  1.00  0.00    -0.206 F 
ATOM     79  C   UNL A   1      42.426  21.138  26.581  1.00  0.00     0.060 A 
BRANCH  79  80
ATOM     80  S   UNL A   1      42.315  19.477  25.883  1.00  0.00     0.124 S 
ATOM     81  O   UNL A   1      43.309  19.540  24.819  1.00  0.00    -0.237 OA
ATOM     82  O   UNL A   1      42.654  18.636  27.027  1.00  0.00    -0.237 OA
ATOM     83  O   UNL A   1      40.924  19.393  25.446  1.00  0.00    -0.744 OA
ENDBRANCH  79  80
ENDBRANCH  47  72
BRANCH  59  84
ATOM     84  C   UNL A   1      48.013  27.087  30.502  1.00  0.00     0.058 A 
ATOM     85  C   UNL A   1      49.024  27.222  29.541  1.00  0.00     0.135 A 
ATOM     86  C   UNL A   1      48.370  26.606  31.773  1.00  0.00     0.135 A 
ATOM     87  F   UNL A   1      48.729  27.671  28.310  1.00  0.00    -0.206 F 
ATOM     88  C   UNL A   1      50.341  26.875  29.820  1.00  0.00     0.059 A 
ATOM     89  C   UNL A   1      49.685  26.277  32.083  1.00  0.00     0.059 A 
ATOM     90  F   UNL A   1      47.441  26.470  32.731  1.00  0.00    -0.206 F 
ATOM     91  C   UNL A   1      50.662  26.404  31.095  1.00  0.00     0.060 A 
BRANCH  91  92
ATOM     92  S   UNL A   1      52.381  25.990  31.459  1.00  0.00     0.124 S 
ATOM     93  O   UNL A   1      52.269  24.586  31.840  1.00  0.00    -0.237 OA
ATOM     94  O   UNL A   1      53.043  26.251  30.184  1.00  0.00    -0.237 OA
ATOM     95  O   UNL A   1      52.729  26.909  32.538  1.00  0.00    -0.744 OA
ENDBRANCH  91  92
ENDBRANCH  59  84
ENDBRANCH  33  34
ENDBRANCH  25  28
ENDBRANCH  23  24
ENDBRANCH   1  23
TORSDOF 16
ENDMDL
