MODEL 1
REMARK VINA RESULT:     -10.9      0.000      0.000
REMARK SMILES CCc1ccsc1C(=O)N(CC(=O)NCCCNC(=O)c1ccc(-c2c3nc(c(-c4c(F)cc(S(=O)(=O)[O-])cc4F)c4ccc([nH]4)c(-c4c(F)cc(S(=O)(=O)[O-])cc4F)c4nc(c(-c5c(F)cc(S(=O)(=O)[O-])cc5F)c5ccc2[nH]5)C=C4)C=C3)cc1)C(C)(C)C
REMARK SMILES IDX 15 1 14 2 12 3 13 4 11 6 10 7 8 8 9 9 7 10 3 11 4 12 5 13
REMARK SMILES IDX 6 14 2 15 1 16 87 17 88 18 89 19 90 20 16 21 17 22 18 23
REMARK SMILES IDX 19 24 20 26 21 27 22 28 86 29 23 30 85 31 24 32 25 33 26 34
REMARK SMILES IDX 79 35 27 36 84 37 78 38 80 39 28 40 83 41 77 42 76 43 29 45
REMARK SMILES IDX 63 46 42 47 62 48 43 49 46 50 61 51 81 52 44 53 45 54 60 56
REMARK SMILES IDX 82 57 47 58 30 59 31 60 40 61 32 62 33 63 39 64 41 65 34 66
REMARK SMILES IDX 35 67 36 68 37 69 38 70 64 71 65 72 74 73 66 74 67 75 73 76
REMARK SMILES IDX 75 77 68 78 69 79 70 80 71 81 72 82 48 83 49 84 58 85 50 86
REMARK SMILES IDX 51 87 57 88 59 89 52 90 53 91 54 92 55 93 56 94
REMARK H PARENT 14 5 18 25 80 44 46 55
REMARK Flexibility Score: inf
ROOT
ATOM      1  C   UNL A   1      37.679  22.509  25.665  1.00  0.00     0.117 C 
ENDROOT
BRANCH   1   2
ATOM      2  N   UNL A   1      36.599  22.090  26.533  1.00  0.00    -0.354 N 
ATOM      3  C   UNL A   1      35.356  21.646  26.200  1.00  0.00     0.239 C 
ATOM      4  O   UNL A   1      34.571  21.377  27.110  1.00  0.00    -0.273 OA
ATOM      5  H   UNL A   1      36.789  22.133  27.498  1.00  0.00     0.163 HD
BRANCH   3   6
ATOM      6  C   UNL A   1      35.026  21.342  24.736  1.00  0.00     0.220 C 
BRANCH   6   7
ATOM      7  N   UNL A   1      33.988  22.056  23.991  1.00  0.00    -0.324 N 
BRANCH   7   8
ATOM      8  C   UNL A   1      34.204  23.323  23.371  1.00  0.00     0.265 C 
ATOM      9  O   UNL A   1      34.874  23.332  22.333  1.00  0.00    -0.268 OA
BRANCH   8  10
ATOM     10  C   UNL A   1      33.653  24.623  23.858  1.00  0.00     0.095 A 
ATOM     11  C   UNL A   1      32.664  25.559  23.503  1.00  0.00    -0.025 A 
ATOM     12  C   UNL A   1      32.640  26.670  24.436  1.00  0.00     0.016 A 
ATOM     13  C   UNL A   1      33.512  26.544  25.481  1.00  0.00     0.066 A 
ATOM     14  S   UNL A   1      34.419  25.128  25.360  1.00  0.00    -0.138 S 
BRANCH  11  15
ATOM     15  C   UNL A   1      31.690  25.612  22.346  1.00  0.00     0.034 C 
ATOM     16  C   UNL A   1      32.285  25.892  20.981  1.00  0.00     0.009 C 
ENDBRANCH  11  15
ENDBRANCH   8  10
ENDBRANCH   7   8
BRANCH   7  17
ATOM     17  C   UNL A   1      32.595  21.440  23.922  1.00  0.00     0.035 C 
ATOM     18  C   UNL A   1      32.653  19.920  24.190  1.00  0.00     0.034 C 
ATOM     19  C   UNL A   1      31.621  22.105  24.932  1.00  0.00     0.034 C 
ATOM     20  C   UNL A   1      31.906  21.622  22.545  1.00  0.00     0.034 C 
ENDBRANCH   7  17
ENDBRANCH   6   7
ENDBRANCH   3   6
ENDBRANCH   1   2
BRANCH   1  21
ATOM     21  C   UNL A   1      38.192  23.888  26.043  1.00  0.00     0.042 C 
BRANCH  21  22
ATOM     22  C   UNL A   1      39.507  23.828  26.806  1.00  0.00     0.118 C 
BRANCH  22  23
ATOM     23  N   UNL A   1      40.625  24.287  25.991  1.00  0.00    -0.352 N 
ATOM     24  C   UNL A   1      41.333  25.453  26.086  1.00  0.00     0.251 C 
ATOM     25  H   UNL A   1      40.907  23.675  25.273  1.00  0.00     0.163 HD
ATOM     26  O   UNL A   1      42.082  25.789  25.169  1.00  0.00    -0.269 OA
BRANCH  24  27
ATOM     27  C   UNL A   1      41.185  26.294  27.286  1.00  0.00     0.039 A 
ATOM     28  C   UNL A   1      41.900  27.489  27.364  1.00  0.00     0.014 A 
ATOM     29  C   UNL A   1      40.342  25.899  28.331  1.00  0.00     0.014 A 
ATOM     30  C   UNL A   1      41.740  28.307  28.480  1.00  0.00     0.010 A 
ATOM     31  C   UNL A   1      40.118  26.756  29.399  1.00  0.00     0.010 A 
ATOM     32  C   UNL A   1      40.828  27.959  29.494  1.00  0.00    -0.014 A 
BRANCH  32  33
ATOM     33  C   UNL A   1      40.621  28.854  30.657  1.00  0.00     0.031 A 
ATOM     34  C   UNL A   1      41.479  28.715  31.884  1.00  0.00     0.074 A 
ATOM     35  C   UNL A   1      39.638  29.773  30.608  1.00  0.00     0.049 A 
ATOM     36  N   UNL A   1      41.466  29.425  32.983  1.00  0.00    -0.248 NA
ATOM     37  C   UNL A   1      42.461  27.618  31.895  1.00  0.00     0.031 C 
ATOM     38  C   UNL A   1      38.698  29.947  29.496  1.00  0.00     0.029 A 
ATOM     39  N   UNL A   1      39.269  30.739  31.507  1.00  0.00    -0.354 N 
ATOM     40  C   UNL A   1      42.429  28.862  33.811  1.00  0.00     0.074 A 
ATOM     41  C   UNL A   1      42.962  27.710  33.118  1.00  0.00     0.031 C 
ATOM     42  C   UNL A   1      37.891  30.985  29.760  1.00  0.00     0.029 A 
ATOM     43  C   UNL A   1      38.232  31.530  31.071  1.00  0.00     0.049 A 
ATOM     44  H   UNL A   1      39.704  30.856  32.382  1.00  0.00     0.167 HD
ATOM     45  C   UNL A   1      42.852  29.284  35.027  1.00  0.00     0.037 A 
ATOM     46  C   UNL A   1      37.631  32.582  31.658  1.00  0.00     0.037 A 
ATOM     47  C   UNL A   1      42.323  30.444  35.698  1.00  0.00     0.049 A 
ATOM     48  C   UNL A   1      38.137  33.047  32.996  1.00  0.00     0.074 A 
ATOM     49  C   UNL A   1      42.715  30.994  36.905  1.00  0.00     0.029 A 
ATOM     50  N   UNL A   1      41.287  31.233  35.218  1.00  0.00    -0.354 N 
ATOM     51  N   UNL A   1      39.101  32.549  33.734  1.00  0.00    -0.248 NA
ATOM     52  C   UNL A   1      37.483  34.227  33.575  1.00  0.00     0.031 C 
ATOM     53  C   UNL A   1      41.884  32.086  37.178  1.00  0.00     0.029 A 
ATOM     54  C   UNL A   1      41.012  32.253  36.114  1.00  0.00     0.049 A 
ATOM     55  H   UNL A   1      40.816  31.088  34.365  1.00  0.00     0.167 HD
ATOM     56  C   UNL A   1      39.186  33.370  34.852  1.00  0.00     0.074 A 
ATOM     57  C   UNL A   1      38.190  34.409  34.679  1.00  0.00     0.031 C 
ATOM     58  C   UNL A   1      40.010  33.274  35.926  1.00  0.00     0.037 A 
BRANCH  45  59
ATOM     59  C   UNL A   1      43.940  28.493  35.702  1.00  0.00     0.058 A 
ATOM     60  C   UNL A   1      43.650  27.440  36.586  1.00  0.00     0.135 A 
ATOM     61  C   UNL A   1      45.292  28.766  35.438  1.00  0.00     0.135 A 
ATOM     62  F   UNL A   1      42.375  27.144  36.890  1.00  0.00    -0.206 F 
ATOM     63  C   UNL A   1      44.658  26.708  37.206  1.00  0.00     0.059 A 
ATOM     64  C   UNL A   1      46.316  28.026  36.023  1.00  0.00     0.059 A 
ATOM     65  F   UNL A   1      45.631  29.762  34.605  1.00  0.00    -0.206 F 
ATOM     66  C   UNL A   1      45.989  27.007  36.916  1.00  0.00     0.060 A 
BRANCH  66  67
ATOM     67  S   UNL A   1      47.283  26.038  37.717  1.00  0.00     0.124 S 
ATOM     68  O   UNL A   1      46.500  25.181  38.604  1.00  0.00    -0.237 OA
ATOM     69  O   UNL A   1      47.917  25.368  36.587  1.00  0.00    -0.237 OA
ATOM     70  O   UNL A   1      48.101  27.046  38.383  1.00  0.00    -0.744 OA
ENDBRANCH  66  67
ENDBRANCH  45  59
BRANCH  46  71
ATOM     71  C   UNL A   1      36.519  33.285  30.966  1.00  0.00     0.058 A 
ATOM     72  C   UNL A   1      36.756  34.072  29.829  1.00  0.00     0.135 A 
ATOM     73  C   UNL A   1      35.194  33.173  31.416  1.00  0.00     0.135 A 
ATOM     74  F   UNL A   1      38.005  34.213  29.360  1.00  0.00    -0.206 F 
ATOM     75  C   UNL A   1      35.726  34.741  29.177  1.00  0.00     0.059 A 
ATOM     76  C   UNL A   1      34.142  33.807  30.763  1.00  0.00     0.059 A 
ATOM     77  F   UNL A   1      34.910  32.413  32.487  1.00  0.00    -0.206 F 
ATOM     78  C   UNL A   1      34.421  34.601  29.652  1.00  0.00     0.060 A 
BRANCH  78  79
ATOM     79  S   UNL A   1      33.085  35.441  28.773  1.00  0.00     0.124 S 
ATOM     80  O   UNL A   1      33.823  36.422  27.986  1.00  0.00    -0.237 OA
ATOM     81  O   UNL A   1      32.476  34.346  28.023  1.00  0.00    -0.237 OA
ATOM     82  O   UNL A   1      32.264  35.983  29.851  1.00  0.00    -0.744 OA
ENDBRANCH  78  79
ENDBRANCH  46  71
BRANCH  58  83
ATOM     83  C   UNL A   1      39.885  34.342  36.978  1.00  0.00     0.058 A 
ATOM     84  C   UNL A   1      40.609  35.542  36.906  1.00  0.00     0.135 A 
ATOM     85  C   UNL A   1      39.023  34.162  38.074  1.00  0.00     0.135 A 
ATOM     86  F   UNL A   1      41.448  35.764  35.881  1.00  0.00    -0.206 F 
ATOM     87  C   UNL A   1      40.526  36.503  37.908  1.00  0.00     0.059 A 
ATOM     88  C   UNL A   1      38.898  35.125  39.069  1.00  0.00     0.059 A 
ATOM     89  F   UNL A   1      38.293  33.041  38.184  1.00  0.00    -0.206 F 
ATOM     90  C   UNL A   1      39.672  36.281  38.990  1.00  0.00     0.060 A 
BRANCH  90  91
ATOM     91  S   UNL A   1      39.584  37.526  40.294  1.00  0.00     0.124 S 
ATOM     92  O   UNL A   1      40.967  37.984  40.354  1.00  0.00    -0.237 OA
ATOM     93  O   UNL A   1      38.623  38.480  39.749  1.00  0.00    -0.237 OA
ATOM     94  O   UNL A   1      39.120  36.771  41.453  1.00  0.00    -0.744 OA
ENDBRANCH  90  91
ENDBRANCH  58  83
ENDBRANCH  32  33
ENDBRANCH  24  27
ENDBRANCH  22  23
ENDBRANCH  21  22
ENDBRANCH   1  21
TORSDOF 18
ENDMDL
MODEL 2
REMARK VINA RESULT:     -10.8      4.535     10.259
REMARK SMILES CCc1ccsc1C(=O)N(CC(=O)NCCCNC(=O)c1ccc(-c2c3nc(c(-c4c(F)cc(S(=O)(=O)[O-])cc4F)c4ccc([nH]4)c(-c4c(F)cc(S(=O)(=O)[O-])cc4F)c4nc(c(-c5c(F)cc(S(=O)(=O)[O-])cc5F)c5ccc2[nH]5)C=C4)C=C3)cc1)C(C)(C)C
REMARK SMILES IDX 15 1 14 2 12 3 13 4 11 6 10 7 8 8 9 9 7 10 3 11 4 12 5 13
REMARK SMILES IDX 6 14 2 15 1 16 87 17 88 18 89 19 90 20 16 21 17 22 18 23
REMARK SMILES IDX 19 24 20 26 21 27 22 28 86 29 23 30 85 31 24 32 25 33 26 34
REMARK SMILES IDX 79 35 27 36 84 37 78 38 80 39 28 40 83 41 77 42 76 43 29 45
REMARK SMILES IDX 63 46 42 47 62 48 43 49 46 50 61 51 81 52 44 53 45 54 60 56
REMARK SMILES IDX 82 57 47 58 30 59 31 60 40 61 32 62 33 63 39 64 41 65 34 66
REMARK SMILES IDX 35 67 36 68 37 69 38 70 64 71 65 72 74 73 66 74 67 75 73 76
REMARK SMILES IDX 75 77 68 78 69 79 70 80 71 81 72 82 48 83 49 84 58 85 50 86
REMARK SMILES IDX 51 87 57 88 59 89 52 90 53 91 54 92 55 93 56 94
REMARK H PARENT 14 5 18 25 80 44 46 55
REMARK Flexibility Score: inf
ROOT
ATOM      1  C   UNL A   1      33.024  27.393  24.349  1.00  0.00     0.117 C 
ENDROOT
BRANCH   1   2
ATOM      2  N   UNL A   1      33.500  26.837  23.100  1.00  0.00    -0.354 N 
ATOM      3  C   UNL A   1      33.095  25.708  22.456  1.00  0.00     0.239 C 
ATOM      4  O   UNL A   1      33.670  25.395  21.413  1.00  0.00    -0.273 OA
ATOM      5  H   UNL A   1      34.216  27.345  22.655  1.00  0.00     0.163 HD
BRANCH   3   6
ATOM      6  C   UNL A   1      31.853  24.958  22.947  1.00  0.00     0.220 C 
BRANCH   6   7
ATOM      7  N   UNL A   1      31.922  23.827  23.873  1.00  0.00    -0.324 N 
BRANCH   7   8
ATOM      8  C   UNL A   1      32.411  22.541  23.499  1.00  0.00     0.265 C 
ATOM      9  O   UNL A   1      31.769  21.925  22.641  1.00  0.00    -0.268 OA
BRANCH   8  10
ATOM     10  C   UNL A   1      33.651  21.904  24.033  1.00  0.00     0.095 A 
ATOM     11  C   UNL A   1      34.982  22.251  24.333  1.00  0.00    -0.025 A 
ATOM     12  C   UNL A   1      35.716  21.107  24.843  1.00  0.00     0.016 A 
ATOM     13  C   UNL A   1      34.963  19.977  24.991  1.00  0.00     0.066 A 
ATOM     14  S   UNL A   1      33.374  20.225  24.482  1.00  0.00    -0.138 S 
BRANCH  11  15
ATOM     15  C   UNL A   1      35.745  23.550  24.189  1.00  0.00     0.034 C 
ATOM     16  C   UNL A   1      37.032  23.663  24.980  1.00  0.00     0.009 C 
ENDBRANCH  11  15
ENDBRANCH   8  10
ENDBRANCH   7   8
BRANCH   7  17
ATOM     17  C   UNL A   1      31.393  24.021  25.290  1.00  0.00     0.035 C 
ATOM     18  C   UNL A   1      30.366  25.174  25.340  1.00  0.00     0.034 C 
ATOM     19  C   UNL A   1      30.740  22.725  25.842  1.00  0.00     0.034 C 
ATOM     20  C   UNL A   1      32.498  24.365  26.321  1.00  0.00     0.034 C 
ENDBRANCH   7  17
ENDBRANCH   6   7
ENDBRANCH   3   6
ENDBRANCH   1   2
BRANCH   1  21
ATOM     21  C   UNL A   1      34.056  28.315  24.975  1.00  0.00     0.042 C 
BRANCH  21  22
ATOM     22  C   UNL A   1      33.980  28.321  26.495  1.00  0.00     0.118 C 
BRANCH  22  23
ATOM     23  N   UNL A   1      33.720  29.656  27.017  1.00  0.00    -0.352 N 
ATOM     24  C   UNL A   1      34.480  30.406  27.872  1.00  0.00     0.251 C 
ATOM     25  H   UNL A   1      32.882  30.075  26.714  1.00  0.00     0.163 HD
ATOM     26  O   UNL A   1      33.996  31.408  28.400  1.00  0.00    -0.269 OA
BRANCH  24  27
ATOM     27  C   UNL A   1      35.867  30.000  28.153  1.00  0.00     0.039 A 
ATOM     28  C   UNL A   1      36.827  30.142  27.151  1.00  0.00     0.014 A 
ATOM     29  C   UNL A   1      36.215  29.480  29.404  1.00  0.00     0.014 A 
ATOM     30  C   UNL A   1      38.148  29.792  27.420  1.00  0.00     0.010 A 
ATOM     31  C   UNL A   1      37.546  29.216  29.697  1.00  0.00     0.010 A 
ATOM     32  C   UNL A   1      38.523  29.352  28.702  1.00  0.00    -0.014 A 
BRANCH  32  33
ATOM     33  C   UNL A   1      39.937  29.027  29.002  1.00  0.00     0.031 A 
ATOM     34  C   UNL A   1      40.822  30.039  29.676  1.00  0.00     0.074 A 
ATOM     35  C   UNL A   1      40.423  27.825  28.639  1.00  0.00     0.049 A 
ATOM     36  N   UNL A   1      42.072  29.924  30.046  1.00  0.00    -0.248 NA
ATOM     37  C   UNL A   1      40.240  31.364  29.947  1.00  0.00     0.031 C 
ATOM     38  C   UNL A   1      39.674  26.794  27.914  1.00  0.00     0.029 A 
ATOM     39  N   UNL A   1      41.657  27.261  28.835  1.00  0.00    -0.354 N 
ATOM     40  C   UNL A   1      42.423  31.156  30.586  1.00  0.00     0.074 A 
ATOM     41  C   UNL A   1      41.278  32.026  30.436  1.00  0.00     0.031 C 
ATOM     42  C   UNL A   1      40.449  25.709  27.766  1.00  0.00     0.029 A 
ATOM     43  C   UNL A   1      41.757  25.977  28.355  1.00  0.00     0.049 A 
ATOM     44  H   UNL A   1      42.400  27.730  29.276  1.00  0.00     0.167 HD
ATOM     45  C   UNL A   1      43.586  31.519  31.179  1.00  0.00     0.037 A 
ATOM     46  C   UNL A   1      42.786  25.109  28.393  1.00  0.00     0.037 A 
ATOM     47  C   UNL A   1      44.712  30.635  31.337  1.00  0.00     0.049 A 
ATOM     48  C   UNL A   1      44.057  25.528  29.081  1.00  0.00     0.074 A 
ATOM     49  C   UNL A   1      45.918  30.880  31.970  1.00  0.00     0.029 A 
ATOM     50  N   UNL A   1      44.772  29.334  30.855  1.00  0.00    -0.354 N 
ATOM     51  N   UNL A   1      44.348  26.672  29.655  1.00  0.00    -0.248 NA
ATOM     52  C   UNL A   1      45.134  24.531  29.142  1.00  0.00     0.031 C 
ATOM     53  C   UNL A   1      46.724  29.745  31.830  1.00  0.00     0.029 A 
ATOM     54  C   UNL A   1      46.001  28.771  31.160  1.00  0.00     0.049 A 
ATOM     55  H   UNL A   1      44.048  28.879  30.368  1.00  0.00     0.167 HD
ATOM     56  C   UNL A   1      45.632  26.524  30.166  1.00  0.00     0.074 A 
ATOM     57  C   UNL A   1      46.049  25.172  29.852  1.00  0.00     0.031 C 
ATOM     58  C   UNL A   1      46.399  27.424  30.832  1.00  0.00     0.037 A 
BRANCH  45  59
ATOM     59  C   UNL A   1      43.693  32.925  31.706  1.00  0.00     0.058 A 
ATOM     60  C   UNL A   1      44.178  33.978  30.912  1.00  0.00     0.135 A 
ATOM     61  C   UNL A   1      43.273  33.234  33.010  1.00  0.00     0.135 A 
ATOM     62  F   UNL A   1      44.609  33.739  29.662  1.00  0.00    -0.206 F 
ATOM     63  C   UNL A   1      44.271  35.277  31.400  1.00  0.00     0.059 A 
ATOM     64  C   UNL A   1      43.329  34.533  33.508  1.00  0.00     0.059 A 
ATOM     65  F   UNL A   1      42.804  32.269  33.817  1.00  0.00    -0.206 F 
ATOM     66  C   UNL A   1      43.841  35.546  32.699  1.00  0.00     0.060 A 
BRANCH  66  67
ATOM     67  S   UNL A   1      43.957  37.240  33.311  1.00  0.00     0.124 S 
ATOM     68  O   UNL A   1      43.958  38.002  32.065  1.00  0.00    -0.237 OA
ATOM     69  O   UNL A   1      42.752  37.360  34.125  1.00  0.00    -0.237 OA
ATOM     70  O   UNL A   1      45.213  37.249  34.053  1.00  0.00    -0.744 OA
ENDBRANCH  66  67
ENDBRANCH  45  59
BRANCH  46  71
ATOM     71  C   UNL A   1      42.640  23.754  27.801  1.00  0.00     0.058 A 
ATOM     72  C   UNL A   1      42.369  22.637  28.605  1.00  0.00     0.135 A 
ATOM     73  C   UNL A   1      42.751  23.548  26.416  1.00  0.00     0.135 A 
ATOM     74  F   UNL A   1      42.255  22.780  29.935  1.00  0.00    -0.206 F 
ATOM     75  C   UNL A   1      42.237  21.363  28.064  1.00  0.00     0.059 A 
ATOM     76  C   UNL A   1      42.593  22.288  25.848  1.00  0.00     0.059 A 
ATOM     77  F   UNL A   1      42.988  24.588  25.600  1.00  0.00    -0.206 F 
ATOM     78  C   UNL A   1      42.350  21.199  26.683  1.00  0.00     0.060 A 
BRANCH  78  79
ATOM     79  S   UNL A   1      42.136  19.547  25.986  1.00  0.00     0.124 S 
ATOM     80  O   UNL A   1      42.596  18.704  27.083  1.00  0.00    -0.237 OA
ATOM     81  O   UNL A   1      40.702  19.513  25.712  1.00  0.00    -0.237 OA
ATOM     82  O   UNL A   1      42.991  19.568  24.804  1.00  0.00    -0.744 OA
ENDBRANCH  78  79
ENDBRANCH  46  71
BRANCH  58  83
ATOM     83  C   UNL A   1      47.754  26.957  31.290  1.00  0.00     0.058 A 
ATOM     84  C   UNL A   1      47.929  26.264  32.499  1.00  0.00     0.135 A 
ATOM     85  C   UNL A   1      48.893  27.204  30.506  1.00  0.00     0.135 A 
ATOM     86  F   UNL A   1      46.873  26.003  33.287  1.00  0.00    -0.206 F 
ATOM     87  C   UNL A   1      49.191  25.880  32.940  1.00  0.00     0.059 A 
ATOM     88  C   UNL A   1      50.160  26.798  30.911  1.00  0.00     0.059 A 
ATOM     89  F   UNL A   1      48.782  27.847  29.333  1.00  0.00    -0.206 F 
ATOM     90  C   UNL A   1      50.301  26.158  32.142  1.00  0.00     0.060 A 
BRANCH  90  91
ATOM     91  S   UNL A   1      51.936  25.671  32.731  1.00  0.00     0.124 S 
ATOM     92  O   UNL A   1      52.465  26.943  33.209  1.00  0.00    -0.237 OA
ATOM     93  O   UNL A   1      51.616  24.689  33.763  1.00  0.00    -0.237 OA
ATOM     94  O   UNL A   1      52.580  25.130  31.539  1.00  0.00    -0.744 OA
ENDBRANCH  90  91
ENDBRANCH  58  83
ENDBRANCH  32  33
ENDBRANCH  24  27
ENDBRANCH  22  23
ENDBRANCH  21  22
ENDBRANCH   1  21
TORSDOF 18
ENDMDL
MODEL 3
REMARK VINA RESULT:     -10.7      6.592     12.153
REMARK SMILES CCc1ccsc1C(=O)N(CC(=O)NCCCNC(=O)c1ccc(-c2c3nc(c(-c4c(F)cc(S(=O)(=O)[O-])cc4F)c4ccc([nH]4)c(-c4c(F)cc(S(=O)(=O)[O-])cc4F)c4nc(c(-c5c(F)cc(S(=O)(=O)[O-])cc5F)c5ccc2[nH]5)C=C4)C=C3)cc1)C(C)(C)C
REMARK SMILES IDX 15 1 14 2 12 3 13 4 11 6 10 7 8 8 9 9 7 10 3 11 4 12 5 13
REMARK SMILES IDX 6 14 2 15 1 16 87 17 88 18 89 19 90 20 16 21 17 22 18 23
REMARK SMILES IDX 19 24 20 26 21 27 22 28 86 29 23 30 85 31 24 32 25 33 26 34
REMARK SMILES IDX 79 35 27 36 84 37 78 38 80 39 28 40 83 41 77 42 76 43 29 45
REMARK SMILES IDX 63 46 42 47 62 48 43 49 46 50 61 51 81 52 44 53 45 54 60 56
REMARK SMILES IDX 82 57 47 58 30 59 31 60 40 61 32 62 33 63 39 64 41 65 34 66
REMARK SMILES IDX 35 67 36 68 37 69 38 70 64 71 65 72 74 73 66 74 67 75 73 76
REMARK SMILES IDX 75 77 68 78 69 79 70 80 71 81 72 82 48 83 49 84 58 85 50 86
REMARK SMILES IDX 51 87 57 88 59 89 52 90 53 91 54 92 55 93 56 94
REMARK H PARENT 14 5 18 25 80 44 46 55
REMARK Flexibility Score: inf
ROOT
ATOM      1  C   UNL A   1      33.530  30.396  26.865  1.00  0.00     0.117 C 
ENDROOT
BRANCH   1   2
ATOM      2  N   UNL A   1      32.786  29.409  27.619  1.00  0.00    -0.354 N 
ATOM      3  C   UNL A   1      31.875  28.501  27.175  1.00  0.00     0.239 C 
ATOM      4  O   UNL A   1      31.327  27.775  28.005  1.00  0.00    -0.273 OA
ATOM      5  H   UNL A   1      32.965  29.393  28.587  1.00  0.00     0.163 HD
BRANCH   3   6
ATOM      6  C   UNL A   1      31.676  28.298  25.671  1.00  0.00     0.220 C 
BRANCH   6   7
ATOM      7  N   UNL A   1      32.323  27.220  24.922  1.00  0.00    -0.324 N 
BRANCH   7   8
ATOM      8  C   UNL A   1      33.022  26.145  25.547  1.00  0.00     0.265 C 
ATOM      9  O   UNL A   1      34.234  26.299  25.736  1.00  0.00    -0.268 OA
BRANCH   8  10
ATOM     10  C   UNL A   1      32.398  24.875  26.023  1.00  0.00     0.095 A 
ATOM     11  C   UNL A   1      32.784  23.649  26.597  1.00  0.00    -0.025 A 
ATOM     12  C   UNL A   1      31.633  22.794  26.822  1.00  0.00     0.016 A 
ATOM     13  C   UNL A   1      30.435  23.371  26.506  1.00  0.00     0.066 A 
ATOM     14  S   UNL A   1      30.644  24.926  25.886  1.00  0.00    -0.138 S 
BRANCH  11  15
ATOM     15  C   UNL A   1      34.140  23.090  26.969  1.00  0.00     0.034 C 
ATOM     16  C   UNL A   1      35.170  23.031  25.860  1.00  0.00     0.009 C 
ENDBRANCH  11  15
ENDBRANCH   8  10
ENDBRANCH   7   8
BRANCH   7  17
ATOM     17  C   UNL A   1      32.295  27.281  23.398  1.00  0.00     0.035 C 
ATOM     18  C   UNL A   1      30.863  27.549  22.886  1.00  0.00     0.034 C 
ATOM     19  C   UNL A   1      33.252  28.372  22.848  1.00  0.00     0.034 C 
ATOM     20  C   UNL A   1      32.772  25.971  22.719  1.00  0.00     0.034 C 
ENDBRANCH   7  17
ENDBRANCH   6   7
ENDBRANCH   3   6
ENDBRANCH   1   2
BRANCH   1  21
ATOM     21  C   UNL A   1      34.567  31.091  27.730  1.00  0.00     0.042 C 
BRANCH  21  22
ATOM     22  C   UNL A   1      35.435  30.105  28.498  1.00  0.00     0.118 C 
BRANCH  22  23
ATOM     23  N   UNL A   1      35.536  30.461  29.908  1.00  0.00    -0.352 N 
ATOM     24  C   UNL A   1      36.565  30.231  30.778  1.00  0.00     0.251 C 
ATOM     25  H   UNL A   1      34.757  30.930  30.285  1.00  0.00     0.163 HD
ATOM     26  O   UNL A   1      36.387  30.379  31.988  1.00  0.00    -0.269 OA
BRANCH  24  27
ATOM     27  C   UNL A   1      37.874  29.803  30.255  1.00  0.00     0.039 A 
ATOM     28  C   UNL A   1      38.169  30.028  28.911  1.00  0.00     0.014 A 
ATOM     29  C   UNL A   1      38.804  29.180  31.095  1.00  0.00     0.014 A 
ATOM     30  C   UNL A   1      39.418  29.657  28.417  1.00  0.00     0.010 A 
ATOM     31  C   UNL A   1      40.078  28.893  30.622  1.00  0.00     0.010 A 
ATOM     32  C   UNL A   1      40.391  29.111  29.274  1.00  0.00    -0.014 A 
BRANCH  32  33
ATOM     33  C   UNL A   1      41.736  28.763  28.759  1.00  0.00     0.031 A 
ATOM     34  C   UNL A   1      42.816  29.807  28.687  1.00  0.00     0.074 A 
ATOM     35  C   UNL A   1      41.968  27.506  28.335  1.00  0.00     0.049 A 
ATOM     36  N   UNL A   1      44.058  29.682  28.296  1.00  0.00    -0.248 NA
ATOM     37  C   UNL A   1      42.448  31.179  29.075  1.00  0.00     0.031 C 
ATOM     38  C   UNL A   1      40.972  26.431  28.292  1.00  0.00     0.029 A 
ATOM     39  N   UNL A   1      43.113  26.916  27.866  1.00  0.00    -0.354 N 
ATOM     40  C   UNL A   1      44.615  30.952  28.388  1.00  0.00     0.074 A 
ATOM     41  C   UNL A   1      43.560  31.847  28.807  1.00  0.00     0.031 C 
ATOM     42  C   UNL A   1      41.560  25.303  27.865  1.00  0.00     0.029 A 
ATOM     43  C   UNL A   1      42.963  25.581  27.574  1.00  0.00     0.049 A 
ATOM     44  H   UNL A   1      43.960  27.400  27.749  1.00  0.00     0.167 HD
ATOM     45  C   UNL A   1      45.897  31.332  28.171  1.00  0.00     0.037 A 
ATOM     46  C   UNL A   1      43.860  24.680  27.130  1.00  0.00     0.037 A 
ATOM     47  C   UNL A   1      46.942  30.424  27.772  1.00  0.00     0.049 A 
ATOM     48  C   UNL A   1      45.283  25.120  26.922  1.00  0.00     0.074 A 
ATOM     49  C   UNL A   1      48.286  30.689  27.577  1.00  0.00     0.029 A 
ATOM     50  N   UNL A   1      46.759  29.074  27.503  1.00  0.00    -0.354 N 
ATOM     51  N   UNL A   1      45.812  26.310  27.087  1.00  0.00    -0.248 NA
ATOM     52  C   UNL A   1      46.235  24.092  26.484  1.00  0.00     0.031 C 
ATOM     53  C   UNL A   1      48.906  29.511  27.146  1.00  0.00     0.029 A 
ATOM     54  C   UNL A   1      47.961  28.497  27.126  1.00  0.00     0.049 A 
ATOM     55  H   UNL A   1      45.900  28.597  27.570  1.00  0.00     0.167 HD
ATOM     56  C   UNL A   1      47.163  26.167  26.796  1.00  0.00     0.074 A 
ATOM     57  C   UNL A   1      47.372  24.771  26.469  1.00  0.00     0.031 C 
ATOM     58  C   UNL A   1      48.145  27.106  26.797  1.00  0.00     0.037 A 
BRANCH  45  59
ATOM     59  C   UNL A   1      46.240  32.784  28.370  1.00  0.00     0.058 A 
ATOM     60  C   UNL A   1      46.668  33.279  29.613  1.00  0.00     0.135 A 
ATOM     61  C   UNL A   1      46.173  33.688  27.297  1.00  0.00     0.135 A 
ATOM     62  F   UNL A   1      46.735  32.465  30.679  1.00  0.00    -0.206 F 
ATOM     63  C   UNL A   1      46.988  34.621  29.793  1.00  0.00     0.059 A 
ATOM     64  C   UNL A   1      46.518  35.028  27.447  1.00  0.00     0.059 A 
ATOM     65  F   UNL A   1      45.767  33.273  26.087  1.00  0.00    -0.206 F 
ATOM     66  C   UNL A   1      46.912  35.488  28.703  1.00  0.00     0.060 A 
BRANCH  66  67
ATOM     67  S   UNL A   1      47.344  37.223  28.951  1.00  0.00     0.124 S 
ATOM     68  O   UNL A   1      47.949  37.186  30.280  1.00  0.00    -0.237 OA
ATOM     69  O   UNL A   1      48.261  37.477  27.845  1.00  0.00    -0.237 OA
ATOM     70  O   UNL A   1      46.059  37.910  28.867  1.00  0.00    -0.744 OA
ENDBRANCH  66  67
ENDBRANCH  45  59
BRANCH  46  71
ATOM     71  C   UNL A   1      43.445  23.272  26.894  1.00  0.00     0.058 A 
ATOM     72  C   UNL A   1      43.285  22.772  25.593  1.00  0.00     0.135 A 
ATOM     73  C   UNL A   1      43.215  22.391  27.962  1.00  0.00     0.135 A 
ATOM     74  F   UNL A   1      43.491  23.574  24.537  1.00  0.00    -0.206 F 
ATOM     75  C   UNL A   1      42.891  21.459  25.358  1.00  0.00     0.059 A 
ATOM     76  C   UNL A   1      42.849  21.065  27.753  1.00  0.00     0.059 A 
ATOM     77  F   UNL A   1      43.375  22.813  29.227  1.00  0.00    -0.206 F 
ATOM     78  C   UNL A   1      42.676  20.613  26.446  1.00  0.00     0.060 A 
BRANCH  78  79
ATOM     79  S   UNL A   1      42.203  18.899  26.130  1.00  0.00     0.124 S 
ATOM     80  O   UNL A   1      42.501  18.271  27.413  1.00  0.00    -0.237 OA
ATOM     81  O   UNL A   1      40.788  19.028  25.795  1.00  0.00    -0.237 OA
ATOM     82  O   UNL A   1      43.068  18.511  25.021  1.00  0.00    -0.744 OA
ENDBRANCH  78  79
ENDBRANCH  46  71
BRANCH  58  83
ATOM     83  C   UNL A   1      49.535  26.636  26.463  1.00  0.00     0.058 A 
ATOM     84  C   UNL A   1      50.051  26.716  25.160  1.00  0.00     0.135 A 
ATOM     85  C   UNL A   1      50.363  26.100  27.464  1.00  0.00     0.135 A 
ATOM     86  F   UNL A   1      49.301  27.219  24.166  1.00  0.00    -0.206 F 
ATOM     87  C   UNL A   1      51.318  26.234  24.848  1.00  0.00     0.059 A 
ATOM     88  C   UNL A   1      51.646  25.644  27.181  1.00  0.00     0.059 A 
ATOM     89  F   UNL A   1      49.927  26.016  28.730  1.00  0.00    -0.206 F 
ATOM     90  C   UNL A   1      52.105  25.692  25.866  1.00  0.00     0.060 A 
BRANCH  90  91
ATOM     91  S   UNL A   1      53.740  25.053  25.449  1.00  0.00     0.124 S 
ATOM     92  O   UNL A   1      54.523  25.481  26.603  1.00  0.00    -0.237 OA
ATOM     93  O   UNL A   1      53.497  23.617  25.345  1.00  0.00    -0.237 OA
ATOM     94  O   UNL A   1      54.057  25.722  24.192  1.00  0.00    -0.744 OA
ENDBRANCH  90  91
ENDBRANCH  58  83
ENDBRANCH  32  33
ENDBRANCH  24  27
ENDBRANCH  22  23
ENDBRANCH  21  22
ENDBRANCH   1  21
TORSDOF 18
ENDMDL
