MODEL 1
REMARK VINA RESULT:     -13.1      0.000      0.000
REMARK SMILES CN1C(=O)C[C@@H](C(=O)NCCCNC(=O)c2ccc(-c3c4nc(c(-c5c(F)cc(S(=O)(=O)[O-])cc5F)c5ccc([nH]5)c(-c5c(F)cc(S(=O)(=O)[O-])cc5F)c5nc(c(-c6c(F)cc(S(=O)(=O)[O-])cc6F)c6ccc3[nH]6)C=C5)C=C4)cc2)C12CCN(c1ccc(Cl)cn1)CC2
REMARK SMILES IDX 12 1 11 2 10 3 9 4 7 5 8 6 6 8 1 9 2 10 3 11 82 12 4 13 5 14
REMARK SMILES IDX 83 15 94 16 84 17 93 18 85 19 86 20 87 21 92 22 88 23 91 24
REMARK SMILES IDX 89 25 90 26 13 27 14 28 15 30 16 31 17 32 81 33 18 34 80 35
REMARK SMILES IDX 19 36 20 37 21 38 74 39 22 40 79 41 73 42 75 43 23 44 78 45
REMARK SMILES IDX 72 46 71 47 24 49 58 50 37 51 57 52 38 53 41 54 56 55 76 56
REMARK SMILES IDX 39 57 40 58 55 60 77 61 42 62 25 63 26 64 35 65 27 66 28 67
REMARK SMILES IDX 34 68 36 69 29 70 30 71 31 72 32 73 33 74 59 75 60 76 69 77
REMARK SMILES IDX 61 78 62 79 68 80 70 81 63 82 64 83 65 84 66 85 67 86 43 87
REMARK SMILES IDX 44 88 53 89 45 90 46 91 52 92 54 93 47 94 48 95 49 96 50 97
REMARK SMILES IDX 51 98
REMARK H PARENT 9 7 13 29 75 48 41 59
REMARK Flexibility Score: inf
ROOT
ATOM      1  C   UNL A   1      35.687  31.339  28.125  1.00  0.00     0.118 C 
ENDROOT
BRANCH   1   2
ATOM      2  C   UNL A   1      34.594  30.680  27.293  1.00  0.00     0.042 C 
BRANCH   2   3
ATOM      3  C   UNL A   1      34.514  29.166  27.475  1.00  0.00     0.117 C 
BRANCH   3   4
ATOM      4  N   UNL A   1      33.166  28.676  27.728  1.00  0.00    -0.356 N 
ATOM      5  C   UNL A   1      32.213  28.100  26.959  1.00  0.00     0.226 C 
ATOM      6  O   UNL A   1      31.191  27.738  27.555  1.00  0.00    -0.275 OA
ATOM      7  H   UNL A   1      32.888  28.786  28.666  1.00  0.00     0.163 HD
BRANCH   5   8
ATOM      8  C   UNL A   1      32.283  27.904  25.447  1.00  0.00     0.113 C 
ATOM      9  C   UNL A   1      29.153  26.565  23.913  1.00  0.00     0.147 C 
ATOM     10  N   UNL A   1      30.348  27.301  24.286  1.00  0.00    -0.339 N 
ATOM     11  C   UNL A   1      30.488  28.661  24.059  1.00  0.00     0.223 C 
ATOM     12  C   UNL A   1      31.559  26.678  24.840  1.00  0.00     0.058 C 
ATOM     13  O   UNL A   1      29.682  29.403  23.516  1.00  0.00    -0.275 OA
ATOM     14  C   UNL A   1      31.796  29.113  24.648  1.00  0.00     0.116 C 
ATOM     15  C   UNL A   1      31.261  25.543  25.847  1.00  0.00     0.051 C 
ATOM     16  C   UNL A   1      32.393  26.102  23.646  1.00  0.00     0.051 C 
ATOM     17  C   UNL A   1      32.512  24.779  26.251  1.00  0.00     0.120 C 
ATOM     18  C   UNL A   1      33.597  25.252  24.082  1.00  0.00     0.120 C 
ATOM     19  N   UNL A   1      33.118  24.277  25.037  1.00  0.00    -0.356 N 
BRANCH  19  20
ATOM     20  C   UNL A   1      33.412  22.943  24.902  1.00  0.00     0.128 A 
ATOM     21  C   UNL A   1      32.390  22.029  24.624  1.00  0.00     0.048 A 
ATOM     22  N   UNL A   1      34.693  22.539  25.026  1.00  0.00    -0.238 NA
ATOM     23  C   UNL A   1      32.675  20.673  24.492  1.00  0.00     0.026 A 
ATOM     24  C   UNL A   1      34.945  21.208  24.928  1.00  0.00     0.134 A 
ATOM     25  C   UNL A   1      33.981  20.251  24.663  1.00  0.00     0.059 A 
ATOM     26  Cl  UNL A   1      34.389  18.589  24.542  1.00  0.00    -0.083 Cl
ENDBRANCH  19  20
ENDBRANCH   5   8
ENDBRANCH   3   4
ENDBRANCH   2   3
ENDBRANCH   1   2
BRANCH   1  27
ATOM     27  N   UNL A   1      35.549  31.011  29.537  1.00  0.00    -0.352 N 
ATOM     28  C   UNL A   1      36.377  30.271  30.346  1.00  0.00     0.251 C 
ATOM     29  H   UNL A   1      34.746  31.373  29.976  1.00  0.00     0.163 HD
ATOM     30  O   UNL A   1      35.946  29.832  31.409  1.00  0.00    -0.269 OA
BRANCH  28  31
ATOM     31  C   UNL A   1      37.772  29.994  29.936  1.00  0.00     0.039 A 
ATOM     32  C   UNL A   1      38.757  29.857  30.917  1.00  0.00     0.014 A 
ATOM     33  C   UNL A   1      38.116  29.904  28.585  1.00  0.00     0.014 A 
ATOM     34  C   UNL A   1      40.072  29.565  30.544  1.00  0.00     0.010 A 
ATOM     35  C   UNL A   1      39.405  29.529  28.219  1.00  0.00     0.010 A 
ATOM     36  C   UNL A   1      40.399  29.359  29.194  1.00  0.00    -0.014 A 
BRANCH  36  37
ATOM     37  C   UNL A   1      41.769  28.956  28.779  1.00  0.00     0.031 A 
ATOM     38  C   UNL A   1      42.863  29.985  28.674  1.00  0.00     0.074 A 
ATOM     39  C   UNL A   1      42.006  27.678  28.424  1.00  0.00     0.049 A 
ATOM     40  N   UNL A   1      44.089  29.846  28.240  1.00  0.00    -0.248 NA
ATOM     41  C   UNL A   1      42.526  31.357  29.085  1.00  0.00     0.031 C 
ATOM     42  C   UNL A   1      41.016  26.598  28.443  1.00  0.00     0.029 A 
ATOM     43  N   UNL A   1      43.147  27.070  27.962  1.00  0.00    -0.354 N 
ATOM     44  C   UNL A   1      44.664  31.109  28.314  1.00  0.00     0.074 A 
ATOM     45  C   UNL A   1      43.637  32.014  28.782  1.00  0.00     0.031 C 
ATOM     46  C   UNL A   1      41.598  25.459  28.034  1.00  0.00     0.029 A 
ATOM     47  C   UNL A   1      42.986  25.735  27.676  1.00  0.00     0.049 A 
ATOM     48  H   UNL A   1      44.001  27.546  27.847  1.00  0.00     0.167 HD
ATOM     49  C   UNL A   1      45.940  31.476  28.039  1.00  0.00     0.037 A 
ATOM     50  C   UNL A   1      43.851  24.837  27.165  1.00  0.00     0.037 A 
ATOM     51  C   UNL A   1      46.960  30.565  27.592  1.00  0.00     0.049 A 
ATOM     52  C   UNL A   1      45.252  25.275  26.840  1.00  0.00     0.074 A 
ATOM     53  C   UNL A   1      48.297  30.824  27.344  1.00  0.00     0.029 A 
ATOM     54  N   UNL A   1      46.758  29.220  27.315  1.00  0.00    -0.354 N 
ATOM     55  N   UNL A   1      45.798  26.459  26.981  1.00  0.00    -0.248 NA
ATOM     56  C   UNL A   1      46.155  24.258  26.282  1.00  0.00     0.031 C 
ATOM     57  C   UNL A   1      48.888  29.652  26.862  1.00  0.00     0.029 A 
ATOM     58  C   UNL A   1      47.935  28.646  26.864  1.00  0.00     0.049 A 
ATOM     59  H   UNL A   1      45.903  28.743  27.423  1.00  0.00     0.167 HD
ATOM     60  C   UNL A   1      47.114  26.325  26.549  1.00  0.00     0.074 A 
ATOM     61  C   UNL A   1      47.285  24.940  26.161  1.00  0.00     0.031 C 
ATOM     62  C   UNL A   1      48.090  27.264  26.476  1.00  0.00     0.037 A 
BRANCH  49  63
ATOM     63  C   UNL A   1      46.303  32.927  28.212  1.00  0.00     0.058 A 
ATOM     64  C   UNL A   1      46.167  33.853  27.164  1.00  0.00     0.135 A 
ATOM     65  C   UNL A   1      46.757  33.407  29.451  1.00  0.00     0.135 A 
ATOM     66  F   UNL A   1      45.751  33.449  25.953  1.00  0.00    -0.206 F 
ATOM     67  C   UNL A   1      46.499  35.194  27.329  1.00  0.00     0.059 A 
ATOM     68  C   UNL A   1      47.063  34.751  29.648  1.00  0.00     0.059 A 
ATOM     69  F   UNL A   1      46.906  32.568  30.487  1.00  0.00    -0.206 F 
ATOM     70  C   UNL A   1      46.945  35.634  28.576  1.00  0.00     0.060 A 
BRANCH  70  71
ATOM     71  S   UNL A   1      47.367  37.378  28.772  1.00  0.00     0.124 S 
ATOM     72  O   UNL A   1      46.906  37.933  27.504  1.00  0.00    -0.237 OA
ATOM     73  O   UNL A   1      46.591  37.755  29.948  1.00  0.00    -0.237 OA
ATOM     74  O   UNL A   1      48.815  37.360  28.958  1.00  0.00    -0.744 OA
ENDBRANCH  70  71
ENDBRANCH  49  63
BRANCH  50  75
ATOM     75  C   UNL A   1      43.414  23.433  26.935  1.00  0.00     0.058 A 
ATOM     76  C   UNL A   1      43.168  22.955  25.639  1.00  0.00     0.135 A 
ATOM     77  C   UNL A   1      43.247  22.537  28.003  1.00  0.00     0.135 A 
ATOM     78  F   UNL A   1      43.305  23.774  24.586  1.00  0.00    -0.206 F 
ATOM     79  C   UNL A   1      42.760  21.645  25.410  1.00  0.00     0.059 A 
ATOM     80  C   UNL A   1      42.868  21.215  27.797  1.00  0.00     0.059 A 
ATOM     81  F   UNL A   1      43.484  22.938  29.263  1.00  0.00    -0.206 F 
ATOM     82  C   UNL A   1      42.617  20.781  26.496  1.00  0.00     0.060 A 
BRANCH  82  83
ATOM     83  S   UNL A   1      42.139  19.068  26.182  1.00  0.00     0.124 S 
ATOM     84  O   UNL A   1      42.401  18.448  27.475  1.00  0.00    -0.237 OA
ATOM     85  O   UNL A   1      40.734  19.207  25.812  1.00  0.00    -0.237 OA
ATOM     86  O   UNL A   1      43.028  18.666  25.097  1.00  0.00    -0.744 OA
ENDBRANCH  82  83
ENDBRANCH  50  75
BRANCH  62  87
ATOM     87  C   UNL A   1      49.437  26.827  25.968  1.00  0.00     0.058 A 
ATOM     88  C   UNL A   1      49.814  27.015  24.629  1.00  0.00     0.135 A 
ATOM     89  C   UNL A   1      50.382  26.267  26.842  1.00  0.00     0.135 A 
ATOM     90  F   UNL A   1      48.944  27.539  23.750  1.00  0.00    -0.206 F 
ATOM     91  C   UNL A   1      51.074  26.647  24.170  1.00  0.00     0.059 A 
ATOM     92  C   UNL A   1      51.659  25.920  26.412  1.00  0.00     0.059 A 
ATOM     93  F   UNL A   1      50.077  26.072  28.135  1.00  0.00    -0.206 F 
ATOM     94  C   UNL A   1      51.992  26.104  25.071  1.00  0.00     0.060 A 
BRANCH  94  95
ATOM     95  S   UNL A   1      53.639  25.674  24.469  1.00  0.00     0.124 S 
ATOM     96  O   UNL A   1      53.741  24.274  24.868  1.00  0.00    -0.237 OA
ATOM     97  O   UNL A   1      53.519  25.918  23.036  1.00  0.00    -0.237 OA
ATOM     98  O   UNL A   1      54.515  26.596  25.187  1.00  0.00    -0.744 OA
ENDBRANCH  94  95
ENDBRANCH  62  87
ENDBRANCH  36  37
ENDBRANCH  28  31
ENDBRANCH   1  27
TORSDOF 14
ENDMDL
MODEL 2
REMARK VINA RESULT:     -13.1      6.695     12.190
REMARK SMILES CN1C(=O)C[C@@H](C(=O)NCCCNC(=O)c2ccc(-c3c4nc(c(-c5c(F)cc(S(=O)(=O)[O-])cc5F)c5ccc([nH]5)c(-c5c(F)cc(S(=O)(=O)[O-])cc5F)c5nc(c(-c6c(F)cc(S(=O)(=O)[O-])cc6F)c6ccc3[nH]6)C=C5)C=C4)cc2)C12CCN(c1ccc(Cl)cn1)CC2
REMARK SMILES IDX 12 1 11 2 10 3 9 4 7 5 8 6 6 8 1 9 2 10 3 11 82 12 4 13 5 14
REMARK SMILES IDX 83 15 94 16 84 17 93 18 85 19 86 20 87 21 92 22 88 23 91 24
REMARK SMILES IDX 89 25 90 26 13 27 14 28 15 30 16 31 17 32 81 33 18 34 80 35
REMARK SMILES IDX 19 36 20 37 21 38 74 39 22 40 79 41 73 42 75 43 23 44 78 45
REMARK SMILES IDX 72 46 71 47 24 49 58 50 37 51 57 52 38 53 41 54 56 55 76 56
REMARK SMILES IDX 39 57 40 58 55 60 77 61 42 62 25 63 26 64 35 65 27 66 28 67
REMARK SMILES IDX 34 68 36 69 29 70 30 71 31 72 32 73 33 74 59 75 60 76 69 77
REMARK SMILES IDX 61 78 62 79 68 80 70 81 63 82 64 83 65 84 66 85 67 86 43 87
REMARK SMILES IDX 44 88 53 89 45 90 46 91 52 92 54 93 47 94 48 95 49 96 50 97
REMARK SMILES IDX 51 98
REMARK H PARENT 9 7 13 29 75 48 41 59
REMARK Flexibility Score: inf
ROOT
ATOM      1  C   UNL A   1      40.111  23.223  27.112  1.00  0.00     0.118 C 
ENDROOT
BRANCH   1   2
ATOM      2  C   UNL A   1      38.859  22.687  26.429  1.00  0.00     0.042 C 
BRANCH   2   3
ATOM      3  C   UNL A   1      37.951  23.780  25.871  1.00  0.00     0.117 C 
BRANCH   3   4
ATOM      4  N   UNL A   1      37.445  23.498  24.535  1.00  0.00    -0.356 N 
ATOM      5  C   UNL A   1      36.237  23.145  24.040  1.00  0.00     0.226 C 
ATOM      6  O   UNL A   1      36.166  23.064  22.807  1.00  0.00    -0.275 OA
ATOM      7  H   UNL A   1      38.135  23.585  23.838  1.00  0.00     0.163 HD
BRANCH   5   8
ATOM      8  C   UNL A   1      34.996  22.810  24.864  1.00  0.00     0.113 C 
ATOM      9  C   UNL A   1      32.167  21.377  22.894  1.00  0.00     0.147 C 
ATOM     10  N   UNL A   1      33.219  21.689  23.845  1.00  0.00    -0.339 N 
ATOM     11  C   UNL A   1      33.891  20.711  24.562  1.00  0.00     0.223 C 
ATOM     12  C   UNL A   1      33.610  23.056  24.222  1.00  0.00     0.058 C 
ATOM     13  O   UNL A   1      33.692  19.505  24.526  1.00  0.00    -0.275 OA
ATOM     14  C   UNL A   1      34.969  21.370  25.376  1.00  0.00     0.116 C 
ATOM     15  C   UNL A   1      33.617  24.042  23.032  1.00  0.00     0.051 C 
ATOM     16  C   UNL A   1      32.600  23.563  25.306  1.00  0.00     0.051 C 
ATOM     17  C   UNL A   1      33.822  25.484  23.472  1.00  0.00     0.120 C 
ATOM     18  C   UNL A   1      32.765  25.048  25.663  1.00  0.00     0.120 C 
ATOM     19  N   UNL A   1      32.777  25.794  24.423  1.00  0.00    -0.356 N 
BRANCH  19  20
ATOM     20  C   UNL A   1      31.969  26.889  24.242  1.00  0.00     0.128 A 
ATOM     21  C   UNL A   1      30.801  26.774  23.481  1.00  0.00     0.048 A 
ATOM     22  N   UNL A   1      32.312  28.058  24.818  1.00  0.00    -0.238 NA
ATOM     23  C   UNL A   1      29.977  27.880  23.285  1.00  0.00     0.026 A 
ATOM     24  C   UNL A   1      31.514  29.132  24.586  1.00  0.00     0.134 A 
ATOM     25  C   UNL A   1      30.351  29.091  23.838  1.00  0.00     0.059 A 
ATOM     26  Cl  UNL A   1      29.393  30.494  23.606  1.00  0.00    -0.083 Cl
ENDBRANCH  19  20
ENDBRANCH   5   8
ENDBRANCH   3   4
ENDBRANCH   2   3
ENDBRANCH   1   2
BRANCH   1  27
ATOM     27  N   UNL A   1      41.009  23.854  26.156  1.00  0.00    -0.352 N 
ATOM     28  C   UNL A   1      41.459  25.151  26.106  1.00  0.00     0.251 C 
ATOM     29  H   UNL A   1      41.342  23.265  25.440  1.00  0.00     0.163 HD
ATOM     30  O   UNL A   1      41.943  25.582  25.063  1.00  0.00    -0.269 OA
BRANCH  28  31
ATOM     31  C   UNL A   1      41.355  26.026  27.295  1.00  0.00     0.039 A 
ATOM     32  C   UNL A   1      42.371  26.948  27.556  1.00  0.00     0.014 A 
ATOM     33  C   UNL A   1      40.272  25.914  28.172  1.00  0.00     0.014 A 
ATOM     34  C   UNL A   1      42.268  27.800  28.659  1.00  0.00     0.010 A 
ATOM     35  C   UNL A   1      40.129  26.821  29.218  1.00  0.00     0.010 A 
ATOM     36  C   UNL A   1      41.127  27.771  29.477  1.00  0.00    -0.014 A 
BRANCH  36  37
ATOM     37  C   UNL A   1      40.950  28.730  30.600  1.00  0.00     0.031 A 
ATOM     38  C   UNL A   1      41.782  28.597  31.848  1.00  0.00     0.074 A 
ATOM     39  C   UNL A   1      39.989  29.671  30.524  1.00  0.00     0.049 A 
ATOM     40  N   UNL A   1      41.708  29.273  32.965  1.00  0.00    -0.248 NA
ATOM     41  C   UNL A   1      42.814  27.548  31.850  1.00  0.00     0.031 C 
ATOM     42  C   UNL A   1      39.092  29.873  29.383  1.00  0.00     0.029 A 
ATOM     43  N   UNL A   1      39.594  30.627  31.427  1.00  0.00    -0.354 N 
ATOM     44  C   UNL A   1      42.670  28.726  33.805  1.00  0.00     0.074 A 
ATOM     45  C   UNL A   1      43.278  27.625  33.089  1.00  0.00     0.031 C 
ATOM     46  C   UNL A   1      38.268  30.899  29.646  1.00  0.00     0.029 A 
ATOM     47  C   UNL A   1      38.541  31.397  30.991  1.00  0.00     0.049 A 
ATOM     48  H   UNL A   1      40.023  30.749  32.304  1.00  0.00     0.167 HD
ATOM     49  C   UNL A   1      43.030  29.120  35.051  1.00  0.00     0.037 A 
ATOM     50  C   UNL A   1      37.860  32.381  31.610  1.00  0.00     0.037 A 
ATOM     51  C   UNL A   1      42.432  30.229  35.748  1.00  0.00     0.049 A 
ATOM     52  C   UNL A   1      38.259  32.782  33.004  1.00  0.00     0.074 A 
ATOM     53  C   UNL A   1      42.766  30.747  36.987  1.00  0.00     0.029 A 
ATOM     54  N   UNL A   1      41.370  30.986  35.273  1.00  0.00    -0.354 N 
ATOM     55  N   UNL A   1      39.218  32.298  33.757  1.00  0.00    -0.248 NA
ATOM     56  C   UNL A   1      37.482  33.857  33.635  1.00  0.00     0.031 C 
ATOM     57  C   UNL A   1      41.869  31.777  37.287  1.00  0.00     0.029 A 
ATOM     58  C   UNL A   1      41.012  31.941  36.209  1.00  0.00     0.049 A 
ATOM     59  H   UNL A   1      40.934  30.861  34.399  1.00  0.00     0.167 HD
ATOM     60  C   UNL A   1      39.172  33.023  34.943  1.00  0.00     0.074 A 
ATOM     61  C   UNL A   1      38.105  33.992  34.798  1.00  0.00     0.031 C 
ATOM     62  C   UNL A   1      39.942  32.897  36.052  1.00  0.00     0.037 A 
BRANCH  49  63
ATOM     63  C   UNL A   1      44.121  28.346  35.743  1.00  0.00     0.058 A 
ATOM     64  C   UNL A   1      43.835  27.259  36.586  1.00  0.00     0.135 A 
ATOM     65  C   UNL A   1      45.471  28.669  35.531  1.00  0.00     0.135 A 
ATOM     66  F   UNL A   1      42.562  26.913  36.837  1.00  0.00    -0.206 F 
ATOM     67  C   UNL A   1      44.846  26.542  37.219  1.00  0.00     0.059 A 
ATOM     68  C   UNL A   1      46.500  27.945  36.127  1.00  0.00     0.059 A 
ATOM     69  F   UNL A   1      45.803  29.697  34.735  1.00  0.00    -0.206 F 
ATOM     70  C   UNL A   1      46.176  26.892  36.983  1.00  0.00     0.060 A 
BRANCH  70  71
ATOM     71  S   UNL A   1      47.474  25.949  37.810  1.00  0.00     0.124 S 
ATOM     72  O   UNL A   1      46.788  24.689  38.083  1.00  0.00    -0.237 OA
ATOM     73  O   UNL A   1      48.516  25.894  36.791  1.00  0.00    -0.237 OA
ATOM     74  O   UNL A   1      47.789  26.758  38.984  1.00  0.00    -0.744 OA
ENDBRANCH  70  71
ENDBRANCH  49  63
BRANCH  50  75
ATOM     75  C   UNL A   1      36.733  33.058  30.911  1.00  0.00     0.058 A 
ATOM     76  C   UNL A   1      35.401  32.770  31.239  1.00  0.00     0.135 A 
ATOM     77  C   UNL A   1      36.966  34.017  29.911  1.00  0.00     0.135 A 
ATOM     78  F   UNL A   1      35.126  31.856  32.182  1.00  0.00    -0.206 F 
ATOM     79  C   UNL A   1      34.339  33.396  30.594  1.00  0.00     0.059 A 
ATOM     80  C   UNL A   1      35.922  34.676  29.273  1.00  0.00     0.059 A 
ATOM     81  F   UNL A   1      38.224  34.342  29.569  1.00  0.00    -0.206 F 
ATOM     82  C   UNL A   1      34.610  34.351  29.615  1.00  0.00     0.060 A 
BRANCH  82  83
ATOM     83  S   UNL A   1      33.225  35.196  28.822  1.00  0.00     0.124 S 
ATOM     84  O   UNL A   1      33.907  36.259  28.094  1.00  0.00    -0.237 OA
ATOM     85  O   UNL A   1      32.645  34.132  28.008  1.00  0.00    -0.237 OA
ATOM     86  O   UNL A   1      32.406  35.627  29.951  1.00  0.00    -0.744 OA
ENDBRANCH  82  83
ENDBRANCH  50  75
BRANCH  62  87
ATOM     87  C   UNL A   1      39.668  33.835  37.197  1.00  0.00     0.058 A 
ATOM     88  C   UNL A   1      38.863  33.454  38.282  1.00  0.00     0.135 A 
ATOM     89  C   UNL A   1      40.265  35.105  37.237  1.00  0.00     0.135 A 
ATOM     90  F   UNL A   1      38.262  32.253  38.290  1.00  0.00    -0.206 F 
ATOM     91  C   UNL A   1      38.643  34.307  39.358  1.00  0.00     0.059 A 
ATOM     92  C   UNL A   1      40.084  35.963  38.318  1.00  0.00     0.059 A 
ATOM     93  F   UNL A   1      41.051  35.517  36.230  1.00  0.00    -0.206 F 
ATOM     94  C   UNL A   1      39.263  35.559  39.370  1.00  0.00     0.060 A 
BRANCH  94  95
ATOM     95  S   UNL A   1      39.004  36.636  40.795  1.00  0.00     0.124 S 
ATOM     96  O   UNL A   1      40.352  36.720  41.349  1.00  0.00    -0.237 OA
ATOM     97  O   UNL A   1      38.496  37.855  40.175  1.00  0.00    -0.237 OA
ATOM     98  O   UNL A   1      38.038  35.900  41.606  1.00  0.00    -0.744 OA
ENDBRANCH  94  95
ENDBRANCH  62  87
ENDBRANCH  36  37
ENDBRANCH  28  31
ENDBRANCH   1  27
TORSDOF 14
ENDMDL
MODEL 3
REMARK VINA RESULT:     -13.0      6.662     12.132
REMARK SMILES CN1C(=O)C[C@@H](C(=O)NCCCNC(=O)c2ccc(-c3c4nc(c(-c5c(F)cc(S(=O)(=O)[O-])cc5F)c5ccc([nH]5)c(-c5c(F)cc(S(=O)(=O)[O-])cc5F)c5nc(c(-c6c(F)cc(S(=O)(=O)[O-])cc6F)c6ccc3[nH]6)C=C5)C=C4)cc2)C12CCN(c1ccc(Cl)cn1)CC2
REMARK SMILES IDX 12 1 11 2 10 3 9 4 7 5 8 6 6 8 1 9 2 10 3 11 82 12 4 13 5 14
REMARK SMILES IDX 83 15 94 16 84 17 93 18 85 19 86 20 87 21 92 22 88 23 91 24
REMARK SMILES IDX 89 25 90 26 13 27 14 28 15 30 16 31 17 32 81 33 18 34 80 35
REMARK SMILES IDX 19 36 20 37 21 38 74 39 22 40 79 41 73 42 75 43 23 44 78 45
REMARK SMILES IDX 72 46 71 47 24 49 58 50 37 51 57 52 38 53 41 54 56 55 76 56
REMARK SMILES IDX 39 57 40 58 55 60 77 61 42 62 25 63 26 64 35 65 27 66 28 67
REMARK SMILES IDX 34 68 36 69 29 70 30 71 31 72 32 73 33 74 59 75 60 76 69 77
REMARK SMILES IDX 61 78 62 79 68 80 70 81 63 82 64 83 65 84 66 85 67 86 43 87
REMARK SMILES IDX 44 88 53 89 45 90 46 91 52 92 54 93 47 94 48 95 49 96 50 97
REMARK SMILES IDX 51 98
REMARK H PARENT 9 7 13 29 75 48 41 59
REMARK Flexibility Score: inf
ROOT
ATOM      1  C   UNL A   1      40.110  23.197  27.017  1.00  0.00     0.118 C 
ENDROOT
BRANCH   1   2
ATOM      2  C   UNL A   1      38.909  22.581  26.310  1.00  0.00     0.042 C 
BRANCH   2   3
ATOM      3  C   UNL A   1      37.888  23.608  25.828  1.00  0.00     0.117 C 
BRANCH   3   4
ATOM      4  N   UNL A   1      37.382  23.350  24.487  1.00  0.00    -0.356 N 
ATOM      5  C   UNL A   1      36.172  23.014  23.985  1.00  0.00     0.226 C 
ATOM      6  O   UNL A   1      36.102  22.951  22.751  1.00  0.00    -0.275 OA
ATOM      7  H   UNL A   1      38.074  23.440  23.792  1.00  0.00     0.163 HD
BRANCH   5   8
ATOM      8  C   UNL A   1      34.927  22.679  24.803  1.00  0.00     0.113 C 
ATOM      9  C   UNL A   1      32.160  21.117  22.841  1.00  0.00     0.147 C 
ATOM     10  N   UNL A   1      33.190  21.484  23.796  1.00  0.00    -0.339 N 
ATOM     11  C   UNL A   1      33.873  20.546  24.555  1.00  0.00     0.223 C 
ATOM     12  C   UNL A   1      33.545  22.872  24.132  1.00  0.00     0.058 C 
ATOM     13  O   UNL A   1      33.702  19.336  24.556  1.00  0.00    -0.275 OA
ATOM     14  C   UNL A   1      34.924  21.257  25.362  1.00  0.00     0.116 C 
ATOM     15  C   UNL A   1      33.548  23.818  22.910  1.00  0.00     0.051 C 
ATOM     16  C   UNL A   1      32.508  23.391  25.185  1.00  0.00     0.051 C 
ATOM     17  C   UNL A   1      33.714  25.278  23.305  1.00  0.00     0.120 C 
ATOM     18  C   UNL A   1      32.635  24.891  25.494  1.00  0.00     0.120 C 
ATOM     19  N   UNL A   1      32.649  25.596  24.230  1.00  0.00    -0.356 N 
BRANCH  19  20
ATOM     20  C   UNL A   1      31.819  26.665  24.001  1.00  0.00     0.128 A 
ATOM     21  C   UNL A   1      30.462  26.451  23.739  1.00  0.00     0.048 A 
ATOM     22  N   UNL A   1      32.331  27.912  24.048  1.00  0.00    -0.238 NA
ATOM     23  C   UNL A   1      29.613  27.528  23.499  1.00  0.00     0.026 A 
ATOM     24  C   UNL A   1      31.494  28.946  23.777  1.00  0.00     0.134 A 
ATOM     25  C   UNL A   1      30.144  28.804  23.503  1.00  0.00     0.059 A 
ATOM     26  Cl  UNL A   1      29.155  30.168  23.184  1.00  0.00    -0.083 Cl
ENDBRANCH  19  20
ENDBRANCH   5   8
ENDBRANCH   3   4
ENDBRANCH   2   3
ENDBRANCH   1   2
BRANCH   1  27
ATOM     27  N   UNL A   1      41.019  23.825  26.069  1.00  0.00    -0.352 N 
ATOM     28  C   UNL A   1      41.494  25.114  26.038  1.00  0.00     0.251 C 
ATOM     29  H   UNL A   1      41.340  23.241  25.344  1.00  0.00     0.163 HD
ATOM     30  O   UNL A   1      41.985  25.551  25.000  1.00  0.00    -0.269 OA
BRANCH  28  31
ATOM     31  C   UNL A   1      41.406  25.973  27.239  1.00  0.00     0.039 A 
ATOM     32  C   UNL A   1      42.419  26.903  27.489  1.00  0.00     0.014 A 
ATOM     33  C   UNL A   1      40.345  25.839  28.138  1.00  0.00     0.014 A 
ATOM     34  C   UNL A   1      42.331  27.740  28.605  1.00  0.00     0.010 A 
ATOM     35  C   UNL A   1      40.215  26.731  29.199  1.00  0.00     0.010 A 
ATOM     36  C   UNL A   1      41.209  27.689  29.447  1.00  0.00    -0.014 A 
BRANCH  36  37
ATOM     37  C   UNL A   1      41.047  28.632  30.585  1.00  0.00     0.031 A 
ATOM     38  C   UNL A   1      41.899  28.487  31.818  1.00  0.00     0.074 A 
ATOM     39  C   UNL A   1      40.080  29.570  30.538  1.00  0.00     0.049 A 
ATOM     40  N   UNL A   1      41.842  29.148  32.945  1.00  0.00    -0.248 NA
ATOM     41  C   UNL A   1      42.936  27.442  31.789  1.00  0.00     0.031 C 
ATOM     42  C   UNL A   1      39.163  29.783  29.415  1.00  0.00     0.029 A 
ATOM     43  N   UNL A   1      39.696  30.512  31.460  1.00  0.00    -0.354 N 
ATOM     44  C   UNL A   1      42.820  28.594  33.761  1.00  0.00     0.074 A 
ATOM     45  C   UNL A   1      43.421  27.506  33.021  1.00  0.00     0.031 C 
ATOM     46  C   UNL A   1      38.338  30.801  29.706  1.00  0.00     0.029 A 
ATOM     47  C   UNL A   1      38.633  31.283  31.052  1.00  0.00     0.049 A 
ATOM     48  H   UNL A   1      40.139  30.624  32.332  1.00  0.00     0.167 HD
ATOM     49  C   UNL A   1      43.199  28.973  35.006  1.00  0.00     0.037 A 
ATOM     50  C   UNL A   1      37.957  32.255  31.696  1.00  0.00     0.037 A 
ATOM     51  C   UNL A   1      42.608  30.070  35.727  1.00  0.00     0.049 A 
ATOM     52  C   UNL A   1      38.378  32.639  33.088  1.00  0.00     0.074 A 
ATOM     53  C   UNL A   1      42.961  30.573  36.967  1.00  0.00     0.029 A 
ATOM     54  N   UNL A   1      41.535  30.828  35.280  1.00  0.00    -0.354 N 
ATOM     55  N   UNL A   1      39.352  32.150  33.818  1.00  0.00    -0.248 NA
ATOM     56  C   UNL A   1      37.607  33.703  33.747  1.00  0.00     0.031 C 
ATOM     57  C   UNL A   1      42.064  31.595  37.296  1.00  0.00     0.029 A 
ATOM     58  C   UNL A   1      41.189  31.770  36.235  1.00  0.00     0.049 A 
ATOM     59  H   UNL A   1      41.085  30.713  34.412  1.00  0.00     0.167 HD
ATOM     60  C   UNL A   1      39.323  32.860  35.015  1.00  0.00     0.074 A 
ATOM     61  C   UNL A   1      38.249  33.825  34.900  1.00  0.00     0.031 C 
ATOM     62  C   UNL A   1      40.112  32.722  36.109  1.00  0.00     0.037 A 
BRANCH  49  63
ATOM     63  C   UNL A   1      44.305  28.195  35.669  1.00  0.00     0.058 A 
ATOM     64  C   UNL A   1      44.039  27.088  36.492  1.00  0.00     0.135 A 
ATOM     65  C   UNL A   1      45.650  28.535  35.448  1.00  0.00     0.135 A 
ATOM     66  F   UNL A   1      42.772  26.725  36.750  1.00  0.00    -0.206 F 
ATOM     67  C   UNL A   1      45.064  26.368  37.099  1.00  0.00     0.059 A 
ATOM     68  C   UNL A   1      46.692  27.809  36.018  1.00  0.00     0.059 A 
ATOM     69  F   UNL A   1      45.963  29.583  34.670  1.00  0.00    -0.206 F 
ATOM     70  C   UNL A   1      46.388  26.735  36.855  1.00  0.00     0.060 A 
BRANCH  70  71
ATOM     71  S   UNL A   1      47.704  25.787  37.647  1.00  0.00     0.124 S 
ATOM     72  O   UNL A   1      48.053  24.839  36.594  1.00  0.00    -0.237 OA
ATOM     73  O   UNL A   1      48.700  26.815  37.929  1.00  0.00    -0.237 OA
ATOM     74  O   UNL A   1      47.051  25.210  38.818  1.00  0.00    -0.744 OA
ENDBRANCH  70  71
ENDBRANCH  49  63
BRANCH  50  75
ATOM     75  C   UNL A   1      36.816  32.936  31.025  1.00  0.00     0.058 A 
ATOM     76  C   UNL A   1      35.491  32.631  31.367  1.00  0.00     0.135 A 
ATOM     77  C   UNL A   1      37.028  33.914  30.040  1.00  0.00     0.135 A 
ATOM     78  F   UNL A   1      35.236  31.699  32.296  1.00  0.00    -0.206 F 
ATOM     79  C   UNL A   1      34.415  33.261  30.748  1.00  0.00     0.059 A 
ATOM     80  C   UNL A   1      35.970  34.577  29.428  1.00  0.00     0.059 A 
ATOM     81  F   UNL A   1      38.278  34.255  29.686  1.00  0.00    -0.206 F 
ATOM     82  C   UNL A   1      34.665  34.236  29.782  1.00  0.00     0.060 A 
BRANCH  82  83
ATOM     83  S   UNL A   1      33.263  35.084  29.024  1.00  0.00     0.124 S 
ATOM     84  O   UNL A   1      32.445  35.399  30.189  1.00  0.00    -0.237 OA
ATOM     85  O   UNL A   1      33.909  36.217  28.370  1.00  0.00    -0.237 OA
ATOM     86  O   UNL A   1      32.713  34.078  28.119  1.00  0.00    -0.744 OA
ENDBRANCH  82  83
ENDBRANCH  50  75
BRANCH  62  87
ATOM     87  C   UNL A   1      39.853  33.644  37.270  1.00  0.00     0.058 A 
ATOM     88  C   UNL A   1      40.496  34.887  37.379  1.00  0.00     0.135 A 
ATOM     89  C   UNL A   1      38.910  33.306  38.253  1.00  0.00     0.135 A 
ATOM     90  F   UNL A   1      41.414  35.255  36.470  1.00  0.00    -0.206 F 
ATOM     91  C   UNL A   1      40.227  35.755  38.431  1.00  0.00     0.059 A 
ATOM     92  C   UNL A   1      38.601  34.173  39.298  1.00  0.00     0.059 A 
ATOM     93  F   UNL A   1      38.259  32.133  38.193  1.00  0.00    -0.206 F 
ATOM     94  C   UNL A   1      39.273  35.392  39.383  1.00  0.00     0.060 A 
BRANCH  94  95
ATOM     95  S   UNL A   1      38.901  36.549  40.718  1.00  0.00     0.124 S 
ATOM     96  O   UNL A   1      37.943  35.787  41.510  1.00  0.00    -0.237 OA
ATOM     97  O   UNL A   1      40.211  36.750  41.328  1.00  0.00    -0.237 OA
ATOM     98  O   UNL A   1      38.356  37.709  40.019  1.00  0.00    -0.744 OA
ENDBRANCH  94  95
ENDBRANCH  62  87
ENDBRANCH  36  37
ENDBRANCH  28  31
ENDBRANCH   1  27
TORSDOF 14
ENDMDL
