MODEL 1
REMARK VINA RESULT:     -11.2      0.000      0.000
REMARK SMILES C[C@H](C(=O)NCCCNC(=O)c1ccc(-c2c3nc(c(-c4c(F)cc(S(=O)(=O)[O-])cc4F)c4ccc([nH]4)c(-c4c(F)cc(S(=O)(=O)[O-])cc4F)c4nc(c(-c5c(F)cc(S(=O)(=O)[O-])cc5F)c5ccc2[nH]5)C=C4)C=C3)cc1)c1ccc2c(c1)[nH]c1ccc(Cl)cc12
REMARK SMILES IDX 8 1 7 2 6 3 5 4 3 5 4 6 2 8 1 9 78 10 79 11 83 12 80 13
REMARK SMILES IDX 82 14 81 15 84 16 91 17 85 18 90 20 86 21 88 22 87 23 89 24
REMARK SMILES IDX 9 25 10 26 11 28 12 29 13 30 77 31 14 32 76 33 15 34 16 35
REMARK SMILES IDX 17 36 70 37 18 38 75 39 69 40 71 41 19 42 74 43 68 44 67 45
REMARK SMILES IDX 20 47 54 48 33 49 53 50 34 51 37 52 52 53 72 54 35 55 36 56
REMARK SMILES IDX 51 58 73 59 38 60 21 61 22 62 31 63 23 64 24 65 30 66 32 67
REMARK SMILES IDX 25 68 26 69 27 70 28 71 29 72 55 73 56 74 65 75 57 76 58 77
REMARK SMILES IDX 64 78 66 79 59 80 60 81 61 82 62 83 63 84 39 85 40 86 49 87
REMARK SMILES IDX 41 88 42 89 48 90 50 91 43 92 44 93 45 94 46 95 47 96
REMARK H PARENT 5 7 84 19 9 27 71 46 37 57
REMARK Flexibility Score: inf
ROOT
ATOM      1  C   UNL A   1      34.534  32.746  28.283  1.00  0.00     0.118 C 
ENDROOT
BRANCH   1   2
ATOM      2  C   UNL A   1      33.571  33.922  28.204  1.00  0.00     0.042 C 
BRANCH   2   3
ATOM      3  C   UNL A   1      33.849  35.032  29.217  1.00  0.00     0.117 C 
BRANCH   3   4
ATOM      4  N   UNL A   1      32.839  35.077  30.260  1.00  0.00    -0.356 N 
ATOM      5  C   UNL A   1      32.958  35.285  31.608  1.00  0.00     0.227 C 
ATOM      6  O   UNL A   1      31.926  35.194  32.278  1.00  0.00    -0.274 OA
ATOM      7  H   UNL A   1      31.917  34.933  29.946  1.00  0.00     0.163 HD
BRANCH   5   8
ATOM      8  C   UNL A   1      34.314  35.654  32.240  1.00  0.00     0.105 C 
ATOM      9  C   UNL A   1      34.075  36.551  33.463  1.00  0.00     0.023 C 
BRANCH   8  10
ATOM     10  C   UNL A   1      35.152  34.419  32.561  1.00  0.00    -0.034 A 
ATOM     11  C   UNL A   1      34.815  33.137  32.106  1.00  0.00     0.005 A 
ATOM     12  C   UNL A   1      36.358  34.590  33.265  1.00  0.00     0.031 A 
ATOM     13  C   UNL A   1      35.682  32.043  32.279  1.00  0.00     0.011 A 
ATOM     14  C   UNL A   1      37.261  33.523  33.317  1.00  0.00     0.047 A 
ATOM     15  C   UNL A   1      36.956  32.251  32.847  1.00  0.00     0.007 A 
ATOM     16  N   UNL A   1      38.564  33.496  33.750  1.00  0.00    -0.355 N 
ATOM     17  C   UNL A   1      38.111  31.429  33.065  1.00  0.00     0.009 A 
ATOM     18  C   UNL A   1      39.113  32.249  33.587  1.00  0.00     0.047 A 
ATOM     19  H   UNL A   1      39.042  34.270  34.129  1.00  0.00     0.167 HD
ATOM     20  C   UNL A   1      38.414  30.071  32.836  1.00  0.00     0.031 A 
ATOM     21  C   UNL A   1      40.410  31.797  33.860  1.00  0.00     0.028 A 
ATOM     22  C   UNL A   1      39.697  29.598  33.136  1.00  0.00     0.041 A 
ATOM     23  C   UNL A   1      40.684  30.448  33.629  1.00  0.00     0.022 A 
ATOM     24  Cl  UNL A   1      40.058  27.932  32.891  1.00  0.00    -0.084 Cl
ENDBRANCH   8  10
ENDBRANCH   5   8
ENDBRANCH   3   4
ENDBRANCH   2   3
ENDBRANCH   1   2
BRANCH   1  25
ATOM     25  N   UNL A   1      33.861  31.471  28.093  1.00  0.00    -0.352 N 
ATOM     26  C   UNL A   1      34.374  30.204  27.943  1.00  0.00     0.251 C 
ATOM     27  H   UNL A   1      32.878  31.524  28.067  1.00  0.00     0.163 HD
ATOM     28  O   UNL A   1      33.616  29.305  27.584  1.00  0.00    -0.269 OA
BRANCH  26  29
ATOM     29  C   UNL A   1      35.809  29.904  28.181  1.00  0.00     0.039 A 
ATOM     30  C   UNL A   1      36.199  29.465  29.453  1.00  0.00     0.014 A 
ATOM     31  C   UNL A   1      36.786  30.105  27.202  1.00  0.00     0.014 A 
ATOM     32  C   UNL A   1      37.543  29.182  29.722  1.00  0.00     0.010 A 
ATOM     33  C   UNL A   1      38.114  29.743  27.445  1.00  0.00     0.010 A 
ATOM     34  C   UNL A   1      38.511  29.290  28.711  1.00  0.00    -0.014 A 
BRANCH  34  35
ATOM     35  C   UNL A   1      39.939  28.956  28.969  1.00  0.00     0.031 A 
ATOM     36  C   UNL A   1      40.867  29.985  29.564  1.00  0.00     0.074 A 
ATOM     37  C   UNL A   1      40.417  27.741  28.631  1.00  0.00     0.049 A 
ATOM     38  N   UNL A   1      42.152  29.903  29.799  1.00  0.00    -0.248 NA
ATOM     39  C   UNL A   1      40.277  31.285  29.922  1.00  0.00     0.031 C 
ATOM     40  C   UNL A   1      39.635  26.665  28.018  1.00  0.00     0.029 A 
ATOM     41  N   UNL A   1      41.676  27.207  28.754  1.00  0.00    -0.354 N 
ATOM     42  C   UNL A   1      42.526  31.138  30.318  1.00  0.00     0.074 A 
ATOM     43  C   UNL A   1      41.341  31.969  30.316  1.00  0.00     0.031 C 
ATOM     44  C   UNL A   1      40.424  25.592  27.846  1.00  0.00     0.029 A 
ATOM     45  C   UNL A   1      41.776  25.914  28.295  1.00  0.00     0.049 A 
ATOM     46  H   UNL A   1      42.437  27.703  29.134  1.00  0.00     0.167 HD
ATOM     47  C   UNL A   1      43.736  31.537  30.778  1.00  0.00     0.037 A 
ATOM     48  C   UNL A   1      42.835  25.084  28.233  1.00  0.00     0.037 A 
ATOM     49  C   UNL A   1      44.909  30.702  30.803  1.00  0.00     0.049 A 
ATOM     50  C   UNL A   1      44.174  25.555  28.735  1.00  0.00     0.074 A 
ATOM     51  C   UNL A   1      46.171  31.005  31.286  1.00  0.00     0.029 A 
ATOM     52  N   UNL A   1      44.966  29.399  30.330  1.00  0.00    -0.354 N 
ATOM     53  N   UNL A   1      44.498  26.715  29.253  1.00  0.00    -0.248 NA
ATOM     54  C   UNL A   1      45.290  24.602  28.645  1.00  0.00     0.031 C 
ATOM     55  C   UNL A   1      47.001  29.898  31.071  1.00  0.00     0.029 A 
ATOM     56  C   UNL A   1      46.243  28.890  30.499  1.00  0.00     0.049 A 
ATOM     57  H   UNL A   1      44.210  28.909  29.934  1.00  0.00     0.167 HD
ATOM     58  C   UNL A   1      45.848  26.623  29.575  1.00  0.00     0.074 A 
ATOM     59  C   UNL A   1      46.277  25.290  29.203  1.00  0.00     0.031 C 
ATOM     60  C   UNL A   1      46.657  27.558  30.131  1.00  0.00     0.037 A 
BRANCH  47  61
ATOM     61  C   UNL A   1      43.854  32.943  31.304  1.00  0.00     0.058 A 
ATOM     62  C   UNL A   1      44.043  34.036  30.443  1.00  0.00     0.135 A 
ATOM     63  C   UNL A   1      43.734  33.207  32.678  1.00  0.00     0.135 A 
ATOM     64  F   UNL A   1      44.179  33.841  29.122  1.00  0.00    -0.206 F 
ATOM     65  C   UNL A   1      44.137  35.337  30.927  1.00  0.00     0.059 A 
ATOM     66  C   UNL A   1      43.798  34.504  33.182  1.00  0.00     0.059 A 
ATOM     67  F   UNL A   1      43.551  32.200  33.547  1.00  0.00    -0.206 F 
ATOM     68  C   UNL A   1      44.013  35.561  32.300  1.00  0.00     0.060 A 
BRANCH  68  69
ATOM     69  S   UNL A   1      44.130  37.256  32.909  1.00  0.00     0.124 S 
ATOM     70  O   UNL A   1      44.071  38.016  31.664  1.00  0.00    -0.237 OA
ATOM     71  O   UNL A   1      42.957  37.361  33.771  1.00  0.00    -0.237 OA
ATOM     72  O   UNL A   1      45.417  37.281  33.599  1.00  0.00    -0.744 OA
ENDBRANCH  68  69
ENDBRANCH  47  61
BRANCH  48  73
ATOM     73  C   UNL A   1      42.667  23.708  27.697  1.00  0.00     0.058 A 
ATOM     74  C   UNL A   1      42.718  23.464  26.317  1.00  0.00     0.135 A 
ATOM     75  C   UNL A   1      42.473  22.609  28.548  1.00  0.00     0.135 A 
ATOM     76  F   UNL A   1      42.894  24.483  25.462  1.00  0.00    -0.206 F 
ATOM     77  C   UNL A   1      42.575  22.181  25.798  1.00  0.00     0.059 A 
ATOM     78  C   UNL A   1      42.350  21.313  28.055  1.00  0.00     0.059 A 
ATOM     79  F   UNL A   1      42.438  22.788  29.878  1.00  0.00    -0.206 F 
ATOM     80  C   UNL A   1      42.397  21.112  26.676  1.00  0.00     0.060 A 
BRANCH  80  81
ATOM     81  S   UNL A   1      42.286  19.443  25.993  1.00  0.00     0.124 S 
ATOM     82  O   UNL A   1      42.729  18.633  27.121  1.00  0.00    -0.237 OA
ATOM     83  O   UNL A   1      40.870  19.345  25.652  1.00  0.00    -0.237 OA
ATOM     84  O   UNL A   1      43.193  19.490  24.849  1.00  0.00    -0.744 OA
ENDBRANCH  80  81
ENDBRANCH  48  73
BRANCH  60  85
ATOM     85  C   UNL A   1      48.083  27.167  30.406  1.00  0.00     0.058 A 
ATOM     86  C   UNL A   1      49.120  27.471  29.510  1.00  0.00     0.135 A 
ATOM     87  C   UNL A   1      48.423  26.524  31.608  1.00  0.00     0.135 A 
ATOM     88  F   UNL A   1      48.849  28.079  28.345  1.00  0.00    -0.206 F 
ATOM     89  C   UNL A   1      50.440  27.132  29.786  1.00  0.00     0.059 A 
ATOM     90  C   UNL A   1      49.740  26.199  31.916  1.00  0.00     0.059 A 
ATOM     91  F   UNL A   1      47.471  26.219  32.504  1.00  0.00    -0.206 F 
ATOM     92  C   UNL A   1      50.741  26.497  30.993  1.00  0.00     0.060 A 
BRANCH  92  93
ATOM     93  S   UNL A   1      52.463  26.092  31.354  1.00  0.00     0.124 S 
ATOM     94  O   UNL A   1      52.842  27.183  32.246  1.00  0.00    -0.237 OA
ATOM     95  O   UNL A   1      52.353  24.775  31.972  1.00  0.00    -0.237 OA
ATOM     96  O   UNL A   1      53.098  26.109  30.039  1.00  0.00    -0.744 OA
ENDBRANCH  92  93
ENDBRANCH  60  85
ENDBRANCH  34  35
ENDBRANCH  26  29
ENDBRANCH   1  25
TORSDOF 14
ENDMDL
MODEL 2
REMARK VINA RESULT:     -11.0      5.611     12.312
REMARK SMILES C[C@H](C(=O)NCCCNC(=O)c1ccc(-c2c3nc(c(-c4c(F)cc(S(=O)(=O)[O-])cc4F)c4ccc([nH]4)c(-c4c(F)cc(S(=O)(=O)[O-])cc4F)c4nc(c(-c5c(F)cc(S(=O)(=O)[O-])cc5F)c5ccc2[nH]5)C=C4)C=C3)cc1)c1ccc2c(c1)[nH]c1ccc(Cl)cc12
REMARK SMILES IDX 8 1 7 2 6 3 5 4 3 5 4 6 2 8 1 9 78 10 79 11 83 12 80 13
REMARK SMILES IDX 82 14 81 15 84 16 91 17 85 18 90 20 86 21 88 22 87 23 89 24
REMARK SMILES IDX 9 25 10 26 11 28 12 29 13 30 77 31 14 32 76 33 15 34 16 35
REMARK SMILES IDX 17 36 70 37 18 38 75 39 69 40 71 41 19 42 74 43 68 44 67 45
REMARK SMILES IDX 20 47 54 48 33 49 53 50 34 51 37 52 52 53 72 54 35 55 36 56
REMARK SMILES IDX 51 58 73 59 38 60 21 61 22 62 31 63 23 64 24 65 30 66 32 67
REMARK SMILES IDX 25 68 26 69 27 70 28 71 29 72 55 73 56 74 65 75 57 76 58 77
REMARK SMILES IDX 64 78 66 79 59 80 60 81 61 82 62 83 63 84 39 85 40 86 49 87
REMARK SMILES IDX 41 88 42 89 48 90 50 91 43 92 44 93 45 94 46 95 47 96
REMARK H PARENT 5 7 84 19 9 27 71 46 37 57
REMARK Flexibility Score: inf
ROOT
ATOM      1  C   UNL A   1      38.275  24.048  26.512  1.00  0.00     0.118 C 
ENDROOT
BRANCH   1   2
ATOM      2  C   UNL A   1      37.351  23.672  25.361  1.00  0.00     0.042 C 
BRANCH   2   3
ATOM      3  C   UNL A   1      37.094  22.172  25.227  1.00  0.00     0.117 C 
BRANCH   3   4
ATOM      4  N   UNL A   1      36.063  21.717  26.144  1.00  0.00    -0.356 N 
ATOM      5  C   UNL A   1      34.723  21.514  25.950  1.00  0.00     0.227 C 
ATOM      6  O   UNL A   1      34.059  21.191  26.938  1.00  0.00    -0.274 OA
ATOM      7  H   UNL A   1      36.379  21.523  27.056  1.00  0.00     0.163 HD
BRANCH   5   8
ATOM      8  C   UNL A   1      34.092  21.646  24.549  1.00  0.00     0.105 C 
ATOM      9  C   UNL A   1      33.092  20.502  24.334  1.00  0.00     0.023 C 
BRANCH   8  10
ATOM     10  C   UNL A   1      33.478  23.026  24.325  1.00  0.00    -0.034 A 
ATOM     11  C   UNL A   1      34.111  24.021  23.568  1.00  0.00     0.005 A 
ATOM     12  C   UNL A   1      32.186  23.274  24.822  1.00  0.00     0.031 A 
ATOM     13  C   UNL A   1      33.458  25.224  23.243  1.00  0.00     0.011 A 
ATOM     14  C   UNL A   1      31.508  24.417  24.386  1.00  0.00     0.047 A 
ATOM     15  C   UNL A   1      32.110  25.404  23.612  1.00  0.00     0.007 A 
ATOM     16  N   UNL A   1      30.192  24.775  24.552  1.00  0.00    -0.355 N 
ATOM     17  C   UNL A   1      31.118  26.410  23.361  1.00  0.00     0.009 A 
ATOM     18  C   UNL A   1      29.921  25.964  23.922  1.00  0.00     0.047 A 
ATOM     19  H   UNL A   1      29.531  24.248  25.057  1.00  0.00     0.167 HD
ATOM     20  C   UNL A   1      31.116  27.645  22.679  1.00  0.00     0.031 A 
ATOM     21  C   UNL A   1      28.713  26.664  23.811  1.00  0.00     0.028 A 
ATOM     22  C   UNL A   1      29.922  28.371  22.589  1.00  0.00     0.041 A 
ATOM     23  C   UNL A   1      28.737  27.885  23.135  1.00  0.00     0.022 A 
ATOM     24  Cl  UNL A   1      29.925  29.896  21.787  1.00  0.00    -0.084 Cl
ENDBRANCH   8  10
ENDBRANCH   5   8
ENDBRANCH   3   4
ENDBRANCH   2   3
ENDBRANCH   1   2
BRANCH   1  25
ATOM     25  N   UNL A   1      39.678  23.942  26.146  1.00  0.00    -0.352 N 
ATOM     26  C   UNL A   1      40.754  24.723  26.499  1.00  0.00     0.251 C 
ATOM     27  H   UNL A   1      39.893  23.189  25.549  1.00  0.00     0.163 HD
ATOM     28  O   UNL A   1      41.814  24.564  25.896  1.00  0.00    -0.269 OA
BRANCH  26  29
ATOM     29  C   UNL A   1      40.661  25.756  27.562  1.00  0.00     0.039 A 
ATOM     30  C   UNL A   1      39.671  25.617  28.544  1.00  0.00     0.014 A 
ATOM     31  C   UNL A   1      41.481  26.887  27.578  1.00  0.00     0.014 A 
ATOM     32  C   UNL A   1      39.542  26.575  29.557  1.00  0.00     0.010 A 
ATOM     33  C   UNL A   1      41.408  27.797  28.636  1.00  0.00     0.010 A 
ATOM     34  C   UNL A   1      40.429  27.661  29.630  1.00  0.00    -0.014 A 
BRANCH  34  35
ATOM     35  C   UNL A   1      40.331  28.667  30.723  1.00  0.00     0.031 A 
ATOM     36  C   UNL A   1      41.226  28.567  31.933  1.00  0.00     0.074 A 
ATOM     37  C   UNL A   1      39.411  29.650  30.652  1.00  0.00     0.049 A 
ATOM     38  N   UNL A   1      41.243  29.306  33.013  1.00  0.00    -0.248 NA
ATOM     39  C   UNL A   1      42.218  27.480  31.939  1.00  0.00     0.031 C 
ATOM     40  C   UNL A   1      38.461  29.841  29.554  1.00  0.00     0.029 A 
ATOM     41  N   UNL A   1      39.121  30.671  31.523  1.00  0.00    -0.354 N 
ATOM     42  C   UNL A   1      42.232  28.768  33.829  1.00  0.00     0.074 A 
ATOM     43  C   UNL A   1      42.759  27.609  33.142  1.00  0.00     0.031 C 
ATOM     44  C   UNL A   1      37.715  30.931  29.803  1.00  0.00     0.029 A 
ATOM     45  C   UNL A   1      38.101  31.490  31.096  1.00  0.00     0.049 A 
ATOM     46  H   UNL A   1      39.597  30.805  32.374  1.00  0.00     0.167 HD
ATOM     47  C   UNL A   1      42.681  29.212  35.029  1.00  0.00     0.037 A 
ATOM     48  C   UNL A   1      37.534  32.563  31.680  1.00  0.00     0.037 A 
ATOM     49  C   UNL A   1      42.174  30.381  35.702  1.00  0.00     0.049 A 
ATOM     50  C   UNL A   1      38.038  33.028  33.020  1.00  0.00     0.074 A 
ATOM     51  C   UNL A   1      42.591  30.931  36.902  1.00  0.00     0.029 A 
ATOM     52  N   UNL A   1      41.143  31.181  35.233  1.00  0.00    -0.354 N 
ATOM     53  N   UNL A   1      38.997  32.526  33.759  1.00  0.00    -0.248 NA
ATOM     54  C   UNL A   1      37.382  34.207  33.603  1.00  0.00     0.031 C 
ATOM     55  C   UNL A   1      41.788  32.043  37.177  1.00  0.00     0.029 A 
ATOM     56  C   UNL A   1      40.902  32.213  36.125  1.00  0.00     0.049 A 
ATOM     57  H   UNL A   1      40.655  31.038  34.391  1.00  0.00     0.167 HD
ATOM     58  C   UNL A   1      39.078  33.342  34.883  1.00  0.00     0.074 A 
ATOM     59  C   UNL A   1      38.078  34.377  34.720  1.00  0.00     0.031 C 
ATOM     60  C   UNL A   1      39.908  33.243  35.950  1.00  0.00     0.037 A 
BRANCH  47  61
ATOM     61  C   UNL A   1      43.786  28.434  35.692  1.00  0.00     0.058 A 
ATOM     62  C   UNL A   1      43.513  27.395  36.596  1.00  0.00     0.135 A 
ATOM     63  C   UNL A   1      45.132  28.699  35.389  1.00  0.00     0.135 A 
ATOM     64  F   UNL A   1      42.246  27.107  36.933  1.00  0.00    -0.206 F 
ATOM     65  C   UNL A   1      44.534  26.666  37.198  1.00  0.00     0.059 A 
ATOM     66  C   UNL A   1      46.169  27.965  35.958  1.00  0.00     0.059 A 
ATOM     67  F   UNL A   1      45.451  29.681  34.530  1.00  0.00    -0.206 F 
ATOM     68  C   UNL A   1      45.860  26.959  36.872  1.00  0.00     0.060 A 
BRANCH  68  69
ATOM     69  S   UNL A   1      47.170  25.997  37.657  1.00  0.00     0.124 S 
ATOM     70  O   UNL A   1      46.717  24.632  37.409  1.00  0.00    -0.237 OA
ATOM     71  O   UNL A   1      48.355  26.416  36.913  1.00  0.00    -0.237 OA
ATOM     72  O   UNL A   1      47.122  26.431  39.050  1.00  0.00    -0.744 OA
ENDBRANCH  68  69
ENDBRANCH  47  61
BRANCH  48  73
ATOM     73  C   UNL A   1      36.440  33.292  30.986  1.00  0.00     0.058 A 
ATOM     74  C   UNL A   1      35.117  33.202  31.441  1.00  0.00     0.135 A 
ATOM     75  C   UNL A   1      36.694  34.106  29.871  1.00  0.00     0.135 A 
ATOM     76  F   UNL A   1      34.822  32.431  32.498  1.00  0.00    -0.206 F 
ATOM     77  C   UNL A   1      34.082  33.887  30.812  1.00  0.00     0.059 A 
ATOM     78  C   UNL A   1      35.680  34.818  29.238  1.00  0.00     0.059 A 
ATOM     79  F   UNL A   1      37.947  34.241  29.410  1.00  0.00    -0.206 F 
ATOM     80  C   UNL A   1      34.375  34.696  29.714  1.00  0.00     0.060 A 
BRANCH  80  81
ATOM     81  S   UNL A   1      33.033  35.637  28.953  1.00  0.00     0.124 S 
ATOM     82  O   UNL A   1      33.765  36.709  28.290  1.00  0.00    -0.237 OA
ATOM     83  O   UNL A   1      32.422  34.642  28.076  1.00  0.00    -0.237 OA
ATOM     84  O   UNL A   1      32.216  36.037  30.095  1.00  0.00    -0.744 OA
ENDBRANCH  80  81
ENDBRANCH  48  73
BRANCH  60  85
ATOM     85  C   UNL A   1      39.799  34.300  37.014  1.00  0.00     0.058 A 
ATOM     86  C   UNL A   1      40.413  35.555  36.876  1.00  0.00     0.135 A 
ATOM     87  C   UNL A   1      39.026  34.071  38.165  1.00  0.00     0.135 A 
ATOM     88  F   UNL A   1      41.167  35.823  35.799  1.00  0.00    -0.206 F 
ATOM     89  C   UNL A   1      40.282  36.538  37.851  1.00  0.00     0.059 A 
ATOM     90  C   UNL A   1      38.861  35.049  39.141  1.00  0.00     0.059 A 
ATOM     91  F   UNL A   1      38.410  32.892  38.341  1.00  0.00    -0.206 F 
ATOM     92  C   UNL A   1      39.503  36.276  38.980  1.00  0.00     0.060 A 
BRANCH  92  93
ATOM     93  S   UNL A   1      39.314  37.573  40.223  1.00  0.00     0.124 S 
ATOM     94  O   UNL A   1      38.307  38.429  39.605  1.00  0.00    -0.237 OA
ATOM     95  O   UNL A   1      38.876  36.822  41.395  1.00  0.00    -0.237 OA
ATOM     96  O   UNL A   1      40.653  38.148  40.319  1.00  0.00    -0.744 OA
ENDBRANCH  92  93
ENDBRANCH  60  85
ENDBRANCH  34  35
ENDBRANCH  26  29
ENDBRANCH   1  25
TORSDOF 14
ENDMDL
MODEL 3
REMARK VINA RESULT:     -10.5      0.374      8.316
REMARK SMILES C[C@H](C(=O)NCCCNC(=O)c1ccc(-c2c3nc(c(-c4c(F)cc(S(=O)(=O)[O-])cc4F)c4ccc([nH]4)c(-c4c(F)cc(S(=O)(=O)[O-])cc4F)c4nc(c(-c5c(F)cc(S(=O)(=O)[O-])cc5F)c5ccc2[nH]5)C=C4)C=C3)cc1)c1ccc2c(c1)[nH]c1ccc(Cl)cc12
REMARK SMILES IDX 8 1 7 2 6 3 5 4 3 5 4 6 2 8 1 9 78 10 79 11 83 12 80 13
REMARK SMILES IDX 82 14 81 15 84 16 91 17 85 18 90 20 86 21 88 22 87 23 89 24
REMARK SMILES IDX 9 25 10 26 11 28 12 29 13 30 77 31 14 32 76 33 15 34 16 35
REMARK SMILES IDX 17 36 70 37 18 38 75 39 69 40 71 41 19 42 74 43 68 44 67 45
REMARK SMILES IDX 20 47 54 48 33 49 53 50 34 51 37 52 52 53 72 54 35 55 36 56
REMARK SMILES IDX 51 58 73 59 38 60 21 61 22 62 31 63 23 64 24 65 30 66 32 67
REMARK SMILES IDX 25 68 26 69 27 70 28 71 29 72 55 73 56 74 65 75 57 76 58 77
REMARK SMILES IDX 64 78 66 79 59 80 60 81 61 82 62 83 63 84 39 85 40 86 49 87
REMARK SMILES IDX 41 88 42 89 48 90 50 91 43 92 44 93 45 94 46 95 47 96
REMARK H PARENT 5 7 84 19 9 27 71 46 37 57
REMARK Flexibility Score: inf
ROOT
ATOM      1  C   UNL A   1      34.658  32.744  27.978  1.00  0.00     0.118 C 
ENDROOT
BRANCH   1   2
ATOM      2  C   UNL A   1      33.696  33.902  28.200  1.00  0.00     0.042 C 
BRANCH   2   3
ATOM      3  C   UNL A   1      34.088  34.835  29.345  1.00  0.00     0.117 C 
BRANCH   3   4
ATOM      4  N   UNL A   1      33.038  34.932  30.345  1.00  0.00    -0.356 N 
ATOM      5  C   UNL A   1      33.107  35.198  31.686  1.00  0.00     0.227 C 
ATOM      6  O   UNL A   1      32.050  35.143  32.320  1.00  0.00    -0.274 OA
ATOM      7  H   UNL A   1      32.128  34.780  30.002  1.00  0.00     0.163 HD
BRANCH   5   8
ATOM      8  C   UNL A   1      34.441  35.586  32.354  1.00  0.00     0.105 C 
ATOM      9  C   UNL A   1      34.157  36.464  33.580  1.00  0.00     0.023 C 
BRANCH   8  10
ATOM     10  C   UNL A   1      35.296  34.363  32.681  1.00  0.00    -0.034 A 
ATOM     11  C   UNL A   1      34.958  33.070  32.258  1.00  0.00     0.005 A 
ATOM     12  C   UNL A   1      36.514  34.557  33.354  1.00  0.00     0.031 A 
ATOM     13  C   UNL A   1      35.838  31.986  32.434  1.00  0.00     0.011 A 
ATOM     14  C   UNL A   1      37.427  33.498  33.408  1.00  0.00     0.047 A 
ATOM     15  C   UNL A   1      37.121  32.214  32.970  1.00  0.00     0.007 A 
ATOM     16  N   UNL A   1      38.739  33.489  33.813  1.00  0.00    -0.355 N 
ATOM     17  C   UNL A   1      38.288  31.405  33.179  1.00  0.00     0.009 A 
ATOM     18  C   UNL A   1      39.294  32.242  33.663  1.00  0.00     0.047 A 
ATOM     19  H   UNL A   1      39.219  34.274  34.166  1.00  0.00     0.167 HD
ATOM     20  C   UNL A   1      38.595  30.045  32.970  1.00  0.00     0.031 A 
ATOM     21  C   UNL A   1      40.599  31.806  33.917  1.00  0.00     0.028 A 
ATOM     22  C   UNL A   1      39.889  29.587  33.251  1.00  0.00     0.041 A 
ATOM     23  C   UNL A   1      40.879  30.454  33.706  1.00  0.00     0.022 A 
ATOM     24  Cl  UNL A   1      40.257  27.919  33.031  1.00  0.00    -0.084 Cl
ENDBRANCH   8  10
ENDBRANCH   5   8
ENDBRANCH   3   4
ENDBRANCH   2   3
ENDBRANCH   1   2
BRANCH   1  25
ATOM     25  N   UNL A   1      33.974  31.461  27.939  1.00  0.00    -0.352 N 
ATOM     26  C   UNL A   1      34.476  30.181  27.956  1.00  0.00     0.251 C 
ATOM     27  H   UNL A   1      32.992  31.519  27.894  1.00  0.00     0.163 HD
ATOM     28  O   UNL A   1      33.713  29.251  27.701  1.00  0.00    -0.269 OA
BRANCH  26  29
ATOM     29  C   UNL A   1      35.905  29.900  28.250  1.00  0.00     0.039 A 
ATOM     30  C   UNL A   1      36.839  30.040  27.215  1.00  0.00     0.014 A 
ATOM     31  C   UNL A   1      36.335  29.443  29.498  1.00  0.00     0.014 A 
ATOM     32  C   UNL A   1      38.194  29.774  27.447  1.00  0.00     0.010 A 
ATOM     33  C   UNL A   1      37.696  29.259  29.752  1.00  0.00     0.010 A 
ATOM     34  C   UNL A   1      38.641  29.409  28.727  1.00  0.00    -0.014 A 
BRANCH  34  35
ATOM     35  C   UNL A   1      40.083  29.161  29.001  1.00  0.00     0.031 A 
ATOM     36  C   UNL A   1      40.699  27.820  28.687  1.00  0.00     0.074 A 
ATOM     37  C   UNL A   1      40.836  30.124  29.570  1.00  0.00     0.049 A 
ATOM     38  N   UNL A   1      41.916  27.394  28.914  1.00  0.00    -0.248 NA
ATOM     39  C   UNL A   1      39.826  26.818  28.054  1.00  0.00     0.031 C 
ATOM     40  C   UNL A   1      40.358  31.454  29.954  1.00  0.00     0.029 A 
ATOM     41  N   UNL A   1      42.162  30.133  29.926  1.00  0.00    -0.354 N 
ATOM     42  C   UNL A   1      41.950  26.078  28.467  1.00  0.00     0.074 A 
ATOM     43  C   UNL A   1      40.618  25.758  28.001  1.00  0.00     0.031 C 
ATOM     44  C   UNL A   1      41.381  32.158  30.465  1.00  0.00     0.029 A 
ATOM     45  C   UNL A   1      42.577  31.320  30.485  1.00  0.00     0.049 A 
ATOM     46  H   UNL A   1      42.761  29.363  29.795  1.00  0.00     0.167 HD
ATOM     47  C   UNL A   1      42.999  25.221  28.423  1.00  0.00     0.037 A 
ATOM     48  C   UNL A   1      43.779  31.690  30.968  1.00  0.00     0.037 A 
ATOM     49  C   UNL A   1      44.331  25.547  28.863  1.00  0.00     0.049 A 
ATOM     50  C   UNL A   1      44.925  30.716  30.923  1.00  0.00     0.074 A 
ATOM     51  C   UNL A   1      45.468  24.758  28.822  1.00  0.00     0.029 A 
ATOM     52  N   UNL A   1      44.708  26.760  29.421  1.00  0.00    -0.354 N 
ATOM     53  N   UNL A   1      44.946  29.488  30.465  1.00  0.00    -0.248 NA
ATOM     54  C   UNL A   1      46.213  31.180  31.461  1.00  0.00     0.031 C 
ATOM     55  C   UNL A   1      46.524  25.481  29.389  1.00  0.00     0.029 A 
ATOM     56  C   UNL A   1      46.056  26.737  29.739  1.00  0.00     0.049 A 
ATOM     57  H   UNL A   1      44.106  27.525  29.568  1.00  0.00     0.167 HD
ATOM     58  C   UNL A   1      46.252  29.041  30.634  1.00  0.00     0.074 A 
ATOM     59  C   UNL A   1      46.994  30.134  31.226  1.00  0.00     0.031 C 
ATOM     60  C   UNL A   1      46.787  27.834  30.323  1.00  0.00     0.037 A 
BRANCH  47  61
ATOM     61  C   UNL A   1      42.752  23.843  27.868  1.00  0.00     0.058 A 
ATOM     62  C   UNL A   1      42.493  22.748  28.708  1.00  0.00     0.135 A 
ATOM     63  C   UNL A   1      42.731  23.622  26.481  1.00  0.00     0.135 A 
ATOM     64  F   UNL A   1      42.515  22.900  30.042  1.00  0.00    -0.206 F 
ATOM     65  C   UNL A   1      42.250  21.478  28.196  1.00  0.00     0.059 A 
ATOM     66  C   UNL A   1      42.463  22.365  25.945  1.00  0.00     0.059 A 
ATOM     67  F   UNL A   1      42.971  24.633  25.631  1.00  0.00    -0.206 F 
ATOM     68  C   UNL A   1      42.237  21.296  26.811  1.00  0.00     0.060 A 
BRANCH  68  69
ATOM     69  S   UNL A   1      41.912  19.643  26.164  1.00  0.00     0.124 S 
ATOM     70  O   UNL A   1      42.740  19.633  24.962  1.00  0.00    -0.237 OA
ATOM     71  O   UNL A   1      42.368  18.785  27.254  1.00  0.00    -0.237 OA
ATOM     72  O   UNL A   1      40.471  19.645  25.933  1.00  0.00    -0.744 OA
ENDBRANCH  68  69
ENDBRANCH  47  61
BRANCH  48  73
ATOM     73  C   UNL A   1      43.968  33.061  31.512  1.00  0.00     0.058 A 
ATOM     74  C   UNL A   1      44.187  34.149  30.656  1.00  0.00     0.135 A 
ATOM     75  C   UNL A   1      43.911  33.314  32.891  1.00  0.00     0.135 A 
ATOM     76  F   UNL A   1      44.256  33.956  29.330  1.00  0.00    -0.206 F 
ATOM     77  C   UNL A   1      44.353  35.440  31.147  1.00  0.00     0.059 A 
ATOM     78  C   UNL A   1      44.051  34.600  33.406  1.00  0.00     0.059 A 
ATOM     79  F   UNL A   1      43.682  32.309  33.750  1.00  0.00    -0.206 F 
ATOM     80  C   UNL A   1      44.278  35.656  32.523  1.00  0.00     0.060 A 
BRANCH  80  81
ATOM     81  S   UNL A   1      44.422  37.347  33.141  1.00  0.00     0.124 S 
ATOM     82  O   UNL A   1      45.855  37.449  33.388  1.00  0.00    -0.237 OA
ATOM     83  O   UNL A   1      43.908  38.128  32.020  1.00  0.00    -0.237 OA
ATOM     84  O   UNL A   1      43.572  37.342  34.329  1.00  0.00    -0.744 OA
ENDBRANCH  80  81
ENDBRANCH  48  73
BRANCH  60  85
ATOM     85  C   UNL A   1      48.255  27.638  30.583  1.00  0.00     0.058 A 
ATOM     86  C   UNL A   1      48.731  27.160  31.814  1.00  0.00     0.135 A 
ATOM     87  C   UNL A   1      49.195  27.884  29.568  1.00  0.00     0.135 A 
ATOM     88  F   UNL A   1      47.876  26.914  32.820  1.00  0.00    -0.206 F 
ATOM     89  C   UNL A   1      50.088  26.953  32.037  1.00  0.00     0.059 A 
ATOM     90  C   UNL A   1      50.554  27.660  29.761  1.00  0.00     0.059 A 
ATOM     91  F   UNL A   1      48.792  28.333  28.369  1.00  0.00    -0.206 F 
ATOM     92  C   UNL A   1      50.993  27.205  31.004  1.00  0.00     0.060 A 
BRANCH  92  93
ATOM     93  S   UNL A   1      52.748  26.901  31.296  1.00  0.00     0.124 S 
ATOM     94  O   UNL A   1      53.082  27.973  32.227  1.00  0.00    -0.237 OA
ATOM     95  O   UNL A   1      52.744  25.553  31.855  1.00  0.00    -0.237 OA
ATOM     96  O   UNL A   1      53.339  27.018  29.966  1.00  0.00    -0.744 OA
ENDBRANCH  92  93
ENDBRANCH  60  85
ENDBRANCH  34  35
ENDBRANCH  26  29
ENDBRANCH   1  25
TORSDOF 14
ENDMDL
