MODEL 1
REMARK VINA RESULT:     -12.0      0.000      0.000
REMARK SMILES C[C@@H](Nc1ccc(C(=O)NCCCNC(=O)c2ccc(-c3c4nc(c(-c5c(F)cc(S(=O)(=O)[O-])cc5F)c5ccc([nH]5)c(-c5c(F)cc(S(=O)(=O)[O-])cc5F)c5nc(c(-c6c(F)cc(S(=O)(=O)[O-])cc6F)c6ccc3[nH]6)C=C5)C=C4)cc2)c(F)c1F)C(N)=O
REMARK SMILES IDX 12 1 11 2 10 3 8 4 9 5 7 7 4 8 5 9 85 10 6 11 83 12 86 13
REMARK SMILES IDX 84 14 3 15 2 17 1 18 87 19 88 20 89 21 13 24 14 25 15 26
REMARK SMILES IDX 16 28 17 29 18 30 82 31 19 32 81 33 20 34 21 35 22 36 75 37
REMARK SMILES IDX 23 38 80 39 74 40 76 41 24 42 79 43 73 44 72 45 25 47 59 48
REMARK SMILES IDX 38 49 58 50 39 51 42 52 57 53 77 54 40 55 41 56 56 58 78 59
REMARK SMILES IDX 43 60 26 61 27 62 36 63 28 64 29 65 35 66 37 67 30 68 31 69
REMARK SMILES IDX 32 70 33 71 34 72 60 73 61 74 70 75 62 76 63 77 69 78 71 79
REMARK SMILES IDX 64 80 65 81 66 82 67 83 68 84 44 85 45 86 54 87 46 88 47 89
REMARK SMILES IDX 53 90 55 91 48 92 49 93 50 94 51 95 52 96
REMARK H PARENT 10 6 3 16 88 22 88 23 14 27 76 46 42 57
REMARK Flexibility Score: inf
ROOT
ATOM      1  C   UNL A   1      32.453  28.180  26.175  1.00  0.00     0.042 C 
ENDROOT
BRANCH   1   2
ATOM      2  C   UNL A   1      31.473  27.092  26.615  1.00  0.00     0.118 C 
BRANCH   2   3
ATOM      3  N   UNL A   1      31.296  26.094  25.578  1.00  0.00    -0.352 N 
ATOM      4  C   UNL A   1      30.639  26.049  24.383  1.00  0.00     0.254 C 
ATOM      5  O   UNL A   1      30.779  24.994  23.752  1.00  0.00    -0.269 OA
ATOM      6  H   UNL A   1      31.759  25.250  25.784  1.00  0.00     0.163 HD
BRANCH   4   7
ATOM      7  C   UNL A   1      29.830  27.133  23.752  1.00  0.00     0.078 A 
ATOM      8  C   UNL A   1      28.585  29.294  22.356  1.00  0.00     0.074 A 
ATOM      9  C   UNL A   1      29.963  29.122  22.310  1.00  0.00     0.030 A 
ATOM     10  C   UNL A   1      27.845  28.375  23.114  1.00  0.00     0.182 A 
ATOM     11  C   UNL A   1      30.573  28.068  23.001  1.00  0.00     0.019 A 
ATOM     12  C   UNL A   1      28.448  27.297  23.775  1.00  0.00     0.173 A 
ATOM     13  F   UNL A   1      26.512  28.529  23.194  1.00  0.00    -0.201 F 
ATOM     14  F   UNL A   1      27.629  26.418  24.363  1.00  0.00    -0.203 F 
BRANCH   8  15
ATOM     15  N   UNL A   1      27.959  30.285  21.599  1.00  0.00    -0.371 N 
ATOM     16  H   UNL A   1      27.216  30.042  21.000  1.00  0.00     0.161 HD
BRANCH  15  17
ATOM     17  C   UNL A   1      28.396  31.702  21.681  1.00  0.00     0.165 C 
ATOM     18  C   UNL A   1      28.125  32.247  23.082  1.00  0.00     0.041 C 
BRANCH  17  19
ATOM     19  C   UNL A   1      27.776  32.650  20.634  1.00  0.00     0.239 C 
ATOM     20  N   UNL A   1      27.661  32.141  19.368  1.00  0.00    -0.368 N 
ATOM     21  O   UNL A   1      27.384  33.789  20.869  1.00  0.00    -0.273 OA
ATOM     22  H   UNL A   1      27.973  31.228  19.174  1.00  0.00     0.159 HD
ATOM     23  H   UNL A   1      27.264  32.689  18.651  1.00  0.00     0.159 HD
ENDBRANCH  17  19
ENDBRANCH  15  17
ENDBRANCH   8  15
ENDBRANCH   4   7
ENDBRANCH   2   3
ENDBRANCH   1   2
BRANCH   1  24
ATOM     24  C   UNL A   1      33.502  28.509  27.243  1.00  0.00     0.118 C 
BRANCH  24  25
ATOM     25  N   UNL A   1      33.513  29.931  27.580  1.00  0.00    -0.352 N 
ATOM     26  C   UNL A   1      34.448  30.679  28.255  1.00  0.00     0.251 C 
ATOM     27  H   UNL A   1      32.726  30.434  27.274  1.00  0.00     0.163 HD
ATOM     28  O   UNL A   1      34.143  31.788  28.681  1.00  0.00    -0.269 OA
BRANCH  26  29
ATOM     29  C   UNL A   1      35.811  30.153  28.467  1.00  0.00     0.039 A 
ATOM     30  C   UNL A   1      36.708  30.123  27.395  1.00  0.00     0.014 A 
ATOM     31  C   UNL A   1      36.193  29.662  29.718  1.00  0.00     0.014 A 
ATOM     32  C   UNL A   1      38.018  29.684  27.602  1.00  0.00     0.010 A 
ATOM     33  C   UNL A   1      37.516  29.291  29.939  1.00  0.00     0.010 A 
ATOM     34  C   UNL A   1      38.445  29.313  28.887  1.00  0.00    -0.014 A 
BRANCH  34  35
ATOM     35  C   UNL A   1      39.866  28.995  29.175  1.00  0.00     0.031 A 
ATOM     36  C   UNL A   1      40.787  30.053  29.712  1.00  0.00     0.074 A 
ATOM     37  C   UNL A   1      40.343  27.776  28.850  1.00  0.00     0.049 A 
ATOM     38  N   UNL A   1      42.080  30.003  29.899  1.00  0.00    -0.248 NA
ATOM     39  C   UNL A   1      40.179  31.347  30.058  1.00  0.00     0.031 C 
ATOM     40  C   UNL A   1      39.549  26.681  28.286  1.00  0.00     0.029 A 
ATOM     41  N   UNL A   1      41.611  27.259  28.924  1.00  0.00    -0.354 N 
ATOM     42  C   UNL A   1      42.443  31.259  30.372  1.00  0.00     0.074 A 
ATOM     43  C   UNL A   1      41.241  32.064  30.396  1.00  0.00     0.031 C 
ATOM     44  C   UNL A   1      40.344  25.620  28.081  1.00  0.00     0.029 A 
ATOM     45  C   UNL A   1      41.712  25.973  28.446  1.00  0.00     0.049 A 
ATOM     46  H   UNL A   1      42.378  27.761  29.285  1.00  0.00     0.167 HD
ATOM     47  C   UNL A   1      43.664  31.692  30.768  1.00  0.00     0.037 A 
ATOM     48  C   UNL A   1      42.788  25.176  28.295  1.00  0.00     0.037 A 
ATOM     49  C   UNL A   1      44.851  30.875  30.746  1.00  0.00     0.049 A 
ATOM     50  C   UNL A   1      44.141  25.695  28.696  1.00  0.00     0.074 A 
ATOM     51  C   UNL A   1      46.125  31.197  31.180  1.00  0.00     0.029 A 
ATOM     52  N   UNL A   1      44.913  29.580  30.252  1.00  0.00    -0.354 N 
ATOM     53  N   UNL A   1      44.456  26.861  29.209  1.00  0.00    -0.248 NA
ATOM     54  C   UNL A   1      45.286  24.798  28.491  1.00  0.00     0.031 C 
ATOM     55  C   UNL A   1      46.968  30.118  30.896  1.00  0.00     0.029 A 
ATOM     56  C   UNL A   1      46.210  29.102  30.335  1.00  0.00     0.049 A 
ATOM     57  H   UNL A   1      44.146  29.075  29.894  1.00  0.00     0.167 HD
ATOM     58  C   UNL A   1      45.833  26.831  29.403  1.00  0.00     0.074 A 
ATOM     59  C   UNL A   1      46.286  25.526  28.969  1.00  0.00     0.031 C 
ATOM     60  C   UNL A   1      46.645  27.798  29.894  1.00  0.00     0.037 A 
BRANCH  47  61
ATOM     61  C   UNL A   1      43.777  33.113  31.254  1.00  0.00     0.058 A 
ATOM     62  C   UNL A   1      44.038  34.174  30.372  1.00  0.00     0.135 A 
ATOM     63  C   UNL A   1      43.597  33.422  32.612  1.00  0.00     0.135 A 
ATOM     64  F   UNL A   1      44.230  33.937  29.065  1.00  0.00    -0.206 F 
ATOM     65  C   UNL A   1      44.155  35.486  30.824  1.00  0.00     0.059 A 
ATOM     66  C   UNL A   1      43.679  34.730  33.081  1.00  0.00     0.059 A 
ATOM     67  F   UNL A   1      43.343  32.447  33.500  1.00  0.00    -0.206 F 
ATOM     68  C   UNL A   1      43.976  35.752  32.182  1.00  0.00     0.060 A 
BRANCH  68  69
ATOM     69  S   UNL A   1      44.141  37.457  32.752  1.00  0.00     0.124 S 
ATOM     70  O   UNL A   1      43.049  37.548  33.717  1.00  0.00    -0.237 OA
ATOM     71  O   UNL A   1      45.487  37.470  33.315  1.00  0.00    -0.237 OA
ATOM     72  O   UNL A   1      43.966  38.243  31.534  1.00  0.00    -0.744 OA
ENDBRANCH  68  69
ENDBRANCH  47  61
BRANCH  48  73
ATOM     73  C   UNL A   1      42.621  23.804  27.744  1.00  0.00     0.058 A 
ATOM     74  C   UNL A   1      42.507  22.698  28.599  1.00  0.00     0.135 A 
ATOM     75  C   UNL A   1      42.541  23.572  26.362  1.00  0.00     0.135 A 
ATOM     76  F   UNL A   1      42.584  22.867  29.928  1.00  0.00    -0.206 F 
ATOM     77  C   UNL A   1      42.328  21.410  28.104  1.00  0.00     0.059 A 
ATOM     78  C   UNL A   1      42.336  22.297  25.844  1.00  0.00     0.059 A 
ATOM     79  F   UNL A   1      42.631  24.598  25.502  1.00  0.00    -0.206 F 
ATOM     80  C   UNL A   1      42.237  21.220  26.725  1.00  0.00     0.060 A 
BRANCH  80  81
ATOM     81  S   UNL A   1      41.947  19.551  26.100  1.00  0.00     0.124 S 
ATOM     82  O   UNL A   1      42.306  18.737  27.254  1.00  0.00    -0.237 OA
ATOM     83  O   UNL A   1      40.526  19.594  25.766  1.00  0.00    -0.237 OA
ATOM     84  O   UNL A   1      42.849  19.458  24.956  1.00  0.00    -0.744 OA
ENDBRANCH  80  81
ENDBRANCH  48  73
BRANCH  60  85
ATOM     85  C   UNL A   1      48.112  27.486  29.998  1.00  0.00     0.058 A 
ATOM     86  C   UNL A   1      48.987  27.706  28.923  1.00  0.00     0.135 A 
ATOM     87  C   UNL A   1      48.663  27.041  31.211  1.00  0.00     0.135 A 
ATOM     88  F   UNL A   1      48.509  28.119  27.738  1.00  0.00    -0.206 F 
ATOM     89  C   UNL A   1      50.356  27.495  29.044  1.00  0.00     0.059 A 
ATOM     90  C   UNL A   1      50.033  26.849  31.363  1.00  0.00     0.059 A 
ATOM     91  F   UNL A   1      47.872  26.819  32.273  1.00  0.00    -0.206 F 
ATOM     92  C   UNL A   1      50.871  27.075  30.272  1.00  0.00     0.060 A 
BRANCH  92  93
ATOM     93  S   UNL A   1      52.658  26.875  30.434  1.00  0.00     0.124 S 
ATOM     94  O   UNL A   1      53.078  26.836  29.037  1.00  0.00    -0.237 OA
ATOM     95  O   UNL A   1      53.038  28.071  31.178  1.00  0.00    -0.237 OA
ATOM     96  O   UNL A   1      52.795  25.618  31.165  1.00  0.00    -0.744 OA
ENDBRANCH  92  93
ENDBRANCH  60  85
ENDBRANCH  34  35
ENDBRANCH  26  29
ENDBRANCH  24  25
ENDBRANCH   1  24
TORSDOF 16
ENDMDL
MODEL 2
REMARK VINA RESULT:     -11.5      3.203      5.531
REMARK SMILES C[C@@H](Nc1ccc(C(=O)NCCCNC(=O)c2ccc(-c3c4nc(c(-c5c(F)cc(S(=O)(=O)[O-])cc5F)c5ccc([nH]5)c(-c5c(F)cc(S(=O)(=O)[O-])cc5F)c5nc(c(-c6c(F)cc(S(=O)(=O)[O-])cc6F)c6ccc3[nH]6)C=C5)C=C4)cc2)c(F)c1F)C(N)=O
REMARK SMILES IDX 12 1 11 2 10 3 8 4 9 5 7 7 4 8 5 9 85 10 6 11 83 12 86 13
REMARK SMILES IDX 84 14 3 15 2 17 1 18 87 19 88 20 89 21 13 24 14 25 15 26
REMARK SMILES IDX 16 28 17 29 18 30 82 31 19 32 81 33 20 34 21 35 22 36 75 37
REMARK SMILES IDX 23 38 80 39 74 40 76 41 24 42 79 43 73 44 72 45 25 47 59 48
REMARK SMILES IDX 38 49 58 50 39 51 42 52 57 53 77 54 40 55 41 56 56 58 78 59
REMARK SMILES IDX 43 60 26 61 27 62 36 63 28 64 29 65 35 66 37 67 30 68 31 69
REMARK SMILES IDX 32 70 33 71 34 72 60 73 61 74 70 75 62 76 63 77 69 78 71 79
REMARK SMILES IDX 64 80 65 81 66 82 67 83 68 84 44 85 45 86 54 87 46 88 47 89
REMARK SMILES IDX 53 90 55 91 48 92 49 93 50 94 51 95 52 96
REMARK H PARENT 10 6 3 16 88 22 88 23 14 27 76 46 42 57
REMARK Flexibility Score: inf
ROOT
ATOM      1  C   UNL A   1      33.283  26.871  25.532  1.00  0.00     0.042 C 
ENDROOT
BRANCH   1   2
ATOM      2  C   UNL A   1      33.591  25.381  25.380  1.00  0.00     0.118 C 
BRANCH   2   3
ATOM      3  N   UNL A   1      33.691  25.006  23.983  1.00  0.00    -0.352 N 
ATOM      4  C   UNL A   1      33.834  23.829  23.307  1.00  0.00     0.254 C 
ATOM      5  O   UNL A   1      33.829  23.934  22.074  1.00  0.00    -0.269 OA
ATOM      6  H   UNL A   1      33.644  25.783  23.380  1.00  0.00     0.163 HD
BRANCH   4   7
ATOM      7  C   UNL A   1      33.945  22.459  23.886  1.00  0.00     0.078 A 
ATOM      8  C   UNL A   1      33.812  19.782  24.880  1.00  0.00     0.074 A 
ATOM      9  C   UNL A   1      32.665  20.431  24.438  1.00  0.00     0.030 A 
ATOM     10  C   UNL A   1      35.018  20.494  24.823  1.00  0.00     0.182 A 
ATOM     11  C   UNL A   1      32.730  21.745  23.960  1.00  0.00     0.019 A 
ATOM     12  C   UNL A   1      35.093  21.795  24.309  1.00  0.00     0.173 A 
ATOM     13  F   UNL A   1      36.140  19.899  25.263  1.00  0.00    -0.201 F 
ATOM     14  F   UNL A   1      36.315  22.326  24.190  1.00  0.00    -0.203 F 
BRANCH   8  15
ATOM     15  N   UNL A   1      33.773  18.443  25.273  1.00  0.00    -0.371 N 
ATOM     16  H   UNL A   1      33.328  18.198  26.116  1.00  0.00     0.161 HD
BRANCH  15  17
ATOM     17  C   UNL A   1      34.393  17.383  24.439  1.00  0.00     0.165 C 
ATOM     18  C   UNL A   1      33.680  17.301  23.091  1.00  0.00     0.041 C 
BRANCH  17  19
ATOM     19  C   UNL A   1      34.444  15.979  25.079  1.00  0.00     0.239 C 
ATOM     20  N   UNL A   1      33.230  15.420  25.378  1.00  0.00    -0.368 N 
ATOM     21  O   UNL A   1      35.474  15.356  25.313  1.00  0.00    -0.273 OA
ATOM     22  H   UNL A   1      32.400  15.915  25.192  1.00  0.00     0.159 HD
ATOM     23  H   UNL A   1      33.188  14.521  25.779  1.00  0.00     0.159 HD
ENDBRANCH  17  19
ENDBRANCH  15  17
ENDBRANCH   8  15
ENDBRANCH   4   7
ENDBRANCH   2   3
ENDBRANCH   1   2
BRANCH   1  24
ATOM     24  C   UNL A   1      34.310  27.611  26.395  1.00  0.00     0.118 C 
BRANCH  24  25
ATOM     25  N   UNL A   1      33.864  28.958  26.745  1.00  0.00    -0.352 N 
ATOM     26  C   UNL A   1      34.434  29.900  27.567  1.00  0.00     0.251 C 
ATOM     27  H   UNL A   1      33.020  29.236  26.323  1.00  0.00     0.163 HD
ATOM     28  O   UNL A   1      33.764  30.853  27.951  1.00  0.00    -0.269 OA
BRANCH  26  29
ATOM     29  C   UNL A   1      35.843  29.767  27.987  1.00  0.00     0.039 A 
ATOM     30  C   UNL A   1      36.133  29.378  29.298  1.00  0.00     0.014 A 
ATOM     31  C   UNL A   1      36.878  30.057  27.095  1.00  0.00     0.014 A 
ATOM     32  C   UNL A   1      37.462  29.191  29.686  1.00  0.00     0.010 A 
ATOM     33  C   UNL A   1      38.197  29.804  27.460  1.00  0.00     0.010 A 
ATOM     34  C   UNL A   1      38.500  29.354  28.754  1.00  0.00    -0.014 A 
BRANCH  34  35
ATOM     35  C   UNL A   1      39.906  29.012  29.085  1.00  0.00     0.031 A 
ATOM     36  C   UNL A   1      40.828  30.054  29.651  1.00  0.00     0.074 A 
ATOM     37  C   UNL A   1      40.373  27.786  28.772  1.00  0.00     0.049 A 
ATOM     38  N   UNL A   1      42.113  29.983  29.878  1.00  0.00    -0.248 NA
ATOM     39  C   UNL A   1      40.231  31.358  29.981  1.00  0.00     0.031 C 
ATOM     40  C   UNL A   1      39.579  26.706  28.182  1.00  0.00     0.029 A 
ATOM     41  N   UNL A   1      41.630  27.248  28.884  1.00  0.00    -0.354 N 
ATOM     42  C   UNL A   1      42.482  31.232  30.365  1.00  0.00     0.074 A 
ATOM     43  C   UNL A   1      41.294  32.056  30.353  1.00  0.00     0.031 C 
ATOM     44  C   UNL A   1      40.362  25.632  27.999  1.00  0.00     0.029 A 
ATOM     45  C   UNL A   1      41.724  25.962  28.407  1.00  0.00     0.049 A 
ATOM     46  H   UNL A   1      42.393  27.737  29.269  1.00  0.00     0.167 HD
ATOM     47  C   UNL A   1      43.698  31.644  30.799  1.00  0.00     0.037 A 
ATOM     48  C   UNL A   1      42.790  25.147  28.287  1.00  0.00     0.037 A 
ATOM     49  C   UNL A   1      44.871  30.807  30.811  1.00  0.00     0.049 A 
ATOM     50  C   UNL A   1      44.139  25.643  28.731  1.00  0.00     0.074 A 
ATOM     51  C   UNL A   1      46.136  31.107  31.285  1.00  0.00     0.029 A 
ATOM     52  N   UNL A   1      44.927  29.512  30.317  1.00  0.00    -0.354 N 
ATOM     53  N   UNL A   1      44.457  26.802  29.255  1.00  0.00    -0.248 NA
ATOM     54  C   UNL A   1      45.274  24.727  28.559  1.00  0.00     0.031 C 
ATOM     55  C   UNL A   1      46.969  30.015  31.025  1.00  0.00     0.029 A 
ATOM     56  C   UNL A   1      46.213  29.012  30.439  1.00  0.00     0.049 A 
ATOM     57  H   UNL A   1      44.163  29.020  29.935  1.00  0.00     0.167 HD
ATOM     58  C   UNL A   1      45.827  26.749  29.491  1.00  0.00     0.074 A 
ATOM     59  C   UNL A   1      46.272  25.438  29.069  1.00  0.00     0.031 C 
ATOM     60  C   UNL A   1      46.640  27.702  30.009  1.00  0.00     0.037 A 
BRANCH  47  61
ATOM     61  C   UNL A   1      43.820  33.062  31.290  1.00  0.00     0.058 A 
ATOM     62  C   UNL A   1      43.522  33.410  32.618  1.00  0.00     0.135 A 
ATOM     63  C   UNL A   1      44.264  34.081  30.433  1.00  0.00     0.135 A 
ATOM     64  F   UNL A   1      43.082  32.479  33.480  1.00  0.00    -0.206 F 
ATOM     65  C   UNL A   1      43.623  34.723  33.067  1.00  0.00     0.059 A 
ATOM     66  C   UNL A   1      44.403  35.396  30.869  1.00  0.00     0.059 A 
ATOM     67  F   UNL A   1      44.566  33.805  29.153  1.00  0.00    -0.206 F 
ATOM     68  C   UNL A   1      44.061  35.710  32.183  1.00  0.00     0.060 A 
BRANCH  68  69
ATOM     69  S   UNL A   1      44.177  37.409  32.781  1.00  0.00     0.124 S 
ATOM     70  O   UNL A   1      43.182  37.410  33.850  1.00  0.00    -0.237 OA
ATOM     71  O   UNL A   1      45.568  37.495  33.211  1.00  0.00    -0.237 OA
ATOM     72  O   UNL A   1      43.836  38.208  31.608  1.00  0.00    -0.744 OA
ENDBRANCH  68  69
ENDBRANCH  47  61
BRANCH  48  73
ATOM     73  C   UNL A   1      42.618  23.778  27.729  1.00  0.00     0.058 A 
ATOM     74  C   UNL A   1      42.481  22.670  28.577  1.00  0.00     0.135 A 
ATOM     75  C   UNL A   1      42.556  23.553  26.345  1.00  0.00     0.135 A 
ATOM     76  F   UNL A   1      42.541  22.834  29.908  1.00  0.00    -0.206 F 
ATOM     77  C   UNL A   1      42.296  21.386  28.075  1.00  0.00     0.059 A 
ATOM     78  C   UNL A   1      42.345  22.281  25.819  1.00  0.00     0.059 A 
ATOM     79  F   UNL A   1      42.668  24.581  25.490  1.00  0.00    -0.206 F 
ATOM     80  C   UNL A   1      42.223  21.203  26.694  1.00  0.00     0.060 A 
BRANCH  80  81
ATOM     81  S   UNL A   1      41.926  19.539  26.058  1.00  0.00     0.124 S 
ATOM     82  O   UNL A   1      42.353  18.713  27.181  1.00  0.00    -0.237 OA
ATOM     83  O   UNL A   1      40.489  19.565  25.796  1.00  0.00    -0.237 OA
ATOM     84  O   UNL A   1      42.771  19.476  24.870  1.00  0.00    -0.744 OA
ENDBRANCH  80  81
ENDBRANCH  48  73
BRANCH  60  85
ATOM     85  C   UNL A   1      48.097  27.365  30.158  1.00  0.00     0.058 A 
ATOM     86  C   UNL A   1      49.035  27.718  29.175  1.00  0.00     0.135 A 
ATOM     87  C   UNL A   1      48.574  26.759  31.331  1.00  0.00     0.135 A 
ATOM     88  F   UNL A   1      48.630  28.289  28.029  1.00  0.00    -0.206 F 
ATOM     89  C   UNL A   1      50.394  27.480  29.348  1.00  0.00     0.059 A 
ATOM     90  C   UNL A   1      49.932  26.536  31.538  1.00  0.00     0.059 A 
ATOM     91  F   UNL A   1      47.721  26.406  32.306  1.00  0.00    -0.206 F 
ATOM     92  C   UNL A   1      50.834  26.897  30.537  1.00  0.00     0.060 A 
BRANCH  92  93
ATOM     93  S   UNL A   1      52.608  26.660  30.777  1.00  0.00     0.124 S 
ATOM     94  O   UNL A   1      53.013  27.965  31.290  1.00  0.00    -0.237 OA
ATOM     95  O   UNL A   1      52.647  25.561  31.737  1.00  0.00    -0.237 OA
ATOM     96  O   UNL A   1      53.093  26.335  29.439  1.00  0.00    -0.744 OA
ENDBRANCH  92  93
ENDBRANCH  60  85
ENDBRANCH  34  35
ENDBRANCH  26  29
ENDBRANCH  24  25
ENDBRANCH   1  24
TORSDOF 16
ENDMDL
MODEL 3
REMARK VINA RESULT:     -11.4      6.002     11.583
REMARK SMILES C[C@@H](Nc1ccc(C(=O)NCCCNC(=O)c2ccc(-c3c4nc(c(-c5c(F)cc(S(=O)(=O)[O-])cc5F)c5ccc([nH]5)c(-c5c(F)cc(S(=O)(=O)[O-])cc5F)c5nc(c(-c6c(F)cc(S(=O)(=O)[O-])cc6F)c6ccc3[nH]6)C=C5)C=C4)cc2)c(F)c1F)C(N)=O
REMARK SMILES IDX 12 1 11 2 10 3 8 4 9 5 7 7 4 8 5 9 85 10 6 11 83 12 86 13
REMARK SMILES IDX 84 14 3 15 2 17 1 18 87 19 88 20 89 21 13 24 14 25 15 26
REMARK SMILES IDX 16 28 17 29 18 30 82 31 19 32 81 33 20 34 21 35 22 36 75 37
REMARK SMILES IDX 23 38 80 39 74 40 76 41 24 42 79 43 73 44 72 45 25 47 59 48
REMARK SMILES IDX 38 49 58 50 39 51 42 52 57 53 77 54 40 55 41 56 56 58 78 59
REMARK SMILES IDX 43 60 26 61 27 62 36 63 28 64 29 65 35 66 37 67 30 68 31 69
REMARK SMILES IDX 32 70 33 71 34 72 60 73 61 74 70 75 62 76 63 77 69 78 71 79
REMARK SMILES IDX 64 80 65 81 66 82 67 83 68 84 44 85 45 86 54 87 46 88 47 89
REMARK SMILES IDX 53 90 55 91 48 92 49 93 50 94 51 95 52 96
REMARK H PARENT 10 6 3 16 88 22 88 23 14 27 76 46 42 57
REMARK Flexibility Score: inf
ROOT
ATOM      1  C   UNL A   1      37.104  23.326  25.402  1.00  0.00     0.042 C 
ENDROOT
BRANCH   1   2
ATOM      2  C   UNL A   1      35.793  23.066  26.145  1.00  0.00     0.118 C 
BRANCH   2   3
ATOM      3  N   UNL A   1      34.659  23.586  25.406  1.00  0.00    -0.352 N 
ATOM      4  C   UNL A   1      33.590  23.033  24.764  1.00  0.00     0.254 C 
ATOM      5  O   UNL A   1      32.794  23.850  24.283  1.00  0.00    -0.269 OA
ATOM      6  H   UNL A   1      34.661  24.569  25.356  1.00  0.00     0.163 HD
BRANCH   4   7
ATOM      7  C   UNL A   1      33.264  21.584  24.627  1.00  0.00     0.078 A 
ATOM      8  C   UNL A   1      32.662  18.792  24.732  1.00  0.00     0.074 A 
ATOM      9  C   UNL A   1      33.124  19.460  25.860  1.00  0.00     0.030 A 
ATOM     10  C   UNL A   1      32.514  19.540  23.555  1.00  0.00     0.182 A 
ATOM     11  C   UNL A   1      33.426  20.825  25.806  1.00  0.00     0.019 A 
ATOM     12  C   UNL A   1      32.779  20.914  23.507  1.00  0.00     0.173 A 
ATOM     13  F   UNL A   1      32.089  18.916  22.443  1.00  0.00    -0.201 F 
ATOM     14  F   UNL A   1      32.484  21.545  22.365  1.00  0.00    -0.203 F 
BRANCH   8  15
ATOM     15  N   UNL A   1      32.271  17.453  24.799  1.00  0.00    -0.371 N 
ATOM     16  H   UNL A   1      31.317  17.222  24.724  1.00  0.00     0.161 HD
BRANCH  15  17
ATOM     17  C   UNL A   1      33.273  16.372  24.983  1.00  0.00     0.165 C 
ATOM     18  C   UNL A   1      34.084  16.194  23.701  1.00  0.00     0.041 C 
BRANCH  17  19
ATOM     19  C   UNL A   1      32.703  15.008  25.423  1.00  0.00     0.239 C 
ATOM     20  N   UNL A   1      31.390  15.011  25.813  1.00  0.00    -0.368 N 
ATOM     21  O   UNL A   1      33.336  13.956  25.430  1.00  0.00    -0.273 OA
ATOM     22  H   UNL A   1      30.877  15.851  25.809  1.00  0.00     0.159 HD
ATOM     23  H   UNL A   1      30.958  14.172  26.096  1.00  0.00     0.159 HD
ENDBRANCH  17  19
ENDBRANCH  15  17
ENDBRANCH   8  15
ENDBRANCH   4   7
ENDBRANCH   2   3
ENDBRANCH   1   2
BRANCH   1  24
ATOM     24  C   UNL A   1      38.016  24.323  26.124  1.00  0.00     0.118 C 
BRANCH  24  25
ATOM     25  N   UNL A   1      39.414  23.900  26.105  1.00  0.00    -0.352 N 
ATOM     26  C   UNL A   1      40.541  24.528  26.579  1.00  0.00     0.251 C 
ATOM     27  H   UNL A   1      39.575  23.025  25.687  1.00  0.00     0.163 HD
ATOM     28  O   UNL A   1      41.647  24.143  26.215  1.00  0.00    -0.269 OA
BRANCH  26  29
ATOM     29  C   UNL A   1      40.424  25.659  27.520  1.00  0.00     0.039 A 
ATOM     30  C   UNL A   1      39.477  25.600  28.547  1.00  0.00     0.014 A 
ATOM     31  C   UNL A   1      41.228  26.792  27.370  1.00  0.00     0.014 A 
ATOM     32  C   UNL A   1      39.401  26.639  29.478  1.00  0.00     0.010 A 
ATOM     33  C   UNL A   1      41.200  27.792  28.337  1.00  0.00     0.010 A 
ATOM     34  C   UNL A   1      40.297  27.719  29.408  1.00  0.00    -0.014 A 
BRANCH  34  35
ATOM     35  C   UNL A   1      40.351  28.757  30.467  1.00  0.00     0.031 A 
ATOM     36  C   UNL A   1      41.306  28.617  31.618  1.00  0.00     0.074 A 
ATOM     37  C   UNL A   1      39.461  29.769  30.438  1.00  0.00     0.049 A 
ATOM     38  N   UNL A   1      41.406  29.345  32.700  1.00  0.00    -0.248 NA
ATOM     39  C   UNL A   1      42.255  27.494  31.560  1.00  0.00     0.031 C 
ATOM     40  C   UNL A   1      38.461  29.985  29.390  1.00  0.00     0.029 A 
ATOM     41  N   UNL A   1      39.237  30.793  31.323  1.00  0.00    -0.354 N 
ATOM     42  C   UNL A   1      42.419  28.765  33.455  1.00  0.00     0.074 A 
ATOM     43  C   UNL A   1      42.866  27.595  32.731  1.00  0.00     0.031 C 
ATOM     44  C   UNL A   1      37.742  31.079  29.683  1.00  0.00     0.029 A 
ATOM     45  C   UNL A   1      38.192  31.613  30.964  1.00  0.00     0.049 A 
ATOM     46  H   UNL A   1      39.773  30.929  32.138  1.00  0.00     0.167 HD
ATOM     47  C   UNL A   1      42.938  29.183  34.635  1.00  0.00     0.037 A 
ATOM     48  C   UNL A   1      37.640  32.662  31.607  1.00  0.00     0.037 A 
ATOM     49  C   UNL A   1      42.486  30.355  35.340  1.00  0.00     0.049 A 
ATOM     50  C   UNL A   1      38.202  33.078  32.938  1.00  0.00     0.074 A 
ATOM     51  C   UNL A   1      42.983  30.899  36.511  1.00  0.00     0.029 A 
ATOM     52  N   UNL A   1      41.423  31.157  34.947  1.00  0.00    -0.354 N 
ATOM     53  N   UNL A   1      39.206  32.561  33.604  1.00  0.00    -0.248 NA
ATOM     54  C   UNL A   1      37.553  34.211  33.609  1.00  0.00     0.031 C 
ATOM     55  C   UNL A   1      42.186  31.995  36.856  1.00  0.00     0.029 A 
ATOM     56  C   UNL A   1      41.225  32.168  35.872  1.00  0.00     0.049 A 
ATOM     57  H   UNL A   1      40.889  31.025  34.130  1.00  0.00     0.167 HD
ATOM     58  C   UNL A   1      39.320  33.316  34.767  1.00  0.00     0.074 A 
ATOM     59  C   UNL A   1      38.294  34.336  34.703  1.00  0.00     0.031 C 
ATOM     60  C   UNL A   1      40.194  33.175  35.793  1.00  0.00     0.037 A 
BRANCH  47  61
ATOM     61  C   UNL A   1      44.048  28.364  35.238  1.00  0.00     0.058 A 
ATOM     62  C   UNL A   1      43.789  27.325  36.146  1.00  0.00     0.135 A 
ATOM     63  C   UNL A   1      45.387  28.601  34.883  1.00  0.00     0.135 A 
ATOM     64  F   UNL A   1      42.529  27.060  36.530  1.00  0.00    -0.206 F 
ATOM     65  C   UNL A   1      44.817  26.577  36.712  1.00  0.00     0.059 A 
ATOM     66  C   UNL A   1      46.429  27.845  35.413  1.00  0.00     0.059 A 
ATOM     67  F   UNL A   1      45.693  29.580  34.017  1.00  0.00    -0.206 F 
ATOM     68  C   UNL A   1      46.135  26.848  36.341  1.00  0.00     0.060 A 
BRANCH  68  69
ATOM     69  S   UNL A   1      47.456  25.874  37.092  1.00  0.00     0.124 S 
ATOM     70  O   UNL A   1      46.968  24.513  36.886  1.00  0.00    -0.237 OA
ATOM     71  O   UNL A   1      48.617  26.257  36.297  1.00  0.00    -0.237 OA
ATOM     72  O   UNL A   1      47.471  26.330  38.479  1.00  0.00    -0.744 OA
ENDBRANCH  68  69
ENDBRANCH  47  61
BRANCH  48  73
ATOM     73  C   UNL A   1      36.498  33.390  30.990  1.00  0.00     0.058 A 
ATOM     74  C   UNL A   1      36.697  34.237  29.891  1.00  0.00     0.135 A 
ATOM     75  C   UNL A   1      35.186  33.231  31.464  1.00  0.00     0.135 A 
ATOM     76  F   UNL A   1      37.935  34.427  29.407  1.00  0.00    -0.206 F 
ATOM     77  C   UNL A   1      35.639  34.909  29.288  1.00  0.00     0.059 A 
ATOM     78  C   UNL A   1      34.108  33.871  30.860  1.00  0.00     0.059 A 
ATOM     79  F   UNL A   1      34.939  32.421  32.504  1.00  0.00    -0.206 F 
ATOM     80  C   UNL A   1      34.346  34.714  29.775  1.00  0.00     0.060 A 
BRANCH  80  81
ATOM     81  S   UNL A   1      32.976  35.548  28.945  1.00  0.00     0.124 S 
ATOM     82  O   UNL A   1      33.667  36.619  28.237  1.00  0.00    -0.237 OA
ATOM     83  O   UNL A   1      32.430  34.480  28.112  1.00  0.00    -0.237 OA
ATOM     84  O   UNL A   1      32.120  35.971  30.050  1.00  0.00    -0.744 OA
ENDBRANCH  80  81
ENDBRANCH  48  73
BRANCH  60  85
ATOM     85  C   UNL A   1      40.089  34.149  36.933  1.00  0.00     0.058 A 
ATOM     86  C   UNL A   1      40.656  35.431  36.857  1.00  0.00     0.135 A 
ATOM     87  C   UNL A   1      39.343  33.830  38.080  1.00  0.00     0.135 A 
ATOM     88  F   UNL A   1      41.389  35.782  35.788  1.00  0.00    -0.206 F 
ATOM     89  C   UNL A   1      40.490  36.361  37.877  1.00  0.00     0.059 A 
ATOM     90  C   UNL A   1      39.141  34.754  39.100  1.00  0.00     0.059 A 
ATOM     91  F   UNL A   1      38.775  32.620  38.202  1.00  0.00    -0.206 F 
ATOM     92  C   UNL A   1      39.722  36.017  38.990  1.00  0.00     0.060 A 
BRANCH  92  93
ATOM     93  S   UNL A   1      39.456  37.260  40.273  1.00  0.00     0.124 S 
ATOM     94  O   UNL A   1      38.501  36.585  41.145  1.00  0.00    -0.237 OA
ATOM     95  O   UNL A   1      40.799  37.436  40.818  1.00  0.00    -0.237 OA
ATOM     96  O   UNL A   1      38.931  38.405  39.534  1.00  0.00    -0.744 OA
ENDBRANCH  92  93
ENDBRANCH  60  85
ENDBRANCH  34  35
ENDBRANCH  26  29
ENDBRANCH  24  25
ENDBRANCH   1  24
TORSDOF 16
ENDMDL
