MODEL 1
REMARK VINA RESULT:     -11.9      0.000      0.000
REMARK SMILES Cn1cc2cc(C(=O)NCCCNC(=O)c3ccc(-c4c5nc(c(-c6c(F)cc(S(=O)(=O)[O-])cc6F)c6ccc([nH]6)c(-c6c(F)cc(S(=O)(=O)[O-])cc6F)c6nc(c(-c7c(F)cc(S(=O)(=O)[O-])cc7F)c7ccc4[nH]7)C=C6)C=C5)cc3)ccc2n1
REMARK SMILES IDX 13 1 14 2 15 3 12 5 11 6 10 7 9 8 7 9 8 10 6 12 1 13 2 14
REMARK SMILES IDX 3 15 85 16 4 17 84 18 5 19 83 20 82 21 16 22 17 23 81 24
REMARK SMILES IDX 18 25 80 26 19 27 20 28 21 29 74 30 22 31 79 32 73 33 75 34
REMARK SMILES IDX 23 35 78 36 72 37 71 38 24 40 58 41 37 42 57 43 38 44 41 45
REMARK SMILES IDX 56 46 76 47 39 48 40 49 55 51 77 52 42 53 25 54 26 55 35 56
REMARK SMILES IDX 27 57 28 58 34 59 36 60 29 61 30 62 31 63 32 64 33 65 59 66
REMARK SMILES IDX 60 67 69 68 61 69 62 70 68 71 70 72 63 73 64 74 65 75 66 76
REMARK SMILES IDX 67 77 43 78 44 79 53 80 45 81 46 82 52 83 54 84 47 85 48 86
REMARK SMILES IDX 49 87 50 88 51 89
REMARK H PARENT 13 4 9 11 75 39 41 50
REMARK Flexibility Score: inf
ROOT
ATOM      1  N   UNL A   1      40.842  23.788  26.240  1.00  0.00    -0.352 N 
ATOM      2  C   UNL A   1      41.495  24.994  26.289  1.00  0.00     0.251 C 
ATOM      3  O   UNL A   1      42.289  25.272  25.393  1.00  0.00    -0.269 OA
ATOM      4  H   UNL A   1      41.206  23.147  25.587  1.00  0.00     0.163 HD
ENDROOT
BRANCH   1   5
ATOM      5  C   UNL A   1      39.699  23.304  26.997  1.00  0.00     0.118 C 
BRANCH   5   6
ATOM      6  C   UNL A   1      38.385  23.525  26.248  1.00  0.00     0.042 C 
BRANCH   6   7
ATOM      7  C   UNL A   1      37.792  22.246  25.654  1.00  0.00     0.118 C 
BRANCH   7   8
ATOM      8  N   UNL A   1      37.378  22.443  24.278  1.00  0.00    -0.352 N 
ATOM      9  C   UNL A   1      36.240  22.948  23.704  1.00  0.00     0.251 C 
ATOM     10  O   UNL A   1      36.239  23.051  22.475  1.00  0.00    -0.269 OA
ATOM     11  H   UNL A   1      38.051  22.155  23.621  1.00  0.00     0.163 HD
BRANCH   9  12
ATOM     12  C   UNL A   1      35.038  23.412  24.464  1.00  0.00     0.040 A 
ATOM     13  C   UNL A   1      29.802  22.766  27.044  1.00  0.00     0.173 C 
ATOM     14  N   UNL A   1      31.062  23.058  26.404  1.00  0.00    -0.275 N 
ATOM     15  C   UNL A   1      31.794  22.212  25.622  1.00  0.00     0.117 A 
ATOM     16  N   UNL A   1      31.621  24.273  26.588  1.00  0.00    -0.173 NA
ATOM     17  C   UNL A   1      32.919  22.923  25.313  1.00  0.00     0.021 A 
ATOM     18  C   UNL A   1      32.800  24.205  25.949  1.00  0.00     0.092 A 
ATOM     19  C   UNL A   1      33.988  22.459  24.555  1.00  0.00     0.025 A 
ATOM     20  C   UNL A   1      33.835  25.144  25.856  1.00  0.00     0.032 A 
ATOM     21  C   UNL A   1      34.960  24.686  25.122  1.00  0.00     0.016 A 
ENDBRANCH   9  12
ENDBRANCH   7   8
ENDBRANCH   6   7
ENDBRANCH   5   6
ENDBRANCH   1   5
BRANCH   2  22
ATOM     22  C   UNL A   1      41.259  25.958  27.390  1.00  0.00     0.039 A 
ATOM     23  C   UNL A   1      42.100  27.072  27.491  1.00  0.00     0.014 A 
ATOM     24  C   UNL A   1      40.283  25.738  28.366  1.00  0.00     0.014 A 
ATOM     25  C   UNL A   1      41.944  27.975  28.546  1.00  0.00     0.010 A 
ATOM     26  C   UNL A   1      40.086  26.672  29.383  1.00  0.00     0.010 A 
ATOM     27  C   UNL A   1      40.924  27.792  29.494  1.00  0.00    -0.014 A 
BRANCH  27  28
ATOM     28  C   UNL A   1      40.741  28.751  30.614  1.00  0.00     0.031 A 
ATOM     29  C   UNL A   1      41.591  28.642  31.853  1.00  0.00     0.074 A 
ATOM     30  C   UNL A   1      39.783  29.694  30.534  1.00  0.00     0.049 A 
ATOM     31  N   UNL A   1      41.546  29.353  32.951  1.00  0.00    -0.248 NA
ATOM     32  C   UNL A   1      42.607  27.578  31.871  1.00  0.00     0.031 C 
ATOM     33  C   UNL A   1      38.866  29.873  29.406  1.00  0.00     0.029 A 
ATOM     34  N   UNL A   1      39.412  30.674  31.420  1.00  0.00    -0.354 N 
ATOM     35  C   UNL A   1      42.512  28.814  33.794  1.00  0.00     0.074 A 
ATOM     36  C   UNL A   1      43.096  27.687  33.097  1.00  0.00     0.031 C 
ATOM     37  C   UNL A   1      38.053  30.912  29.660  1.00  0.00     0.029 A 
ATOM     38  C   UNL A   1      38.369  31.453  30.979  1.00  0.00     0.049 A 
ATOM     39  H   UNL A   1      39.853  30.807  32.291  1.00  0.00     0.167 HD
ATOM     40  C   UNL A   1      42.892  29.230  35.026  1.00  0.00     0.037 A 
ATOM     41  C   UNL A   1      37.738  32.486  31.569  1.00  0.00     0.037 A 
ATOM     42  C   UNL A   1      42.330  30.371  35.702  1.00  0.00     0.049 A 
ATOM     43  C   UNL A   1      38.197  32.948  32.925  1.00  0.00     0.074 A 
ATOM     44  C   UNL A   1      42.681  30.906  36.929  1.00  0.00     0.029 A 
ATOM     45  N   UNL A   1      41.300  31.156  35.205  1.00  0.00    -0.354 N 
ATOM     46  N   UNL A   1      39.146  32.457  33.685  1.00  0.00    -0.248 NA
ATOM     47  C   UNL A   1      37.507  34.112  33.498  1.00  0.00     0.031 C 
ATOM     48  C   UNL A   1      41.842  31.997  37.188  1.00  0.00     0.029 A 
ATOM     49  C   UNL A   1      40.996  32.166  36.104  1.00  0.00     0.049 A 
ATOM     50  H   UNL A   1      40.850  31.017  34.341  1.00  0.00     0.167 HD
ATOM     51  C   UNL A   1      39.186  33.268  34.814  1.00  0.00     0.074 A 
ATOM     52  C   UNL A   1      38.173  34.287  34.631  1.00  0.00     0.031 C 
ATOM     53  C   UNL A   1      39.989  33.178  35.902  1.00  0.00     0.037 A 
BRANCH  40  54
ATOM     54  C   UNL A   1      43.974  28.449  35.722  1.00  0.00     0.058 A 
ATOM     55  C   UNL A   1      43.672  27.397  36.601  1.00  0.00     0.135 A 
ATOM     56  C   UNL A   1      45.329  28.738  35.489  1.00  0.00     0.135 A 
ATOM     57  F   UNL A   1      42.395  27.088  36.871  1.00  0.00    -0.206 F 
ATOM     58  C   UNL A   1      44.674  26.680  37.249  1.00  0.00     0.059 A 
ATOM     59  C   UNL A   1      46.347  28.016  36.105  1.00  0.00     0.059 A 
ATOM     60  F   UNL A   1      45.675  29.731  34.656  1.00  0.00    -0.206 F 
ATOM     61  C   UNL A   1      46.008  27.000  36.998  1.00  0.00     0.060 A 
BRANCH  61  62
ATOM     62  S   UNL A   1      47.297  26.062  37.849  1.00  0.00     0.124 S 
ATOM     63  O   UNL A   1      48.372  26.087  36.862  1.00  0.00    -0.237 OA
ATOM     64  O   UNL A   1      47.522  26.858  39.051  1.00  0.00    -0.237 OA
ATOM     65  O   UNL A   1      46.678  24.759  38.071  1.00  0.00    -0.744 OA
ENDBRANCH  61  62
ENDBRANCH  40  54
BRANCH  41  66
ATOM     66  C   UNL A   1      36.626  33.174  30.863  1.00  0.00     0.058 A 
ATOM     67  C   UNL A   1      35.297  33.002  31.274  1.00  0.00     0.135 A 
ATOM     68  C   UNL A   1      36.870  34.030  29.777  1.00  0.00     0.135 A 
ATOM     69  F   UNL A   1      35.014  32.190  32.304  1.00  0.00    -0.206 F 
ATOM     70  C   UNL A   1      34.244  33.643  30.628  1.00  0.00     0.059 A 
ATOM     71  C   UNL A   1      35.837  34.700  29.128  1.00  0.00     0.059 A 
ATOM     72  F   UNL A   1      38.127  34.242  29.357  1.00  0.00    -0.206 F 
ATOM     73  C   UNL A   1      34.526  34.491  29.556  1.00  0.00     0.060 A 
BRANCH  73  74
ATOM     74  S   UNL A   1      33.160  35.361  28.756  1.00  0.00     0.124 S 
ATOM     75  O   UNL A   1      33.870  36.361  27.967  1.00  0.00    -0.237 OA
ATOM     76  O   UNL A   1      32.513  34.292  28.001  1.00  0.00    -0.237 OA
ATOM     77  O   UNL A   1      32.387  35.876  29.882  1.00  0.00    -0.744 OA
ENDBRANCH  73  74
ENDBRANCH  41  66
BRANCH  53  78
ATOM     78  C   UNL A   1      39.830  34.231  36.963  1.00  0.00     0.058 A 
ATOM     79  C   UNL A   1      39.023  34.024  38.092  1.00  0.00     0.135 A 
ATOM     80  C   UNL A   1      40.521  35.449  36.863  1.00  0.00     0.135 A 
ATOM     81  F   UNL A   1      38.337  32.879  38.232  1.00  0.00    -0.206 F 
ATOM     82  C   UNL A   1      38.880  35.003  39.070  1.00  0.00     0.059 A 
ATOM     83  C   UNL A   1      40.413  36.430  37.842  1.00  0.00     0.059 A 
ATOM     84  F   UNL A   1      41.315  35.691  35.808  1.00  0.00    -0.206 F 
ATOM     85  C   UNL A   1      39.578  36.205  38.935  1.00  0.00     0.060 A 
BRANCH  85  86
ATOM     86  S   UNL A   1      39.402  37.461  40.220  1.00  0.00     0.124 S 
ATOM     87  O   UNL A   1      38.482  38.400  39.586  1.00  0.00    -0.237 OA
ATOM     88  O   UNL A   1      38.857  36.695  41.337  1.00  0.00    -0.237 OA
ATOM     89  O   UNL A   1      40.766  37.947  40.407  1.00  0.00    -0.744 OA
ENDBRANCH  85  86
ENDBRANCH  53  78
ENDBRANCH  27  28
ENDBRANCH   2  22
TORSDOF 13
ENDMDL
MODEL 2
REMARK VINA RESULT:     -11.9      5.076     11.724
REMARK SMILES Cn1cc2cc(C(=O)NCCCNC(=O)c3ccc(-c4c5nc(c(-c6c(F)cc(S(=O)(=O)[O-])cc6F)c6ccc([nH]6)c(-c6c(F)cc(S(=O)(=O)[O-])cc6F)c6nc(c(-c7c(F)cc(S(=O)(=O)[O-])cc7F)c7ccc4[nH]7)C=C6)C=C5)cc3)ccc2n1
REMARK SMILES IDX 13 1 14 2 15 3 12 5 11 6 10 7 9 8 7 9 8 10 6 12 1 13 2 14
REMARK SMILES IDX 3 15 85 16 4 17 84 18 5 19 83 20 82 21 16 22 17 23 81 24
REMARK SMILES IDX 18 25 80 26 19 27 20 28 21 29 74 30 22 31 79 32 73 33 75 34
REMARK SMILES IDX 23 35 78 36 72 37 71 38 24 40 58 41 37 42 57 43 38 44 41 45
REMARK SMILES IDX 56 46 76 47 39 48 40 49 55 51 77 52 42 53 25 54 26 55 35 56
REMARK SMILES IDX 27 57 28 58 34 59 36 60 29 61 30 62 31 63 32 64 33 65 59 66
REMARK SMILES IDX 60 67 69 68 61 69 62 70 68 71 70 72 63 73 64 74 65 75 66 76
REMARK SMILES IDX 67 77 43 78 44 79 53 80 45 81 46 82 52 83 54 84 47 85 48 86
REMARK SMILES IDX 49 87 50 88 51 89
REMARK H PARENT 13 4 9 11 75 39 41 50
REMARK Flexibility Score: inf
ROOT
ATOM      1  N   UNL A   1      33.982  31.599  27.941  1.00  0.00    -0.352 N 
ATOM      2  C   UNL A   1      34.399  30.293  27.899  1.00  0.00     0.251 C 
ATOM      3  O   UNL A   1      33.576  29.418  27.639  1.00  0.00    -0.269 OA
ATOM      4  H   UNL A   1      33.005  31.721  27.951  1.00  0.00     0.163 HD
ENDROOT
BRANCH   1   5
ATOM      5  C   UNL A   1      34.750  32.834  27.976  1.00  0.00     0.118 C 
BRANCH   5   6
ATOM      6  C   UNL A   1      35.344  33.096  29.360  1.00  0.00     0.042 C 
BRANCH   6   7
ATOM      7  C   UNL A   1      34.710  34.283  30.087  1.00  0.00     0.118 C 
BRANCH   7   8
ATOM      8  N   UNL A   1      33.992  33.857  31.273  1.00  0.00    -0.352 N 
ATOM      9  C   UNL A   1      34.395  33.388  32.495  1.00  0.00     0.251 C 
ATOM     10  O   UNL A   1      33.511  33.185  33.330  1.00  0.00    -0.269 OA
ATOM     11  H   UNL A   1      33.014  33.917  31.181  1.00  0.00     0.163 HD
BRANCH   9  12
ATOM     12  C   UNL A   1      35.820  33.150  32.887  1.00  0.00     0.040 A 
ATOM     13  C   UNL A   1      40.670  29.917  33.596  1.00  0.00     0.173 C 
ATOM     14  N   UNL A   1      39.531  30.798  33.514  1.00  0.00    -0.275 N 
ATOM     15  C   UNL A   1      38.256  30.450  33.171  1.00  0.00     0.117 A 
ATOM     16  N   UNL A   1      39.701  32.112  33.772  1.00  0.00    -0.173 NA
ATOM     17  C   UNL A   1      37.568  31.631  33.175  1.00  0.00     0.021 A 
ATOM     18  C   UNL A   1      38.501  32.664  33.533  1.00  0.00     0.092 A 
ATOM     19  C   UNL A   1      36.226  31.789  32.852  1.00  0.00     0.025 A 
ATOM     20  C   UNL A   1      38.098  34.004  33.570  1.00  0.00     0.032 A 
ATOM     21  C   UNL A   1      36.741  34.205  33.205  1.00  0.00     0.016 A 
ENDBRANCH   9  12
ENDBRANCH   7   8
ENDBRANCH   6   7
ENDBRANCH   5   6
ENDBRANCH   1   5
BRANCH   2  22
ATOM     22  C   UNL A   1      35.812  29.923  28.155  1.00  0.00     0.039 A 
ATOM     23  C   UNL A   1      36.167  29.507  29.444  1.00  0.00     0.014 A 
ATOM     24  C   UNL A   1      36.799  30.059  27.176  1.00  0.00     0.014 A 
ATOM     25  C   UNL A   1      37.498  29.201  29.738  1.00  0.00     0.010 A 
ATOM     26  C   UNL A   1      38.117  29.694  27.453  1.00  0.00     0.010 A 
ATOM     27  C   UNL A   1      38.484  29.276  28.741  1.00  0.00    -0.014 A 
BRANCH  27  28
ATOM     28  C   UNL A   1      39.901  28.943  29.040  1.00  0.00     0.031 A 
ATOM     29  C   UNL A   1      40.800  29.963  29.688  1.00  0.00     0.074 A 
ATOM     30  C   UNL A   1      40.390  27.737  28.691  1.00  0.00     0.049 A 
ATOM     31  N   UNL A   1      42.072  29.875  29.982  1.00  0.00    -0.248 NA
ATOM     32  C   UNL A   1      40.196  31.261  30.028  1.00  0.00     0.031 C 
ATOM     33  C   UNL A   1      39.631  26.681  28.018  1.00  0.00     0.029 A 
ATOM     34  N   UNL A   1      41.643  27.198  28.844  1.00  0.00    -0.354 N 
ATOM     35  C   UNL A   1      42.424  31.107  30.523  1.00  0.00     0.074 A 
ATOM     36  C   UNL A   1      41.242  31.940  30.475  1.00  0.00     0.031 C 
ATOM     37  C   UNL A   1      40.428  25.615  27.834  1.00  0.00     0.029 A 
ATOM     38  C   UNL A   1      41.760  25.922  28.348  1.00  0.00     0.049 A 
ATOM     39  H   UNL A   1      42.387  27.682  29.271  1.00  0.00     0.167 HD
ATOM     40  C   UNL A   1      43.617  31.501  31.031  1.00  0.00     0.037 A 
ATOM     41  C   UNL A   1      42.820  25.092  28.311  1.00  0.00     0.037 A 
ATOM     42  C   UNL A   1      44.782  30.658  31.105  1.00  0.00     0.049 A 
ATOM     43  C   UNL A   1      44.125  25.542  28.906  1.00  0.00     0.074 A 
ATOM     44  C   UNL A   1      46.022  30.946  31.648  1.00  0.00     0.029 A 
ATOM     45  N   UNL A   1      44.849  29.358  30.625  1.00  0.00    -0.354 N 
ATOM     46  N   UNL A   1      44.425  26.692  29.459  1.00  0.00    -0.248 NA
ATOM     47  C   UNL A   1      45.233  24.576  28.885  1.00  0.00     0.031 C 
ATOM     48  C   UNL A   1      46.850  29.830  31.469  1.00  0.00     0.029 A 
ATOM     49  C   UNL A   1      46.112  28.834  30.850  1.00  0.00     0.049 A 
ATOM     50  H   UNL A   1      44.109  28.879  30.187  1.00  0.00     0.167 HD
ATOM     51  C   UNL A   1      45.747  26.581  29.875  1.00  0.00     0.074 A 
ATOM     52  C   UNL A   1      46.185  25.246  29.520  1.00  0.00     0.031 C 
ATOM     53  C   UNL A   1      46.528  27.499  30.497  1.00  0.00     0.037 A 
BRANCH  40  54
ATOM     54  C   UNL A   1      43.720  32.909  31.554  1.00  0.00     0.058 A 
ATOM     55  C   UNL A   1      43.470  33.214  32.901  1.00  0.00     0.135 A 
ATOM     56  C   UNL A   1      44.096  33.962  30.704  1.00  0.00     0.135 A 
ATOM     57  F   UNL A   1      43.093  32.248  33.754  1.00  0.00    -0.206 F 
ATOM     58  C   UNL A   1      43.559  34.516  33.382  1.00  0.00     0.059 A 
ATOM     59  C   UNL A   1      44.218  35.269  31.169  1.00  0.00     0.059 A 
ATOM     60  F   UNL A   1      44.349  33.728  29.408  1.00  0.00    -0.206 F 
ATOM     61  C   UNL A   1      43.930  35.538  32.507  1.00  0.00     0.060 A 
BRANCH  61  62
ATOM     62  S   UNL A   1      44.038  37.225  33.145  1.00  0.00     0.124 S 
ATOM     63  O   UNL A   1      45.239  37.145  33.971  1.00  0.00    -0.237 OA
ATOM     64  O   UNL A   1      44.162  38.014  31.924  1.00  0.00    -0.237 OA
ATOM     65  O   UNL A   1      42.785  37.394  33.873  1.00  0.00    -0.744 OA
ENDBRANCH  61  62
ENDBRANCH  40  54
BRANCH  41  66
ATOM     66  C   UNL A   1      42.678  23.738  27.715  1.00  0.00     0.058 A 
ATOM     67  C   UNL A   1      42.796  23.544  26.332  1.00  0.00     0.135 A 
ATOM     68  C   UNL A   1      42.441  22.609  28.517  1.00  0.00     0.135 A 
ATOM     69  F   UNL A   1      43.016  24.592  25.524  1.00  0.00    -0.206 F 
ATOM     70  C   UNL A   1      42.671  22.282  25.759  1.00  0.00     0.059 A 
ATOM     71  C   UNL A   1      42.335  21.334  27.970  1.00  0.00     0.059 A 
ATOM     72  F   UNL A   1      42.340  22.740  29.848  1.00  0.00    -0.206 F 
ATOM     73  C   UNL A   1      42.442  21.183  26.588  1.00  0.00     0.060 A 
BRANCH  73  74
ATOM     74  S   UNL A   1      42.335  19.542  25.842  1.00  0.00     0.124 S 
ATOM     75  O   UNL A   1      42.701  18.685  26.964  1.00  0.00    -0.237 OA
ATOM     76  O   UNL A   1      40.937  19.484  25.422  1.00  0.00    -0.237 OA
ATOM     77  O   UNL A   1      43.304  19.605  24.752  1.00  0.00    -0.744 OA
ENDBRANCH  73  74
ENDBRANCH  41  66
BRANCH  53  78
ATOM     78  C   UNL A   1      47.923  27.079  30.865  1.00  0.00     0.058 A 
ATOM     79  C   UNL A   1      48.204  26.440  32.082  1.00  0.00     0.135 A 
ATOM     80  C   UNL A   1      48.987  27.291  29.973  1.00  0.00     0.135 A 
ATOM     81  F   UNL A   1      47.223  26.218  32.971  1.00  0.00    -0.206 F 
ATOM     82  C   UNL A   1      49.498  26.053  32.416  1.00  0.00     0.059 A 
ATOM     83  C   UNL A   1      50.283  26.890  30.276  1.00  0.00     0.059 A 
ATOM     84  F   UNL A   1      48.769  27.889  28.791  1.00  0.00    -0.206 F 
ATOM     85  C   UNL A   1      50.532  26.286  31.507  1.00  0.00     0.060 A 
BRANCH  85  86
ATOM     86  S   UNL A   1      52.205  25.764  31.942  1.00  0.00     0.124 S 
ATOM     87  O   UNL A   1      52.503  26.643  33.068  1.00  0.00    -0.237 OA
ATOM     88  O   UNL A   1      52.020  24.354  32.271  1.00  0.00    -0.237 OA
ATOM     89  O   UNL A   1      52.967  26.021  30.724  1.00  0.00    -0.744 OA
ENDBRANCH  85  86
ENDBRANCH  53  78
ENDBRANCH  27  28
ENDBRANCH   2  22
TORSDOF 13
ENDMDL
MODEL 3
REMARK VINA RESULT:     -11.9      2.964      4.796
REMARK SMILES Cn1cc2cc(C(=O)NCCCNC(=O)c3ccc(-c4c5nc(c(-c6c(F)cc(S(=O)(=O)[O-])cc6F)c6ccc([nH]6)c(-c6c(F)cc(S(=O)(=O)[O-])cc6F)c6nc(c(-c7c(F)cc(S(=O)(=O)[O-])cc7F)c7ccc4[nH]7)C=C6)C=C5)cc3)ccc2n1
REMARK SMILES IDX 13 1 14 2 15 3 12 5 11 6 10 7 9 8 7 9 8 10 6 12 1 13 2 14
REMARK SMILES IDX 3 15 85 16 4 17 84 18 5 19 83 20 82 21 16 22 17 23 81 24
REMARK SMILES IDX 18 25 80 26 19 27 20 28 21 29 74 30 22 31 79 32 73 33 75 34
REMARK SMILES IDX 23 35 78 36 72 37 71 38 24 40 58 41 37 42 57 43 38 44 41 45
REMARK SMILES IDX 56 46 76 47 39 48 40 49 55 51 77 52 42 53 25 54 26 55 35 56
REMARK SMILES IDX 27 57 28 58 34 59 36 60 29 61 30 62 31 63 32 64 33 65 59 66
REMARK SMILES IDX 60 67 69 68 61 69 62 70 68 71 70 72 63 73 64 74 65 75 66 76
REMARK SMILES IDX 67 77 43 78 44 79 53 80 45 81 46 82 52 83 54 84 47 85 48 86
REMARK SMILES IDX 49 87 50 88 51 89
REMARK H PARENT 13 4 9 11 75 39 41 50
REMARK Flexibility Score: inf
ROOT
ATOM      1  N   UNL A   1      41.064  23.746  26.193  1.00  0.00    -0.352 N 
ATOM      2  C   UNL A   1      41.487  25.050  26.128  1.00  0.00     0.251 C 
ATOM      3  O   UNL A   1      42.071  25.432  25.116  1.00  0.00    -0.269 OA
ATOM      4  H   UNL A   1      41.435  23.157  25.496  1.00  0.00     0.163 HD
ENDROOT
BRANCH   1   5
ATOM      5  C   UNL A   1      40.158  23.094  27.125  1.00  0.00     0.118 C 
BRANCH   5   6
ATOM      6  C   UNL A   1      40.086  21.585  26.888  1.00  0.00     0.042 C 
BRANCH   6   7
ATOM      7  C   UNL A   1      41.229  20.805  27.539  1.00  0.00     0.118 C 
BRANCH   7   8
ATOM      8  N   UNL A   1      41.418  19.514  26.905  1.00  0.00    -0.352 N 
ATOM      9  C   UNL A   1      42.399  18.999  26.099  1.00  0.00     0.251 C 
ATOM     10  O   UNL A   1      42.293  17.811  25.788  1.00  0.00    -0.269 OA
ATOM     11  H   UNL A   1      40.692  18.877  27.092  1.00  0.00     0.163 HD
BRANCH   9  12
ATOM     12  C   UNL A   1      43.591  19.763  25.616  1.00  0.00     0.040 A 
ATOM     13  C   UNL A   1      46.827  24.590  24.771  1.00  0.00     0.173 C 
ATOM     14  N   UNL A   1      46.103  23.347  24.877  1.00  0.00    -0.275 N 
ATOM     15  C   UNL A   1      44.830  23.183  25.342  1.00  0.00     0.117 A 
ATOM     16  N   UNL A   1      46.716  22.201  24.510  1.00  0.00    -0.173 NA
ATOM     17  C   UNL A   1      44.625  21.832  25.305  1.00  0.00     0.021 A 
ATOM     18  C   UNL A   1      45.831  21.234  24.801  1.00  0.00     0.092 A 
ATOM     19  C   UNL A   1      43.473  21.175  25.719  1.00  0.00     0.025 A 
ATOM     20  C   UNL A   1      45.944  19.842  24.698  1.00  0.00     0.032 A 
ATOM     21  C   UNL A   1      44.798  19.139  25.152  1.00  0.00     0.016 A 
ENDBRANCH   9  12
ENDBRANCH   7   8
ENDBRANCH   6   7
ENDBRANCH   5   6
ENDBRANCH   1   5
BRANCH   2  22
ATOM     22  C   UNL A   1      41.251  25.996  27.244  1.00  0.00     0.039 A 
ATOM     23  C   UNL A   1      42.092  27.109  27.362  1.00  0.00     0.014 A 
ATOM     24  C   UNL A   1      40.275  25.761  28.216  1.00  0.00     0.014 A 
ATOM     25  C   UNL A   1      41.935  27.995  28.431  1.00  0.00     0.010 A 
ATOM     26  C   UNL A   1      40.078  26.679  29.249  1.00  0.00     0.010 A 
ATOM     27  C   UNL A   1      40.916  27.798  29.377  1.00  0.00    -0.014 A 
BRANCH  27  28
ATOM     28  C   UNL A   1      40.733  28.739  30.512  1.00  0.00     0.031 A 
ATOM     29  C   UNL A   1      41.583  28.611  31.748  1.00  0.00     0.074 A 
ATOM     30  C   UNL A   1      39.774  29.683  30.446  1.00  0.00     0.049 A 
ATOM     31  N   UNL A   1      41.538  29.304  32.857  1.00  0.00    -0.248 NA
ATOM     32  C   UNL A   1      42.599  27.547  31.749  1.00  0.00     0.031 C 
ATOM     33  C   UNL A   1      38.857  29.879  29.321  1.00  0.00     0.029 A 
ATOM     34  N   UNL A   1      39.404  30.649  31.348  1.00  0.00    -0.354 N 
ATOM     35  C   UNL A   1      42.505  28.752  33.692  1.00  0.00     0.074 A 
ATOM     36  C   UNL A   1      43.089  27.637  32.977  1.00  0.00     0.031 C 
ATOM     37  C   UNL A   1      38.044  30.914  29.592  1.00  0.00     0.029 A 
ATOM     38  C   UNL A   1      38.360  31.434  30.919  1.00  0.00     0.049 A 
ATOM     39  H   UNL A   1      39.845  30.768  32.220  1.00  0.00     0.167 HD
ATOM     40  C   UNL A   1      42.885  29.150  34.930  1.00  0.00     0.037 A 
ATOM     41  C   UNL A   1      37.729  32.458  31.525  1.00  0.00     0.037 A 
ATOM     42  C   UNL A   1      42.322  30.280  35.624  1.00  0.00     0.049 A 
ATOM     43  C   UNL A   1      38.188  32.899  32.888  1.00  0.00     0.074 A 
ATOM     44  C   UNL A   1      42.673  30.795  36.859  1.00  0.00     0.029 A 
ATOM     45  N   UNL A   1      41.292  31.072  35.139  1.00  0.00    -0.354 N 
ATOM     46  N   UNL A   1      39.137  32.397  33.640  1.00  0.00    -0.248 NA
ATOM     47  C   UNL A   1      37.498  34.054  33.479  1.00  0.00     0.031 C 
ATOM     48  C   UNL A   1      41.834  31.882  37.136  1.00  0.00     0.029 A 
ATOM     49  C   UNL A   1      40.988  32.067  36.054  1.00  0.00     0.049 A 
ATOM     50  H   UNL A   1      40.842  30.946  34.273  1.00  0.00     0.167 HD
ATOM     51  C   UNL A   1      39.177  33.189  34.781  1.00  0.00     0.074 A 
ATOM     52  C   UNL A   1      38.164  34.211  34.615  1.00  0.00     0.031 C 
ATOM     53  C   UNL A   1      39.981  33.082  35.868  1.00  0.00     0.037 A 
BRANCH  40  54
ATOM     54  C   UNL A   1      43.967  28.358  35.613  1.00  0.00     0.058 A 
ATOM     55  C   UNL A   1      43.665  27.297  36.482  1.00  0.00     0.135 A 
ATOM     56  C   UNL A   1      45.322  28.646  35.379  1.00  0.00     0.135 A 
ATOM     57  F   UNL A   1      42.388  26.988  36.753  1.00  0.00    -0.206 F 
ATOM     58  C   UNL A   1      44.667  26.570  37.118  1.00  0.00     0.059 A 
ATOM     59  C   UNL A   1      46.340  27.915  35.984  1.00  0.00     0.059 A 
ATOM     60  F   UNL A   1      45.667  29.648  34.556  1.00  0.00    -0.206 F 
ATOM     61  C   UNL A   1      46.001  26.889  36.866  1.00  0.00     0.060 A 
BRANCH  61  62
ATOM     62  S   UNL A   1      47.290  25.939  37.702  1.00  0.00     0.124 S 
ATOM     63  O   UNL A   1      47.446  24.804  36.797  1.00  0.00    -0.237 OA
ATOM     64  O   UNL A   1      48.404  26.881  37.734  1.00  0.00    -0.237 OA
ATOM     65  O   UNL A   1      46.697  25.630  39.000  1.00  0.00    -0.744 OA
ENDBRANCH  61  62
ENDBRANCH  40  54
BRANCH  41  66
ATOM     66  C   UNL A   1      36.617  33.156  30.830  1.00  0.00     0.058 A 
ATOM     67  C   UNL A   1      35.287  32.974  31.235  1.00  0.00     0.135 A 
ATOM     68  C   UNL A   1      36.861  34.034  29.761  1.00  0.00     0.135 A 
ATOM     69  F   UNL A   1      35.004  32.141  32.248  1.00  0.00    -0.206 F 
ATOM     70  C   UNL A   1      34.234  33.624  30.599  1.00  0.00     0.059 A 
ATOM     71  C   UNL A   1      35.828  34.713  29.123  1.00  0.00     0.059 A 
ATOM     72  F   UNL A   1      38.118  34.257  29.348  1.00  0.00    -0.206 F 
ATOM     73  C   UNL A   1      34.516  34.493  29.544  1.00  0.00     0.060 A 
BRANCH  73  74
ATOM     74  S   UNL A   1      33.150  35.375  28.758  1.00  0.00     0.124 S 
ATOM     75  O   UNL A   1      33.860  36.373  27.967  1.00  0.00    -0.237 OA
ATOM     76  O   UNL A   1      32.490  34.312  28.004  1.00  0.00    -0.237 OA
ATOM     77  O   UNL A   1      32.389  35.891  29.892  1.00  0.00    -0.744 OA
ENDBRANCH  73  74
ENDBRANCH  41  66
BRANCH  53  78
ATOM     78  C   UNL A   1      39.822  34.118  36.945  1.00  0.00     0.058 A 
ATOM     79  C   UNL A   1      39.019  33.892  38.074  1.00  0.00     0.135 A 
ATOM     80  C   UNL A   1      40.508  35.341  36.861  1.00  0.00     0.135 A 
ATOM     81  F   UNL A   1      38.339  32.742  38.199  1.00  0.00    -0.206 F 
ATOM     82  C   UNL A   1      38.877  34.855  39.067  1.00  0.00     0.059 A 
ATOM     83  C   UNL A   1      40.400  36.307  37.855  1.00  0.00     0.059 A 
ATOM     84  F   UNL A   1      41.296  35.602  35.807  1.00  0.00    -0.206 F 
ATOM     85  C   UNL A   1      39.570  36.061  38.948  1.00  0.00     0.060 A 
BRANCH  85  86
ATOM     86  S   UNL A   1      39.393  37.298  40.252  1.00  0.00     0.124 S 
ATOM     87  O   UNL A   1      40.785  37.641  40.520  1.00  0.00    -0.237 OA
ATOM     88  O   UNL A   1      38.598  38.333  39.598  1.00  0.00    -0.237 OA
ATOM     89  O   UNL A   1      38.708  36.570  41.317  1.00  0.00    -0.744 OA
ENDBRANCH  85  86
ENDBRANCH  53  78
ENDBRANCH  27  28
ENDBRANCH   2  22
TORSDOF 13
ENDMDL
