MODEL 1
REMARK VINA RESULT:     -12.0      0.000      0.000
REMARK SMILES O=C(NCCCNC(=O)[C@@H]1CCCC[C@@H]1Sc1ccncc1)c1ccc(-c2c3nc(c(-c4c(F)cc(S(=O)(=O)[O-])cc4F)c4ccc([nH]4)c(-c4c(F)cc(S(=O)(=O)[O-])cc4F)c4nc(c(-c5c(F)cc(S(=O)(=O)[O-])cc5F)c5ccc2[nH]5)C=C4)C=C3)cc1
REMARK SMILES IDX 4 1 3 2 1 3 2 4 23 6 24 7 88 8 25 9 87 10 26 11 27 12 28 13
REMARK SMILES IDX 81 14 29 15 86 16 80 17 82 18 30 19 85 20 79 21 78 22 31 24
REMARK SMILES IDX 65 25 44 26 64 27 45 28 48 29 63 30 83 31 46 32 47 33 62 35
REMARK SMILES IDX 84 36 49 37 32 38 33 39 42 40 34 41 35 42 41 43 43 44 36 45
REMARK SMILES IDX 37 46 38 47 39 48 40 49 66 50 67 51 76 52 68 53 69 54 75 55
REMARK SMILES IDX 77 56 70 57 71 58 72 59 73 60 74 61 50 62 51 63 60 64 52 65
REMARK SMILES IDX 53 66 59 67 61 68 54 69 55 70 56 71 57 72 58 73 5 74 6 75
REMARK SMILES IDX 7 76 8 77 9 79 10 80 11 81 15 82 12 83 14 84 13 85 16 86
REMARK SMILES IDX 17 87 18 88 22 89 19 90 21 91 20 92
REMARK H PARENT 3 5 82 23 48 34 7 78
REMARK Flexibility Score: inf
ROOT
ATOM      1  C   UNL A   1      35.241  29.715  27.653  1.00  0.00     0.118 C 
ENDROOT
BRANCH   1   2
ATOM      2  N   UNL A   1      35.219  30.082  29.064  1.00  0.00    -0.352 N 
ATOM      3  O   UNL A   1      35.906  30.174  31.204  1.00  0.00    -0.269 OA
ATOM      4  C   UNL A   1      36.205  30.023  30.025  1.00  0.00     0.251 C 
ATOM      5  H   UNL A   1      34.355  30.431  29.383  1.00  0.00     0.163 HD
BRANCH   4   6
ATOM      6  C   UNL A   1      37.609  29.755  29.643  1.00  0.00     0.039 A 
ATOM      7  C   UNL A   1      38.057  30.030  28.353  1.00  0.00     0.014 A 
ATOM      8  C   UNL A   1      38.502  29.248  30.592  1.00  0.00     0.014 A 
ATOM      9  C   UNL A   1      39.316  29.608  27.953  1.00  0.00     0.010 A 
ATOM     10  C   UNL A   1      39.818  28.948  30.222  1.00  0.00     0.010 A 
ATOM     11  C   UNL A   1      40.225  29.086  28.886  1.00  0.00    -0.014 A 
BRANCH  11  12
ATOM     12  C   UNL A   1      41.602  28.754  28.434  1.00  0.00     0.031 A 
ATOM     13  C   UNL A   1      42.707  29.773  28.485  1.00  0.00     0.074 A 
ATOM     14  C   UNL A   1      41.857  27.495  28.027  1.00  0.00     0.049 A 
ATOM     15  N   UNL A   1      43.970  29.632  28.170  1.00  0.00    -0.248 NA
ATOM     16  C   UNL A   1      42.352  31.128  28.935  1.00  0.00     0.031 C 
ATOM     17  C   UNL A   1      40.859  26.424  27.930  1.00  0.00     0.029 A 
ATOM     18  N   UNL A   1      43.027  26.886  27.655  1.00  0.00    -0.354 N 
ATOM     19  C   UNL A   1      44.552  30.881  28.351  1.00  0.00     0.074 A 
ATOM     20  C   UNL A   1      43.500  31.775  28.785  1.00  0.00     0.031 C 
ATOM     21  C   UNL A   1      41.471  25.278  27.603  1.00  0.00     0.029 A 
ATOM     22  C   UNL A   1      42.887  25.545  27.387  1.00  0.00     0.049 A 
ATOM     23  H   UNL A   1      43.885  27.363  27.586  1.00  0.00     0.167 HD
ATOM     24  C   UNL A   1      45.846  31.245  28.172  1.00  0.00     0.037 A 
ATOM     25  C   UNL A   1      43.793  24.629  26.998  1.00  0.00     0.037 A 
ATOM     26  C   UNL A   1      46.888  30.339  27.761  1.00  0.00     0.049 A 
ATOM     27  C   UNL A   1      45.216  25.058  26.805  1.00  0.00     0.074 A 
ATOM     28  C   UNL A   1      48.236  30.599  27.582  1.00  0.00     0.029 A 
ATOM     29  N   UNL A   1      46.700  28.996  27.463  1.00  0.00    -0.354 N 
ATOM     30  N   UNL A   1      45.750  26.241  26.993  1.00  0.00    -0.248 NA
ATOM     31  C   UNL A   1      46.158  24.035  26.339  1.00  0.00     0.031 C 
ATOM     32  C   UNL A   1      48.853  29.425  27.134  1.00  0.00     0.029 A 
ATOM     33  C   UNL A   1      47.901  28.419  27.082  1.00  0.00     0.049 A 
ATOM     34  H   UNL A   1      45.838  28.522  27.513  1.00  0.00     0.167 HD
ATOM     35  C   UNL A   1      47.097  26.102  26.687  1.00  0.00     0.074 A 
ATOM     36  C   UNL A   1      47.296  24.714  26.314  1.00  0.00     0.031 C 
ATOM     37  C   UNL A   1      48.080  27.035  26.715  1.00  0.00     0.037 A 
BRANCH  24  38
ATOM     38  C   UNL A   1      46.196  32.695  28.384  1.00  0.00     0.058 A 
ATOM     39  C   UNL A   1      46.627  33.185  29.628  1.00  0.00     0.135 A 
ATOM     40  C   UNL A   1      46.107  33.608  27.320  1.00  0.00     0.135 A 
ATOM     41  F   UNL A   1      46.718  32.360  30.684  1.00  0.00    -0.206 F 
ATOM     42  C   UNL A   1      46.915  34.533  29.820  1.00  0.00     0.059 A 
ATOM     43  C   UNL A   1      46.416  34.956  27.482  1.00  0.00     0.059 A 
ATOM     44  F   UNL A   1      45.706  33.196  26.108  1.00  0.00    -0.206 F 
ATOM     45  C   UNL A   1      46.798  35.413  28.742  1.00  0.00     0.060 A 
BRANCH  45  46
ATOM     46  S   UNL A   1      47.140  37.165  29.015  1.00  0.00     0.124 S 
ATOM     47  O   UNL A   1      46.031  37.791  28.302  1.00  0.00    -0.237 OA
ATOM     48  O   UNL A   1      47.097  37.271  30.469  1.00  0.00    -0.237 OA
ATOM     49  O   UNL A   1      48.458  37.351  28.414  1.00  0.00    -0.744 OA
ENDBRANCH  45  46
ENDBRANCH  24  38
BRANCH  25  50
ATOM     50  C   UNL A   1      43.366  23.222  26.783  1.00  0.00     0.058 A 
ATOM     51  C   UNL A   1      43.310  22.676  25.492  1.00  0.00     0.135 A 
ATOM     52  C   UNL A   1      43.063  22.379  27.864  1.00  0.00     0.135 A 
ATOM     53  F   UNL A   1      43.587  23.442  24.426  1.00  0.00    -0.206 F 
ATOM     54  C   UNL A   1      42.968  21.344  25.281  1.00  0.00     0.059 A 
ATOM     55  C   UNL A   1      42.746  21.038  27.680  1.00  0.00     0.059 A 
ATOM     56  F   UNL A   1      43.122  22.850  29.119  1.00  0.00    -0.206 F 
ATOM     57  C   UNL A   1      42.695  20.531  26.382  1.00  0.00     0.060 A 
BRANCH  57  58
ATOM     58  S   UNL A   1      42.327  18.785  26.103  1.00  0.00     0.124 S 
ATOM     59  O   UNL A   1      40.914  18.837  25.752  1.00  0.00    -0.237 OA
ATOM     60  O   UNL A   1      43.244  18.449  25.017  1.00  0.00    -0.237 OA
ATOM     61  O   UNL A   1      42.638  18.167  27.388  1.00  0.00    -0.744 OA
ENDBRANCH  57  58
ENDBRANCH  25  50
BRANCH  37  62
ATOM     62  C   UNL A   1      49.467  26.574  26.368  1.00  0.00     0.058 A 
ATOM     63  C   UNL A   1      50.273  25.891  27.291  1.00  0.00     0.135 A 
ATOM     64  C   UNL A   1      49.985  26.799  25.082  1.00  0.00     0.135 A 
ATOM     65  F   UNL A   1      49.827  25.660  28.536  1.00  0.00    -0.206 F 
ATOM     66  C   UNL A   1      51.557  25.470  26.960  1.00  0.00     0.059 A 
ATOM     67  C   UNL A   1      51.255  26.364  24.721  1.00  0.00     0.059 A 
ATOM     68  F   UNL A   1      49.250  27.442  24.160  1.00  0.00    -0.206 F 
ATOM     69  C   UNL A   1      52.040  25.713  25.673  1.00  0.00     0.060 A 
BRANCH  69  70
ATOM     70  S   UNL A   1      53.699  25.145  25.247  1.00  0.00     0.124 S 
ATOM     71  O   UNL A   1      53.572  23.703  25.430  1.00  0.00    -0.237 OA
ATOM     72  O   UNL A   1      53.842  25.600  23.868  1.00  0.00    -0.237 OA
ATOM     73  O   UNL A   1      54.549  25.829  26.218  1.00  0.00    -0.744 OA
ENDBRANCH  69  70
ENDBRANCH  37  62
ENDBRANCH  11  12
ENDBRANCH   4   6
ENDBRANCH   1   2
BRANCH   1  74
ATOM     74  C   UNL A   1      34.010  28.928  27.239  1.00  0.00     0.042 C 
BRANCH  74  75
ATOM     75  C   UNL A   1      33.221  29.591  26.125  1.00  0.00     0.117 C 
BRANCH  75  76
ATOM     76  N   UNL A   1      33.772  29.325  24.811  1.00  0.00    -0.356 N 
ATOM     77  C   UNL A   1      33.570  28.353  23.889  1.00  0.00     0.224 C 
ATOM     78  H   UNL A   1      34.435  29.995  24.527  1.00  0.00     0.163 HD
ATOM     79  O   UNL A   1      34.160  28.532  22.816  1.00  0.00    -0.275 OA
BRANCH  77  80
ATOM     80  C   UNL A   1      32.789  27.048  24.146  1.00  0.00     0.092 C 
ATOM     81  C   UNL A   1      33.409  25.940  23.255  1.00  0.00     0.014 C 
ATOM     82  C   UNL A   1      31.251  27.070  24.017  1.00  0.00     0.064 C 
ATOM     83  C   UNL A   1      32.758  24.573  23.426  1.00  0.00     0.001 C 
ATOM     84  C   UNL A   1      30.641  25.667  24.176  1.00  0.00     0.015 C 
ATOM     85  C   UNL A   1      31.251  24.632  23.245  1.00  0.00     0.001 C 
BRANCH  82  86
ATOM     86  S   UNL A   1      30.702  27.838  22.433  1.00  0.00    -0.122 SA
BRANCH  86  87
ATOM     87  C   UNL A   1      29.431  29.012  22.891  1.00  0.00     0.011 A 
ATOM     88  C   UNL A   1      29.630  30.340  23.262  1.00  0.00     0.035 A 
ATOM     89  C   UNL A   1      28.121  28.525  22.872  1.00  0.00     0.035 A 
ATOM     90  C   UNL A   1      28.527  31.111  23.600  1.00  0.00     0.112 A 
ATOM     91  C   UNL A   1      27.083  29.369  23.231  1.00  0.00     0.112 A 
ATOM     92  N   UNL A   1      27.259  30.653  23.599  1.00  0.00    -0.265 NA
ENDBRANCH  86  87
ENDBRANCH  82  86
ENDBRANCH  77  80
ENDBRANCH  75  76
ENDBRANCH  74  75
ENDBRANCH   1  74
TORSDOF 15
ENDMDL
MODEL 2
REMARK VINA RESULT:     -12.0      7.164     12.662
REMARK SMILES O=C(NCCCNC(=O)[C@@H]1CCCC[C@@H]1Sc1ccncc1)c1ccc(-c2c3nc(c(-c4c(F)cc(S(=O)(=O)[O-])cc4F)c4ccc([nH]4)c(-c4c(F)cc(S(=O)(=O)[O-])cc4F)c4nc(c(-c5c(F)cc(S(=O)(=O)[O-])cc5F)c5ccc2[nH]5)C=C4)C=C3)cc1
REMARK SMILES IDX 4 1 3 2 1 3 2 4 23 6 24 7 88 8 25 9 87 10 26 11 27 12 28 13
REMARK SMILES IDX 81 14 29 15 86 16 80 17 82 18 30 19 85 20 79 21 78 22 31 24
REMARK SMILES IDX 65 25 44 26 64 27 45 28 48 29 63 30 83 31 46 32 47 33 62 35
REMARK SMILES IDX 84 36 49 37 32 38 33 39 42 40 34 41 35 42 41 43 43 44 36 45
REMARK SMILES IDX 37 46 38 47 39 48 40 49 66 50 67 51 76 52 68 53 69 54 75 55
REMARK SMILES IDX 77 56 70 57 71 58 72 59 73 60 74 61 50 62 51 63 60 64 52 65
REMARK SMILES IDX 53 66 59 67 61 68 54 69 55 70 56 71 57 72 58 73 5 74 6 75
REMARK SMILES IDX 7 76 8 77 9 79 10 80 11 81 15 82 12 83 14 84 13 85 16 86
REMARK SMILES IDX 17 87 18 88 22 89 19 90 21 91 20 92
REMARK H PARENT 3 5 82 23 48 34 7 78
REMARK Flexibility Score: inf
ROOT
ATOM      1  C   UNL A   1      39.019  23.651  26.634  1.00  0.00     0.118 C 
ENDROOT
BRANCH   1   2
ATOM      2  N   UNL A   1      40.342  23.940  26.091  1.00  0.00    -0.352 N 
ATOM      3  O   UNL A   1      42.173  25.150  25.599  1.00  0.00    -0.269 OA
ATOM      4  C   UNL A   1      41.204  24.988  26.331  1.00  0.00     0.251 C 
ATOM      5  H   UNL A   1      40.674  23.275  25.445  1.00  0.00     0.163 HD
BRANCH   4   6
ATOM      6  C   UNL A   1      40.953  25.924  27.450  1.00  0.00     0.039 A 
ATOM      7  C   UNL A   1      41.680  27.107  27.560  1.00  0.00     0.014 A 
ATOM      8  C   UNL A   1      39.958  25.632  28.388  1.00  0.00     0.014 A 
ATOM      9  C   UNL A   1      41.567  27.884  28.704  1.00  0.00     0.010 A 
ATOM     10  C   UNL A   1      39.750  26.491  29.474  1.00  0.00     0.010 A 
ATOM     11  C   UNL A   1      40.584  27.604  29.664  1.00  0.00    -0.014 A 
BRANCH  11  12
ATOM     12  C   UNL A   1      40.425  28.531  30.815  1.00  0.00     0.031 A 
ATOM     13  C   UNL A   1      41.349  28.471  32.000  1.00  0.00     0.074 A 
ATOM     14  C   UNL A   1      39.463  29.474  30.751  1.00  0.00     0.049 A 
ATOM     15  N   UNL A   1      41.374  29.235  33.063  1.00  0.00    -0.248 NA
ATOM     16  C   UNL A   1      42.372  27.413  32.001  1.00  0.00     0.031 C 
ATOM     17  C   UNL A   1      38.503  29.622  29.652  1.00  0.00     0.029 A 
ATOM     18  N   UNL A   1      39.152  30.504  31.599  1.00  0.00    -0.354 N 
ATOM     19  C   UNL A   1      42.386  28.731  33.873  1.00  0.00     0.074 A 
ATOM     20  C   UNL A   1      42.941  27.585  33.187  1.00  0.00     0.031 C 
ATOM     21  C   UNL A   1      37.767  30.723  29.854  1.00  0.00     0.029 A 
ATOM     22  C   UNL A   1      38.142  31.313  31.133  1.00  0.00     0.049 A 
ATOM     23  H   UNL A   1      39.607  30.652  32.460  1.00  0.00     0.167 HD
ATOM     24  C   UNL A   1      42.812  29.189  35.076  1.00  0.00     0.037 A 
ATOM     25  C   UNL A   1      37.570  32.403  31.676  1.00  0.00     0.037 A 
ATOM     26  C   UNL A   1      42.265  30.346  35.737  1.00  0.00     0.049 A 
ATOM     27  C   UNL A   1      38.057  32.885  33.010  1.00  0.00     0.074 A 
ATOM     28  C   UNL A   1      42.646  30.913  36.942  1.00  0.00     0.029 A 
ATOM     29  N   UNL A   1      41.218  31.117  35.251  1.00  0.00    -0.354 N 
ATOM     30  N   UNL A   1      39.024  32.405  33.754  1.00  0.00    -0.248 NA
ATOM     31  C   UNL A   1      37.373  34.050  33.581  1.00  0.00     0.031 C 
ATOM     32  C   UNL A   1      41.802  31.997  37.204  1.00  0.00     0.029 A 
ATOM     33  C   UNL A   1      40.926  32.140  36.139  1.00  0.00     0.049 A 
ATOM     34  H   UNL A   1      40.749  30.960  34.399  1.00  0.00     0.167 HD
ATOM     35  C   UNL A   1      39.079  33.221  34.876  1.00  0.00     0.074 A 
ATOM     36  C   UNL A   1      38.055  34.234  34.703  1.00  0.00     0.031 C 
ATOM     37  C   UNL A   1      39.903  33.141  35.949  1.00  0.00     0.037 A 
BRANCH  24  38
ATOM     38  C   UNL A   1      43.898  28.410  35.772  1.00  0.00     0.058 A 
ATOM     39  C   UNL A   1      45.261  28.676  35.557  1.00  0.00     0.135 A 
ATOM     40  C   UNL A   1      43.568  27.386  36.675  1.00  0.00     0.135 A 
ATOM     41  F   UNL A   1      45.635  29.634  34.695  1.00  0.00    -0.206 F 
ATOM     42  C   UNL A   1      46.255  27.926  36.180  1.00  0.00     0.059 A 
ATOM     43  C   UNL A   1      44.546  26.641  37.329  1.00  0.00     0.059 A 
ATOM     44  F   UNL A   1      42.282  27.091  36.922  1.00  0.00    -0.206 F 
ATOM     45  C   UNL A   1      45.887  26.904  37.058  1.00  0.00     0.060 A 
BRANCH  45  46
ATOM     46  S   UNL A   1      47.188  25.917  37.830  1.00  0.00     0.124 S 
ATOM     47  O   UNL A   1      46.580  25.595  39.118  1.00  0.00    -0.237 OA
ATOM     48  O   UNL A   1      47.329  24.802  36.901  1.00  0.00    -0.237 OA
ATOM     49  O   UNL A   1      48.323  26.834  37.883  1.00  0.00    -0.744 OA
ENDBRANCH  45  46
ENDBRANCH  24  38
BRANCH  25  50
ATOM     50  C   UNL A   1      36.484  33.103  30.942  1.00  0.00     0.058 A 
ATOM     51  C   UNL A   1      35.152  33.019  31.374  1.00  0.00     0.135 A 
ATOM     52  C   UNL A   1      36.763  33.916  29.832  1.00  0.00     0.135 A 
ATOM     53  F   UNL A   1      34.835  32.252  32.428  1.00  0.00    -0.206 F 
ATOM     54  C   UNL A   1      34.135  33.716  30.731  1.00  0.00     0.059 A 
ATOM     55  C   UNL A   1      35.767  34.643  29.190  1.00  0.00     0.059 A 
ATOM     56  F   UNL A   1      38.024  34.045  29.393  1.00  0.00    -0.206 F 
ATOM     57  C   UNL A   1      34.454  34.532  29.644  1.00  0.00     0.060 A 
BRANCH  57  58
ATOM     58  S   UNL A   1      33.138  35.492  28.863  1.00  0.00     0.124 S 
ATOM     59  O   UNL A   1      32.396  35.968  30.024  1.00  0.00    -0.237 OA
ATOM     60  O   UNL A   1      33.892  36.502  28.126  1.00  0.00    -0.237 OA
ATOM     61  O   UNL A   1      32.451  34.506  28.033  1.00  0.00    -0.744 OA
ENDBRANCH  57  58
ENDBRANCH  25  50
BRANCH  37  62
ATOM     62  C   UNL A   1      39.755  34.202  37.002  1.00  0.00     0.058 A 
ATOM     63  C   UNL A   1      39.064  33.964  38.200  1.00  0.00     0.135 A 
ATOM     64  C   UNL A   1      40.336  35.466  36.818  1.00  0.00     0.135 A 
ATOM     65  F   UNL A   1      38.483  32.774  38.420  1.00  0.00    -0.206 F 
ATOM     66  C   UNL A   1      38.930  34.953  39.169  1.00  0.00     0.059 A 
ATOM     67  C   UNL A   1      40.238  36.462  37.783  1.00  0.00     0.059 A 
ATOM     68  F   UNL A   1      41.014  35.741  35.692  1.00  0.00    -0.206 F 
ATOM     69  C   UNL A   1      39.520  36.200  38.950  1.00  0.00     0.060 A 
BRANCH  69  70
ATOM     70  S   UNL A   1      39.358  37.471  40.221  1.00  0.00     0.124 S 
ATOM     71  O   UNL A   1      38.496  38.443  39.557  1.00  0.00    -0.237 OA
ATOM     72  O   UNL A   1      38.750  36.735  41.326  1.00  0.00    -0.237 OA
ATOM     73  O   UNL A   1      40.735  37.902  40.446  1.00  0.00    -0.744 OA
ENDBRANCH  69  70
ENDBRANCH  37  62
ENDBRANCH  11  12
ENDBRANCH   4   6
ENDBRANCH   1   2
BRANCH   1  74
ATOM     74  C   UNL A   1      38.446  22.348  26.103  1.00  0.00     0.042 C 
BRANCH  74  75
ATOM     75  C   UNL A   1      37.059  22.503  25.507  1.00  0.00     0.117 C 
BRANCH  75  76
ATOM     76  N   UNL A   1      36.026  22.639  26.515  1.00  0.00    -0.356 N 
ATOM     77  C   UNL A   1      34.686  22.829  26.464  1.00  0.00     0.224 C 
ATOM     78  H   UNL A   1      36.373  22.579  27.434  1.00  0.00     0.163 HD
ATOM     79  O   UNL A   1      34.119  22.782  27.563  1.00  0.00    -0.275 OA
BRANCH  77  80
ATOM     80  C   UNL A   1      33.901  23.207  25.191  1.00  0.00     0.092 C 
ATOM     81  C   UNL A   1      32.693  24.080  25.620  1.00  0.00     0.014 C 
ATOM     82  C   UNL A   1      33.460  22.079  24.233  1.00  0.00     0.064 C 
ATOM     83  C   UNL A   1      31.834  24.562  24.457  1.00  0.00     0.001 C 
ATOM     84  C   UNL A   1      32.581  22.609  23.088  1.00  0.00     0.015 C 
ATOM     85  C   UNL A   1      31.385  23.416  23.566  1.00  0.00     0.001 C 
BRANCH  82  86
ATOM     86  S   UNL A   1      32.605  20.710  25.126  1.00  0.00    -0.122 SA
BRANCH  86  87
ATOM     87  C   UNL A   1      33.088  19.213  24.272  1.00  0.00     0.011 A 
ATOM     88  C   UNL A   1      34.158  18.384  24.602  1.00  0.00     0.035 A 
ATOM     89  C   UNL A   1      32.304  18.865  23.168  1.00  0.00     0.035 A 
ATOM     90  C   UNL A   1      34.398  17.263  23.820  1.00  0.00     0.112 A 
ATOM     91  C   UNL A   1      32.625  17.729  22.444  1.00  0.00     0.112 A 
ATOM     92  N   UNL A   1      33.659  16.921  22.745  1.00  0.00    -0.265 NA
ENDBRANCH  86  87
ENDBRANCH  82  86
ENDBRANCH  77  80
ENDBRANCH  75  76
ENDBRANCH  74  75
ENDBRANCH   1  74
TORSDOF 15
ENDMDL
MODEL 3
REMARK VINA RESULT:     -11.9      3.335      9.442
REMARK SMILES O=C(NCCCNC(=O)[C@@H]1CCCC[C@@H]1Sc1ccncc1)c1ccc(-c2c3nc(c(-c4c(F)cc(S(=O)(=O)[O-])cc4F)c4ccc([nH]4)c(-c4c(F)cc(S(=O)(=O)[O-])cc4F)c4nc(c(-c5c(F)cc(S(=O)(=O)[O-])cc5F)c5ccc2[nH]5)C=C4)C=C3)cc1
REMARK SMILES IDX 4 1 3 2 1 3 2 4 23 6 24 7 88 8 25 9 87 10 26 11 27 12 28 13
REMARK SMILES IDX 81 14 29 15 86 16 80 17 82 18 30 19 85 20 79 21 78 22 31 24
REMARK SMILES IDX 65 25 44 26 64 27 45 28 48 29 63 30 83 31 46 32 47 33 62 35
REMARK SMILES IDX 84 36 49 37 32 38 33 39 42 40 34 41 35 42 41 43 43 44 36 45
REMARK SMILES IDX 37 46 38 47 39 48 40 49 66 50 67 51 76 52 68 53 69 54 75 55
REMARK SMILES IDX 77 56 70 57 71 58 72 59 73 60 74 61 50 62 51 63 60 64 52 65
REMARK SMILES IDX 53 66 59 67 61 68 54 69 55 70 56 71 57 72 58 73 5 74 6 75
REMARK SMILES IDX 7 76 8 77 9 79 10 80 11 81 15 82 12 83 14 84 13 85 16 86
REMARK SMILES IDX 17 87 18 88 22 89 19 90 21 91 20 92
REMARK H PARENT 3 5 82 23 48 34 7 78
REMARK Flexibility Score: inf
ROOT
ATOM      1  C   UNL A   1      39.131  20.493  25.797  1.00  0.00     0.118 C 
ENDROOT
BRANCH   1   2
ATOM      2  N   UNL A   1      40.151  19.468  25.985  1.00  0.00    -0.352 N 
ATOM      3  O   UNL A   1      42.212  18.570  26.071  1.00  0.00    -0.269 OA
ATOM      4  C   UNL A   1      41.515  19.575  26.153  1.00  0.00     0.251 C 
ATOM      5  H   UNL A   1      39.808  18.545  25.993  1.00  0.00     0.163 HD
BRANCH   4   6
ATOM      6  C   UNL A   1      42.138  20.893  26.407  1.00  0.00     0.039 A 
ATOM      7  C   UNL A   1      42.375  21.325  27.709  1.00  0.00     0.014 A 
ATOM      8  C   UNL A   1      42.516  21.700  25.330  1.00  0.00     0.014 A 
ATOM      9  C   UNL A   1      42.787  22.629  27.942  1.00  0.00     0.010 A 
ATOM     10  C   UNL A   1      43.061  22.968  25.566  1.00  0.00     0.010 A 
ATOM     11  C   UNL A   1      43.162  23.461  26.876  1.00  0.00    -0.014 A 
BRANCH  11  12
ATOM     12  C   UNL A   1      43.706  24.810  27.180  1.00  0.00     0.031 A 
ATOM     13  C   UNL A   1      45.141  25.156  26.896  1.00  0.00     0.074 A 
ATOM     14  C   UNL A   1      42.865  25.745  27.667  1.00  0.00     0.049 A 
ATOM     15  N   UNL A   1      45.760  26.298  27.061  1.00  0.00    -0.248 NA
ATOM     16  C   UNL A   1      45.999  24.083  26.370  1.00  0.00     0.031 C 
ATOM     17  C   UNL A   1      41.451  25.521  27.988  1.00  0.00     0.029 A 
ATOM     18  N   UNL A   1      43.056  27.074  27.943  1.00  0.00    -0.354 N 
ATOM     19  C   UNL A   1      47.082  26.074  26.694  1.00  0.00     0.074 A 
ATOM     20  C   UNL A   1      47.182  24.682  26.314  1.00  0.00     0.031 C 
ATOM     21  C   UNL A   1      40.888  26.684  28.339  1.00  0.00     0.029 A 
ATOM     22  C   UNL A   1      41.912  27.720  28.350  1.00  0.00     0.049 A 
ATOM     23  H   UNL A   1      43.928  27.523  27.859  1.00  0.00     0.167 HD
ATOM     24  C   UNL A   1      48.114  26.953  26.674  1.00  0.00     0.037 A 
ATOM     25  C   UNL A   1      41.708  29.002  28.705  1.00  0.00     0.037 A 
ATOM     26  C   UNL A   1      47.995  28.343  27.033  1.00  0.00     0.049 A 
ATOM     27  C   UNL A   1      42.867  29.952  28.677  1.00  0.00     0.074 A 
ATOM     28  C   UNL A   1      48.972  29.325  27.016  1.00  0.00     0.029 A 
ATOM     29  N   UNL A   1      46.829  28.952  27.476  1.00  0.00    -0.354 N 
ATOM     30  N   UNL A   1      44.107  29.725  28.314  1.00  0.00    -0.248 NA
ATOM     31  C   UNL A   1      42.604  31.327  29.114  1.00  0.00     0.031 C 
ATOM     32  C   UNL A   1      48.406  30.514  27.489  1.00  0.00     0.029 A 
ATOM     33  C   UNL A   1      47.064  30.289  27.754  1.00  0.00     0.049 A 
ATOM     34  H   UNL A   1      45.960  28.499  27.578  1.00  0.00     0.167 HD
ATOM     35  C   UNL A   1      44.771  30.935  28.460  1.00  0.00     0.074 A 
ATOM     36  C   UNL A   1      43.789  31.894  28.932  1.00  0.00     0.031 C 
ATOM     37  C   UNL A   1      46.073  31.228  28.222  1.00  0.00     0.037 A 
BRANCH  24  38
ATOM     38  C   UNL A   1      49.471  26.424  26.286  1.00  0.00     0.058 A 
ATOM     39  C   UNL A   1      50.262  25.676  27.175  1.00  0.00     0.135 A 
ATOM     40  C   UNL A   1      49.983  26.662  25.000  1.00  0.00     0.135 A 
ATOM     41  F   UNL A   1      49.829  25.429  28.421  1.00  0.00    -0.206 F 
ATOM     42  C   UNL A   1      51.528  25.222  26.816  1.00  0.00     0.059 A 
ATOM     43  C   UNL A   1      51.236  26.194  24.611  1.00  0.00     0.059 A 
ATOM     44  F   UNL A   1      49.270  27.366  24.108  1.00  0.00    -0.206 F 
ATOM     45  C   UNL A   1      52.010  25.494  25.534  1.00  0.00     0.060 A 
BRANCH  45  46
ATOM     46  S   UNL A   1      53.668  24.929  25.095  1.00  0.00     0.124 S 
ATOM     47  O   UNL A   1      53.479  23.481  25.056  1.00  0.00    -0.237 OA
ATOM     48  O   UNL A   1      53.889  25.573  23.805  1.00  0.00    -0.237 OA
ATOM     49  O   UNL A   1      54.497  25.424  26.191  1.00  0.00    -0.744 OA
ENDBRANCH  45  46
ENDBRANCH  24  38
BRANCH  25  50
ATOM     50  C   UNL A   1      40.346  29.444  29.102  1.00  0.00     0.058 A 
ATOM     51  C   UNL A   1      40.032  29.691  30.446  1.00  0.00     0.135 A 
ATOM     52  C   UNL A   1      39.350  29.685  28.142  1.00  0.00     0.135 A 
ATOM     53  F   UNL A   1      40.949  29.472  31.401  1.00  0.00    -0.206 F 
ATOM     54  C   UNL A   1      38.779  30.160  30.826  1.00  0.00     0.059 A 
ATOM     55  C   UNL A   1      38.099  30.180  28.494  1.00  0.00     0.059 A 
ATOM     56  F   UNL A   1      39.608  29.483  26.841  1.00  0.00    -0.206 F 
ATOM     57  C   UNL A   1      37.821  30.409  29.841  1.00  0.00     0.060 A 
BRANCH  57  58
ATOM     58  S   UNL A   1      36.224  31.090  30.335  1.00  0.00     0.124 S 
ATOM     59  O   UNL A   1      35.890  30.252  31.480  1.00  0.00    -0.237 OA
ATOM     60  O   UNL A   1      36.562  32.479  30.635  1.00  0.00    -0.237 OA
ATOM     61  O   UNL A   1      35.396  30.899  29.148  1.00  0.00    -0.744 OA
ENDBRANCH  57  58
ENDBRANCH  25  50
BRANCH  37  62
ATOM     62  C   UNL A   1      46.501  32.653  28.433  1.00  0.00     0.058 A 
ATOM     63  C   UNL A   1      46.476  33.595  27.394  1.00  0.00     0.135 A 
ATOM     64  C   UNL A   1      46.918  33.084  29.702  1.00  0.00     0.135 A 
ATOM     65  F   UNL A   1      46.094  33.229  26.160  1.00  0.00    -0.206 F 
ATOM     66  C   UNL A   1      46.875  34.911  27.599  1.00  0.00     0.059 A 
ATOM     67  C   UNL A   1      47.297  34.401  29.937  1.00  0.00     0.059 A 
ATOM     68  F   UNL A   1      46.953  32.223  30.732  1.00  0.00    -0.206 F 
ATOM     69  C   UNL A   1      47.286  35.305  28.875  1.00  0.00     0.060 A 
BRANCH  69  70
ATOM     70  S   UNL A   1      47.784  37.020  29.135  1.00  0.00     0.124 S 
ATOM     71  O   UNL A   1      47.686  37.136  30.586  1.00  0.00    -0.237 OA
ATOM     72  O   UNL A   1      49.136  37.040  28.587  1.00  0.00    -0.237 OA
ATOM     73  O   UNL A   1      46.794  37.778  28.375  1.00  0.00    -0.744 OA
ENDBRANCH  69  70
ENDBRANCH  37  62
ENDBRANCH  11  12
ENDBRANCH   4   6
ENDBRANCH   1   2
BRANCH   1  74
ATOM     74  C   UNL A   1      37.937  19.986  25.008  1.00  0.00     0.042 C 
BRANCH  74  75
ATOM     75  C   UNL A   1      36.819  21.005  24.892  1.00  0.00     0.117 C 
BRANCH  75  76
ATOM     76  N   UNL A   1      36.048  21.136  26.114  1.00  0.00    -0.356 N 
ATOM     77  C   UNL A   1      34.874  21.738  26.421  1.00  0.00     0.224 C 
ATOM     78  H   UNL A   1      36.469  20.692  26.885  1.00  0.00     0.163 HD
ATOM     79  O   UNL A   1      34.480  21.532  27.577  1.00  0.00    -0.275 OA
BRANCH  77  80
ATOM     80  C   UNL A   1      34.117  22.712  25.496  1.00  0.00     0.092 C 
ATOM     81  C   UNL A   1      33.256  23.643  26.388  1.00  0.00     0.014 C 
ATOM     82  C   UNL A   1      33.285  22.130  24.333  1.00  0.00     0.064 C 
ATOM     83  C   UNL A   1      32.469  24.691  25.611  1.00  0.00     0.001 C 
ATOM     84  C   UNL A   1      32.494  23.221  23.591  1.00  0.00     0.015 C 
ATOM     85  C   UNL A   1      31.629  24.071  24.507  1.00  0.00     0.001 C 
BRANCH  82  86
ATOM     86  S   UNL A   1      32.158  20.783  24.896  1.00  0.00    -0.122 SA
BRANCH  86  87
ATOM     87  C   UNL A   1      32.805  19.285  24.161  1.00  0.00     0.011 A 
ATOM     88  C   UNL A   1      33.885  18.537  24.627  1.00  0.00     0.035 A 
ATOM     89  C   UNL A   1      32.151  18.845  23.007  1.00  0.00     0.035 A 
ATOM     90  C   UNL A   1      34.262  17.402  23.924  1.00  0.00     0.112 A 
ATOM     91  C   UNL A   1      32.604  17.702  22.370  1.00  0.00     0.112 A 
ATOM     92  N   UNL A   1      33.650  16.972  22.802  1.00  0.00    -0.265 NA
ENDBRANCH  86  87
ENDBRANCH  82  86
ENDBRANCH  77  80
ENDBRANCH  75  76
ENDBRANCH  74  75
ENDBRANCH   1  74
TORSDOF 15
ENDMDL
