MODEL 1
REMARK VINA RESULT:     -12.2      0.000      0.000
REMARK SMILES Cc1cc(F)ccc1-n1ccc(C)c(C(=O)NCCCNC(=O)c2ccc(-c3c4nc(c(-c5c(F)cc(S(=O)(=O)[O-])cc5F)c5ccc([nH]5)c(-c5c(F)cc(S(=O)(=O)[O-])cc5F)c5nc(c(-c6c(F)cc(S(=O)(=O)[O-])cc6F)c6ccc3[nH]6)C=C5)C=C4)cc2)c1=O
REMARK SMILES IDX 20 1 19 2 18 3 17 4 15 5 16 6 14 8 9 9 10 10 90 11 11 12
REMARK SMILES IDX 91 13 12 14 13 15 8 16 1 17 2 18 3 19 4 20 7 21 5 22 6 23
REMARK SMILES IDX 21 24 22 25 23 27 24 28 25 29 89 30 26 31 88 32 27 33 28 34
REMARK SMILES IDX 29 35 82 36 30 37 87 38 81 39 83 40 31 41 86 42 80 43 79 44
REMARK SMILES IDX 32 46 66 47 45 48 65 49 46 50 49 51 64 52 84 53 47 54 48 55
REMARK SMILES IDX 63 57 85 58 50 59 33 60 34 61 43 62 35 63 36 64 42 65 44 66
REMARK SMILES IDX 37 67 38 68 39 69 40 70 41 71 67 72 68 73 77 74 69 75 70 76
REMARK SMILES IDX 76 77 78 78 71 79 72 80 73 81 74 82 75 83 51 84 52 85 61 86
REMARK SMILES IDX 53 87 54 88 60 89 62 90 55 91 56 92 57 93 58 94 59 95
REMARK H PARENT 17 7 21 26 83 45 49 56
REMARK Flexibility Score: inf
ROOT
ATOM      1  C   UNL A   1      33.639  28.955  26.805  1.00  0.00     0.118 C 
ENDROOT
BRANCH   1   2
ATOM      2  C   UNL A   1      32.490  28.022  27.146  1.00  0.00     0.042 C 
BRANCH   2   3
ATOM      3  C   UNL A   1      32.463  26.707  26.388  1.00  0.00     0.118 C 
BRANCH   3   4
ATOM      4  N   UNL A   1      31.392  25.791  26.768  1.00  0.00    -0.352 N 
ATOM      5  C   UNL A   1      31.254  24.448  26.518  1.00  0.00     0.257 C 
ATOM      6  O   UNL A   1      30.376  23.833  27.124  1.00  0.00    -0.269 OA
ATOM      7  H   UNL A   1      30.657  26.197  27.282  1.00  0.00     0.163 HD
BRANCH   5   8
ATOM      8  C   UNL A   1      32.092  23.783  25.477  1.00  0.00     0.108 A 
ATOM      9  N   UNL A   1      34.316  22.916  24.850  1.00  0.00    -0.283 N 
ATOM     10  C   UNL A   1      33.925  23.002  23.521  1.00  0.00     0.095 A 
ATOM     11  C   UNL A   1      33.356  23.071  25.869  1.00  0.00     0.268 A 
ATOM     12  C   UNL A   1      32.678  23.330  23.172  1.00  0.00     0.023 A 
ATOM     13  O   UNL A   1      33.507  22.753  27.048  1.00  0.00    -0.268 OA
ATOM     14  C   UNL A   1      31.735  23.805  24.172  1.00  0.00    -0.031 A 
ATOM     15  C   UNL A   1      30.466  24.368  23.585  1.00  0.00     0.045 C 
BRANCH   9  16
ATOM     16  C   UNL A   1      35.707  22.775  25.187  1.00  0.00     0.052 A 
ATOM     17  C   UNL A   1      35.815  20.214  24.892  1.00  0.00     0.047 C 
ATOM     18  C   UNL A   1      36.392  21.545  25.286  1.00  0.00    -0.024 A 
ATOM     19  C   UNL A   1      37.724  21.539  25.749  1.00  0.00     0.044 A 
ATOM     20  C   UNL A   1      38.378  22.724  26.058  1.00  0.00     0.123 A 
ATOM     21  C   UNL A   1      36.411  23.966  25.491  1.00  0.00     0.030 A 
ATOM     22  F   UNL A   1      39.648  22.687  26.479  1.00  0.00    -0.207 F 
ATOM     23  C   UNL A   1      37.736  23.941  25.925  1.00  0.00     0.041 A 
ENDBRANCH   9  16
ENDBRANCH   5   8
ENDBRANCH   3   4
ENDBRANCH   2   3
ENDBRANCH   1   2
BRANCH   1  24
ATOM     24  N   UNL A   1      33.700  30.169  27.612  1.00  0.00    -0.352 N 
ATOM     25  C   UNL A   1      34.723  30.710  28.367  1.00  0.00     0.251 C 
ATOM     26  H   UNL A   1      32.867  30.693  27.620  1.00  0.00     0.163 HD
ATOM     27  O   UNL A   1      34.524  31.735  29.006  1.00  0.00    -0.269 OA
BRANCH  25  28
ATOM     28  C   UNL A   1      36.037  30.026  28.461  1.00  0.00     0.039 A 
ATOM     29  C   UNL A   1      36.435  29.382  29.627  1.00  0.00     0.014 A 
ATOM     30  C   UNL A   1      36.912  30.073  27.369  1.00  0.00     0.014 A 
ATOM     31  C   UNL A   1      37.773  29.053  29.804  1.00  0.00     0.010 A 
ATOM     32  C   UNL A   1      38.226  29.607  27.505  1.00  0.00     0.010 A 
ATOM     33  C   UNL A   1      38.697  29.174  28.753  1.00  0.00    -0.014 A 
BRANCH  33  34
ATOM     34  C   UNL A   1      40.138  28.889  29.014  1.00  0.00     0.031 A 
ATOM     35  C   UNL A   1      40.758  27.573  28.600  1.00  0.00     0.074 A 
ATOM     36  C   UNL A   1      40.921  29.857  29.532  1.00  0.00     0.049 A 
ATOM     37  N   UNL A   1      42.004  27.181  28.703  1.00  0.00    -0.248 NA
ATOM     38  C   UNL A   1      39.869  26.564  28.001  1.00  0.00     0.031 C 
ATOM     39  C   UNL A   1      40.454  31.175  29.969  1.00  0.00     0.029 A 
ATOM     40  N   UNL A   1      42.278  29.908  29.735  1.00  0.00    -0.354 N 
ATOM     41  C   UNL A   1      42.040  25.879  28.217  1.00  0.00     0.074 A 
ATOM     42  C   UNL A   1      40.687  25.533  27.841  1.00  0.00     0.031 C 
ATOM     43  C   UNL A   1      41.510  31.933  30.296  1.00  0.00     0.029 A 
ATOM     44  C   UNL A   1      42.724  31.133  30.174  1.00  0.00     0.049 A 
ATOM     45  H   UNL A   1      42.876  29.141  29.581  1.00  0.00     0.167 HD
ATOM     46  C   UNL A   1      43.104  25.050  28.078  1.00  0.00     0.037 A 
ATOM     47  C   UNL A   1      43.966  31.569  30.459  1.00  0.00     0.037 A 
ATOM     48  C   UNL A   1      44.460  25.410  28.403  1.00  0.00     0.049 A 
ATOM     49  C   UNL A   1      45.124  30.626  30.319  1.00  0.00     0.074 A 
ATOM     50  C   UNL A   1      45.608  24.648  28.264  1.00  0.00     0.029 A 
ATOM     51  N   UNL A   1      44.853  26.633  28.924  1.00  0.00    -0.354 N 
ATOM     52  N   UNL A   1      45.131  29.395  29.868  1.00  0.00    -0.248 NA
ATOM     53  C   UNL A   1      46.438  31.120  30.753  1.00  0.00     0.031 C 
ATOM     54  C   UNL A   1      46.691  25.399  28.733  1.00  0.00     0.029 A 
ATOM     55  C   UNL A   1      46.222  26.640  29.133  1.00  0.00     0.049 A 
ATOM     56  H   UNL A   1      44.248  27.385  29.116  1.00  0.00     0.167 HD
ATOM     57  C   UNL A   1      46.447  28.961  29.976  1.00  0.00     0.074 A 
ATOM     58  C   UNL A   1      47.213  30.072  30.503  1.00  0.00     0.031 C 
ATOM     59  C   UNL A   1      46.968  27.747  29.676  1.00  0.00     0.037 A 
BRANCH  46  60
ATOM     60  C   UNL A   1      42.849  23.663  27.555  1.00  0.00     0.058 A 
ATOM     61  C   UNL A   1      42.979  23.352  26.193  1.00  0.00     0.135 A 
ATOM     62  C   UNL A   1      42.515  22.619  28.436  1.00  0.00     0.135 A 
ATOM     63  F   UNL A   1      43.281  24.313  25.306  1.00  0.00    -0.206 F 
ATOM     64  C   UNL A   1      42.765  22.061  25.718  1.00  0.00     0.059 A 
ATOM     65  C   UNL A   1      42.320  21.316  27.986  1.00  0.00     0.059 A 
ATOM     66  F   UNL A   1      42.380  22.861  29.749  1.00  0.00    -0.206 F 
ATOM     67  C   UNL A   1      42.435  21.049  26.623  1.00  0.00     0.060 A 
BRANCH  67  68
ATOM     68  S   UNL A   1      42.167  19.380  25.988  1.00  0.00     0.124 S 
ATOM     69  O   UNL A   1      42.986  19.394  24.780  1.00  0.00    -0.237 OA
ATOM     70  O   UNL A   1      42.662  18.548  27.079  1.00  0.00    -0.237 OA
ATOM     71  O   UNL A   1      40.725  19.328  25.768  1.00  0.00    -0.744 OA
ENDBRANCH  67  68
ENDBRANCH  46  60
BRANCH  47  72
ATOM     72  C   UNL A   1      44.164  32.969  30.917  1.00  0.00     0.058 A 
ATOM     73  C   UNL A   1      44.376  34.005  29.997  1.00  0.00     0.135 A 
ATOM     74  C   UNL A   1      44.091  33.305  32.278  1.00  0.00     0.135 A 
ATOM     75  F   UNL A   1      44.462  33.732  28.686  1.00  0.00    -0.206 F 
ATOM     76  C   UNL A   1      44.500  35.328  30.407  1.00  0.00     0.059 A 
ATOM     77  C   UNL A   1      44.188  34.623  32.711  1.00  0.00     0.059 A 
ATOM     78  F   UNL A   1      43.878  32.350  33.196  1.00  0.00    -0.206 F 
ATOM     79  C   UNL A   1      44.396  35.628  31.768  1.00  0.00     0.060 A 
BRANCH  79  80
ATOM     80  S   UNL A   1      44.473  37.357  32.284  1.00  0.00     0.124 S 
ATOM     81  O   UNL A   1      45.858  37.468  32.727  1.00  0.00    -0.237 OA
ATOM     82  O   UNL A   1      44.139  38.060  31.049  1.00  0.00    -0.237 OA
ATOM     83  O   UNL A   1      43.463  37.439  33.334  1.00  0.00    -0.744 OA
ENDBRANCH  79  80
ENDBRANCH  47  72
BRANCH  59  84
ATOM     84  C   UNL A   1      48.433  27.543  29.930  1.00  0.00     0.058 A 
ATOM     85  C   UNL A   1      48.884  26.953  31.121  1.00  0.00     0.135 A 
ATOM     86  C   UNL A   1      49.387  27.871  28.954  1.00  0.00     0.135 A 
ATOM     87  F   UNL A   1      48.011  26.631  32.089  1.00  0.00    -0.206 F 
ATOM     88  C   UNL A   1      50.234  26.700  31.338  1.00  0.00     0.059 A 
ATOM     89  C   UNL A   1      50.740  27.609  29.142  1.00  0.00     0.059 A 
ATOM     90  F   UNL A   1      49.003  28.432  27.796  1.00  0.00    -0.206 F 
ATOM     91  C   UNL A   1      51.154  27.027  30.340  1.00  0.00     0.060 A 
BRANCH  91  92
ATOM     92  S   UNL A   1      52.897  26.641  30.615  1.00  0.00     0.124 S 
ATOM     93  O   UNL A   1      52.806  25.528  31.553  1.00  0.00    -0.237 OA
ATOM     94  O   UNL A   1      53.358  26.304  29.273  1.00  0.00    -0.237 OA
ATOM     95  O   UNL A   1      53.436  27.883  31.165  1.00  0.00    -0.744 OA
ENDBRANCH  91  92
ENDBRANCH  59  84
ENDBRANCH  33  34
ENDBRANCH  25  28
ENDBRANCH   1  24
TORSDOF 14
ENDMDL
MODEL 2
REMARK VINA RESULT:     -11.8      0.585      8.255
REMARK SMILES Cc1cc(F)ccc1-n1ccc(C)c(C(=O)NCCCNC(=O)c2ccc(-c3c4nc(c(-c5c(F)cc(S(=O)(=O)[O-])cc5F)c5ccc([nH]5)c(-c5c(F)cc(S(=O)(=O)[O-])cc5F)c5nc(c(-c6c(F)cc(S(=O)(=O)[O-])cc6F)c6ccc3[nH]6)C=C5)C=C4)cc2)c1=O
REMARK SMILES IDX 20 1 19 2 18 3 17 4 15 5 16 6 14 8 9 9 10 10 90 11 11 12
REMARK SMILES IDX 91 13 12 14 13 15 8 16 1 17 2 18 3 19 4 20 7 21 5 22 6 23
REMARK SMILES IDX 21 24 22 25 23 27 24 28 25 29 89 30 26 31 88 32 27 33 28 34
REMARK SMILES IDX 29 35 82 36 30 37 87 38 81 39 83 40 31 41 86 42 80 43 79 44
REMARK SMILES IDX 32 46 66 47 45 48 65 49 46 50 49 51 64 52 84 53 47 54 48 55
REMARK SMILES IDX 63 57 85 58 50 59 33 60 34 61 43 62 35 63 36 64 42 65 44 66
REMARK SMILES IDX 37 67 38 68 39 69 40 70 41 71 67 72 68 73 77 74 69 75 70 76
REMARK SMILES IDX 76 77 78 78 71 79 72 80 73 81 74 82 75 83 51 84 52 85 61 86
REMARK SMILES IDX 53 87 54 88 60 89 62 90 55 91 56 92 57 93 58 94 59 95
REMARK H PARENT 17 7 21 26 83 45 49 56
REMARK Flexibility Score: inf
ROOT
ATOM      1  C   UNL A   1      33.509  29.121  26.693  1.00  0.00     0.118 C 
ENDROOT
BRANCH   1   2
ATOM      2  C   UNL A   1      32.738  27.940  27.257  1.00  0.00     0.042 C 
BRANCH   2   3
ATOM      3  C   UNL A   1      32.346  26.870  26.252  1.00  0.00     0.118 C 
BRANCH   3   4
ATOM      4  N   UNL A   1      31.332  25.927  26.712  1.00  0.00    -0.352 N 
ATOM      5  C   UNL A   1      31.238  24.571  26.515  1.00  0.00     0.257 C 
ATOM      6  O   UNL A   1      30.414  23.943  27.180  1.00  0.00    -0.269 OA
ATOM      7  H   UNL A   1      30.604  26.321  27.245  1.00  0.00     0.163 HD
BRANCH   5   8
ATOM      8  C   UNL A   1      32.056  23.903  25.459  1.00  0.00     0.108 A 
ATOM      9  N   UNL A   1      34.255  22.987  24.812  1.00  0.00    -0.283 N 
ATOM     10  C   UNL A   1      33.865  23.109  23.486  1.00  0.00     0.095 A 
ATOM     11  C   UNL A   1      33.301  23.149  25.836  1.00  0.00     0.268 A 
ATOM     12  C   UNL A   1      32.626  23.477  23.146  1.00  0.00     0.023 A 
ATOM     13  O   UNL A   1      33.445  22.805  27.009  1.00  0.00    -0.268 OA
ATOM     14  C   UNL A   1      31.698  23.958  24.155  1.00  0.00    -0.031 A 
ATOM     15  C   UNL A   1      30.445  24.567  23.581  1.00  0.00     0.045 C 
BRANCH   9  16
ATOM     16  C   UNL A   1      35.643  22.802  25.144  1.00  0.00     0.052 A 
ATOM     17  C   UNL A   1      35.663  20.237  24.864  1.00  0.00     0.047 C 
ATOM     18  C   UNL A   1      36.286  21.550  25.247  1.00  0.00    -0.024 A 
ATOM     19  C   UNL A   1      37.619  21.503  25.704  1.00  0.00     0.044 A 
ATOM     20  C   UNL A   1      38.314  22.667  26.003  1.00  0.00     0.123 A 
ATOM     21  C   UNL A   1      36.387  23.971  25.437  1.00  0.00     0.030 A 
ATOM     22  F   UNL A   1      39.584  22.590  26.419  1.00  0.00    -0.207 F 
ATOM     23  C   UNL A   1      37.712  23.905  25.866  1.00  0.00     0.041 A 
ENDBRANCH   9  16
ENDBRANCH   5   8
ENDBRANCH   3   4
ENDBRANCH   2   3
ENDBRANCH   1   2
BRANCH   1  24
ATOM     24  N   UNL A   1      33.576  30.282  27.573  1.00  0.00    -0.352 N 
ATOM     25  C   UNL A   1      34.607  30.781  28.346  1.00  0.00     0.251 C 
ATOM     26  H   UNL A   1      32.740  30.800  27.625  1.00  0.00     0.163 HD
ATOM     27  O   UNL A   1      34.412  31.763  29.051  1.00  0.00    -0.269 OA
BRANCH  25  28
ATOM     28  C   UNL A   1      35.924  30.100  28.379  1.00  0.00     0.039 A 
ATOM     29  C   UNL A   1      36.360  29.421  29.511  1.00  0.00     0.014 A 
ATOM     30  C   UNL A   1      36.766  30.187  27.264  1.00  0.00     0.014 A 
ATOM     31  C   UNL A   1      37.704  29.093  29.639  1.00  0.00     0.010 A 
ATOM     32  C   UNL A   1      38.086  29.722  27.346  1.00  0.00     0.010 A 
ATOM     33  C   UNL A   1      38.595  29.252  28.565  1.00  0.00    -0.014 A 
BRANCH  33  34
ATOM     34  C   UNL A   1      40.045  28.965  28.773  1.00  0.00     0.031 A 
ATOM     35  C   UNL A   1      40.931  29.935  29.521  1.00  0.00     0.074 A 
ATOM     36  C   UNL A   1      40.547  27.776  28.378  1.00  0.00     0.049 A 
ATOM     37  N   UNL A   1      42.197  29.819  29.836  1.00  0.00    -0.248 NA
ATOM     38  C   UNL A   1      40.325  31.200  29.967  1.00  0.00     0.031 C 
ATOM     39  C   UNL A   1      39.801  26.745  27.652  1.00  0.00     0.029 A 
ATOM     40  N   UNL A   1      41.784  27.211  28.571  1.00  0.00    -0.354 N 
ATOM     41  C   UNL A   1      42.544  31.001  30.482  1.00  0.00     0.074 A 
ATOM     42  C   UNL A   1      41.363  31.835  30.493  1.00  0.00     0.031 C 
ATOM     43  C   UNL A   1      40.558  25.644  27.545  1.00  0.00     0.029 A 
ATOM     44  C   UNL A   1      41.872  25.915  28.119  1.00  0.00     0.049 A 
ATOM     45  H   UNL A   1      42.535  27.687  28.993  1.00  0.00     0.167 HD
ATOM     46  C   UNL A   1      43.731  31.355  31.032  1.00  0.00     0.037 A 
ATOM     47  C   UNL A   1      42.894  25.038  28.150  1.00  0.00     0.037 A 
ATOM     48  C   UNL A   1      44.893  30.506  31.067  1.00  0.00     0.049 A 
ATOM     49  C   UNL A   1      44.205  25.462  28.743  1.00  0.00     0.074 A 
ATOM     50  C   UNL A   1      46.130  30.765  31.633  1.00  0.00     0.029 A 
ATOM     51  N   UNL A   1      44.963  29.232  30.523  1.00  0.00    -0.354 N 
ATOM     52  N   UNL A   1      44.512  26.589  29.338  1.00  0.00    -0.248 NA
ATOM     53  C   UNL A   1      45.317  24.506  28.645  1.00  0.00     0.031 C 
ATOM     54  C   UNL A   1      46.959  29.662  31.401  1.00  0.00     0.029 A 
ATOM     55  C   UNL A   1      46.227  28.702  30.720  1.00  0.00     0.049 A 
ATOM     56  H   UNL A   1      44.223  28.774  30.066  1.00  0.00     0.167 HD
ATOM     57  C   UNL A   1      45.856  26.485  29.674  1.00  0.00     0.074 A 
ATOM     58  C   UNL A   1      46.295  25.172  29.247  1.00  0.00     0.031 C 
ATOM     59  C   UNL A   1      46.655  27.401  30.273  1.00  0.00     0.037 A 
BRANCH  46  60
ATOM     60  C   UNL A   1      43.841  32.727  31.640  1.00  0.00     0.058 A 
ATOM     61  C   UNL A   1      44.193  33.848  30.873  1.00  0.00     0.135 A 
ATOM     62  C   UNL A   1      43.547  32.929  32.999  1.00  0.00     0.135 A 
ATOM     63  F   UNL A   1      44.499  33.710  29.573  1.00  0.00    -0.206 F 
ATOM     64  C   UNL A   1      44.270  35.119  31.436  1.00  0.00     0.059 A 
ATOM     65  C   UNL A   1      43.595  34.194  33.578  1.00  0.00     0.059 A 
ATOM     66  F   UNL A   1      43.204  31.891  33.778  1.00  0.00    -0.206 F 
ATOM     67  C   UNL A   1      43.970  35.282  32.790  1.00  0.00     0.060 A 
BRANCH  67  68
ATOM     68  S   UNL A   1      44.071  36.939  33.501  1.00  0.00     0.124 S 
ATOM     69  O   UNL A   1      42.999  36.896  34.491  1.00  0.00    -0.237 OA
ATOM     70  O   UNL A   1      45.427  36.966  34.038  1.00  0.00    -0.237 OA
ATOM     71  O   UNL A   1      43.834  37.814  32.358  1.00  0.00    -0.744 OA
ENDBRANCH  67  68
ENDBRANCH  46  60
BRANCH  47  72
ATOM     72  C   UNL A   1      42.709  23.676  27.585  1.00  0.00     0.058 A 
ATOM     73  C   UNL A   1      42.905  23.431  26.218  1.00  0.00     0.135 A 
ATOM     74  C   UNL A   1      42.386  22.586  28.407  1.00  0.00     0.135 A 
ATOM     75  F   UNL A   1      43.206  24.443  25.390  1.00  0.00    -0.206 F 
ATOM     76  C   UNL A   1      42.796  22.150  25.687  1.00  0.00     0.059 A 
ATOM     77  C   UNL A   1      42.296  21.292  27.904  1.00  0.00     0.059 A 
ATOM     78  F   UNL A   1      42.200  22.768  29.723  1.00  0.00    -0.206 F 
ATOM     79  C   UNL A   1      42.500  21.085  26.541  1.00  0.00     0.060 A 
BRANCH  79  80
ATOM     80  S   UNL A   1      42.445  19.414  25.858  1.00  0.00     0.124 S 
ATOM     81  O   UNL A   1      41.024  19.263  25.568  1.00  0.00    -0.237 OA
ATOM     82  O   UNL A   1      43.325  19.529  24.698  1.00  0.00    -0.237 OA
ATOM     83  O   UNL A   1      42.961  18.590  26.946  1.00  0.00    -0.744 OA
ENDBRANCH  79  80
ENDBRANCH  47  72
BRANCH  59  84
ATOM     84  C   UNL A   1      48.094  27.030  30.482  1.00  0.00     0.058 A 
ATOM     85  C   UNL A   1      49.086  27.442  29.578  1.00  0.00     0.135 A 
ATOM     86  C   UNL A   1      48.496  26.322  31.625  1.00  0.00     0.135 A 
ATOM     87  F   UNL A   1      48.749  28.113  28.465  1.00  0.00    -0.206 F 
ATOM     88  C   UNL A   1      50.429  27.158  29.798  1.00  0.00     0.059 A 
ATOM     89  C   UNL A   1      49.837  26.045  31.874  1.00  0.00     0.059 A 
ATOM     90  F   UNL A   1      47.586  25.912  32.521  1.00  0.00    -0.206 F 
ATOM     91  C   UNL A   1      50.796  26.464  30.952  1.00  0.00     0.060 A 
BRANCH  91  92
ATOM     92  S   UNL A   1      52.549  26.152  31.250  1.00  0.00     0.124 S 
ATOM     93  O   UNL A   1      52.506  24.873  31.949  1.00  0.00    -0.237 OA
ATOM     94  O   UNL A   1      53.095  26.118  29.897  1.00  0.00    -0.237 OA
ATOM     95  O   UNL A   1      52.965  27.296  32.058  1.00  0.00    -0.744 OA
ENDBRANCH  91  92
ENDBRANCH  59  84
ENDBRANCH  33  34
ENDBRANCH  25  28
ENDBRANCH   1  24
TORSDOF 14
ENDMDL
MODEL 3
REMARK VINA RESULT:     -11.7      2.679      8.922
REMARK SMILES Cc1cc(F)ccc1-n1ccc(C)c(C(=O)NCCCNC(=O)c2ccc(-c3c4nc(c(-c5c(F)cc(S(=O)(=O)[O-])cc5F)c5ccc([nH]5)c(-c5c(F)cc(S(=O)(=O)[O-])cc5F)c5nc(c(-c6c(F)cc(S(=O)(=O)[O-])cc6F)c6ccc3[nH]6)C=C5)C=C4)cc2)c1=O
REMARK SMILES IDX 20 1 19 2 18 3 17 4 15 5 16 6 14 8 9 9 10 10 90 11 11 12
REMARK SMILES IDX 91 13 12 14 13 15 8 16 1 17 2 18 3 19 4 20 7 21 5 22 6 23
REMARK SMILES IDX 21 24 22 25 23 27 24 28 25 29 89 30 26 31 88 32 27 33 28 34
REMARK SMILES IDX 29 35 82 36 30 37 87 38 81 39 83 40 31 41 86 42 80 43 79 44
REMARK SMILES IDX 32 46 66 47 45 48 65 49 46 50 49 51 64 52 84 53 47 54 48 55
REMARK SMILES IDX 63 57 85 58 50 59 33 60 34 61 43 62 35 63 36 64 42 65 44 66
REMARK SMILES IDX 37 67 38 68 39 69 40 70 41 71 67 72 68 73 77 74 69 75 70 76
REMARK SMILES IDX 76 77 78 78 71 79 72 80 73 81 74 82 75 83 51 84 52 85 61 86
REMARK SMILES IDX 53 87 54 88 60 89 62 90 55 91 56 92 57 93 58 94 59 95
REMARK H PARENT 17 7 21 26 83 45 49 56
REMARK Flexibility Score: inf
ROOT
ATOM      1  C   UNL A   1      34.819  29.991  28.049  1.00  0.00     0.118 C 
ENDROOT
BRANCH   1   2
ATOM      2  C   UNL A   1      33.737  30.627  27.193  1.00  0.00     0.042 C 
BRANCH   2   3
ATOM      3  C   UNL A   1      32.946  29.672  26.316  1.00  0.00     0.118 C 
BRANCH   3   4
ATOM      4  N   UNL A   1      33.471  29.488  24.966  1.00  0.00    -0.352 N 
ATOM      5  C   UNL A   1      32.928  28.821  23.896  1.00  0.00     0.257 C 
ATOM      6  O   UNL A   1      33.445  28.982  22.790  1.00  0.00    -0.269 OA
ATOM      7  H   UNL A   1      34.347  29.904  24.797  1.00  0.00     0.163 HD
BRANCH   5   8
ATOM      8  C   UNL A   1      31.798  27.865  24.095  1.00  0.00     0.108 A 
ATOM      9  N   UNL A   1      31.089  25.510  24.293  1.00  0.00    -0.283 N 
ATOM     10  C   UNL A   1      29.802  25.918  23.970  1.00  0.00     0.095 A 
ATOM     11  C   UNL A   1      32.069  26.474  24.597  1.00  0.00     0.268 A 
ATOM     12  C   UNL A   1      29.483  27.208  23.839  1.00  0.00     0.023 A 
ATOM     13  O   UNL A   1      33.144  26.251  25.153  1.00  0.00    -0.268 OA
ATOM     14  C   UNL A   1      30.521  28.226  23.833  1.00  0.00    -0.031 A 
ATOM     15  C   UNL A   1      30.026  29.590  23.425  1.00  0.00     0.045 C 
BRANCH   9  16
ATOM     16  C   UNL A   1      31.447  24.119  24.214  1.00  0.00     0.052 A 
ATOM     17  C   UNL A   1      30.595  23.470  26.562  1.00  0.00     0.047 C 
ATOM     18  C   UNL A   1      31.301  23.188  25.264  1.00  0.00    -0.024 A 
ATOM     19  C   UNL A   1      31.809  21.884  25.097  1.00  0.00     0.044 A 
ATOM     20  C   UNL A   1      32.404  21.495  23.904  1.00  0.00     0.123 A 
ATOM     21  C   UNL A   1      32.039  23.683  23.003  1.00  0.00     0.030 A 
ATOM     22  F   UNL A   1      32.862  20.244  23.771  1.00  0.00    -0.207 F 
ATOM     23  C   UNL A   1      32.516  22.382  22.849  1.00  0.00     0.041 A 
ENDBRANCH   9  16
ENDBRANCH   5   8
ENDBRANCH   3   4
ENDBRANCH   2   3
ENDBRANCH   1   2
BRANCH   1  24
ATOM     24  N   UNL A   1      35.184  30.753  29.237  1.00  0.00    -0.352 N 
ATOM     25  C   UNL A   1      36.382  30.863  29.917  1.00  0.00     0.251 C 
ATOM     26  H   UNL A   1      34.447  31.281  29.623  1.00  0.00     0.163 HD
ATOM     27  O   UNL A   1      36.438  31.541  30.935  1.00  0.00    -0.269 OA
BRANCH  25  28
ATOM     28  C   UNL A   1      37.580  30.117  29.461  1.00  0.00     0.039 A 
ATOM     29  C   UNL A   1      38.455  29.530  30.369  1.00  0.00     0.014 A 
ATOM     30  C   UNL A   1      37.861  30.044  28.092  1.00  0.00     0.014 A 
ATOM     31  C   UNL A   1      39.721  29.141  29.947  1.00  0.00     0.010 A 
ATOM     32  C   UNL A   1      39.084  29.517  27.655  1.00  0.00     0.010 A 
ATOM     33  C   UNL A   1      40.064  29.143  28.585  1.00  0.00    -0.014 A 
BRANCH  33  34
ATOM     34  C   UNL A   1      41.460  28.797  28.186  1.00  0.00     0.031 A 
ATOM     35  C   UNL A   1      42.581  29.801  28.326  1.00  0.00     0.074 A 
ATOM     36  C   UNL A   1      41.743  27.538  27.791  1.00  0.00     0.049 A 
ATOM     37  N   UNL A   1      43.858  29.650  28.076  1.00  0.00    -0.248 NA
ATOM     38  C   UNL A   1      42.227  31.149  28.800  1.00  0.00     0.031 C 
ATOM     39  C   UNL A   1      40.757  26.468  27.617  1.00  0.00     0.029 A 
ATOM     40  N   UNL A   1      42.941  26.928  27.511  1.00  0.00    -0.354 N 
ATOM     41  C   UNL A   1      44.449  30.884  28.328  1.00  0.00     0.074 A 
ATOM     42  C   UNL A   1      43.389  31.783  28.727  1.00  0.00     0.031 C 
ATOM     43  C   UNL A   1      41.394  25.318  27.357  1.00  0.00     0.029 A 
ATOM     44  C   UNL A   1      42.826  25.580  27.260  1.00  0.00     0.049 A 
ATOM     45  H   UNL A   1      43.799  27.409  27.492  1.00  0.00     0.167 HD
ATOM     46  C   UNL A   1      45.757  31.235  28.253  1.00  0.00     0.037 A 
ATOM     47  C   UNL A   1      43.761  24.654  26.974  1.00  0.00     0.037 A 
ATOM     48  C   UNL A   1      46.820  30.328  27.906  1.00  0.00     0.049 A 
ATOM     49  C   UNL A   1      45.199  25.071  26.873  1.00  0.00     0.074 A 
ATOM     50  C   UNL A   1      48.179  30.583  27.837  1.00  0.00     0.029 A 
ATOM     51  N   UNL A   1      46.648  28.991  27.578  1.00  0.00    -0.354 N 
ATOM     52  N   UNL A   1      45.731  26.247  27.105  1.00  0.00    -0.248 NA
ATOM     53  C   UNL A   1      46.159  24.045  26.445  1.00  0.00     0.031 C 
ATOM     54  C   UNL A   1      48.826  29.410  27.434  1.00  0.00     0.029 A 
ATOM     55  C   UNL A   1      47.873  28.415  27.284  1.00  0.00     0.049 A 
ATOM     56  H   UNL A   1      45.784  28.522  27.558  1.00  0.00     0.167 HD
ATOM     57  C   UNL A   1      47.088  26.106  26.838  1.00  0.00     0.074 A 
ATOM     58  C   UNL A   1      47.300  24.723  26.460  1.00  0.00     0.031 C 
ATOM     59  C   UNL A   1      48.066  27.042  26.891  1.00  0.00     0.037 A 
BRANCH  46  60
ATOM     60  C   UNL A   1      46.118  32.665  28.546  1.00  0.00     0.058 A 
ATOM     61  C   UNL A   1      46.462  33.090  29.838  1.00  0.00     0.135 A 
ATOM     62  C   UNL A   1      46.165  33.614  27.510  1.00  0.00     0.135 A 
ATOM     63  F   UNL A   1      46.419  32.228  30.867  1.00  0.00    -0.206 F 
ATOM     64  C   UNL A   1      46.819  34.410  30.099  1.00  0.00     0.059 A 
ATOM     65  C   UNL A   1      46.541  34.934  27.745  1.00  0.00     0.059 A 
ATOM     66  F   UNL A   1      45.847  33.261  26.255  1.00  0.00    -0.206 F 
ATOM     67  C   UNL A   1      46.855  35.325  29.045  1.00  0.00     0.060 A 
BRANCH  67  68
ATOM     68  S   UNL A   1      47.325  37.032  29.403  1.00  0.00     0.124 S 
ATOM     69  O   UNL A   1      48.759  37.000  29.138  1.00  0.00    -0.237 OA
ATOM     70  O   UNL A   1      46.521  37.784  28.445  1.00  0.00    -0.237 OA
ATOM     71  O   UNL A   1      46.950  37.202  30.802  1.00  0.00    -0.744 OA
ENDBRANCH  67  68
ENDBRANCH  46  60
BRANCH  47  72
ATOM     72  C   UNL A   1      43.352  23.243  26.750  1.00  0.00     0.058 A 
ATOM     73  C   UNL A   1      43.353  22.689  25.462  1.00  0.00     0.135 A 
ATOM     74  C   UNL A   1      43.003  22.409  27.823  1.00  0.00     0.135 A 
ATOM     75  F   UNL A   1      43.671  23.450  24.403  1.00  0.00    -0.206 F 
ATOM     76  C   UNL A   1      43.033  21.353  25.246  1.00  0.00     0.059 A 
ATOM     77  C   UNL A   1      42.702  21.064  27.636  1.00  0.00     0.059 A 
ATOM     78  F   UNL A   1      42.998  22.891  29.075  1.00  0.00    -0.206 F 
ATOM     79  C   UNL A   1      42.717  20.546  26.342  1.00  0.00     0.060 A 
BRANCH  79  80
ATOM     80  S   UNL A   1      42.385  18.793  26.062  1.00  0.00     0.124 S 
ATOM     81  O   UNL A   1      42.665  18.228  27.377  1.00  0.00    -0.237 OA
ATOM     82  O   UNL A   1      40.982  18.807  25.658  1.00  0.00    -0.237 OA
ATOM     83  O   UNL A   1      43.328  18.438  25.006  1.00  0.00    -0.744 OA
ENDBRANCH  79  80
ENDBRANCH  47  72
BRANCH  59  84
ATOM     84  C   UNL A   1      49.453  26.614  26.510  1.00  0.00     0.058 A 
ATOM     85  C   UNL A   1      50.284  25.954  27.429  1.00  0.00     0.135 A 
ATOM     86  C   UNL A   1      49.930  26.797  25.203  1.00  0.00     0.135 A 
ATOM     87  F   UNL A   1      49.876  25.765  28.694  1.00  0.00    -0.206 F 
ATOM     88  C   UNL A   1      51.545  25.496  27.066  1.00  0.00     0.059 A 
ATOM     89  C   UNL A   1      51.180  26.329  24.813  1.00  0.00     0.059 A 
ATOM     90  F   UNL A   1      49.170  27.417  24.287  1.00  0.00    -0.206 F 
ATOM     91  C   UNL A   1      51.983  25.683  25.754  1.00  0.00     0.060 A 
BRANCH  91  92
ATOM     92  S   UNL A   1      53.600  25.033  25.284  1.00  0.00     0.124 S 
ATOM     93  O   UNL A   1      54.448  25.558  26.348  1.00  0.00    -0.237 OA
ATOM     94  O   UNL A   1      53.376  23.591  25.305  1.00  0.00    -0.237 OA
ATOM     95  O   UNL A   1      53.826  25.607  23.960  1.00  0.00    -0.744 OA
ENDBRANCH  91  92
ENDBRANCH  59  84
ENDBRANCH  33  34
ENDBRANCH  25  28
ENDBRANCH   1  24
TORSDOF 14
ENDMDL
