MODEL 1
REMARK VINA RESULT:     -12.6      0.000      0.000
REMARK SMILES C[C@H]1CC[C@@]2(CO)C(C(=O)NCCCNC(=O)c3ccc(-c4c5nc(c(-c6c(F)cc(S(=O)(=O)[O-])cc6F)c6ccc([nH]6)c(-c6c(F)cc(S(=O)(=O)[O-])cc6F)c6nc(c(-c7c(F)cc(S(=O)(=O)[O-])cc7F)c7ccc4[nH]7)C=C6)C=C5)cc3)=C[C@@H](O)C[C@@H]2[C@@]1(C)CCc1ccoc1
REMARK SMILES IDX 13 1 12 2 11 3 9 4 10 5 8 7 1 8 2 9 3 10 89 11 4 12 88 13
REMARK SMILES IDX 90 14 5 15 87 16 85 17 84 18 91 19 92 20 93 21 94 22 97 23
REMARK SMILES IDX 95 24 96 25 6 26 7 27 86 29 14 31 15 32 16 33 17 35 18 36
REMARK SMILES IDX 19 37 83 38 20 39 82 40 21 41 22 42 23 43 76 44 24 45 81 46
REMARK SMILES IDX 75 47 77 48 25 49 80 50 74 51 73 52 26 54 60 55 39 56 59 57
REMARK SMILES IDX 40 58 43 59 58 60 78 61 41 62 42 63 57 65 79 66 44 67 27 68
REMARK SMILES IDX 28 69 37 70 29 71 30 72 36 73 38 74 31 75 32 76 33 77 34 78
REMARK SMILES IDX 35 79 61 80 62 81 71 82 63 83 64 84 70 85 72 86 65 87 66 88
REMARK SMILES IDX 67 89 68 90 69 91 45 92 46 93 55 94 47 95 48 96 54 97 56 98
REMARK SMILES IDX 49 99 50 100 51 101 52 102 53 103
REMARK H PARENT 11 6 7 28 86 30 15 34 77 53 43 64
REMARK Flexibility Score: inf
ROOT
ATOM      1  C   UNL A   1      34.336  30.276  27.069  1.00  0.00     0.042 C 
ENDROOT
BRANCH   1   2
ATOM      2  C   UNL A   1      34.072  28.790  26.882  1.00  0.00     0.118 C 
BRANCH   2   3
ATOM      3  N   UNL A   1      32.864  28.365  27.598  1.00  0.00    -0.352 N 
ATOM      4  C   UNL A   1      31.621  28.007  27.129  1.00  0.00     0.247 C 
ATOM      5  O   UNL A   1      30.704  27.753  27.903  1.00  0.00    -0.270 OA
ATOM      6  H   UNL A   1      32.959  28.328  28.577  1.00  0.00     0.163 HD
BRANCH   4   7
ATOM      7  C   UNL A   1      31.464  27.855  25.662  1.00  0.00     0.024 C 
ATOM      8  C   UNL A   1      33.754  24.244  26.460  1.00  0.00     0.008 C 
ATOM      9  C   UNL A   1      32.853  23.897  25.246  1.00  0.00    -0.008 C 
ATOM     10  C   UNL A   1      31.385  23.956  25.686  1.00  0.00     0.005 C 
ATOM     11  C   UNL A   1      33.124  24.782  23.954  1.00  0.00    -0.026 C 
ATOM     12  C   UNL A   1      30.932  25.372  26.025  1.00  0.00     0.015 C 
ATOM     13  C   UNL A   1      32.746  26.262  24.349  1.00  0.00     0.011 C 
ATOM     14  C   UNL A   1      32.281  24.262  22.775  1.00  0.00     0.012 C 
ATOM     15  C   UNL A   1      31.331  26.476  25.003  1.00  0.00     0.027 C 
ATOM     16  C   UNL A   1      33.072  27.395  23.324  1.00  0.00     0.041 C 
ATOM     17  C   UNL A   1      32.485  28.814  23.637  1.00  0.00     0.138 C 
ATOM     18  C   UNL A   1      31.767  28.950  24.946  1.00  0.00     0.014 C 
BRANCH  11  19
ATOM     19  C   UNL A   1      34.659  24.591  23.602  1.00  0.00     0.012 C 
BRANCH  19  20
ATOM     20  C   UNL A   1      35.256  23.186  23.379  1.00  0.00     0.039 C 
BRANCH  20  21
ATOM     21  C   UNL A   1      36.351  22.751  24.291  1.00  0.00    -0.010 A 
ATOM     22  C   UNL A   1      37.089  23.603  25.165  1.00  0.00     0.045 A 
ATOM     23  C   UNL A   1      36.936  21.508  24.423  1.00  0.00     0.198 A 
ATOM     24  C   UNL A   1      38.037  22.816  25.773  1.00  0.00     0.195 A 
ATOM     25  O   UNL A   1      37.947  21.540  25.326  1.00  0.00    -0.472 OA
ENDBRANCH  20  21
ENDBRANCH  19  20
ENDBRANCH  11  19
BRANCH  15  26
ATOM     26  C   UNL A   1      30.161  26.635  23.960  1.00  0.00     0.168 C 
BRANCH  26  27
ATOM     27  O   UNL A   1      28.951  25.986  24.315  1.00  0.00    -0.395 OA
ATOM     28  H   UNL A   1      29.151  25.123  24.712  1.00  0.00     0.210 HD
ENDBRANCH  26  27
ENDBRANCH  15  26
BRANCH  17  29
ATOM     29  O   UNL A   1      33.596  29.714  23.717  1.00  0.00    -0.389 OA
ATOM     30  H   UNL A   1      34.141  29.625  22.919  1.00  0.00     0.211 HD
ENDBRANCH  17  29
ENDBRANCH   4   7
ENDBRANCH   2   3
ENDBRANCH   1   2
BRANCH   1  31
ATOM     31  C   UNL A   1      35.658  30.522  27.772  1.00  0.00     0.118 C 
BRANCH  31  32
ATOM     32  N   UNL A   1      35.505  30.566  29.224  1.00  0.00    -0.352 N 
ATOM     33  C   UNL A   1      36.391  30.175  30.201  1.00  0.00     0.251 C 
ATOM     34  H   UNL A   1      34.647  30.925  29.549  1.00  0.00     0.163 HD
ATOM     35  O   UNL A   1      36.011  30.077  31.370  1.00  0.00    -0.269 OA
BRANCH  33  36
ATOM     36  C   UNL A   1      37.790  29.859  29.844  1.00  0.00     0.039 A 
ATOM     37  C   UNL A   1      38.666  29.379  30.819  1.00  0.00     0.014 A 
ATOM     38  C   UNL A   1      38.232  30.023  28.529  1.00  0.00     0.014 A 
ATOM     39  C   UNL A   1      39.965  29.008  30.456  1.00  0.00     0.010 A 
ATOM     40  C   UNL A   1      39.470  29.527  28.149  1.00  0.00     0.010 A 
ATOM     41  C   UNL A   1      40.368  29.046  29.111  1.00  0.00    -0.014 A 
BRANCH  41  42
ATOM     42  C   UNL A   1      41.736  28.650  28.685  1.00  0.00     0.031 A 
ATOM     43  C   UNL A   1      42.826  29.691  28.628  1.00  0.00     0.074 A 
ATOM     44  C   UNL A   1      41.979  27.385  28.285  1.00  0.00     0.049 A 
ATOM     45  N   UNL A   1      44.057  29.579  28.200  1.00  0.00    -0.248 NA
ATOM     46  C   UNL A   1      42.472  31.054  29.063  1.00  0.00     0.031 C 
ATOM     47  C   UNL A   1      40.989  26.308  28.226  1.00  0.00     0.029 A 
ATOM     48  N   UNL A   1      43.136  26.793  27.844  1.00  0.00    -0.354 N 
ATOM     49  C   UNL A   1      44.606  30.855  28.287  1.00  0.00     0.074 A 
ATOM     50  C   UNL A   1      43.555  31.739  28.731  1.00  0.00     0.031 C 
ATOM     51  C   UNL A   1      41.588  25.179  27.814  1.00  0.00     0.029 A 
ATOM     52  C   UNL A   1      42.995  25.459  27.541  1.00  0.00     0.049 A 
ATOM     53  H   UNL A   1      43.988  27.278  27.753  1.00  0.00     0.167 HD
ATOM     54  C   UNL A   1      45.880  31.248  28.058  1.00  0.00     0.037 A 
ATOM     55  C   UNL A   1      43.898  24.563  27.096  1.00  0.00     0.037 A 
ATOM     56  C   UNL A   1      46.933  30.347  27.673  1.00  0.00     0.049 A 
ATOM     57  C   UNL A   1      45.319  25.012  26.887  1.00  0.00     0.074 A 
ATOM     58  C   UNL A   1      48.275  30.619  27.488  1.00  0.00     0.029 A 
ATOM     59  N   UNL A   1      46.758  28.993  27.423  1.00  0.00    -0.354 N 
ATOM     60  N   UNL A   1      45.837  26.208  27.041  1.00  0.00    -0.248 NA
ATOM     61  C   UNL A   1      46.283  23.992  26.452  1.00  0.00     0.031 C 
ATOM     62  C   UNL A   1      48.906  29.438  27.085  1.00  0.00     0.029 A 
ATOM     63  C   UNL A   1      47.966  28.419  27.071  1.00  0.00     0.049 A 
ATOM     64  H   UNL A   1      45.902  28.512  27.488  1.00  0.00     0.167 HD
ATOM     65  C   UNL A   1      47.191  26.078  26.755  1.00  0.00     0.074 A 
ATOM     66  C   UNL A   1      47.414  24.684  26.429  1.00  0.00     0.031 C 
ATOM     67  C   UNL A   1      48.164  27.024  26.763  1.00  0.00     0.037 A 
BRANCH  54  68
ATOM     68  C   UNL A   1      46.206  32.708  28.236  1.00  0.00     0.058 A 
ATOM     69  C   UNL A   1      46.092  33.626  27.178  1.00  0.00     0.135 A 
ATOM     70  C   UNL A   1      46.619  33.202  29.484  1.00  0.00     0.135 A 
ATOM     71  F   UNL A   1      45.719  33.210  25.957  1.00  0.00    -0.206 F 
ATOM     72  C   UNL A   1      46.411  34.971  27.341  1.00  0.00     0.059 A 
ATOM     73  C   UNL A   1      46.911  34.550  29.679  1.00  0.00     0.059 A 
ATOM     74  F   UNL A   1      46.746  32.371  30.531  1.00  0.00    -0.206 F 
ATOM     75  C   UNL A   1      46.819  35.423  28.596  1.00  0.00     0.060 A 
BRANCH  75  76
ATOM     76  S   UNL A   1      47.222  37.172  28.791  1.00  0.00     0.124 S 
ATOM     77  O   UNL A   1      48.673  37.155  28.634  1.00  0.00    -0.237 OA
ATOM     78  O   UNL A   1      46.475  37.788  27.700  1.00  0.00    -0.237 OA
ATOM     79  O   UNL A   1      46.740  37.486  30.133  1.00  0.00    -0.744 OA
ENDBRANCH  75  76
ENDBRANCH  54  68
BRANCH  55  80
ATOM     80  C   UNL A   1      43.494  23.150  26.860  1.00  0.00     0.058 A 
ATOM     81  C   UNL A   1      43.415  22.629  25.560  1.00  0.00     0.135 A 
ATOM     82  C   UNL A   1      43.200  22.285  27.926  1.00  0.00     0.135 A 
ATOM     83  F   UNL A   1      43.683  23.415  24.505  1.00  0.00    -0.206 F 
ATOM     84  C   UNL A   1      43.042  21.309  25.322  1.00  0.00     0.059 A 
ATOM     85  C   UNL A   1      42.852  20.954  27.716  1.00  0.00     0.059 A 
ATOM     86  F   UNL A   1      43.279  22.726  29.191  1.00  0.00    -0.206 F 
ATOM     87  C   UNL A   1      42.765  20.478  26.408  1.00  0.00     0.060 A 
BRANCH  87  88
ATOM     88  S   UNL A   1      42.332  18.753  26.091  1.00  0.00     0.124 S 
ATOM     89  O   UNL A   1      43.258  18.409  25.018  1.00  0.00    -0.237 OA
ATOM     90  O   UNL A   1      42.593  18.129  27.385  1.00  0.00    -0.237 OA
ATOM     91  O   UNL A   1      40.924  18.824  25.711  1.00  0.00    -0.744 OA
ENDBRANCH  87  88
ENDBRANCH  55  80
BRANCH  67  92
ATOM     92  C   UNL A   1      49.565  26.579  26.450  1.00  0.00     0.058 A 
ATOM     93  C   UNL A   1      50.402  26.026  27.430  1.00  0.00     0.135 A 
ATOM     94  C   UNL A   1      50.050  26.648  25.133  1.00  0.00     0.135 A 
ATOM     95  F   UNL A   1      49.988  25.941  28.703  1.00  0.00    -0.206 F 
ATOM     96  C   UNL A   1      51.682  25.579  27.120  1.00  0.00     0.059 A 
ATOM     97  C   UNL A   1      51.313  26.179  24.795  1.00  0.00     0.059 A 
ATOM     98  F   UNL A   1      49.281  27.157  24.155  1.00  0.00    -0.206 F 
ATOM     99  C   UNL A   1      52.127  25.657  25.798  1.00  0.00     0.060 A 
BRANCH  99 100
ATOM    100  S   UNL A   1      53.776  25.038  25.405  1.00  0.00     0.124 S 
ATOM    101  O   UNL A   1      54.057  25.729  24.150  1.00  0.00    -0.237 OA
ATOM    102  O   UNL A   1      54.557  25.474  26.558  1.00  0.00    -0.237 OA
ATOM    103  O   UNL A   1      53.581  23.595  25.297  1.00  0.00    -0.744 OA
ENDBRANCH  99 100
ENDBRANCH  67  92
ENDBRANCH  41  42
ENDBRANCH  33  36
ENDBRANCH  31  32
ENDBRANCH   1  31
TORSDOF 19
ENDMDL
MODEL 2
REMARK VINA RESULT:     -12.5      2.709      3.485
REMARK SMILES C[C@H]1CC[C@@]2(CO)C(C(=O)NCCCNC(=O)c3ccc(-c4c5nc(c(-c6c(F)cc(S(=O)(=O)[O-])cc6F)c6ccc([nH]6)c(-c6c(F)cc(S(=O)(=O)[O-])cc6F)c6nc(c(-c7c(F)cc(S(=O)(=O)[O-])cc7F)c7ccc4[nH]7)C=C6)C=C5)cc3)=C[C@@H](O)C[C@@H]2[C@@]1(C)CCc1ccoc1
REMARK SMILES IDX 13 1 12 2 11 3 9 4 10 5 8 7 1 8 2 9 3 10 89 11 4 12 88 13
REMARK SMILES IDX 90 14 5 15 87 16 85 17 84 18 91 19 92 20 93 21 94 22 97 23
REMARK SMILES IDX 95 24 96 25 6 26 7 27 86 29 14 31 15 32 16 33 17 35 18 36
REMARK SMILES IDX 19 37 83 38 20 39 82 40 21 41 22 42 23 43 76 44 24 45 81 46
REMARK SMILES IDX 75 47 77 48 25 49 80 50 74 51 73 52 26 54 60 55 39 56 59 57
REMARK SMILES IDX 40 58 43 59 58 60 78 61 41 62 42 63 57 65 79 66 44 67 27 68
REMARK SMILES IDX 28 69 37 70 29 71 30 72 36 73 38 74 31 75 32 76 33 77 34 78
REMARK SMILES IDX 35 79 61 80 62 81 71 82 63 83 64 84 70 85 72 86 65 87 66 88
REMARK SMILES IDX 67 89 68 90 69 91 45 92 46 93 55 94 47 95 48 96 54 97 56 98
REMARK SMILES IDX 49 99 50 100 51 101 52 102 53 103
REMARK H PARENT 11 6 7 28 86 30 15 34 77 53 43 64
REMARK Flexibility Score: inf
ROOT
ATOM      1  C   UNL A   1      32.410  27.770  26.362  1.00  0.00     0.042 C 
ENDROOT
BRANCH   1   2
ATOM      2  C   UNL A   1      31.852  28.802  25.394  1.00  0.00     0.118 C 
BRANCH   2   3
ATOM      3  N   UNL A   1      30.605  28.338  24.774  1.00  0.00    -0.352 N 
ATOM      4  C   UNL A   1      30.376  27.735  23.560  1.00  0.00     0.247 C 
ATOM      5  O   UNL A   1      29.236  27.488  23.182  1.00  0.00    -0.270 OA
ATOM      6  H   UNL A   1      29.798  28.482  25.320  1.00  0.00     0.163 HD
BRANCH   4   7
ATOM      7  C   UNL A   1      31.562  27.316  22.773  1.00  0.00     0.024 C 
ATOM      8  C   UNL A   1      31.862  24.425  26.009  1.00  0.00     0.008 C 
ATOM      9  C   UNL A   1      32.449  23.708  24.765  1.00  0.00    -0.008 C 
ATOM     10  C   UNL A   1      31.339  23.539  23.721  1.00  0.00     0.005 C 
ATOM     11  C   UNL A   1      33.740  24.407  24.155  1.00  0.00    -0.026 C 
ATOM     12  C   UNL A   1      30.879  24.870  23.135  1.00  0.00     0.015 C 
ATOM     13  C   UNL A   1      33.271  25.823  23.643  1.00  0.00     0.011 C 
ATOM     14  C   UNL A   1      34.319  23.540  23.022  1.00  0.00     0.012 C 
ATOM     15  C   UNL A   1      32.009  25.849  22.704  1.00  0.00     0.027 C 
ATOM     16  C   UNL A   1      34.369  26.815  23.141  1.00  0.00     0.041 C 
ATOM     17  C   UNL A   1      33.865  28.118  22.429  1.00  0.00     0.138 C 
ATOM     18  C   UNL A   1      32.379  28.317  22.408  1.00  0.00     0.014 C 
BRANCH  11  19
ATOM     19  C   UNL A   1      34.802  24.476  25.332  1.00  0.00     0.012 C 
BRANCH  19  20
ATOM     20  C   UNL A   1      35.170  23.220  26.148  1.00  0.00     0.039 C 
BRANCH  20  21
ATOM     21  C   UNL A   1      36.319  22.401  25.672  1.00  0.00    -0.010 A 
ATOM     22  C   UNL A   1      36.233  21.069  25.167  1.00  0.00     0.045 A 
ATOM     23  C   UNL A   1      37.668  22.689  25.698  1.00  0.00     0.198 A 
ATOM     24  C   UNL A   1      37.520  20.665  24.904  1.00  0.00     0.195 A 
ATOM     25  O   UNL A   1      38.396  21.648  25.223  1.00  0.00    -0.472 OA
ENDBRANCH  20  21
ENDBRANCH  19  20
ENDBRANCH  11  19
BRANCH  15  26
ATOM     26  C   UNL A   1      32.335  25.594  21.185  1.00  0.00     0.168 C 
BRANCH  26  27
ATOM     27  O   UNL A   1      31.348  26.053  20.275  1.00  0.00    -0.395 OA
ATOM     28  H   UNL A   1      30.779  26.703  20.717  1.00  0.00     0.210 HD
ENDBRANCH  26  27
ENDBRANCH  15  26
BRANCH  17  29
ATOM     29  O   UNL A   1      34.388  29.224  23.172  1.00  0.00    -0.389 OA
ATOM     30  H   UNL A   1      35.351  29.259  23.065  1.00  0.00     0.211 HD
ENDBRANCH  17  29
ENDBRANCH   4   7
ENDBRANCH   2   3
ENDBRANCH   1   2
BRANCH   1  31
ATOM     31  C   UNL A   1      33.644  28.289  27.078  1.00  0.00     0.118 C 
BRANCH  31  32
ATOM     32  N   UNL A   1      33.506  29.694  27.454  1.00  0.00    -0.352 N 
ATOM     33  C   UNL A   1      34.403  30.507  28.107  1.00  0.00     0.251 C 
ATOM     34  H   UNL A   1      32.653  30.118  27.205  1.00  0.00     0.163 HD
ATOM     35  O   UNL A   1      34.035  31.603  28.539  1.00  0.00    -0.269 OA
BRANCH  33  36
ATOM     36  C   UNL A   1      35.797  30.059  28.305  1.00  0.00     0.039 A 
ATOM     37  C   UNL A   1      36.705  30.116  27.245  1.00  0.00     0.014 A 
ATOM     38  C   UNL A   1      36.213  29.594  29.555  1.00  0.00     0.014 A 
ATOM     39  C   UNL A   1      38.041  29.764  27.462  1.00  0.00     0.010 A 
ATOM     40  C   UNL A   1      37.561  29.378  29.799  1.00  0.00     0.010 A 
ATOM     41  C   UNL A   1      38.489  29.425  28.750  1.00  0.00    -0.014 A 
BRANCH  41  42
ATOM     42  C   UNL A   1      39.903  29.056  29.021  1.00  0.00     0.031 A 
ATOM     43  C   UNL A   1      40.836  30.081  29.618  1.00  0.00     0.074 A 
ATOM     44  C   UNL A   1      40.363  27.838  28.670  1.00  0.00     0.049 A 
ATOM     45  N   UNL A   1      42.121  29.996  29.849  1.00  0.00    -0.248 NA
ATOM     46  C   UNL A   1      40.258  31.394  29.955  1.00  0.00     0.031 C 
ATOM     47  C   UNL A   1      39.576  26.788  28.020  1.00  0.00     0.029 A 
ATOM     48  N   UNL A   1      41.609  27.279  28.804  1.00  0.00    -0.354 N 
ATOM     49  C   UNL A   1      42.502  31.248  30.324  1.00  0.00     0.074 A 
ATOM     50  C   UNL A   1      41.335  32.095  30.274  1.00  0.00     0.031 C 
ATOM     51  C   UNL A   1      40.345  25.701  27.848  1.00  0.00     0.029 A 
ATOM     52  C   UNL A   1      41.690  25.987  28.339  1.00  0.00     0.049 A 
ATOM     53  H   UNL A   1      42.374  27.758  29.197  1.00  0.00     0.167 HD
ATOM     54  C   UNL A   1      43.707  31.644  30.798  1.00  0.00     0.037 A 
ATOM     55  C   UNL A   1      42.731  25.131  28.312  1.00  0.00     0.037 A 
ATOM     56  C   UNL A   1      44.847  30.773  30.898  1.00  0.00     0.049 A 
ATOM     57  C   UNL A   1      44.050  25.579  28.882  1.00  0.00     0.074 A 
ATOM     58  C   UNL A   1      46.092  31.044  31.432  1.00  0.00     0.029 A 
ATOM     59  N   UNL A   1      44.873  29.457  30.459  1.00  0.00    -0.354 N 
ATOM     60  N   UNL A   1      44.374  26.744  29.393  1.00  0.00    -0.248 NA
ATOM     61  C   UNL A   1      45.142  24.597  28.884  1.00  0.00     0.031 C 
ATOM     62  C   UNL A   1      46.888  29.903  31.278  1.00  0.00     0.029 A 
ATOM     63  C   UNL A   1      46.120  28.906  30.698  1.00  0.00     0.049 A 
ATOM     64  H   UNL A   1      44.117  28.985  30.042  1.00  0.00     0.167 HD
ATOM     65  C   UNL A   1      45.697  26.624  29.805  1.00  0.00     0.074 A 
ATOM     66  C   UNL A   1      46.108  25.270  29.494  1.00  0.00     0.031 C 
ATOM     67  C   UNL A   1      46.499  27.549  30.390  1.00  0.00     0.037 A 
BRANCH  54  68
ATOM     68  C   UNL A   1      43.843  33.071  31.260  1.00  0.00     0.058 A 
ATOM     69  C   UNL A   1      44.311  34.084  30.407  1.00  0.00     0.135 A 
ATOM     70  C   UNL A   1      43.481  33.437  32.567  1.00  0.00     0.135 A 
ATOM     71  F   UNL A   1      44.689  33.791  29.152  1.00  0.00    -0.206 F 
ATOM     72  C   UNL A   1      44.453  35.399  30.842  1.00  0.00     0.059 A 
ATOM     73  C   UNL A   1      43.583  34.752  33.014  1.00  0.00     0.059 A 
ATOM     74  F   UNL A   1      43.027  32.512  33.428  1.00  0.00    -0.206 F 
ATOM     75  C   UNL A   1      44.085  35.723  32.148  1.00  0.00     0.060 A 
BRANCH  75  76
ATOM     76  S   UNL A   1      44.269  37.434  32.694  1.00  0.00     0.124 S 
ATOM     77  O   UNL A   1      44.111  38.158  31.436  1.00  0.00    -0.237 OA
ATOM     78  O   UNL A   1      43.174  37.575  33.648  1.00  0.00    -0.237 OA
ATOM     79  O   UNL A   1      45.608  37.465  33.272  1.00  0.00    -0.744 OA
ENDBRANCH  75  76
ENDBRANCH  54  68
BRANCH  55  80
ATOM     80  C   UNL A   1      42.554  23.758  27.766  1.00  0.00     0.058 A 
ATOM     81  C   UNL A   1      42.561  23.524  26.383  1.00  0.00     0.135 A 
ATOM     82  C   UNL A   1      42.395  22.648  28.612  1.00  0.00     0.135 A 
ATOM     83  F   UNL A   1      42.705  24.551  25.531  1.00  0.00    -0.206 F 
ATOM     84  C   UNL A   1      42.400  22.246  25.856  1.00  0.00     0.059 A 
ATOM     85  C   UNL A   1      42.261  21.357  28.111  1.00  0.00     0.059 A 
ATOM     86  F   UNL A   1      42.401  22.813  29.945  1.00  0.00    -0.206 F 
ATOM     87  C   UNL A   1      42.254  21.167  26.729  1.00  0.00     0.060 A 
BRANCH  87  88
ATOM     88  S   UNL A   1      42.097  19.506  26.037  1.00  0.00     0.124 S 
ATOM     89  O   UNL A   1      42.935  19.603  24.847  1.00  0.00    -0.237 OA
ATOM     90  O   UNL A   1      42.616  18.674  27.118  1.00  0.00    -0.237 OA
ATOM     91  O   UNL A   1      40.663  19.379  25.791  1.00  0.00    -0.744 OA
ENDBRANCH  87  88
ENDBRANCH  55  80
BRANCH  67  92
ATOM     92  C   UNL A   1      47.888  27.119  30.770  1.00  0.00     0.058 A 
ATOM     93  C   UNL A   1      48.157  26.477  31.988  1.00  0.00     0.135 A 
ATOM     94  C   UNL A   1      48.953  27.295  29.870  1.00  0.00     0.135 A 
ATOM     95  F   UNL A   1      47.176  26.288  32.883  1.00  0.00    -0.206 F 
ATOM     96  C   UNL A   1      49.440  26.046  32.311  1.00  0.00     0.059 A 
ATOM     97  C   UNL A   1      50.236  26.845  30.159  1.00  0.00     0.059 A 
ATOM     98  F   UNL A   1      48.745  27.893  28.684  1.00  0.00    -0.206 F 
ATOM     99  C   UNL A   1      50.471  26.232  31.388  1.00  0.00     0.060 A 
BRANCH  99 100
ATOM    100  S   UNL A   1      52.121  25.633  31.807  1.00  0.00     0.124 S 
ATOM    101  O   UNL A   1      51.861  24.224  32.082  1.00  0.00    -0.237 OA
ATOM    102  O   UNL A   1      52.874  25.913  30.587  1.00  0.00    -0.237 OA
ATOM    103  O   UNL A   1      52.492  26.441  32.964  1.00  0.00    -0.744 OA
ENDBRANCH  99 100
ENDBRANCH  67  92
ENDBRANCH  41  42
ENDBRANCH  33  36
ENDBRANCH  31  32
ENDBRANCH   1  31
TORSDOF 19
ENDMDL
MODEL 3
REMARK VINA RESULT:     -12.5      3.014      4.137
REMARK SMILES C[C@H]1CC[C@@]2(CO)C(C(=O)NCCCNC(=O)c3ccc(-c4c5nc(c(-c6c(F)cc(S(=O)(=O)[O-])cc6F)c6ccc([nH]6)c(-c6c(F)cc(S(=O)(=O)[O-])cc6F)c6nc(c(-c7c(F)cc(S(=O)(=O)[O-])cc7F)c7ccc4[nH]7)C=C6)C=C5)cc3)=C[C@@H](O)C[C@@H]2[C@@]1(C)CCc1ccoc1
REMARK SMILES IDX 13 1 12 2 11 3 9 4 10 5 8 7 1 8 2 9 3 10 89 11 4 12 88 13
REMARK SMILES IDX 90 14 5 15 87 16 85 17 84 18 91 19 92 20 93 21 94 22 97 23
REMARK SMILES IDX 95 24 96 25 6 26 7 27 86 29 14 31 15 32 16 33 17 35 18 36
REMARK SMILES IDX 19 37 83 38 20 39 82 40 21 41 22 42 23 43 76 44 24 45 81 46
REMARK SMILES IDX 75 47 77 48 25 49 80 50 74 51 73 52 26 54 60 55 39 56 59 57
REMARK SMILES IDX 40 58 43 59 58 60 78 61 41 62 42 63 57 65 79 66 44 67 27 68
REMARK SMILES IDX 28 69 37 70 29 71 30 72 36 73 38 74 31 75 32 76 33 77 34 78
REMARK SMILES IDX 35 79 61 80 62 81 71 82 63 83 64 84 70 85 72 86 65 87 66 88
REMARK SMILES IDX 67 89 68 90 69 91 45 92 46 93 55 94 47 95 48 96 54 97 56 98
REMARK SMILES IDX 49 99 50 100 51 101 52 102 53 103
REMARK H PARENT 11 6 7 28 86 30 15 34 77 53 43 64
REMARK Flexibility Score: inf
ROOT
ATOM      1  C   UNL A   1      34.183  28.551  25.505  1.00  0.00     0.042 C 
ENDROOT
BRANCH   1   2
ATOM      2  C   UNL A   1      33.010  28.190  24.605  1.00  0.00     0.118 C 
BRANCH   2   3
ATOM      3  N   UNL A   1      33.445  27.396  23.449  1.00  0.00    -0.352 N 
ATOM      4  C   UNL A   1      33.387  26.042  23.217  1.00  0.00     0.247 C 
ATOM      5  O   UNL A   1      33.881  25.553  22.207  1.00  0.00    -0.270 OA
ATOM      6  H   UNL A   1      33.843  27.921  22.718  1.00  0.00     0.163 HD
BRANCH   4   7
ATOM      7  C   UNL A   1      32.630  25.216  24.189  1.00  0.00     0.024 C 
ATOM      8  C   UNL A   1      36.045  22.585  23.606  1.00  0.00     0.008 C 
ATOM      9  C   UNL A   1      35.581  22.336  25.065  1.00  0.00    -0.008 C 
ATOM     10  C   UNL A   1      35.769  23.626  25.872  1.00  0.00     0.005 C 
ATOM     11  C   UNL A   1      34.104  21.761  25.194  1.00  0.00    -0.026 C 
ATOM     12  C   UNL A   1      34.827  24.739  25.423  1.00  0.00     0.015 C 
ATOM     13  C   UNL A   1      33.147  22.883  24.634  1.00  0.00     0.011 C 
ATOM     14  C   UNL A   1      33.801  21.419  26.664  1.00  0.00     0.012 C 
ATOM     15  C   UNL A   1      33.339  24.330  25.222  1.00  0.00     0.027 C 
ATOM     16  C   UNL A   1      31.633  22.534  24.475  1.00  0.00     0.041 C 
ATOM     17  C   UNL A   1      30.670  23.725  24.136  1.00  0.00     0.138 C 
ATOM     18  C   UNL A   1      31.330  25.049  23.895  1.00  0.00     0.014 C 
BRANCH  11  19
ATOM     19  C   UNL A   1      34.077  20.420  24.345  1.00  0.00     0.012 C 
BRANCH  19  20
ATOM     20  C   UNL A   1      33.006  19.340  24.599  1.00  0.00     0.039 C 
BRANCH  20  21
ATOM     21  C   UNL A   1      33.476  17.950  24.857  1.00  0.00    -0.010 A 
ATOM     22  C   UNL A   1      34.758  17.432  24.505  1.00  0.00     0.045 A 
ATOM     23  C   UNL A   1      32.785  16.876  25.379  1.00  0.00     0.198 A 
ATOM     24  C   UNL A   1      34.756  16.105  24.861  1.00  0.00     0.195 A 
ATOM     25  O   UNL A   1      33.559  15.762  25.396  1.00  0.00    -0.472 OA
ENDBRANCH  20  21
ENDBRANCH  19  20
ENDBRANCH  11  19
BRANCH  15  26
ATOM     26  C   UNL A   1      32.567  24.580  26.571  1.00  0.00     0.168 C 
BRANCH  26  27
ATOM     27  O   UNL A   1      31.952  25.854  26.682  1.00  0.00    -0.395 OA
ATOM     28  H   UNL A   1      31.031  25.794  26.383  1.00  0.00     0.210 HD
ENDBRANCH  26  27
ENDBRANCH  15  26
BRANCH  17  29
ATOM     29  O   UNL A   1      30.018  23.394  22.906  1.00  0.00    -0.389 OA
ATOM     30  H   UNL A   1      29.189  22.928  23.095  1.00  0.00     0.211 HD
ENDBRANCH  17  29
ENDBRANCH   4   7
ENDBRANCH   2   3
ENDBRANCH   1   2
BRANCH   1  31
ATOM     31  C   UNL A   1      33.787  28.530  26.970  1.00  0.00     0.118 C 
BRANCH  31  32
ATOM     32  N   UNL A   1      33.639  29.877  27.515  1.00  0.00    -0.352 N 
ATOM     33  C   UNL A   1      34.523  30.605  28.277  1.00  0.00     0.251 C 
ATOM     34  H   UNL A   1      32.788  30.327  27.308  1.00  0.00     0.163 HD
ATOM     35  O   UNL A   1      34.146  31.638  28.836  1.00  0.00    -0.269 OA
BRANCH  33  36
ATOM     36  C   UNL A   1      35.916  30.138  28.437  1.00  0.00     0.039 A 
ATOM     37  C   UNL A   1      36.818  30.257  27.377  1.00  0.00     0.014 A 
ATOM     38  C   UNL A   1      36.338  29.595  29.653  1.00  0.00     0.014 A 
ATOM     39  C   UNL A   1      38.153  29.886  27.563  1.00  0.00     0.010 A 
ATOM     40  C   UNL A   1      37.686  29.358  29.874  1.00  0.00     0.010 A 
ATOM     41  C   UNL A   1      38.607  29.465  28.824  1.00  0.00    -0.014 A 
BRANCH  41  42
ATOM     42  C   UNL A   1      40.021  29.073  29.063  1.00  0.00     0.031 A 
ATOM     43  C   UNL A   1      40.984  30.082  29.640  1.00  0.00     0.074 A 
ATOM     44  C   UNL A   1      40.454  27.849  28.700  1.00  0.00     0.049 A 
ATOM     45  N   UNL A   1      42.272  29.977  29.841  1.00  0.00    -0.248 NA
ATOM     46  C   UNL A   1      40.435  31.404  29.991  1.00  0.00     0.031 C 
ATOM     47  C   UNL A   1      39.635  26.812  28.067  1.00  0.00     0.029 A 
ATOM     48  N   UNL A   1      41.694  27.270  28.805  1.00  0.00    -0.354 N 
ATOM     49  C   UNL A   1      42.684  31.221  30.309  1.00  0.00     0.074 A 
ATOM     50  C   UNL A   1      41.530  32.087  30.286  1.00  0.00     0.031 C 
ATOM     51  C   UNL A   1      40.383  25.714  27.876  1.00  0.00     0.029 A 
ATOM     52  C   UNL A   1      41.743  25.977  28.336  1.00  0.00     0.049 A 
ATOM     53  H   UNL A   1      42.475  27.736  29.181  1.00  0.00     0.167 HD
ATOM     54  C   UNL A   1      43.905  31.598  30.756  1.00  0.00     0.037 A 
ATOM     55  C   UNL A   1      42.769  25.105  28.285  1.00  0.00     0.037 A 
ATOM     56  C   UNL A   1      45.033  30.708  30.828  1.00  0.00     0.049 A 
ATOM     57  C   UNL A   1      44.108  25.531  28.826  1.00  0.00     0.074 A 
ATOM     58  C   UNL A   1      46.295  30.958  31.334  1.00  0.00     0.029 A 
ATOM     59  N   UNL A   1      45.029  29.392  30.388  1.00  0.00    -0.354 N 
ATOM     60  N   UNL A   1      44.463  26.689  29.330  1.00  0.00    -0.248 NA
ATOM     61  C   UNL A   1      45.184  24.531  28.801  1.00  0.00     0.031 C 
ATOM     62  C   UNL A   1      47.068  29.805  31.161  1.00  0.00     0.029 A 
ATOM     63  C   UNL A   1      46.271  28.821  30.597  1.00  0.00     0.049 A 
ATOM     64  H   UNL A   1      44.256  28.933  29.987  1.00  0.00     0.167 HD
ATOM     65  C   UNL A   1      45.792  26.548  29.712  1.00  0.00     0.074 A 
ATOM     66  C   UNL A   1      46.175  25.188  29.390  1.00  0.00     0.031 C 
ATOM     67  C   UNL A   1      46.622  27.459  30.279  1.00  0.00     0.037 A 
BRANCH  54  68
ATOM     68  C   UNL A   1      44.075  33.022  31.216  1.00  0.00     0.058 A 
ATOM     69  C   UNL A   1      44.483  34.040  30.338  1.00  0.00     0.135 A 
ATOM     70  C   UNL A   1      43.806  33.380  32.547  1.00  0.00     0.135 A 
ATOM     71  F   UNL A   1      44.772  33.755  29.058  1.00  0.00    -0.206 F 
ATOM     72  C   UNL A   1      44.656  35.351  30.771  1.00  0.00     0.059 A 
ATOM     73  C   UNL A   1      43.939  34.692  32.995  1.00  0.00     0.059 A 
ATOM     74  F   UNL A   1      43.412  32.449  33.432  1.00  0.00    -0.206 F 
ATOM     75  C   UNL A   1      44.381  35.667  32.102  1.00  0.00     0.060 A 
BRANCH  75  76
ATOM     76  S   UNL A   1      44.604  37.375  32.644  1.00  0.00     0.124 S 
ATOM     77  O   UNL A   1      44.318  38.109  31.416  1.00  0.00    -0.237 OA
ATOM     78  O   UNL A   1      43.607  37.498  33.702  1.00  0.00    -0.237 OA
ATOM     79  O   UNL A   1      45.993  37.413  33.088  1.00  0.00    -0.744 OA
ENDBRANCH  75  76
ENDBRANCH  54  68
BRANCH  55  80
ATOM     80  C   UNL A   1      42.558  23.736  27.742  1.00  0.00     0.058 A 
ATOM     81  C   UNL A   1      42.535  23.503  26.359  1.00  0.00     0.135 A 
ATOM     82  C   UNL A   1      42.396  22.628  28.590  1.00  0.00     0.135 A 
ATOM     83  F   UNL A   1      42.680  24.528  25.504  1.00  0.00    -0.206 F 
ATOM     84  C   UNL A   1      42.342  22.229  25.834  1.00  0.00     0.059 A 
ATOM     85  C   UNL A   1      42.230  21.340  28.091  1.00  0.00     0.059 A 
ATOM     86  F   UNL A   1      42.430  22.791  29.922  1.00  0.00    -0.206 F 
ATOM     87  C   UNL A   1      42.193  21.152  26.709  1.00  0.00     0.060 A 
BRANCH  87  88
ATOM     88  S   UNL A   1      41.994  19.494  26.019  1.00  0.00     0.124 S 
ATOM     89  O   UNL A   1      42.446  18.659  27.126  1.00  0.00    -0.237 OA
ATOM     90  O   UNL A   1      40.564  19.453  25.730  1.00  0.00    -0.237 OA
ATOM     91  O   UNL A   1      42.862  19.512  24.846  1.00  0.00    -0.744 OA
ENDBRANCH  87  88
ENDBRANCH  55  80
BRANCH  67  92
ATOM     92  C   UNL A   1      48.013  27.006  30.627  1.00  0.00     0.058 A 
ATOM     93  C   UNL A   1      49.093  27.199  29.753  1.00  0.00     0.135 A 
ATOM     94  C   UNL A   1      48.275  26.430  31.881  1.00  0.00     0.135 A 
ATOM     95  F   UNL A   1      48.895  27.743  28.542  1.00  0.00    -0.206 F 
ATOM     96  C   UNL A   1      50.383  26.814  30.102  1.00  0.00     0.059 A 
ATOM     97  C   UNL A   1      49.561  26.065  32.262  1.00  0.00     0.059 A 
ATOM     98  F   UNL A   1      47.276  26.236  32.758  1.00  0.00    -0.206 F 
ATOM     99  C   UNL A   1      50.607  26.251  31.360  1.00  0.00     0.060 A 
BRANCH  99 100
ATOM    100  S   UNL A   1      52.292  25.791  31.812  1.00  0.00     0.124 S 
ATOM    101  O   UNL A   1      52.126  24.387  32.177  1.00  0.00    -0.237 OA
ATOM    102  O   UNL A   1      53.027  26.042  30.576  1.00  0.00    -0.237 OA
ATOM    103  O   UNL A   1      52.606  26.693  32.916  1.00  0.00    -0.744 OA
ENDBRANCH  99 100
ENDBRANCH  67  92
ENDBRANCH  41  42
ENDBRANCH  33  36
ENDBRANCH  31  32
ENDBRANCH   1  31
TORSDOF 19
ENDMDL
