MODEL 1
REMARK VINA RESULT:     -13.3      0.000      0.000
REMARK SMILES O=C(NCCCNC(=O)c1sccc1S(=O)(=O)Nc1ccc(-c2nc3ccccc3n2C(F)F)cc1)c1ccc(-c2c3nc(c(-c4c(F)cc(S(=O)(=O)[O-])cc4F)c4ccc([nH]4)c(-c4c(F)cc(S(=O)(=O)[O-])cc4F)c4nc(c(-c5c(F)cc(S(=O)(=O)[O-])cc5F)c5ccc2[nH]5)C=C4)C=C3)cc1
REMARK SMILES IDX 6 1 5 2 4 3 3 4 1 5 2 6 37 8 38 9 102 10 39 11 101 12 40 13
REMARK SMILES IDX 41 14 42 15 95 16 43 17 100 18 94 19 96 20 44 21 99 22 93 23
REMARK SMILES IDX 92 24 45 26 79 27 58 28 78 29 59 30 62 31 77 32 97 33 60 34
REMARK SMILES IDX 61 35 76 37 98 38 63 39 46 40 47 41 56 42 48 43 49 44 55 45
REMARK SMILES IDX 57 46 50 47 51 48 52 49 53 50 54 51 80 52 81 53 90 54 82 55
REMARK SMILES IDX 83 56 89 57 91 58 84 59 85 60 86 61 87 62 88 63 64 64 65 65
REMARK SMILES IDX 74 66 66 67 67 68 73 69 75 70 68 71 69 72 70 73 71 74 72 75
REMARK SMILES IDX 7 76 8 77 9 79 10 80 11 81 14 82 12 83 13 84 15 85 16 86
REMARK SMILES IDX 17 87 18 88 19 90 20 91 36 92 21 93 35 94 22 95 23 96 24 97
REMARK SMILES IDX 31 98 25 99 30 100 26 101 29 102 27 103 28 104 32 105 33 106
REMARK SMILES IDX 34 107
REMARK H PARENT 3 7 96 25 62 36 7 78 18 89
REMARK Flexibility Score: inf
ROOT
ATOM      1  C   UNL A   1      31.475  28.328  27.033  1.00  0.00     0.118 C 
ENDROOT
BRANCH   1   2
ATOM      2  C   UNL A   1      32.976  28.423  27.270  1.00  0.00     0.042 C 
BRANCH   2   3
ATOM      3  C   UNL A   1      33.664  29.608  26.577  1.00  0.00     0.118 C 
BRANCH   3   4
ATOM      4  N   UNL A   1      33.691  30.843  27.336  1.00  0.00    -0.352 N 
ATOM      5  O   UNL A   1      34.366  32.658  28.393  1.00  0.00    -0.269 OA
ATOM      6  C   UNL A   1      34.666  31.522  28.018  1.00  0.00     0.251 C 
ATOM      7  H   UNL A   1      32.816  31.293  27.369  1.00  0.00     0.163 HD
BRANCH   6   8
ATOM      8  C   UNL A   1      36.005  30.969  28.365  1.00  0.00     0.039 A 
ATOM      9  C   UNL A   1      37.101  31.726  28.775  1.00  0.00     0.014 A 
ATOM     10  C   UNL A   1      36.171  29.580  28.222  1.00  0.00     0.014 A 
ATOM     11  C   UNL A   1      38.352  31.145  28.920  1.00  0.00     0.010 A 
ATOM     12  C   UNL A   1      37.414  28.981  28.415  1.00  0.00     0.010 A 
ATOM     13  C   UNL A   1      38.515  29.775  28.724  1.00  0.00    -0.014 A 
BRANCH  13  14
ATOM     14  C   UNL A   1      39.849  29.231  28.966  1.00  0.00     0.031 A 
ATOM     15  C   UNL A   1      40.275  29.169  30.397  1.00  0.00     0.074 A 
ATOM     16  C   UNL A   1      40.627  28.701  28.004  1.00  0.00     0.049 A 
ATOM     17  N   UNL A   1      41.299  29.721  30.968  1.00  0.00    -0.248 NA
ATOM     18  C   UNL A   1      39.388  28.452  31.326  1.00  0.00     0.031 C 
ATOM     19  C   UNL A   1      40.269  28.389  26.620  1.00  0.00     0.029 A 
ATOM     20  N   UNL A   1      41.898  28.222  28.116  1.00  0.00    -0.354 N 
ATOM     21  C   UNL A   1      41.290  29.277  32.291  1.00  0.00     0.074 A 
ATOM     22  C   UNL A   1      40.034  28.597  32.483  1.00  0.00     0.031 C 
ATOM     23  C   UNL A   1      41.210  27.574  26.095  1.00  0.00     0.029 A 
ATOM     24  C   UNL A   1      42.291  27.423  27.054  1.00  0.00     0.049 A 
ATOM     25  H   UNL A   1      42.484  28.424  28.880  1.00  0.00     0.167 HD
ATOM     26  C   UNL A   1      42.383  29.348  33.101  1.00  0.00     0.037 A 
ATOM     27  C   UNL A   1      43.386  26.626  27.008  1.00  0.00     0.037 A 
ATOM     28  C   UNL A   1      43.360  30.278  32.609  1.00  0.00     0.049 A 
ATOM     29  C   UNL A   1      44.349  27.115  28.028  1.00  0.00     0.074 A 
ATOM     30  C   UNL A   1      43.375  31.637  32.362  1.00  0.00     0.029 A 
ATOM     31  N   UNL A   1      44.488  29.781  32.007  1.00  0.00    -0.354 N 
ATOM     32  N   UNL A   1      44.971  28.262  27.969  1.00  0.00    -0.248 NA
ATOM     33  C   UNL A   1      44.347  26.478  29.336  1.00  0.00     0.031 C 
ATOM     34  C   UNL A   1      44.234  31.801  31.236  1.00  0.00     0.029 A 
ATOM     35  C   UNL A   1      44.701  30.534  30.882  1.00  0.00     0.049 A 
ATOM     36  H   UNL A   1      45.039  29.027  32.323  1.00  0.00     0.167 HD
ATOM     37  C   UNL A   1      45.088  28.675  29.287  1.00  0.00     0.074 A 
ATOM     38  C   UNL A   1      44.789  27.490  30.083  1.00  0.00     0.031 C 
ATOM     39  C   UNL A   1      45.156  29.998  29.618  1.00  0.00     0.037 A 
BRANCH  26  40
ATOM     40  C   UNL A   1      42.704  28.353  34.193  1.00  0.00     0.058 A 
ATOM     41  C   UNL A   1      42.703  28.765  35.542  1.00  0.00     0.135 A 
ATOM     42  C   UNL A   1      43.290  27.093  33.941  1.00  0.00     0.135 A 
ATOM     43  F   UNL A   1      42.176  29.948  35.895  1.00  0.00    -0.206 F 
ATOM     44  C   UNL A   1      43.310  28.018  36.553  1.00  0.00     0.059 A 
ATOM     45  C   UNL A   1      43.853  26.307  34.942  1.00  0.00     0.059 A 
ATOM     46  F   UNL A   1      43.435  26.612  32.699  1.00  0.00    -0.206 F 
ATOM     47  C   UNL A   1      43.902  26.799  36.237  1.00  0.00     0.060 A 
BRANCH  47  48
ATOM     48  S   UNL A   1      44.814  25.901  37.506  1.00  0.00     0.124 S 
ATOM     49  O   UNL A   1      44.348  26.565  38.718  1.00  0.00    -0.237 OA
ATOM     50  O   UNL A   1      44.348  24.533  37.307  1.00  0.00    -0.237 OA
ATOM     51  O   UNL A   1      46.209  26.142  37.148  1.00  0.00    -0.744 OA
ENDBRANCH  47  48
ENDBRANCH  26  40
BRANCH  27  52
ATOM     52  C   UNL A   1      43.488  25.283  26.382  1.00  0.00     0.058 A 
ATOM     53  C   UNL A   1      44.383  25.035  25.328  1.00  0.00     0.135 A 
ATOM     54  C   UNL A   1      42.900  24.149  26.982  1.00  0.00     0.135 A 
ATOM     55  F   UNL A   1      45.012  26.053  24.723  1.00  0.00    -0.206 F 
ATOM     56  C   UNL A   1      44.702  23.737  24.916  1.00  0.00     0.059 A 
ATOM     57  C   UNL A   1      43.190  22.850  26.578  1.00  0.00     0.059 A 
ATOM     58  F   UNL A   1      42.092  24.268  28.047  1.00  0.00    -0.206 F 
ATOM     59  C   UNL A   1      44.112  22.649  25.559  1.00  0.00     0.060 A 
BRANCH  59  60
ATOM     60  S   UNL A   1      44.642  20.972  25.142  1.00  0.00     0.124 S 
ATOM     61  O   UNL A   1      45.994  20.940  25.689  1.00  0.00    -0.237 OA
ATOM     62  O   UNL A   1      43.652  20.155  25.835  1.00  0.00    -0.237 OA
ATOM     63  O   UNL A   1      44.558  20.943  23.684  1.00  0.00    -0.744 OA
ENDBRANCH  59  60
ENDBRANCH  27  52
BRANCH  39  64
ATOM     64  C   UNL A   1      45.433  31.001  28.531  1.00  0.00     0.058 A 
ATOM     65  C   UNL A   1      44.450  31.504  27.663  1.00  0.00     0.135 A 
ATOM     66  C   UNL A   1      46.694  31.617  28.502  1.00  0.00     0.135 A 
ATOM     67  F   UNL A   1      43.194  31.038  27.700  1.00  0.00    -0.206 F 
ATOM     68  C   UNL A   1      44.714  32.562  26.791  1.00  0.00     0.059 A 
ATOM     69  C   UNL A   1      46.970  32.694  27.662  1.00  0.00     0.059 A 
ATOM     70  F   UNL A   1      47.656  31.221  29.352  1.00  0.00    -0.206 F 
ATOM     71  C   UNL A   1      45.975  33.159  26.806  1.00  0.00     0.060 A 
BRANCH  71  72
ATOM     72  S   UNL A   1      46.267  34.619  25.783  1.00  0.00     0.124 S 
ATOM     73  O   UNL A   1      47.680  34.481  25.446  1.00  0.00    -0.237 OA
ATOM     74  O   UNL A   1      45.330  34.426  24.679  1.00  0.00    -0.237 OA
ATOM     75  O   UNL A   1      45.942  35.730  26.673  1.00  0.00    -0.744 OA
ENDBRANCH  71  72
ENDBRANCH  39  64
ENDBRANCH  13  14
ENDBRANCH   6   8
ENDBRANCH   3   4
ENDBRANCH   2   3
ENDBRANCH   1   2
BRANCH   1  76
ATOM     76  N   UNL A   1      31.087  27.009  26.584  1.00  0.00    -0.351 N 
ATOM     77  C   UNL A   1      30.750  26.563  25.338  1.00  0.00     0.262 C 
ATOM     78  H   UNL A   1      31.060  26.323  27.290  1.00  0.00     0.163 HD
ATOM     79  O   UNL A   1      30.311  25.413  25.276  1.00  0.00    -0.268 OA
BRANCH  77  80
ATOM     80  C   UNL A   1      30.843  27.438  24.193  1.00  0.00     0.112 A 
ATOM     81  S   UNL A   1      29.329  28.107  23.685  1.00  0.00    -0.137 S 
ATOM     82  C   UNL A   1      31.866  27.828  23.345  1.00  0.00     0.111 A 
ATOM     83  C   UNL A   1      30.043  28.977  22.412  1.00  0.00     0.067 A 
ATOM     84  C   UNL A   1      31.396  28.751  22.344  1.00  0.00     0.035 A 
BRANCH  82  85
ATOM     85  S   UNL A   1      33.537  27.347  23.302  1.00  0.00     0.263 S 
ATOM     86  O   UNL A   1      33.586  26.427  22.188  1.00  0.00    -0.201 OA
ATOM     87  O   UNL A   1      34.229  28.621  23.241  1.00  0.00    -0.201 OA
BRANCH  85  88
ATOM     88  N   UNL A   1      34.151  26.582  24.638  1.00  0.00    -0.280 N 
ATOM     89  H   UNL A   1      34.391  27.151  25.406  1.00  0.00     0.180 HD
BRANCH  88  90
ATOM     90  C   UNL A   1      34.362  25.195  24.777  1.00  0.00     0.049 A 
ATOM     91  C   UNL A   1      33.697  24.567  25.832  1.00  0.00     0.027 A 
ATOM     92  C   UNL A   1      35.059  24.427  23.858  1.00  0.00     0.027 A 
ATOM     93  C   UNL A   1      33.554  23.175  25.857  1.00  0.00     0.014 A 
ATOM     94  C   UNL A   1      34.914  23.039  23.887  1.00  0.00     0.014 A 
ATOM     95  C   UNL A   1      34.090  22.396  24.833  1.00  0.00     0.018 A 
BRANCH  95  96
ATOM     96  C   UNL A   1      33.811  20.964  24.612  1.00  0.00     0.145 A 
ATOM     97  N   UNL A   1      34.540  20.019  25.186  1.00  0.00    -0.228 NA
ATOM     98  N   UNL A   1      32.932  20.380  23.712  1.00  0.00    -0.266 N 
ATOM     99  C   UNL A   1      34.234  18.846  24.566  1.00  0.00     0.089 A 
ATOM    100  C   UNL A   1      33.226  19.028  23.629  1.00  0.00     0.074 A 
ATOM    101  C   UNL A   1      34.803  17.579  24.748  1.00  0.00     0.030 A 
ATOM    102  C   UNL A   1      32.740  17.971  22.845  1.00  0.00     0.029 A 
ATOM    103  C   UNL A   1      34.339  16.514  23.970  1.00  0.00     0.002 A 
ATOM    104  C   UNL A   1      33.323  16.711  23.035  1.00  0.00     0.002 A 
BRANCH  98 105
ATOM    105  C   UNL A   1      31.888  21.024  22.946  1.00  0.00     0.451 C 
ATOM    106  F   UNL A   1      31.376  22.091  23.618  1.00  0.00    -0.185 F 
ATOM    107  F   UNL A   1      32.322  21.483  21.743  1.00  0.00    -0.185 F 
ENDBRANCH  98 105
ENDBRANCH  95  96
ENDBRANCH  88  90
ENDBRANCH  85  88
ENDBRANCH  82  85
ENDBRANCH  77  80
ENDBRANCH   1  76
TORSDOF 18
ENDMDL
MODEL 2
REMARK VINA RESULT:     -13.3      3.124      9.956
REMARK SMILES O=C(NCCCNC(=O)c1sccc1S(=O)(=O)Nc1ccc(-c2nc3ccccc3n2C(F)F)cc1)c1ccc(-c2c3nc(c(-c4c(F)cc(S(=O)(=O)[O-])cc4F)c4ccc([nH]4)c(-c4c(F)cc(S(=O)(=O)[O-])cc4F)c4nc(c(-c5c(F)cc(S(=O)(=O)[O-])cc5F)c5ccc2[nH]5)C=C4)C=C3)cc1
REMARK SMILES IDX 6 1 5 2 4 3 3 4 1 5 2 6 37 8 38 9 102 10 39 11 101 12 40 13
REMARK SMILES IDX 41 14 42 15 95 16 43 17 100 18 94 19 96 20 44 21 99 22 93 23
REMARK SMILES IDX 92 24 45 26 79 27 58 28 78 29 59 30 62 31 77 32 97 33 60 34
REMARK SMILES IDX 61 35 76 37 98 38 63 39 46 40 47 41 56 42 48 43 49 44 55 45
REMARK SMILES IDX 57 46 50 47 51 48 52 49 53 50 54 51 80 52 81 53 90 54 82 55
REMARK SMILES IDX 83 56 89 57 91 58 84 59 85 60 86 61 87 62 88 63 64 64 65 65
REMARK SMILES IDX 74 66 66 67 67 68 73 69 75 70 68 71 69 72 70 73 71 74 72 75
REMARK SMILES IDX 7 76 8 77 9 79 10 80 11 81 14 82 12 83 13 84 15 85 16 86
REMARK SMILES IDX 17 87 18 88 19 90 20 91 36 92 21 93 35 94 22 95 23 96 24 97
REMARK SMILES IDX 31 98 25 99 30 100 26 101 29 102 27 103 28 104 32 105 33 106
REMARK SMILES IDX 34 107
REMARK H PARENT 3 7 96 25 62 36 7 78 18 89
REMARK Flexibility Score: inf
ROOT
ATOM      1  C   UNL A   1      36.032  23.492  24.288  1.00  0.00     0.118 C 
ENDROOT
BRANCH   1   2
ATOM      2  C   UNL A   1      37.143  23.612  25.321  1.00  0.00     0.042 C 
BRANCH   2   3
ATOM      3  C   UNL A   1      37.638  22.276  25.895  1.00  0.00     0.118 C 
BRANCH   3   4
ATOM      4  N   UNL A   1      39.031  21.967  25.642  1.00  0.00    -0.352 N 
ATOM      5  O   UNL A   1      41.226  21.818  25.809  1.00  0.00    -0.269 OA
ATOM      6  C   UNL A   1      40.219  22.463  26.111  1.00  0.00     0.251 C 
ATOM      7  H   UNL A   1      39.151  21.240  24.989  1.00  0.00     0.163 HD
BRANCH   6   8
ATOM      8  C   UNL A   1      40.366  23.721  26.895  1.00  0.00     0.039 A 
ATOM      9  C   UNL A   1      39.720  24.922  26.608  1.00  0.00     0.014 A 
ATOM     10  C   UNL A   1      41.262  23.688  27.978  1.00  0.00     0.014 A 
ATOM     11  C   UNL A   1      40.043  26.084  27.295  1.00  0.00     0.010 A 
ATOM     12  C   UNL A   1      41.553  24.841  28.705  1.00  0.00     0.010 A 
ATOM     13  C   UNL A   1      40.972  26.049  28.333  1.00  0.00    -0.014 A 
BRANCH  13  14
ATOM     14  C   UNL A   1      41.201  27.301  29.050  1.00  0.00     0.031 A 
ATOM     15  C   UNL A   1      42.288  28.170  28.507  1.00  0.00     0.074 A 
ATOM     16  C   UNL A   1      40.430  27.736  30.063  1.00  0.00     0.049 A 
ATOM     17  N   UNL A   1      43.361  28.599  29.094  1.00  0.00    -0.248 NA
ATOM     18  C   UNL A   1      42.195  28.546  27.087  1.00  0.00     0.031 C 
ATOM     19  C   UNL A   1      39.154  27.190  30.528  1.00  0.00     0.029 A 
ATOM     20  N   UNL A   1      40.591  28.853  30.828  1.00  0.00    -0.354 N 
ATOM     21  C   UNL A   1      43.991  29.445  28.181  1.00  0.00     0.074 A 
ATOM     22  C   UNL A   1      43.294  29.284  26.930  1.00  0.00     0.031 C 
ATOM     23  C   UNL A   1      38.552  28.098  31.327  1.00  0.00     0.029 A 
ATOM     24  C   UNL A   1      39.457  29.216  31.536  1.00  0.00     0.049 A 
ATOM     25  H   UNL A   1      41.436  29.355  30.873  1.00  0.00     0.167 HD
ATOM     26  C   UNL A   1      44.939  30.353  28.547  1.00  0.00     0.037 A 
ATOM     27  C   UNL A   1      39.248  30.393  32.173  1.00  0.00     0.037 A 
ATOM     28  C   UNL A   1      45.503  30.055  29.833  1.00  0.00     0.049 A 
ATOM     29  C   UNL A   1      40.573  31.013  32.431  1.00  0.00     0.074 A 
ATOM     30  C   UNL A   1      46.216  28.998  30.364  1.00  0.00     0.029 A 
ATOM     31  N   UNL A   1      45.111  30.813  30.908  1.00  0.00    -0.354 N 
ATOM     32  N   UNL A   1      41.468  30.533  33.251  1.00  0.00    -0.248 NA
ATOM     33  C   UNL A   1      41.069  31.995  31.478  1.00  0.00     0.031 C 
ATOM     34  C   UNL A   1      45.806  28.919  31.727  1.00  0.00     0.029 A 
ATOM     35  C   UNL A   1      44.883  29.944  31.943  1.00  0.00     0.049 A 
ATOM     36  H   UNL A   1      45.013  31.793  30.930  1.00  0.00     0.167 HD
ATOM     37  C   UNL A   1      42.689  30.841  32.672  1.00  0.00     0.074 A 
ATOM     38  C   UNL A   1      42.382  31.833  31.648  1.00  0.00     0.031 C 
ATOM     39  C   UNL A   1      43.797  30.074  32.889  1.00  0.00     0.037 A 
BRANCH  26  40
ATOM     40  C   UNL A   1      45.153  31.687  27.869  1.00  0.00     0.058 A 
ATOM     41  C   UNL A   1      46.376  31.957  27.221  1.00  0.00     0.135 A 
ATOM     42  C   UNL A   1      44.316  32.804  28.081  1.00  0.00     0.135 A 
ATOM     43  F   UNL A   1      47.253  30.971  26.973  1.00  0.00    -0.206 F 
ATOM     44  C   UNL A   1      46.773  33.252  26.882  1.00  0.00     0.059 A 
ATOM     45  C   UNL A   1      44.668  34.096  27.702  1.00  0.00     0.059 A 
ATOM     46  F   UNL A   1      43.163  32.709  28.756  1.00  0.00    -0.206 F 
ATOM     47  C   UNL A   1      45.919  34.318  27.149  1.00  0.00     0.060 A 
BRANCH  47  48
ATOM     48  S   UNL A   1      46.483  36.003  26.850  1.00  0.00     0.124 S 
ATOM     49  O   UNL A   1      47.062  36.345  28.144  1.00  0.00    -0.237 OA
ATOM     50  O   UNL A   1      47.429  35.819  25.755  1.00  0.00    -0.237 OA
ATOM     51  O   UNL A   1      45.254  36.709  26.499  1.00  0.00    -0.744 OA
ENDBRANCH  47  48
ENDBRANCH  26  40
BRANCH  27  52
ATOM     52  C   UNL A   1      37.974  31.152  32.252  1.00  0.00     0.058 A 
ATOM     53  C   UNL A   1      37.350  31.404  33.486  1.00  0.00     0.135 A 
ATOM     54  C   UNL A   1      37.481  31.875  31.145  1.00  0.00     0.135 A 
ATOM     55  F   UNL A   1      37.777  30.785  34.596  1.00  0.00    -0.206 F 
ATOM     56  C   UNL A   1      36.321  32.341  33.619  1.00  0.00     0.059 A 
ATOM     57  C   UNL A   1      36.448  32.801  31.251  1.00  0.00     0.059 A 
ATOM     58  F   UNL A   1      38.056  31.769  29.937  1.00  0.00    -0.206 F 
ATOM     59  C   UNL A   1      35.888  33.048  32.497  1.00  0.00     0.060 A 
BRANCH  59  60
ATOM     60  S   UNL A   1      34.675  34.373  32.692  1.00  0.00     0.124 S 
ATOM     61  O   UNL A   1      34.493  34.819  31.314  1.00  0.00    -0.237 OA
ATOM     62  O   UNL A   1      33.545  33.671  33.290  1.00  0.00    -0.237 OA
ATOM     63  O   UNL A   1      35.349  35.324  33.570  1.00  0.00    -0.744 OA
ENDBRANCH  59  60
ENDBRANCH  27  52
BRANCH  39  64
ATOM     64  C   UNL A   1      43.777  29.081  34.020  1.00  0.00     0.058 A 
ATOM     65  C   UNL A   1      44.151  29.391  35.338  1.00  0.00     0.135 A 
ATOM     66  C   UNL A   1      43.171  27.835  33.799  1.00  0.00     0.135 A 
ATOM     67  F   UNL A   1      44.643  30.598  35.649  1.00  0.00    -0.206 F 
ATOM     68  C   UNL A   1      43.947  28.494  36.388  1.00  0.00     0.059 A 
ATOM     69  C   UNL A   1      42.931  26.937  34.836  1.00  0.00     0.059 A 
ATOM     70  F   UNL A   1      42.736  27.507  32.570  1.00  0.00    -0.206 F 
ATOM     71  C   UNL A   1      43.325  27.272  36.129  1.00  0.00     0.060 A 
BRANCH  71  72
ATOM     72  S   UNL A   1      42.932  26.177  37.511  1.00  0.00     0.124 S 
ATOM     73  O   UNL A   1      43.305  24.869  36.983  1.00  0.00    -0.237 OA
ATOM     74  O   UNL A   1      43.782  26.695  38.580  1.00  0.00    -0.237 OA
ATOM     75  O   UNL A   1      41.501  26.384  37.715  1.00  0.00    -0.744 OA
ENDBRANCH  71  72
ENDBRANCH  39  64
ENDBRANCH  13  14
ENDBRANCH   6   8
ENDBRANCH   3   4
ENDBRANCH   2   3
ENDBRANCH   1   2
BRANCH   1  76
ATOM     76  N   UNL A   1      35.613  22.119  24.110  1.00  0.00    -0.351 N 
ATOM     77  C   UNL A   1      34.630  21.407  24.736  1.00  0.00     0.262 C 
ATOM     78  H   UNL A   1      36.117  21.618  23.430  1.00  0.00     0.163 HD
ATOM     79  O   UNL A   1      34.597  20.200  24.488  1.00  0.00    -0.268 OA
BRANCH  77  80
ATOM     80  C   UNL A   1      33.748  22.045  25.684  1.00  0.00     0.112 A 
ATOM     81  S   UNL A   1      33.961  21.520  27.319  1.00  0.00    -0.137 S 
ATOM     82  C   UNL A   1      32.704  22.951  25.587  1.00  0.00     0.111 A 
ATOM     83  C   UNL A   1      32.745  22.553  27.900  1.00  0.00     0.067 A 
ATOM     84  C   UNL A   1      32.160  23.266  26.883  1.00  0.00     0.035 A 
BRANCH  82  85
ATOM     85  S   UNL A   1      31.974  23.681  24.188  1.00  0.00     0.263 S 
ATOM     86  O   UNL A   1      32.924  23.400  23.136  1.00  0.00    -0.201 OA
ATOM     87  O   UNL A   1      30.653  23.080  24.172  1.00  0.00    -0.201 OA
BRANCH  85  88
ATOM     88  N   UNL A   1      31.707  25.317  24.226  1.00  0.00    -0.280 N 
ATOM     89  H   UNL A   1      31.175  25.698  23.490  1.00  0.00     0.180 HD
BRANCH  88  90
ATOM     90  C   UNL A   1      32.171  26.212  25.212  1.00  0.00     0.049 A 
ATOM     91  C   UNL A   1      33.533  26.518  25.184  1.00  0.00     0.027 A 
ATOM     92  C   UNL A   1      31.338  26.890  26.087  1.00  0.00     0.027 A 
ATOM     93  C   UNL A   1      34.027  27.632  25.871  1.00  0.00     0.014 A 
ATOM     94  C   UNL A   1      31.836  28.000  26.771  1.00  0.00     0.014 A 
ATOM     95  C   UNL A   1      33.165  28.442  26.608  1.00  0.00     0.018 A 
BRANCH  95  96
ATOM     96  C   UNL A   1      33.505  29.761  27.174  1.00  0.00     0.145 A 
ATOM     97  N   UNL A   1      32.608  30.732  27.259  1.00  0.00    -0.228 NA
ATOM     98  N   UNL A   1      34.751  30.257  27.532  1.00  0.00    -0.266 N 
ATOM     99  C   UNL A   1      33.287  31.879  27.535  1.00  0.00     0.089 A 
ATOM    100  C   UNL A   1      34.639  31.626  27.714  1.00  0.00     0.074 A 
ATOM    101  C   UNL A   1      32.799  33.190  27.629  1.00  0.00     0.030 A 
ATOM    102  C   UNL A   1      35.556  32.650  27.996  1.00  0.00     0.029 A 
ATOM    103  C   UNL A   1      33.698  34.225  27.901  1.00  0.00     0.002 A 
ATOM    104  C   UNL A   1      35.054  33.955  28.082  1.00  0.00     0.002 A 
BRANCH  98 105
ATOM    105  C   UNL A   1      35.988  29.524  27.679  1.00  0.00     0.451 C 
ATOM    106  F   UNL A   1      36.977  30.077  26.926  1.00  0.00    -0.185 F 
ATOM    107  F   UNL A   1      36.435  29.496  28.963  1.00  0.00    -0.185 F 
ENDBRANCH  98 105
ENDBRANCH  95  96
ENDBRANCH  88  90
ENDBRANCH  85  88
ENDBRANCH  82  85
ENDBRANCH  77  80
ENDBRANCH   1  76
TORSDOF 18
ENDMDL
MODEL 3
REMARK VINA RESULT:     -13.2      3.087      9.723
REMARK SMILES O=C(NCCCNC(=O)c1sccc1S(=O)(=O)Nc1ccc(-c2nc3ccccc3n2C(F)F)cc1)c1ccc(-c2c3nc(c(-c4c(F)cc(S(=O)(=O)[O-])cc4F)c4ccc([nH]4)c(-c4c(F)cc(S(=O)(=O)[O-])cc4F)c4nc(c(-c5c(F)cc(S(=O)(=O)[O-])cc5F)c5ccc2[nH]5)C=C4)C=C3)cc1
REMARK SMILES IDX 6 1 5 2 4 3 3 4 1 5 2 6 37 8 38 9 102 10 39 11 101 12 40 13
REMARK SMILES IDX 41 14 42 15 95 16 43 17 100 18 94 19 96 20 44 21 99 22 93 23
REMARK SMILES IDX 92 24 45 26 79 27 58 28 78 29 59 30 62 31 77 32 97 33 60 34
REMARK SMILES IDX 61 35 76 37 98 38 63 39 46 40 47 41 56 42 48 43 49 44 55 45
REMARK SMILES IDX 57 46 50 47 51 48 52 49 53 50 54 51 80 52 81 53 90 54 82 55
REMARK SMILES IDX 83 56 89 57 91 58 84 59 85 60 86 61 87 62 88 63 64 64 65 65
REMARK SMILES IDX 74 66 66 67 67 68 73 69 75 70 68 71 69 72 70 73 71 74 72 75
REMARK SMILES IDX 7 76 8 77 9 79 10 80 11 81 14 82 12 83 13 84 15 85 16 86
REMARK SMILES IDX 17 87 18 88 19 90 20 91 36 92 21 93 35 94 22 95 23 96 24 97
REMARK SMILES IDX 31 98 25 99 30 100 26 101 29 102 27 103 28 104 32 105 33 106
REMARK SMILES IDX 34 107
REMARK H PARENT 3 7 96 25 62 36 7 78 18 89
REMARK Flexibility Score: inf
ROOT
ATOM      1  C   UNL A   1      36.781  23.140  24.694  1.00  0.00     0.118 C 
ENDROOT
BRANCH   1   2
ATOM      2  C   UNL A   1      37.767  23.471  25.806  1.00  0.00     0.042 C 
BRANCH   2   3
ATOM      3  C   UNL A   1      38.604  22.283  26.300  1.00  0.00     0.118 C 
BRANCH   3   4
ATOM      4  N   UNL A   1      39.921  22.157  25.706  1.00  0.00    -0.352 N 
ATOM      5  O   UNL A   1      42.090  22.294  25.329  1.00  0.00    -0.269 OA
ATOM      6  C   UNL A   1      41.115  22.802  25.888  1.00  0.00     0.251 C 
ATOM      7  H   UNL A   1      39.967  21.452  25.020  1.00  0.00     0.163 HD
BRANCH   6   8
ATOM      8  C   UNL A   1      41.291  24.068  26.653  1.00  0.00     0.039 A 
ATOM      9  C   UNL A   1      41.948  24.178  27.877  1.00  0.00     0.014 A 
ATOM     10  C   UNL A   1      40.707  25.224  26.104  1.00  0.00     0.014 A 
ATOM     11  C   UNL A   1      41.922  25.366  28.594  1.00  0.00     0.010 A 
ATOM     12  C   UNL A   1      40.720  26.433  26.796  1.00  0.00     0.010 A 
ATOM     13  C   UNL A   1      41.294  26.491  28.063  1.00  0.00    -0.014 A 
BRANCH  13  14
ATOM     14  C   UNL A   1      41.373  27.719  28.849  1.00  0.00     0.031 A 
ATOM     15  C   UNL A   1      42.455  28.672  28.458  1.00  0.00     0.074 A 
ATOM     16  C   UNL A   1      40.477  28.063  29.793  1.00  0.00     0.049 A 
ATOM     17  N   UNL A   1      43.434  29.132  29.171  1.00  0.00    -0.248 NA
ATOM     18  C   UNL A   1      42.485  29.106  27.052  1.00  0.00     0.031 C 
ATOM     19  C   UNL A   1      39.196  27.426  30.100  1.00  0.00     0.029 A 
ATOM     20  N   UNL A   1      40.492  29.151  30.614  1.00  0.00    -0.354 N 
ATOM     21  C   UNL A   1      44.102  30.054  28.363  1.00  0.00     0.074 A 
ATOM     22  C   UNL A   1      43.548  29.911  27.040  1.00  0.00     0.031 C 
ATOM     23  C   UNL A   1      38.462  28.261  30.867  1.00  0.00     0.029 A 
ATOM     24  C   UNL A   1      39.271  29.418  31.213  1.00  0.00     0.049 A 
ATOM     25  H   UNL A   1      41.296  29.698  30.767  1.00  0.00     0.167 HD
ATOM     26  C   UNL A   1      44.951  30.995  28.862  1.00  0.00     0.037 A 
ATOM     27  C   UNL A   1      38.928  30.551  31.871  1.00  0.00     0.037 A 
ATOM     28  C   UNL A   1      45.398  30.670  30.187  1.00  0.00     0.049 A 
ATOM     29  C   UNL A   1      40.180  31.231  32.291  1.00  0.00     0.074 A 
ATOM     30  C   UNL A   1      46.116  29.632  30.747  1.00  0.00     0.029 A 
ATOM     31  N   UNL A   1      44.854  31.355  31.244  1.00  0.00    -0.354 N 
ATOM     32  N   UNL A   1      41.014  30.765  33.181  1.00  0.00    -0.248 NA
ATOM     33  C   UNL A   1      40.710  32.282  31.436  1.00  0.00     0.031 C 
ATOM     34  C   UNL A   1      45.574  29.467  32.055  1.00  0.00     0.029 A 
ATOM     35  C   UNL A   1      44.574  30.429  32.214  1.00  0.00     0.049 A 
ATOM     36  H   UNL A   1      44.695  32.326  31.295  1.00  0.00     0.167 HD
ATOM     37  C   UNL A   1      42.267  31.167  32.745  1.00  0.00     0.074 A 
ATOM     38  C   UNL A   1      42.007  32.186  31.735  1.00  0.00     0.031 C 
ATOM     39  C   UNL A   1      43.391  30.454  33.047  1.00  0.00     0.037 A 
BRANCH  26  40
ATOM     40  C   UNL A   1      45.152  32.368  28.264  1.00  0.00     0.058 A 
ATOM     41  C   UNL A   1      46.440  32.776  27.858  1.00  0.00     0.135 A 
ATOM     42  C   UNL A   1      44.185  33.394  28.342  1.00  0.00     0.135 A 
ATOM     43  F   UNL A   1      47.439  31.885  27.754  1.00  0.00    -0.206 F 
ATOM     44  C   UNL A   1      46.763  34.114  27.626  1.00  0.00     0.059 A 
ATOM     45  C   UNL A   1      44.471  34.727  28.062  1.00  0.00     0.059 A 
ATOM     46  F   UNL A   1      42.944  33.166  28.791  1.00  0.00    -0.206 F 
ATOM     47  C   UNL A   1      45.774  35.085  27.753  1.00  0.00     0.060 A 
BRANCH  47  48
ATOM     48  S   UNL A   1      46.215  36.826  27.599  1.00  0.00     0.124 S 
ATOM     49  O   UNL A   1      47.084  37.005  28.756  1.00  0.00    -0.237 OA
ATOM     50  O   UNL A   1      46.868  36.862  26.296  1.00  0.00    -0.237 OA
ATOM     51  O   UNL A   1      44.923  37.504  27.667  1.00  0.00    -0.744 OA
ENDBRANCH  47  48
ENDBRANCH  26  40
BRANCH  27  52
ATOM     52  C   UNL A   1      37.609  31.232  31.848  1.00  0.00     0.058 A 
ATOM     53  C   UNL A   1      36.939  31.569  33.036  1.00  0.00     0.135 A 
ATOM     54  C   UNL A   1      37.103  31.807  30.663  1.00  0.00     0.135 A 
ATOM     55  F   UNL A   1      37.373  31.093  34.212  1.00  0.00    -0.206 F 
ATOM     56  C   UNL A   1      35.852  32.448  33.052  1.00  0.00     0.059 A 
ATOM     57  C   UNL A   1      36.013  32.673  30.652  1.00  0.00     0.059 A 
ATOM     58  F   UNL A   1      37.714  31.616  29.483  1.00  0.00    -0.206 F 
ATOM     59  C   UNL A   1      35.407  33.009  31.855  1.00  0.00     0.060 A 
BRANCH  59  60
ATOM     60  S   UNL A   1      34.112  34.269  31.888  1.00  0.00     0.124 S 
ATOM     61  O   UNL A   1      33.649  34.262  30.504  1.00  0.00    -0.237 OA
ATOM     62  O   UNL A   1      33.182  33.729  32.874  1.00  0.00    -0.237 OA
ATOM     63  O   UNL A   1      34.822  35.476  32.302  1.00  0.00    -0.744 OA
ENDBRANCH  59  60
ENDBRANCH  27  52
BRANCH  39  64
ATOM     64  C   UNL A   1      43.316  29.410  34.129  1.00  0.00     0.058 A 
ATOM     65  C   UNL A   1      43.459  29.693  35.497  1.00  0.00     0.135 A 
ATOM     66  C   UNL A   1      42.887  28.121  33.779  1.00  0.00     0.135 A 
ATOM     67  F   UNL A   1      43.766  30.928  35.917  1.00  0.00    -0.206 F 
ATOM     68  C   UNL A   1      43.204  28.730  36.475  1.00  0.00     0.059 A 
ATOM     69  C   UNL A   1      42.599  27.154  34.739  1.00  0.00     0.059 A 
ATOM     70  F   UNL A   1      42.673  27.810  32.489  1.00  0.00    -0.206 F 
ATOM     71  C   UNL A   1      42.762  27.465  36.086  1.00  0.00     0.060 A 
BRANCH  71  72
ATOM     72  S   UNL A   1      42.295  26.270  37.358  1.00  0.00     0.124 S 
ATOM     73  O   UNL A   1      43.224  26.590  38.437  1.00  0.00    -0.237 OA
ATOM     74  O   UNL A   1      40.895  26.601  37.607  1.00  0.00    -0.237 OA
ATOM     75  O   UNL A   1      42.512  24.979  36.709  1.00  0.00    -0.744 OA
ENDBRANCH  71  72
ENDBRANCH  39  64
ENDBRANCH  13  14
ENDBRANCH   6   8
ENDBRANCH   3   4
ENDBRANCH   2   3
ENDBRANCH   1   2
BRANCH   1  76
ATOM     76  N   UNL A   1      36.539  21.717  24.600  1.00  0.00    -0.351 N 
ATOM     77  C   UNL A   1      35.449  20.980  24.967  1.00  0.00     0.262 C 
ATOM     78  H   UNL A   1      37.278  21.197  24.210  1.00  0.00     0.163 HD
ATOM     79  O   UNL A   1      35.582  19.755  24.909  1.00  0.00    -0.268 OA
BRANCH  77  80
ATOM     80  C   UNL A   1      34.256  21.625  25.460  1.00  0.00     0.112 A 
ATOM     81  S   UNL A   1      34.159  21.717  27.185  1.00  0.00    -0.137 S 
ATOM     82  C   UNL A   1      33.113  22.142  24.871  1.00  0.00     0.111 A 
ATOM     83  C   UNL A   1      32.661  22.518  27.144  1.00  0.00     0.067 A 
ATOM     84  C   UNL A   1      32.217  22.692  25.856  1.00  0.00     0.035 A 
BRANCH  82  85
ATOM     85  S   UNL A   1      32.623  22.173  23.203  1.00  0.00     0.263 S 
ATOM     86  O   UNL A   1      33.769  22.742  22.533  1.00  0.00    -0.201 OA
ATOM     87  O   UNL A   1      32.233  20.795  22.964  1.00  0.00    -0.201 OA
BRANCH  85  88
ATOM     88  N   UNL A   1      31.289  23.076  22.811  1.00  0.00    -0.280 N 
ATOM     89  H   UNL A   1      30.522  22.593  22.424  1.00  0.00     0.180 HD
BRANCH  88  90
ATOM     90  C   UNL A   1      31.150  24.469  22.979  1.00  0.00     0.049 A 
ATOM     91  C   UNL A   1      30.254  24.890  23.964  1.00  0.00     0.027 A 
ATOM     92  C   UNL A   1      31.943  25.404  22.335  1.00  0.00     0.027 A 
ATOM     93  C   UNL A   1      30.293  26.202  24.449  1.00  0.00     0.014 A 
ATOM     94  C   UNL A   1      31.978  26.712  22.821  1.00  0.00     0.014 A 
ATOM     95  C   UNL A   1      31.220  27.111  23.941  1.00  0.00     0.018 A 
BRANCH  95  96
ATOM     96  C   UNL A   1      31.527  28.433  24.518  1.00  0.00     0.145 A 
ATOM     97  N   UNL A   1      32.507  28.597  25.395  1.00  0.00    -0.228 NA
ATOM     98  N   UNL A   1      30.811  29.617  24.408  1.00  0.00    -0.266 N 
ATOM     99  C   UNL A   1      32.346  29.830  25.949  1.00  0.00     0.089 A 
ATOM    100  C   UNL A   1      31.289  30.506  25.357  1.00  0.00     0.074 A 
ATOM    101  C   UNL A   1      33.069  30.429  26.989  1.00  0.00     0.030 A 
ATOM    102  C   UNL A   1      30.910  31.795  25.763  1.00  0.00     0.029 A 
ATOM    103  C   UNL A   1      32.702  31.709  27.413  1.00  0.00     0.002 A 
ATOM    104  C   UNL A   1      31.639  32.379  26.807  1.00  0.00     0.002 A 
BRANCH  98 105
ATOM    105  C   UNL A   1      29.730  29.917  23.496  1.00  0.00     0.451 C 
ATOM    106  F   UNL A   1      30.197  30.123  22.234  1.00  0.00    -0.185 F 
ATOM    107  F   UNL A   1      28.811  28.918  23.421  1.00  0.00    -0.185 F 
ENDBRANCH  98 105
ENDBRANCH  95  96
ENDBRANCH  88  90
ENDBRANCH  85  88
ENDBRANCH  82  85
ENDBRANCH  77  80
ENDBRANCH   1  76
TORSDOF 18
ENDMDL
