MODEL 1
REMARK VINA RESULT:     -11.6      0.000      0.000
REMARK SMILES CCNC(=O)c1ccc(N[C@@H]2COC[C@@]2(C)C(=O)NCCCNC(=O)c2ccc(-c3c4nc(c(-c5c(F)cc(S(=O)(=O)[O-])cc5F)c5ccc([nH]5)c(-c5c(F)cc(S(=O)(=O)[O-])cc5F)c5nc(c(-c6c(F)cc(S(=O)(=O)[O-])cc6F)c6ccc3[nH]6)C=C5)C=C4)cc2)nn1
REMARK SMILES IDX 20 1 19 2 17 3 18 4 15 6 11 7 12 8 13 9 14 10 16 11 10 12
REMARK SMILES IDX 9 14 6 15 7 16 93 17 8 18 92 19 4 20 3 21 5 23 2 24 1 25
REMARK SMILES IDX 21 26 22 27 23 28 24 29 25 31 26 32 27 33 91 34 28 35 90 36
REMARK SMILES IDX 29 37 30 38 31 39 84 40 32 41 89 42 83 43 85 44 33 45 88 46
REMARK SMILES IDX 82 47 81 48 34 50 68 51 47 52 67 53 48 54 51 55 66 56 86 57
REMARK SMILES IDX 49 58 50 59 65 61 87 62 52 63 35 64 36 65 45 66 37 67 38 68
REMARK SMILES IDX 44 69 46 70 39 71 40 72 41 73 42 74 43 75 69 76 70 77 79 78
REMARK SMILES IDX 71 79 72 80 78 81 80 82 73 83 74 84 75 85 76 86 77 87 53 88
REMARK SMILES IDX 54 89 63 90 55 91 56 92 62 93 64 94 57 95 58 96 59 97 60 98
REMARK SMILES IDX 61 99
REMARK H PARENT 19 5 10 13 3 22 23 30 85 49 51 60
REMARK Flexibility Score: inf
ROOT
ATOM      1  C   UNL A   1      31.595  27.058  26.470  1.00  0.00     0.117 C 
ENDROOT
BRANCH   1   2
ATOM      2  N   UNL A   1      32.598  26.835  25.445  1.00  0.00    -0.355 N 
ATOM      3  C   UNL A   1      32.489  26.522  24.128  1.00  0.00     0.230 C 
ATOM      4  O   UNL A   1      33.543  26.200  23.565  1.00  0.00    -0.274 OA
ATOM      5  H   UNL A   1      33.525  26.926  25.762  1.00  0.00     0.163 HD
BRANCH   3   6
ATOM      6  C   UNL A   1      31.196  26.718  23.335  1.00  0.00     0.092 C 
ATOM      7  C   UNL A   1      30.107  25.820  23.957  1.00  0.00     0.124 C 
ATOM      8  C   UNL A   1      28.791  26.487  23.606  1.00  0.00     0.186 C 
ATOM      9  O   UNL A   1      29.079  27.882  23.447  1.00  0.00    -0.378 OA
ATOM     10  C   UNL A   1      30.502  28.072  23.486  1.00  0.00     0.179 C 
ATOM     11  C   UNL A   1      31.543  26.481  21.857  1.00  0.00     0.026 C 
BRANCH   7  12
ATOM     12  N   UNL A   1      30.221  24.377  23.744  1.00  0.00    -0.362 N 
ATOM     13  H   UNL A   1      29.499  23.921  23.255  1.00  0.00     0.162 HD
BRANCH  12  14
ATOM     14  C   UNL A   1      31.288  23.621  24.191  1.00  0.00     0.149 A 
ATOM     15  C   UNL A   1      33.215  21.907  25.059  1.00  0.00     0.150 A 
ATOM     16  C   UNL A   1      33.033  22.046  23.695  1.00  0.00     0.040 A 
ATOM     17  N   UNL A   1      32.515  22.618  25.959  1.00  0.00    -0.143 NA
ATOM     18  C   UNL A   1      32.065  22.943  23.259  1.00  0.00     0.051 A 
ATOM     19  N   UNL A   1      31.557  23.489  25.506  1.00  0.00    -0.132 NA
BRANCH  15  20
ATOM     20  C   UNL A   1      34.217  20.967  25.597  1.00  0.00     0.271 C 
ATOM     21  N   UNL A   1      33.884  19.639  25.735  1.00  0.00    -0.351 N 
ATOM     22  H   UNL A   1      34.546  19.075  26.198  1.00  0.00     0.163 HD
ATOM     23  O   UNL A   1      35.325  21.366  25.950  1.00  0.00    -0.267 OA
BRANCH  21  24
ATOM     24  C   UNL A   1      32.680  18.966  25.287  1.00  0.00     0.113 C 
ATOM     25  C   UNL A   1      32.873  18.359  23.911  1.00  0.00     0.027 C 
ENDBRANCH  21  24
ENDBRANCH  15  20
ENDBRANCH  12  14
ENDBRANCH   7  12
ENDBRANCH   3   6
ENDBRANCH   1   2
BRANCH   1  26
ATOM     26  C   UNL A   1      32.183  27.873  27.619  1.00  0.00     0.042 C 
BRANCH  26  27
ATOM     27  C   UNL A   1      33.501  28.547  27.247  1.00  0.00     0.118 C 
BRANCH  27  28
ATOM     28  N   UNL A   1      33.498  29.966  27.580  1.00  0.00    -0.352 N 
ATOM     29  C   UNL A   1      34.450  30.718  28.224  1.00  0.00     0.251 C 
ATOM     30  H   UNL A   1      32.693  30.459  27.301  1.00  0.00     0.163 HD
ATOM     31  O   UNL A   1      34.166  31.836  28.635  1.00  0.00    -0.269 OA
BRANCH  29  32
ATOM     32  C   UNL A   1      35.806  30.168  28.426  1.00  0.00     0.039 A 
ATOM     33  C   UNL A   1      36.688  30.120  27.344  1.00  0.00     0.014 A 
ATOM     34  C   UNL A   1      36.203  29.703  29.683  1.00  0.00     0.014 A 
ATOM     35  C   UNL A   1      38.000  29.683  27.544  1.00  0.00     0.010 A 
ATOM     36  C   UNL A   1      37.528  29.338  29.895  1.00  0.00     0.010 A 
ATOM     37  C   UNL A   1      38.443  29.334  28.831  1.00  0.00    -0.014 A 
BRANCH  37  38
ATOM     38  C   UNL A   1      39.865  29.009  29.102  1.00  0.00     0.031 A 
ATOM     39  C   UNL A   1      40.800  30.068  29.613  1.00  0.00     0.074 A 
ATOM     40  C   UNL A   1      40.330  27.782  28.793  1.00  0.00     0.049 A 
ATOM     41  N   UNL A   1      42.095  30.011  29.789  1.00  0.00    -0.248 NA
ATOM     42  C   UNL A   1      40.207  31.374  29.944  1.00  0.00     0.031 C 
ATOM     43  C   UNL A   1      39.524  26.683  28.254  1.00  0.00     0.029 A 
ATOM     44  N   UNL A   1      41.596  27.256  28.865  1.00  0.00    -0.354 N 
ATOM     45  C   UNL A   1      42.473  31.270  30.240  1.00  0.00     0.074 A 
ATOM     46  C   UNL A   1      41.278  32.086  30.264  1.00  0.00     0.031 C 
ATOM     47  C   UNL A   1      40.310  25.614  28.057  1.00  0.00     0.029 A 
ATOM     48  C   UNL A   1      41.684  25.964  28.404  1.00  0.00     0.049 A 
ATOM     49  H   UNL A   1      42.368  27.758  29.215  1.00  0.00     0.167 HD
ATOM     50  C   UNL A   1      43.702  31.698  30.614  1.00  0.00     0.037 A 
ATOM     51  C   UNL A   1      42.753  25.158  28.252  1.00  0.00     0.037 A 
ATOM     52  C   UNL A   1      44.880  30.870  30.599  1.00  0.00     0.049 A 
ATOM     53  C   UNL A   1      44.114  25.669  28.639  1.00  0.00     0.074 A 
ATOM     54  C   UNL A   1      46.160  31.191  31.017  1.00  0.00     0.029 A 
ATOM     55  N   UNL A   1      44.928  29.564  30.132  1.00  0.00    -0.354 N 
ATOM     56  N   UNL A   1      44.444  26.841  29.131  1.00  0.00    -0.248 NA
ATOM     57  C   UNL A   1      45.248  24.755  28.452  1.00  0.00     0.031 C 
ATOM     58  C   UNL A   1      46.994  30.101  30.746  1.00  0.00     0.029 A 
ATOM     59  C   UNL A   1      46.223  29.078  30.216  1.00  0.00     0.049 A 
ATOM     60  H   UNL A   1      44.156  29.058  29.790  1.00  0.00     0.167 HD
ATOM     61  C   UNL A   1      45.819  26.795  29.330  1.00  0.00     0.074 A 
ATOM     62  C   UNL A   1      46.257  25.476  28.922  1.00  0.00     0.031 C 
ATOM     63  C   UNL A   1      46.643  27.759  29.808  1.00  0.00     0.037 A 
BRANCH  50  64
ATOM     64  C   UNL A   1      43.839  33.125  31.071  1.00  0.00     0.058 A 
ATOM     65  C   UNL A   1      44.159  34.160  30.178  1.00  0.00     0.135 A 
ATOM     66  C   UNL A   1      43.604  33.470  32.413  1.00  0.00     0.135 A 
ATOM     67  F   UNL A   1      44.407  33.887  28.888  1.00  0.00    -0.206 F 
ATOM     68  C   UNL A   1      44.268  35.480  30.602  1.00  0.00     0.059 A 
ATOM     69  C   UNL A   1      43.676  34.788  32.853  1.00  0.00     0.059 A 
ATOM     70  F   UNL A   1      43.295  32.521  33.311  1.00  0.00    -0.206 F 
ATOM     71  C   UNL A   1      44.022  35.785  31.943  1.00  0.00     0.060 A 
BRANCH  71  72
ATOM     72  S   UNL A   1      44.161  37.505  32.473  1.00  0.00     0.124 S 
ATOM     73  O   UNL A   1      43.786  38.216  31.254  1.00  0.00    -0.237 OA
ATOM     74  O   UNL A   1      43.199  37.572  33.567  1.00  0.00    -0.237 OA
ATOM     75  O   UNL A   1      45.562  37.630  32.863  1.00  0.00    -0.744 OA
ENDBRANCH  71  72
ENDBRANCH  50  64
BRANCH  51  76
ATOM     76  C   UNL A   1      42.578  23.786  27.705  1.00  0.00     0.058 A 
ATOM     77  C   UNL A   1      42.457  22.679  28.558  1.00  0.00     0.135 A 
ATOM     78  C   UNL A   1      42.508  23.554  26.321  1.00  0.00     0.135 A 
ATOM     79  F   UNL A   1      42.523  22.847  29.887  1.00  0.00    -0.206 F 
ATOM     80  C   UNL A   1      42.289  21.390  28.061  1.00  0.00     0.059 A 
ATOM     81  C   UNL A   1      42.313  22.278  25.801  1.00  0.00     0.059 A 
ATOM     82  F   UNL A   1      42.602  24.580  25.461  1.00  0.00    -0.206 F 
ATOM     83  C   UNL A   1      42.215  21.201  26.680  1.00  0.00     0.060 A 
BRANCH  83  84
ATOM     84  S   UNL A   1      41.950  19.529  26.050  1.00  0.00     0.124 S 
ATOM     85  O   UNL A   1      42.327  18.718  27.202  1.00  0.00    -0.237 OA
ATOM     86  O   UNL A   1      40.528  19.550  25.719  1.00  0.00    -0.237 OA
ATOM     87  O   UNL A   1      42.852  19.456  24.903  1.00  0.00    -0.744 OA
ENDBRANCH  83  84
ENDBRANCH  51  76
BRANCH  63  88
ATOM     88  C   UNL A   1      48.104  27.427  29.939  1.00  0.00     0.058 A 
ATOM     89  C   UNL A   1      49.021  27.727  28.920  1.00  0.00     0.135 A 
ATOM     90  C   UNL A   1      48.605  26.877  31.131  1.00  0.00     0.135 A 
ATOM     91  F   UNL A   1      48.594  28.242  27.756  1.00  0.00    -0.206 F 
ATOM     92  C   UNL A   1      50.382  27.488  29.075  1.00  0.00     0.059 A 
ATOM     93  C   UNL A   1      49.966  26.657  31.319  1.00  0.00     0.059 A 
ATOM     94  F   UNL A   1      47.772  26.578  32.140  1.00  0.00    -0.206 F 
ATOM     95  C   UNL A   1      50.846  26.962  30.282  1.00  0.00     0.060 A 
BRANCH  95  96
ATOM     96  S   UNL A   1      52.624  26.723  30.493  1.00  0.00     0.124 S 
ATOM     97  O   UNL A   1      52.661  25.649  31.481  1.00  0.00    -0.237 OA
ATOM     98  O   UNL A   1      53.050  26.360  29.145  1.00  0.00    -0.237 OA
ATOM     99  O   UNL A   1      53.089  28.024  30.963  1.00  0.00    -0.744 OA
ENDBRANCH  95  96
ENDBRANCH  63  88
ENDBRANCH  37  38
ENDBRANCH  29  32
ENDBRANCH  27  28
ENDBRANCH  26  27
ENDBRANCH   1  26
TORSDOF 17
ENDMDL
MODEL 2
REMARK VINA RESULT:     -11.5      3.145      9.416
REMARK SMILES CCNC(=O)c1ccc(N[C@@H]2COC[C@@]2(C)C(=O)NCCCNC(=O)c2ccc(-c3c4nc(c(-c5c(F)cc(S(=O)(=O)[O-])cc5F)c5ccc([nH]5)c(-c5c(F)cc(S(=O)(=O)[O-])cc5F)c5nc(c(-c6c(F)cc(S(=O)(=O)[O-])cc6F)c6ccc3[nH]6)C=C5)C=C4)cc2)nn1
REMARK SMILES IDX 20 1 19 2 17 3 18 4 15 6 11 7 12 8 13 9 14 10 16 11 10 12
REMARK SMILES IDX 9 14 6 15 7 16 93 17 8 18 92 19 4 20 3 21 5 23 2 24 1 25
REMARK SMILES IDX 21 26 22 27 23 28 24 29 25 31 26 32 27 33 91 34 28 35 90 36
REMARK SMILES IDX 29 37 30 38 31 39 84 40 32 41 89 42 83 43 85 44 33 45 88 46
REMARK SMILES IDX 82 47 81 48 34 50 68 51 47 52 67 53 48 54 51 55 66 56 86 57
REMARK SMILES IDX 49 58 50 59 65 61 87 62 52 63 35 64 36 65 45 66 37 67 38 68
REMARK SMILES IDX 44 69 46 70 39 71 40 72 41 73 42 74 43 75 69 76 70 77 79 78
REMARK SMILES IDX 71 79 72 80 78 81 80 82 73 83 74 84 75 85 76 86 77 87 53 88
REMARK SMILES IDX 54 89 63 90 55 91 56 92 62 93 64 94 57 95 58 96 59 97 60 98
REMARK SMILES IDX 61 99
REMARK H PARENT 19 5 10 13 3 22 23 30 85 49 51 60
REMARK Flexibility Score: inf
ROOT
ATOM      1  C   UNL A   1      35.018  23.670  23.506  1.00  0.00     0.117 C 
ENDROOT
BRANCH   1   2
ATOM      2  N   UNL A   1      34.599  24.474  24.639  1.00  0.00    -0.355 N 
ATOM      3  C   UNL A   1      33.635  24.281  25.577  1.00  0.00     0.230 C 
ATOM      4  O   UNL A   1      33.389  25.254  26.300  1.00  0.00    -0.274 OA
ATOM      5  H   UNL A   1      35.104  25.312  24.748  1.00  0.00     0.163 HD
BRANCH   3   6
ATOM      6  C   UNL A   1      33.008  22.913  25.851  1.00  0.00     0.092 C 
ATOM      7  C   UNL A   1      32.064  22.571  24.681  1.00  0.00     0.124 C 
ATOM      8  C   UNL A   1      31.991  21.056  24.655  1.00  0.00     0.186 C 
ATOM      9  O   UNL A   1      33.222  20.587  25.221  1.00  0.00    -0.378 OA
ATOM     10  C   UNL A   1      33.944  21.706  25.761  1.00  0.00     0.179 C 
ATOM     11  C   UNL A   1      32.393  22.982  27.257  1.00  0.00     0.026 C 
BRANCH   7  12
ATOM     12  N   UNL A   1      30.808  23.317  24.590  1.00  0.00    -0.362 N 
ATOM     13  H   UNL A   1      29.991  22.899  24.945  1.00  0.00     0.162 HD
BRANCH  12  14
ATOM     14  C   UNL A   1      30.708  24.577  24.032  1.00  0.00     0.149 A 
ATOM     15  C   UNL A   1      30.766  27.113  23.046  1.00  0.00     0.150 A 
ATOM     16  C   UNL A   1      31.371  26.113  22.307  1.00  0.00     0.040 A 
ATOM     17  N   UNL A   1      30.115  26.871  24.196  1.00  0.00    -0.143 NA
ATOM     18  C   UNL A   1      31.313  24.816  22.804  1.00  0.00     0.051 A 
ATOM     19  N   UNL A   1      30.082  25.585  24.673  1.00  0.00    -0.132 NA
BRANCH  15  20
ATOM     20  C   UNL A   1      30.793  28.516  22.587  1.00  0.00     0.271 C 
ATOM     21  N   UNL A   1      31.859  29.313  22.934  1.00  0.00    -0.351 N 
ATOM     22  H   UNL A   1      31.779  30.265  22.697  1.00  0.00     0.163 HD
ATOM     23  O   UNL A   1      29.862  28.978  21.931  1.00  0.00    -0.267 OA
BRANCH  21  24
ATOM     24  C   UNL A   1      33.086  28.928  23.606  1.00  0.00     0.113 C 
ATOM     25  C   UNL A   1      34.167  28.568  22.607  1.00  0.00     0.027 C 
ENDBRANCH  21  24
ENDBRANCH  15  20
ENDBRANCH  12  14
ENDBRANCH   7  12
ENDBRANCH   3   6
ENDBRANCH   1   2
BRANCH   1  26
ATOM     26  C   UNL A   1      36.504  23.341  23.611  1.00  0.00     0.042 C 
BRANCH  26  27
ATOM     27  C   UNL A   1      37.087  23.679  24.981  1.00  0.00     0.118 C 
BRANCH  27  28
ATOM     28  N   UNL A   1      38.096  22.711  25.395  1.00  0.00    -0.352 N 
ATOM     29  C   UNL A   1      39.256  22.904  26.104  1.00  0.00     0.251 C 
ATOM     30  H   UNL A   1      37.918  21.781  25.128  1.00  0.00     0.163 HD
ATOM     31  O   UNL A   1      40.100  22.017  26.142  1.00  0.00    -0.269 OA
BRANCH  29  32
ATOM     32  C   UNL A   1      39.484  24.184  26.805  1.00  0.00     0.039 A 
ATOM     33  C   UNL A   1      38.893  24.389  28.054  1.00  0.00     0.014 A 
ATOM     34  C   UNL A   1      40.281  25.177  26.229  1.00  0.00     0.014 A 
ATOM     35  C   UNL A   1      39.171  25.559  28.764  1.00  0.00     0.010 A 
ATOM     36  C   UNL A   1      40.615  26.307  26.967  1.00  0.00     0.010 A 
ATOM     37  C   UNL A   1      40.073  26.504  28.247  1.00  0.00    -0.014 A 
BRANCH  37  38
ATOM     38  C   UNL A   1      40.503  27.683  29.039  1.00  0.00     0.031 A 
ATOM     39  C   UNL A   1      41.784  27.642  29.824  1.00  0.00     0.074 A 
ATOM     40  C   UNL A   1      39.687  28.752  29.125  1.00  0.00     0.049 A 
ATOM     41  N   UNL A   1      42.263  28.518  30.669  1.00  0.00    -0.248 NA
ATOM     42  C   UNL A   1      42.626  26.446  29.657  1.00  0.00     0.031 C 
ATOM     43  C   UNL A   1      38.399  28.890  28.438  1.00  0.00     0.029 A 
ATOM     44  N   UNL A   1      39.803  29.917  29.841  1.00  0.00    -0.354 N 
ATOM     45  C   UNL A   1      43.451  27.977  31.143  1.00  0.00     0.074 A 
ATOM     46  C   UNL A   1      43.598  26.676  30.528  1.00  0.00     0.031 C 
ATOM     47  C   UNL A   1      37.854  30.074  28.757  1.00  0.00     0.029 A 
ATOM     48  C   UNL A   1      38.723  30.757  29.710  1.00  0.00     0.049 A 
ATOM     49  H   UNL A   1      40.588  30.131  30.398  1.00  0.00     0.167 HD
ATOM     50  C   UNL A   1      44.345  28.526  31.999  1.00  0.00     0.037 A 
ATOM     51  C   UNL A   1      38.448  31.933  30.307  1.00  0.00     0.037 A 
ATOM     52  C   UNL A   1      44.193  29.829  32.594  1.00  0.00     0.049 A 
ATOM     53  C   UNL A   1      39.439  32.505  31.284  1.00  0.00     0.074 A 
ATOM     54  C   UNL A   1      45.071  30.501  33.426  1.00  0.00     0.029 A 
ATOM     55  N   UNL A   1      43.089  30.653  32.430  1.00  0.00    -0.354 N 
ATOM     56  N   UNL A   1      40.594  32.013  31.668  1.00  0.00    -0.248 NA
ATOM     57  C   UNL A   1      39.094  33.788  31.912  1.00  0.00     0.031 C 
ATOM     58  C   UNL A   1      44.472  31.703  33.814  1.00  0.00     0.029 A 
ATOM     59  C   UNL A   1      43.247  31.810  33.175  1.00  0.00     0.049 A 
ATOM     60  H   UNL A   1      42.307  30.445  31.868  1.00  0.00     0.167 HD
ATOM     61  C   UNL A   1      41.121  32.936  32.565  1.00  0.00     0.074 A 
ATOM     62  C   UNL A   1      40.167  34.022  32.654  1.00  0.00     0.031 C 
ATOM     63  C   UNL A   1      42.288  32.886  33.252  1.00  0.00     0.037 A 
BRANCH  50  64
ATOM     64  C   UNL A   1      45.567  27.721  32.350  1.00  0.00     0.058 A 
ATOM     65  C   UNL A   1      45.598  26.871  33.467  1.00  0.00     0.135 A 
ATOM     66  C   UNL A   1      46.710  27.765  31.533  1.00  0.00     0.135 A 
ATOM     67  F   UNL A   1      44.541  26.799  34.291  1.00  0.00    -0.206 F 
ATOM     68  C   UNL A   1      46.724  26.116  33.778  1.00  0.00     0.059 A 
ATOM     69  C   UNL A   1      47.835  26.994  31.805  1.00  0.00     0.059 A 
ATOM     70  F   UNL A   1      46.736  28.561  30.451  1.00  0.00    -0.206 F 
ATOM     71  C   UNL A   1      47.838  26.183  32.938  1.00  0.00     0.060 A 
BRANCH  71  72
ATOM     72  S   UNL A   1      49.288  25.190  33.353  1.00  0.00     0.124 S 
ATOM     73  O   UNL A   1      49.836  24.908  32.029  1.00  0.00    -0.237 OA
ATOM     74  O   UNL A   1      50.067  26.107  34.178  1.00  0.00    -0.237 OA
ATOM     75  O   UNL A   1      48.725  24.041  34.055  1.00  0.00    -0.744 OA
ENDBRANCH  71  72
ENDBRANCH  50  64
BRANCH  51  76
ATOM     76  C   UNL A   1      37.179  32.646  29.998  1.00  0.00     0.058 A 
ATOM     77  C   UNL A   1      35.991  32.330  30.674  1.00  0.00     0.135 A 
ATOM     78  C   UNL A   1      37.132  33.668  29.035  1.00  0.00     0.135 A 
ATOM     79  F   UNL A   1      35.984  31.357  31.597  1.00  0.00    -0.206 F 
ATOM     80  C   UNL A   1      34.798  32.990  30.398  1.00  0.00     0.059 A 
ATOM     81  C   UNL A   1      35.956  34.361  28.761  1.00  0.00     0.059 A 
ATOM     82  F   UNL A   1      38.243  34.020  28.371  1.00  0.00    -0.206 F 
ATOM     83  C   UNL A   1      34.792  34.007  29.441  1.00  0.00     0.060 A 
BRANCH  83  84
ATOM     84  S   UNL A   1      33.247  34.888  29.126  1.00  0.00     0.124 S 
ATOM     85  O   UNL A   1      32.590  33.996  28.177  1.00  0.00    -0.237 OA
ATOM     86  O   UNL A   1      32.656  34.952  30.459  1.00  0.00    -0.237 OA
ATOM     87  O   UNL A   1      33.695  36.168  28.585  1.00  0.00    -0.744 OA
ENDBRANCH  83  84
ENDBRANCH  51  76
BRANCH  63  88
ATOM     88  C   UNL A   1      42.620  34.047  34.149  1.00  0.00     0.058 A 
ATOM     89  C   UNL A   1      42.268  34.050  35.508  1.00  0.00     0.135 A 
ATOM     90  C   UNL A   1      43.370  35.131  33.663  1.00  0.00     0.135 A 
ATOM     91  F   UNL A   1      41.541  33.044  36.020  1.00  0.00    -0.206 F 
ATOM     92  C   UNL A   1      42.643  35.089  36.352  1.00  0.00     0.059 A 
ATOM     93  C   UNL A   1      43.781  36.167  34.496  1.00  0.00     0.059 A 
ATOM     94  F   UNL A   1      43.738  35.174  32.374  1.00  0.00    -0.206 F 
ATOM     95  C   UNL A   1      43.408  36.139  35.839  1.00  0.00     0.060 A 
BRANCH  95  96
ATOM     96  S   UNL A   1      43.945  37.445  36.964  1.00  0.00     0.124 S 
ATOM     97  O   UNL A   1      45.222  36.919  37.437  1.00  0.00    -0.237 OA
ATOM     98  O   UNL A   1      44.024  38.603  36.079  1.00  0.00    -0.237 OA
ATOM     99  O   UNL A   1      42.880  37.496  37.961  1.00  0.00    -0.744 OA
ENDBRANCH  95  96
ENDBRANCH  63  88
ENDBRANCH  37  38
ENDBRANCH  29  32
ENDBRANCH  27  28
ENDBRANCH  26  27
ENDBRANCH   1  26
TORSDOF 17
ENDMDL
MODEL 3
REMARK VINA RESULT:     -11.5      4.088      7.248
REMARK SMILES CCNC(=O)c1ccc(N[C@@H]2COC[C@@]2(C)C(=O)NCCCNC(=O)c2ccc(-c3c4nc(c(-c5c(F)cc(S(=O)(=O)[O-])cc5F)c5ccc([nH]5)c(-c5c(F)cc(S(=O)(=O)[O-])cc5F)c5nc(c(-c6c(F)cc(S(=O)(=O)[O-])cc6F)c6ccc3[nH]6)C=C5)C=C4)cc2)nn1
REMARK SMILES IDX 20 1 19 2 17 3 18 4 15 6 11 7 12 8 13 9 14 10 16 11 10 12
REMARK SMILES IDX 9 14 6 15 7 16 93 17 8 18 92 19 4 20 3 21 5 23 2 24 1 25
REMARK SMILES IDX 21 26 22 27 23 28 24 29 25 31 26 32 27 33 91 34 28 35 90 36
REMARK SMILES IDX 29 37 30 38 31 39 84 40 32 41 89 42 83 43 85 44 33 45 88 46
REMARK SMILES IDX 82 47 81 48 34 50 68 51 47 52 67 53 48 54 51 55 66 56 86 57
REMARK SMILES IDX 49 58 50 59 65 61 87 62 52 63 35 64 36 65 45 66 37 67 38 68
REMARK SMILES IDX 44 69 46 70 39 71 40 72 41 73 42 74 43 75 69 76 70 77 79 78
REMARK SMILES IDX 71 79 72 80 78 81 80 82 73 83 74 84 75 85 76 86 77 87 53 88
REMARK SMILES IDX 54 89 63 90 55 91 56 92 62 93 64 94 57 95 58 96 59 97 60 98
REMARK SMILES IDX 61 99
REMARK H PARENT 19 5 10 13 3 22 23 30 85 49 51 60
REMARK Flexibility Score: inf
ROOT
ATOM      1  C   UNL A   1      34.947  33.943  31.621  1.00  0.00     0.117 C 
ENDROOT
BRANCH   1   2
ATOM      2  N   UNL A   1      35.405  32.677  32.162  1.00  0.00    -0.355 N 
ATOM      3  C   UNL A   1      36.581  32.313  32.738  1.00  0.00     0.230 C 
ATOM      4  O   UNL A   1      36.737  31.098  32.917  1.00  0.00    -0.274 OA
ATOM      5  H   UNL A   1      34.745  31.949  32.101  1.00  0.00     0.163 HD
BRANCH   3   6
ATOM      6  C   UNL A   1      37.580  33.329  33.294  1.00  0.00     0.092 C 
ATOM      7  C   UNL A   1      38.907  32.597  33.577  1.00  0.00     0.124 C 
ATOM      8  C   UNL A   1      39.979  33.666  33.493  1.00  0.00     0.186 C 
ATOM      9  O   UNL A   1      39.470  34.675  32.612  1.00  0.00    -0.378 OA
ATOM     10  C   UNL A   1      38.095  34.384  32.314  1.00  0.00     0.179 C 
ATOM     11  C   UNL A   1      36.891  34.023  34.480  1.00  0.00     0.026 C 
BRANCH   7  12
ATOM     12  N   UNL A   1      38.941  31.682  34.719  1.00  0.00    -0.362 N 
ATOM     13  H   UNL A   1      38.295  31.824  35.448  1.00  0.00     0.162 HD
BRANCH  12  14
ATOM     14  C   UNL A   1      39.830  30.630  34.828  1.00  0.00     0.149 A 
ATOM     15  C   UNL A   1      41.372  28.391  34.948  1.00  0.00     0.150 A 
ATOM     16  C   UNL A   1      41.296  29.066  33.744  1.00  0.00     0.040 A 
ATOM     17  N   UNL A   1      40.757  28.826  36.061  1.00  0.00    -0.143 NA
ATOM     18  C   UNL A   1      40.528  30.224  33.697  1.00  0.00     0.051 A 
ATOM     19  N   UNL A   1      39.995  29.964  35.989  1.00  0.00    -0.132 NA
BRANCH  15  20
ATOM     20  C   UNL A   1      42.161  27.150  35.072  1.00  0.00     0.271 C 
ATOM     21  N   UNL A   1      43.521  27.237  35.262  1.00  0.00    -0.351 N 
ATOM     22  H   UNL A   1      44.015  26.386  35.230  1.00  0.00     0.163 HD
ATOM     23  O   UNL A   1      41.619  26.051  34.974  1.00  0.00    -0.267 OA
BRANCH  21  24
ATOM     24  C   UNL A   1      44.318  28.424  35.503  1.00  0.00     0.113 C 
ATOM     25  C   UNL A   1      45.036  28.867  34.243  1.00  0.00     0.027 C 
ENDBRANCH  21  24
ENDBRANCH  15  20
ENDBRANCH  12  14
ENDBRANCH   7  12
ENDBRANCH   3   6
ENDBRANCH   1   2
BRANCH   1  26
ATOM     26  C   UNL A   1      34.329  33.736  30.241  1.00  0.00     0.042 C 
BRANCH  26  27
ATOM     27  C   UNL A   1      35.134  32.773  29.373  1.00  0.00     0.118 C 
BRANCH  27  28
ATOM     28  N   UNL A   1      34.287  31.755  28.762  1.00  0.00    -0.352 N 
ATOM     29  C   UNL A   1      34.631  30.548  28.204  1.00  0.00     0.251 C 
ATOM     30  H   UNL A   1      33.326  31.965  28.748  1.00  0.00     0.163 HD
ATOM     31  O   UNL A   1      33.816  29.942  27.518  1.00  0.00    -0.269 OA
BRANCH  29  32
ATOM     32  C   UNL A   1      35.983  29.996  28.425  1.00  0.00     0.039 A 
ATOM     33  C   UNL A   1      36.912  30.037  27.383  1.00  0.00     0.014 A 
ATOM     34  C   UNL A   1      36.329  29.441  29.660  1.00  0.00     0.014 A 
ATOM     35  C   UNL A   1      38.218  29.596  27.608  1.00  0.00     0.010 A 
ATOM     36  C   UNL A   1      37.647  29.072  29.904  1.00  0.00     0.010 A 
ATOM     37  C   UNL A   1      38.608  29.156  28.884  1.00  0.00    -0.014 A 
BRANCH  37  38
ATOM     38  C   UNL A   1      40.021  28.823  29.194  1.00  0.00     0.031 A 
ATOM     39  C   UNL A   1      40.934  29.863  29.779  1.00  0.00     0.074 A 
ATOM     40  C   UNL A   1      40.500  27.609  28.855  1.00  0.00     0.049 A 
ATOM     41  N   UNL A   1      42.221  29.800  30.000  1.00  0.00    -0.248 NA
ATOM     42  C   UNL A   1      40.324  31.154  30.138  1.00  0.00     0.031 C 
ATOM     43  C   UNL A   1      39.717  26.531  28.245  1.00  0.00     0.029 A 
ATOM     44  N   UNL A   1      41.764  27.083  28.953  1.00  0.00    -0.354 N 
ATOM     45  C   UNL A   1      42.579  31.041  30.511  1.00  0.00     0.074 A 
ATOM     46  C   UNL A   1      41.382  31.854  30.524  1.00  0.00     0.031 C 
ATOM     47  C   UNL A   1      40.513  25.471  28.036  1.00  0.00     0.029 A 
ATOM     48  C   UNL A   1      41.873  25.810  28.445  1.00  0.00     0.049 A 
ATOM     49  H   UNL A   1      42.522  27.572  29.349  1.00  0.00     0.167 HD
ATOM     50  C   UNL A   1      43.792  31.457  30.947  1.00  0.00     0.037 A 
ATOM     51  C   UNL A   1      42.949  25.012  28.301  1.00  0.00     0.037 A 
ATOM     52  C   UNL A   1      44.973  30.632  30.942  1.00  0.00     0.049 A 
ATOM     53  C   UNL A   1      44.293  25.509  28.757  1.00  0.00     0.074 A 
ATOM     54  C   UNL A   1      46.236  30.938  31.418  1.00  0.00     0.029 A 
ATOM     55  N   UNL A   1      45.041  29.345  30.427  1.00  0.00    -0.354 N 
ATOM     56  N   UNL A   1      44.601  26.662  29.305  1.00  0.00    -0.248 NA
ATOM     57  C   UNL A   1      45.437  24.605  28.576  1.00  0.00     0.031 C 
ATOM     58  C   UNL A   1      47.082  29.862  31.136  1.00  0.00     0.029 A 
ATOM     59  C   UNL A   1      46.334  28.858  30.540  1.00  0.00     0.049 A 
ATOM     60  H   UNL A   1      44.284  28.851  30.038  1.00  0.00     0.167 HD
ATOM     61  C   UNL A   1      45.969  26.611  29.552  1.00  0.00     0.074 A 
ATOM     62  C   UNL A   1      46.425  25.309  29.110  1.00  0.00     0.031 C 
ATOM     63  C   UNL A   1      46.773  27.557  30.096  1.00  0.00     0.037 A 
BRANCH  50  64
ATOM     64  C   UNL A   1      43.909  32.865  31.463  1.00  0.00     0.058 A 
ATOM     65  C   UNL A   1      43.741  33.171  32.823  1.00  0.00     0.135 A 
ATOM     66  C   UNL A   1      44.238  33.919  30.594  1.00  0.00     0.135 A 
ATOM     67  F   UNL A   1      43.413  32.207  33.698  1.00  0.00    -0.206 F 
ATOM     68  C   UNL A   1      43.867  34.472  33.299  1.00  0.00     0.059 A 
ATOM     69  C   UNL A   1      44.401  35.222  31.052  1.00  0.00     0.059 A 
ATOM     70  F   UNL A   1      44.410  33.685  29.283  1.00  0.00    -0.206 F 
ATOM     71  C   UNL A   1      44.200  35.492  32.405  1.00  0.00     0.060 A 
BRANCH  71  72
ATOM     72  S   UNL A   1      44.366  37.173  33.042  1.00  0.00     0.124 S 
ATOM     73  O   UNL A   1      45.461  37.015  33.995  1.00  0.00    -0.237 OA
ATOM     74  O   UNL A   1      44.682  37.932  31.836  1.00  0.00    -0.237 OA
ATOM     75  O   UNL A   1      43.059  37.446  33.629  1.00  0.00    -0.744 OA
ENDBRANCH  71  72
ENDBRANCH  50  64
BRANCH  51  76
ATOM     76  C   UNL A   1      42.797  23.661  27.696  1.00  0.00     0.058 A 
ATOM     77  C   UNL A   1      42.999  23.458  26.323  1.00  0.00     0.135 A 
ATOM     78  C   UNL A   1      42.466  22.543  28.479  1.00  0.00     0.135 A 
ATOM     79  F   UNL A   1      43.311  24.496  25.531  1.00  0.00    -0.206 F 
ATOM     80  C   UNL A   1      42.864  22.201  25.743  1.00  0.00     0.059 A 
ATOM     81  C   UNL A   1      42.352  21.270  27.928  1.00  0.00     0.059 A 
ATOM     82  F   UNL A   1      42.277  22.679  29.801  1.00  0.00    -0.206 F 
ATOM     83  C   UNL A   1      42.543  21.112  26.556  1.00  0.00     0.060 A 
BRANCH  83  84
ATOM     84  S   UNL A   1      42.418  19.477  25.799  1.00  0.00     0.124 S 
ATOM     85  O   UNL A   1      43.357  19.594  24.690  1.00  0.00    -0.237 OA
ATOM     86  O   UNL A   1      42.826  18.602  26.894  1.00  0.00    -0.237 OA
ATOM     87  O   UNL A   1      41.008  19.387  25.427  1.00  0.00    -0.744 OA
ENDBRANCH  83  84
ENDBRANCH  51  76
BRANCH  63  88
ATOM     88  C   UNL A   1      48.229  27.222  30.267  1.00  0.00     0.058 A 
ATOM     89  C   UNL A   1      49.195  27.644  29.341  1.00  0.00     0.135 A 
ATOM     90  C   UNL A   1      48.673  26.542  31.413  1.00  0.00     0.135 A 
ATOM     91  F   UNL A   1      48.822  28.287  28.222  1.00  0.00    -0.206 F 
ATOM     92  C   UNL A   1      50.548  27.398  29.540  1.00  0.00     0.059 A 
ATOM     93  C   UNL A   1      50.025  26.311  31.649  1.00  0.00     0.059 A 
ATOM     94  F   UNL A   1      47.792  26.123  32.335  1.00  0.00    -0.206 F 
ATOM     95  C   UNL A   1      50.955  26.740  30.703  1.00  0.00     0.060 A 
BRANCH  95  96
ATOM     96  S   UNL A   1      52.722  26.491  30.981  1.00  0.00     0.124 S 
ATOM     97  O   UNL A   1      53.204  26.264  29.622  1.00  0.00    -0.237 OA
ATOM     98  O   UNL A   1      53.121  27.754  31.593  1.00  0.00    -0.237 OA
ATOM     99  O   UNL A   1      52.767  25.330  31.865  1.00  0.00    -0.744 OA
ENDBRANCH  95  96
ENDBRANCH  63  88
ENDBRANCH  37  38
ENDBRANCH  29  32
ENDBRANCH  27  28
ENDBRANCH  26  27
ENDBRANCH   1  26
TORSDOF 17
ENDMDL
