MODEL 1
REMARK VINA RESULT:     -12.1      0.000      0.000
REMARK SMILES Cc1c(Br)c(C)c2c(c1Br)O[C@H](C(F)(F)F)C(C(=O)NCCCNC(=O)c1ccc(-c3c4nc(c(-c5c(F)cc(S(=O)(=O)[O-])cc5F)c5ccc([nH]5)c(-c5c(F)cc(S(=O)(=O)[O-])cc5F)c5nc(c(-c6c(F)cc(S(=O)(=O)[O-])cc6F)c6ccc3[nH]6)C=C5)C=C4)cc1)=C2
REMARK SMILES IDX 23 1 22 2 21 3 20 4 18 5 19 6 17 8 1 9 2 10 3 11 9 12 4 13
REMARK SMILES IDX 5 14 8 15 10 16 6 17 7 18 11 19 93 20 12 21 13 22 14 23
REMARK SMILES IDX 15 24 16 25 24 26 25 27 26 29 27 30 28 31 92 32 29 33 91 34
REMARK SMILES IDX 30 35 31 36 32 37 85 38 33 39 90 40 84 41 86 42 34 43 89 44
REMARK SMILES IDX 83 45 82 46 35 48 69 49 48 50 68 51 49 52 52 53 67 54 87 55
REMARK SMILES IDX 50 56 51 57 66 59 88 60 53 61 36 62 37 63 46 64 38 65 39 66
REMARK SMILES IDX 45 67 47 68 40 69 41 70 42 71 43 72 44 73 70 74 71 75 80 76
REMARK SMILES IDX 72 77 73 78 79 79 81 80 74 81 75 82 76 83 77 84 78 85 54 86
REMARK SMILES IDX 55 87 64 88 56 89 57 90 63 91 65 92 58 93 59 94 60 95 61 96
REMARK SMILES IDX 62 97
REMARK H PARENT 20 7 24 28 86 47 52 58
REMARK Flexibility Score: inf
ROOT
ATOM      1  C   UNL A   1      33.912  28.280  26.526  1.00  0.00     0.118 C 
ENDROOT
BRANCH   1   2
ATOM      2  C   UNL A   1      33.983  28.244  25.005  1.00  0.00     0.042 C 
BRANCH   2   3
ATOM      3  C   UNL A   1      32.873  27.399  24.399  1.00  0.00     0.118 C 
BRANCH   3   4
ATOM      4  N   UNL A   1      31.948  26.908  25.409  1.00  0.00    -0.352 N 
ATOM      5  C   UNL A   1      31.651  25.723  25.990  1.00  0.00     0.251 C 
ATOM      6  O   UNL A   1      30.765  25.763  26.850  1.00  0.00    -0.270 OA
ATOM      7  H   UNL A   1      31.386  27.634  25.766  1.00  0.00     0.163 HD
BRANCH   5   8
ATOM      8  C   UNL A   1      32.312  24.424  25.672  1.00  0.00     0.067 C 
ATOM      9  C   UNL A   1      36.283  19.291  24.792  1.00  0.00     0.047 C 
ATOM     10  C   UNL A   1      35.652  20.629  25.099  1.00  0.00    -0.019 A 
ATOM     11  C   UNL A   1      36.405  21.780  25.441  1.00  0.00     0.025 A 
ATOM     12  C   UNL A   1      34.252  20.754  25.020  1.00  0.00     0.064 A 
ATOM     13  Br  UNL A   1      38.320  21.656  25.505  1.00  0.00    -0.050 Br
ATOM     14  C   UNL A   1      35.776  23.022  25.728  1.00  0.00    -0.026 A 
ATOM     15  C   UNL A   1      33.621  21.974  25.297  1.00  0.00     0.142 A 
ATOM     16  Br  UNL A   1      33.156  19.270  24.492  1.00  0.00    -0.046 Br
ATOM     17  C   UNL A   1      36.554  24.263  26.109  1.00  0.00     0.046 C 
ATOM     18  C   UNL A   1      34.364  23.105  25.658  1.00  0.00     0.022 A 
ATOM     19  O   UNL A   1      32.252  21.993  25.253  1.00  0.00    -0.474 OA
ATOM     20  C   UNL A   1      33.619  24.332  25.976  1.00  0.00     0.026 C 
ATOM     21  C   UNL A   1      31.617  23.271  25.024  1.00  0.00     0.314 C 
BRANCH  21  22
ATOM     22  C   UNL A   1      31.392  23.480  23.514  1.00  0.00     0.429 C 
ATOM     23  F   UNL A   1      31.589  22.322  22.836  1.00  0.00    -0.167 F 
ATOM     24  F   UNL A   1      30.131  23.883  23.226  1.00  0.00    -0.167 F 
ATOM     25  F   UNL A   1      32.225  24.407  22.987  1.00  0.00    -0.167 F 
ENDBRANCH  21  22
ENDBRANCH   5   8
ENDBRANCH   3   4
ENDBRANCH   2   3
ENDBRANCH   1   2
BRANCH   1  26
ATOM     26  N   UNL A   1      33.758  29.644  27.026  1.00  0.00    -0.352 N 
ATOM     27  C   UNL A   1      34.563  30.372  27.865  1.00  0.00     0.251 C 
ATOM     28  H   UNL A   1      32.951  30.114  26.714  1.00  0.00     0.163 HD
ATOM     29  O   UNL A   1      34.120  31.385  28.405  1.00  0.00    -0.269 OA
BRANCH  27  30
ATOM     30  C   UNL A   1      35.950  29.940  28.113  1.00  0.00     0.039 A 
ATOM     31  C   UNL A   1      36.907  30.079  27.104  1.00  0.00     0.014 A 
ATOM     32  C   UNL A   1      36.300  29.373  29.341  1.00  0.00     0.014 A 
ATOM     33  C   UNL A   1      38.228  29.705  27.355  1.00  0.00     0.010 A 
ATOM     34  C   UNL A   1      37.630  29.100  29.623  1.00  0.00     0.010 A 
ATOM     35  C   UNL A   1      38.604  29.245  28.626  1.00  0.00    -0.014 A 
BRANCH  35  36
ATOM     36  C   UNL A   1      40.005  28.870  28.933  1.00  0.00     0.031 A 
ATOM     37  C   UNL A   1      40.919  29.877  29.577  1.00  0.00     0.074 A 
ATOM     38  C   UNL A   1      40.462  27.654  28.578  1.00  0.00     0.049 A 
ATOM     39  N   UNL A   1      42.192  29.774  29.856  1.00  0.00    -0.248 NA
ATOM     40  C   UNL A   1      40.334  31.183  29.925  1.00  0.00     0.031 C 
ATOM     41  C   UNL A   1      39.676  26.615  27.909  1.00  0.00     0.029 A 
ATOM     42  N   UNL A   1      41.701  27.085  28.729  1.00  0.00    -0.354 N 
ATOM     43  C   UNL A   1      42.557  30.998  30.404  1.00  0.00     0.074 A 
ATOM     44  C   UNL A   1      41.394  31.853  30.351  1.00  0.00     0.031 C 
ATOM     45  C   UNL A   1      40.440  25.524  27.741  1.00  0.00     0.029 A 
ATOM     46  C   UNL A   1      41.779  25.797  28.250  1.00  0.00     0.049 A 
ATOM     47  H   UNL A   1      42.462  27.553  29.140  1.00  0.00     0.167 HD
ATOM     48  C   UNL A   1      43.747  31.364  30.936  1.00  0.00     0.037 A 
ATOM     49  C   UNL A   1      42.816  24.938  28.226  1.00  0.00     0.037 A 
ATOM     50  C   UNL A   1      44.889  30.493  31.010  1.00  0.00     0.049 A 
ATOM     51  C   UNL A   1      44.135  25.374  28.807  1.00  0.00     0.074 A 
ATOM     52  C   UNL A   1      46.128  30.747  31.569  1.00  0.00     0.029 A 
ATOM     53  N   UNL A   1      44.929  29.198  30.514  1.00  0.00    -0.354 N 
ATOM     54  N   UNL A   1      44.449  26.520  29.364  1.00  0.00    -0.248 NA
ATOM     55  C   UNL A   1      45.237  24.405  28.756  1.00  0.00     0.031 C 
ATOM     56  C   UNL A   1      46.933  29.622  31.372  1.00  0.00     0.029 A 
ATOM     57  C   UNL A   1      46.179  28.647  30.735  1.00  0.00     0.049 A 
ATOM     58  H   UNL A   1      44.179  28.738  30.071  1.00  0.00     0.167 HD
ATOM     59  C   UNL A   1      45.780  26.402  29.750  1.00  0.00     0.074 A 
ATOM     60  C   UNL A   1      46.205  25.067  29.376  1.00  0.00     0.031 C 
ATOM     61  C   UNL A   1      46.579  27.314  30.357  1.00  0.00     0.037 A 
BRANCH  48  62
ATOM     62  C   UNL A   1      43.864  32.754  31.497  1.00  0.00     0.058 A 
ATOM     63  C   UNL A   1      44.111  33.860  30.669  1.00  0.00     0.135 A 
ATOM     64  C   UNL A   1      43.685  32.991  32.870  1.00  0.00     0.135 A 
ATOM     65  F   UNL A   1      44.311  33.689  29.352  1.00  0.00    -0.206 F 
ATOM     66  C   UNL A   1      44.200  35.150  31.182  1.00  0.00     0.059 A 
ATOM     67  C   UNL A   1      43.740  34.277  33.401  1.00  0.00     0.059 A 
ATOM     68  F   UNL A   1      43.452  31.970  33.708  1.00  0.00    -0.206 F 
ATOM     69  C   UNL A   1      44.008  35.349  32.550  1.00  0.00     0.060 A 
BRANCH  69  70
ATOM     70  S   UNL A   1      44.107  37.032  33.192  1.00  0.00     0.124 S 
ATOM     71  O   UNL A   1      44.323  37.800  31.969  1.00  0.00    -0.237 OA
ATOM     72  O   UNL A   1      42.802  37.200  33.823  1.00  0.00    -0.237 OA
ATOM     73  O   UNL A   1      45.242  36.982  34.108  1.00  0.00    -0.744 OA
ENDBRANCH  69  70
ENDBRANCH  48  62
BRANCH  49  74
ATOM     74  C   UNL A   1      42.633  23.572  27.668  1.00  0.00     0.058 A 
ATOM     75  C   UNL A   1      42.743  23.341  26.288  1.00  0.00     0.135 A 
ATOM     76  C   UNL A   1      42.379  22.468  28.496  1.00  0.00     0.135 A 
ATOM     77  F   UNL A   1      42.979  24.365  25.454  1.00  0.00    -0.206 F 
ATOM     78  C   UNL A   1      42.601  22.066  25.749  1.00  0.00     0.059 A 
ATOM     79  C   UNL A   1      42.258  21.180  27.983  1.00  0.00     0.059 A 
ATOM     80  F   UNL A   1      42.282  22.632  29.825  1.00  0.00    -0.206 F 
ATOM     81  C   UNL A   1      42.365  20.991  26.606  1.00  0.00     0.060 A 
BRANCH  81  82
ATOM     82  S   UNL A   1      42.242  19.334  25.896  1.00  0.00     0.124 S 
ATOM     83  O   UNL A   1      40.806  19.219  25.665  1.00  0.00    -0.237 OA
ATOM     84  O   UNL A   1      43.074  19.452  24.704  1.00  0.00    -0.237 OA
ATOM     85  O   UNL A   1      42.782  18.477  26.947  1.00  0.00    -0.744 OA
ENDBRANCH  81  82
ENDBRANCH  49  74
BRANCH  61  86
ATOM     86  C   UNL A   1      47.991  26.904  30.670  1.00  0.00     0.058 A 
ATOM     87  C   UNL A   1      49.059  27.259  29.834  1.00  0.00     0.135 A 
ATOM     88  C   UNL A   1      48.285  26.221  31.862  1.00  0.00     0.135 A 
ATOM     89  F   UNL A   1      48.830  27.907  28.680  1.00  0.00    -0.206 F 
ATOM     90  C   UNL A   1      50.372  26.942  30.162  1.00  0.00     0.059 A 
ATOM     91  C   UNL A   1      49.593  25.919  32.224  1.00  0.00     0.059 A 
ATOM     92  F   UNL A   1      47.299  25.869  32.701  1.00  0.00    -0.206 F 
ATOM     93  C   UNL A   1      50.630  26.277  31.363  1.00  0.00     0.060 A 
BRANCH  93  94
ATOM     94  S   UNL A   1      52.344  25.918  31.797  1.00  0.00     0.124 S 
ATOM     95  O   UNL A   1      52.235  24.568  32.338  1.00  0.00    -0.237 OA
ATOM     96  O   UNL A   1      53.021  26.033  30.509  1.00  0.00    -0.237 OA
ATOM     97  O   UNL A   1      52.676  26.958  32.767  1.00  0.00    -0.744 OA
ENDBRANCH  93  94
ENDBRANCH  61  86
ENDBRANCH  35  36
ENDBRANCH  27  30
ENDBRANCH   1  26
TORSDOF 14
ENDMDL
MODEL 2
REMARK VINA RESULT:     -11.9      4.838     10.272
REMARK SMILES Cc1c(Br)c(C)c2c(c1Br)O[C@H](C(F)(F)F)C(C(=O)NCCCNC(=O)c1ccc(-c3c4nc(c(-c5c(F)cc(S(=O)(=O)[O-])cc5F)c5ccc([nH]5)c(-c5c(F)cc(S(=O)(=O)[O-])cc5F)c5nc(c(-c6c(F)cc(S(=O)(=O)[O-])cc6F)c6ccc3[nH]6)C=C5)C=C4)cc1)=C2
REMARK SMILES IDX 23 1 22 2 21 3 20 4 18 5 19 6 17 8 1 9 2 10 3 11 9 12 4 13
REMARK SMILES IDX 5 14 8 15 10 16 6 17 7 18 11 19 93 20 12 21 13 22 14 23
REMARK SMILES IDX 15 24 16 25 24 26 25 27 26 29 27 30 28 31 92 32 29 33 91 34
REMARK SMILES IDX 30 35 31 36 32 37 85 38 33 39 90 40 84 41 86 42 34 43 89 44
REMARK SMILES IDX 83 45 82 46 35 48 69 49 48 50 68 51 49 52 52 53 67 54 87 55
REMARK SMILES IDX 50 56 51 57 66 59 88 60 53 61 36 62 37 63 46 64 38 65 39 66
REMARK SMILES IDX 45 67 47 68 40 69 41 70 42 71 43 72 44 73 70 74 71 75 80 76
REMARK SMILES IDX 72 77 73 78 79 79 81 80 74 81 75 82 76 83 77 84 78 85 54 86
REMARK SMILES IDX 55 87 64 88 56 89 57 90 63 91 65 92 58 93 59 94 60 95 61 96
REMARK SMILES IDX 62 97
REMARK H PARENT 20 7 24 28 86 47 52 58
REMARK Flexibility Score: inf
ROOT
ATOM      1  C   UNL A   1      38.366  24.095  26.563  1.00  0.00     0.118 C 
ENDROOT
BRANCH   1   2
ATOM      2  C   UNL A   1      37.391  23.791  25.432  1.00  0.00     0.042 C 
BRANCH   2   3
ATOM      3  C   UNL A   1      36.759  22.416  25.575  1.00  0.00     0.118 C 
BRANCH   3   4
ATOM      4  N   UNL A   1      35.707  22.400  26.581  1.00  0.00    -0.352 N 
ATOM      5  C   UNL A   1      34.490  22.965  26.754  1.00  0.00     0.251 C 
ATOM      6  O   UNL A   1      33.906  22.654  27.796  1.00  0.00    -0.270 OA
ATOM      7  H   UNL A   1      35.946  21.823  27.342  1.00  0.00     0.163 HD
BRANCH   5   8
ATOM      8  C   UNL A   1      33.836  23.898  25.790  1.00  0.00     0.067 C 
ATOM      9  C   UNL A   1      31.207  28.901  22.481  1.00  0.00     0.047 C 
ATOM     10  C   UNL A   1      31.847  27.978  23.492  1.00  0.00    -0.019 A 
ATOM     11  C   UNL A   1      32.090  28.352  24.838  1.00  0.00     0.025 A 
ATOM     12  C   UNL A   1      32.200  26.675  23.093  1.00  0.00     0.064 A 
ATOM     13  Br  UNL A   1      31.571  30.104  25.426  1.00  0.00    -0.050 Br
ATOM     14  C   UNL A   1      32.698  27.458  25.760  1.00  0.00    -0.026 A 
ATOM     15  C   UNL A   1      32.797  25.783  23.995  1.00  0.00     0.142 A 
ATOM     16  Br  UNL A   1      31.842  26.055  21.314  1.00  0.00    -0.046 Br
ATOM     17  C   UNL A   1      32.981  27.835  27.198  1.00  0.00     0.046 C 
ATOM     18  C   UNL A   1      33.058  26.161  25.318  1.00  0.00     0.022 A 
ATOM     19  O   UNL A   1      33.161  24.555  23.510  1.00  0.00    -0.474 OA
ATOM     20  C   UNL A   1      33.728  25.180  26.184  1.00  0.00     0.026 C 
ATOM     21  C   UNL A   1      33.286  23.478  24.466  1.00  0.00     0.314 C 
BRANCH  21  22
ATOM     22  C   UNL A   1      31.946  22.726  24.585  1.00  0.00     0.429 C 
ATOM     23  F   UNL A   1      31.353  22.992  25.775  1.00  0.00    -0.167 F 
ATOM     24  F   UNL A   1      31.060  23.088  23.626  1.00  0.00    -0.167 F 
ATOM     25  F   UNL A   1      32.092  21.385  24.492  1.00  0.00    -0.167 F 
ENDBRANCH  21  22
ENDBRANCH   5   8
ENDBRANCH   3   4
ENDBRANCH   2   3
ENDBRANCH   1   2
BRANCH   1  26
ATOM     26  N   UNL A   1      39.754  23.961  26.128  1.00  0.00    -0.352 N 
ATOM     27  C   UNL A   1      40.844  24.750  26.399  1.00  0.00     0.251 C 
ATOM     28  H   UNL A   1      39.937  23.186  25.550  1.00  0.00     0.163 HD
ATOM     29  O   UNL A   1      41.856  24.646  25.707  1.00  0.00    -0.269 OA
BRANCH  27  30
ATOM     30  C   UNL A   1      40.798  25.710  27.516  1.00  0.00     0.039 A 
ATOM     31  C   UNL A   1      41.728  26.752  27.569  1.00  0.00     0.014 A 
ATOM     32  C   UNL A   1      39.845  25.565  28.527  1.00  0.00     0.014 A 
ATOM     33  C   UNL A   1      41.658  27.683  28.607  1.00  0.00     0.010 A 
ATOM     34  C   UNL A   1      39.711  26.548  29.497  1.00  0.00     0.010 A 
ATOM     35  C   UNL A   1      40.628  27.605  29.558  1.00  0.00    -0.014 A 
BRANCH  35  36
ATOM     36  C   UNL A   1      40.507  28.596  30.654  1.00  0.00     0.031 A 
ATOM     37  C   UNL A   1      41.397  28.480  31.861  1.00  0.00     0.074 A 
ATOM     38  C   UNL A   1      39.563  29.554  30.585  1.00  0.00     0.049 A 
ATOM     39  N   UNL A   1      41.398  29.195  32.956  1.00  0.00    -0.248 NA
ATOM     40  C   UNL A   1      42.397  27.398  31.852  1.00  0.00     0.031 C 
ATOM     41  C   UNL A   1      38.616  29.732  29.481  1.00  0.00     0.029 A 
ATOM     42  N   UNL A   1      39.240  30.557  31.463  1.00  0.00    -0.354 N 
ATOM     43  C   UNL A   1      42.389  28.648  33.762  1.00  0.00     0.074 A 
ATOM     44  C   UNL A   1      42.918  27.498  33.066  1.00  0.00     0.031 C 
ATOM     45  C   UNL A   1      37.845  30.803  29.731  1.00  0.00     0.029 A 
ATOM     46  C   UNL A   1      38.212  31.361  31.027  1.00  0.00     0.049 A 
ATOM     47  H   UNL A   1      39.700  30.689  32.322  1.00  0.00     0.167 HD
ATOM     48  C   UNL A   1      42.841  29.087  34.960  1.00  0.00     0.037 A 
ATOM     49  C   UNL A   1      37.633  32.428  31.612  1.00  0.00     0.037 A 
ATOM     50  C   UNL A   1      42.327  30.251  35.629  1.00  0.00     0.049 A 
ATOM     51  C   UNL A   1      38.140  32.886  32.953  1.00  0.00     0.074 A 
ATOM     52  C   UNL A   1      42.743  30.810  36.823  1.00  0.00     0.029 A 
ATOM     53  N   UNL A   1      41.286  31.038  35.158  1.00  0.00    -0.354 N 
ATOM     54  N   UNL A   1      39.111  32.384  33.680  1.00  0.00    -0.248 NA
ATOM     55  C   UNL A   1      37.477  34.051  33.553  1.00  0.00     0.031 C 
ATOM     56  C   UNL A   1      41.925  31.909  37.098  1.00  0.00     0.029 A 
ATOM     57  C   UNL A   1      41.032  32.066  36.049  1.00  0.00     0.049 A 
ATOM     58  H   UNL A   1      40.800  30.888  34.314  1.00  0.00     0.167 HD
ATOM     59  C   UNL A   1      39.189  33.186  34.814  1.00  0.00     0.074 A 
ATOM     60  C   UNL A   1      38.178  34.214  34.667  1.00  0.00     0.031 C 
ATOM     61  C   UNL A   1      40.021  33.081  35.880  1.00  0.00     0.037 A 
BRANCH  48  62
ATOM     62  C   UNL A   1      43.959  28.319  35.610  1.00  0.00     0.058 A 
ATOM     63  C   UNL A   1      45.305  28.601  35.326  1.00  0.00     0.135 A 
ATOM     64  C   UNL A   1      43.687  27.320  36.558  1.00  0.00     0.135 A 
ATOM     65  F   UNL A   1      45.622  29.532  34.411  1.00  0.00    -0.206 F 
ATOM     66  C   UNL A   1      46.341  27.906  35.940  1.00  0.00     0.059 A 
ATOM     67  C   UNL A   1      44.708  26.632  37.208  1.00  0.00     0.059 A 
ATOM     68  F   UNL A   1      42.419  27.005  36.864  1.00  0.00    -0.206 F 
ATOM     69  C   UNL A   1      46.032  26.926  36.884  1.00  0.00     0.060 A 
BRANCH  69  70
ATOM     70  S   UNL A   1      47.392  26.051  37.685  1.00  0.00     0.124 S 
ATOM     71  O   UNL A   1      47.391  26.660  39.012  1.00  0.00    -0.237 OA
ATOM     72  O   UNL A   1      46.944  24.663  37.626  1.00  0.00    -0.237 OA
ATOM     73  O   UNL A   1      48.544  26.372  36.850  1.00  0.00    -0.744 OA
ENDBRANCH  69  70
ENDBRANCH  48  62
BRANCH  49  74
ATOM     74  C   UNL A   1      36.539  33.153  30.912  1.00  0.00     0.058 A 
ATOM     75  C   UNL A   1      35.213  33.052  31.359  1.00  0.00     0.135 A 
ATOM     76  C   UNL A   1      36.795  33.984  29.811  1.00  0.00     0.135 A 
ATOM     77  F   UNL A   1      34.916  32.266  32.405  1.00  0.00    -0.206 F 
ATOM     78  C   UNL A   1      34.179  33.743  30.734  1.00  0.00     0.059 A 
ATOM     79  C   UNL A   1      35.783  34.703  29.185  1.00  0.00     0.059 A 
ATOM     80  F   UNL A   1      38.050  34.128  29.355  1.00  0.00    -0.206 F 
ATOM     81  C   UNL A   1      34.475  34.571  29.651  1.00  0.00     0.060 A 
BRANCH  81  82
ATOM     82  S   UNL A   1      33.131  35.507  28.889  1.00  0.00     0.124 S 
ATOM     83  O   UNL A   1      33.867  36.512  28.129  1.00  0.00    -0.237 OA
ATOM     84  O   UNL A   1      32.455  34.480  28.103  1.00  0.00    -0.237 OA
ATOM     85  O   UNL A   1      32.378  36.008  30.033  1.00  0.00    -0.744 OA
ENDBRANCH  81  82
ENDBRANCH  49  74
BRANCH  61  86
ATOM     86  C   UNL A   1      39.887  34.108  36.970  1.00  0.00     0.058 A 
ATOM     87  C   UNL A   1      40.468  35.379  36.853  1.00  0.00     0.135 A 
ATOM     88  C   UNL A   1      39.101  33.844  38.103  1.00  0.00     0.135 A 
ATOM     89  F   UNL A   1      41.234  35.678  35.792  1.00  0.00    -0.206 F 
ATOM     90  C   UNL A   1      40.283  36.352  37.829  1.00  0.00     0.059 A 
ATOM     91  C   UNL A   1      38.879  34.811  39.078  1.00  0.00     0.059 A 
ATOM     92  F   UNL A   1      38.514  32.646  38.256  1.00  0.00    -0.206 F 
ATOM     93  C   UNL A   1      39.481  36.061  38.935  1.00  0.00     0.060 A 
BRANCH  93  94
ATOM     94  S   UNL A   1      39.211  37.352  40.165  1.00  0.00     0.124 S 
ATOM     95  O   UNL A   1      38.510  36.618  41.214  1.00  0.00    -0.237 OA
ATOM     96  O   UNL A   1      40.573  37.768  40.484  1.00  0.00    -0.237 OA
ATOM     97  O   UNL A   1      38.411  38.343  39.451  1.00  0.00    -0.744 OA
ENDBRANCH  93  94
ENDBRANCH  61  86
ENDBRANCH  35  36
ENDBRANCH  27  30
ENDBRANCH   1  26
TORSDOF 14
ENDMDL
MODEL 3
REMARK VINA RESULT:     -11.8      3.349      9.380
REMARK SMILES Cc1c(Br)c(C)c2c(c1Br)O[C@H](C(F)(F)F)C(C(=O)NCCCNC(=O)c1ccc(-c3c4nc(c(-c5c(F)cc(S(=O)(=O)[O-])cc5F)c5ccc([nH]5)c(-c5c(F)cc(S(=O)(=O)[O-])cc5F)c5nc(c(-c6c(F)cc(S(=O)(=O)[O-])cc6F)c6ccc3[nH]6)C=C5)C=C4)cc1)=C2
REMARK SMILES IDX 23 1 22 2 21 3 20 4 18 5 19 6 17 8 1 9 2 10 3 11 9 12 4 13
REMARK SMILES IDX 5 14 8 15 10 16 6 17 7 18 11 19 93 20 12 21 13 22 14 23
REMARK SMILES IDX 15 24 16 25 24 26 25 27 26 29 27 30 28 31 92 32 29 33 91 34
REMARK SMILES IDX 30 35 31 36 32 37 85 38 33 39 90 40 84 41 86 42 34 43 89 44
REMARK SMILES IDX 83 45 82 46 35 48 69 49 48 50 68 51 49 52 52 53 67 54 87 55
REMARK SMILES IDX 50 56 51 57 66 59 88 60 53 61 36 62 37 63 46 64 38 65 39 66
REMARK SMILES IDX 45 67 47 68 40 69 41 70 42 71 43 72 44 73 70 74 71 75 80 76
REMARK SMILES IDX 72 77 73 78 79 79 81 80 74 81 75 82 76 83 77 84 78 85 54 86
REMARK SMILES IDX 55 87 64 88 56 89 57 90 63 91 65 92 58 93 59 94 60 95 61 96
REMARK SMILES IDX 62 97
REMARK H PARENT 20 7 24 28 86 47 52 58
REMARK Flexibility Score: inf
ROOT
ATOM      1  C   UNL A   1      36.665  23.898  25.142  1.00  0.00     0.118 C 
ENDROOT
BRANCH   1   2
ATOM      2  C   UNL A   1      35.535  23.832  26.162  1.00  0.00     0.042 C 
BRANCH   2   3
ATOM      3  C   UNL A   1      34.244  23.308  25.554  1.00  0.00     0.118 C 
BRANCH   3   4
ATOM      4  N   UNL A   1      34.238  23.421  24.104  1.00  0.00    -0.352 N 
ATOM      5  C   UNL A   1      33.768  24.288  23.178  1.00  0.00     0.251 C 
ATOM      6  O   UNL A   1      34.008  23.990  22.004  1.00  0.00    -0.270 OA
ATOM      7  H   UNL A   1      34.700  22.660  23.681  1.00  0.00     0.163 HD
BRANCH   5   8
ATOM      8  C   UNL A   1      33.016  25.540  23.482  1.00  0.00     0.067 C 
ATOM      9  C   UNL A   1      30.782  31.351  25.516  1.00  0.00     0.047 C 
ATOM     10  C   UNL A   1      31.558  30.081  25.253  1.00  0.00    -0.019 A 
ATOM     11  C   UNL A   1      32.720  29.719  25.981  1.00  0.00     0.025 A 
ATOM     12  C   UNL A   1      31.100  29.199  24.256  1.00  0.00     0.064 A 
ATOM     13  Br  UNL A   1      33.339  30.875  27.383  1.00  0.00    -0.050 Br
ATOM     14  C   UNL A   1      33.427  28.518  25.703  1.00  0.00    -0.026 A 
ATOM     15  C   UNL A   1      31.787  28.011  23.975  1.00  0.00     0.142 A 
ATOM     16  Br  UNL A   1      29.496  29.569  23.271  1.00  0.00    -0.046 Br
ATOM     17  C   UNL A   1      34.676  28.113  26.455  1.00  0.00     0.046 C 
ATOM     18  C   UNL A   1      32.947  27.664  24.679  1.00  0.00     0.022 A 
ATOM     19  O   UNL A   1      31.307  27.238  22.952  1.00  0.00    -0.474 OA
ATOM     20  C   UNL A   1      33.632  26.423  24.290  1.00  0.00     0.026 C 
ATOM     21  C   UNL A   1      31.643  25.832  22.971  1.00  0.00     0.314 C 
BRANCH  21  22
ATOM     22  C   UNL A   1      30.547  25.043  23.713  1.00  0.00     0.429 C 
ATOM     23  F   UNL A   1      30.282  23.877  23.074  1.00  0.00    -0.167 F 
ATOM     24  F   UNL A   1      30.909  24.714  24.976  1.00  0.00    -0.167 F 
ATOM     25  F   UNL A   1      29.385  25.729  23.808  1.00  0.00    -0.167 F 
ENDBRANCH  21  22
ENDBRANCH   5   8
ENDBRANCH   3   4
ENDBRANCH   2   3
ENDBRANCH   1   2
BRANCH   1  26
ATOM     26  N   UNL A   1      37.689  22.890  25.405  1.00  0.00    -0.352 N 
ATOM     27  C   UNL A   1      38.930  23.020  25.976  1.00  0.00     0.251 C 
ATOM     28  H   UNL A   1      37.453  21.975  25.129  1.00  0.00     0.163 HD
ATOM     29  O   UNL A   1      39.758  22.121  25.840  1.00  0.00    -0.269 OA
BRANCH  27  30
ATOM     30  C   UNL A   1      39.262  24.231  26.747  1.00  0.00     0.039 A 
ATOM     31  C   UNL A   1      38.788  24.368  28.055  1.00  0.00     0.014 A 
ATOM     32  C   UNL A   1      40.024  25.247  26.165  1.00  0.00     0.014 A 
ATOM     33  C   UNL A   1      39.136  25.498  28.796  1.00  0.00     0.010 A 
ATOM     34  C   UNL A   1      40.454  26.317  26.936  1.00  0.00     0.010 A 
ATOM     35  C   UNL A   1      39.999  26.463  28.252  1.00  0.00    -0.014 A 
BRANCH  35  36
ATOM     36  C   UNL A   1      40.412  27.658  29.025  1.00  0.00     0.031 A 
ATOM     37  C   UNL A   1      41.751  27.672  29.712  1.00  0.00     0.074 A 
ATOM     38  C   UNL A   1      39.562  28.695  29.156  1.00  0.00     0.049 A 
ATOM     39  N   UNL A   1      42.266  28.583  30.495  1.00  0.00    -0.248 NA
ATOM     40  C   UNL A   1      42.612  26.492  29.518  1.00  0.00     0.031 C 
ATOM     41  C   UNL A   1      38.221  28.769  28.570  1.00  0.00     0.029 A 
ATOM     42  N   UNL A   1      39.697  29.884  29.826  1.00  0.00    -0.354 N 
ATOM     43  C   UNL A   1      43.502  28.085  30.889  1.00  0.00     0.074 A 
ATOM     44  C   UNL A   1      43.630  26.763  30.321  1.00  0.00     0.031 C 
ATOM     45  C   UNL A   1      37.673  29.957  28.875  1.00  0.00     0.029 A 
ATOM     46  C   UNL A   1      38.603  30.710  29.710  1.00  0.00     0.049 A 
ATOM     47  H   UNL A   1      40.500  30.124  30.340  1.00  0.00     0.167 HD
ATOM     48  C   UNL A   1      44.460  28.691  31.629  1.00  0.00     0.037 A 
ATOM     49  C   UNL A   1      38.378  31.935  30.223  1.00  0.00     0.037 A 
ATOM     50  C   UNL A   1      44.333  30.020  32.164  1.00  0.00     0.049 A 
ATOM     51  C   UNL A   1      39.450  32.581  31.058  1.00  0.00     0.074 A 
ATOM     52  C   UNL A   1      45.260  30.746  32.889  1.00  0.00     0.029 A 
ATOM     53  N   UNL A   1      43.210  30.823  32.027  1.00  0.00    -0.354 N 
ATOM     54  N   UNL A   1      40.633  32.114  31.382  1.00  0.00    -0.248 NA
ATOM     55  C   UNL A   1      39.158  33.916  31.598  1.00  0.00     0.031 C 
ATOM     56  C   UNL A   1      44.681  31.972  33.230  1.00  0.00     0.029 A 
ATOM     57  C   UNL A   1      43.413  32.031  32.673  1.00  0.00     0.049 A 
ATOM     58  H   UNL A   1      42.391  30.572  31.542  1.00  0.00     0.167 HD
ATOM     59  C   UNL A   1      41.237  33.107  32.145  1.00  0.00     0.074 A 
ATOM     60  C   UNL A   1      40.293  34.206  32.221  1.00  0.00     0.031 C 
ATOM     61  C   UNL A   1      42.459  33.111  32.732  1.00  0.00     0.037 A 
BRANCH  48  62
ATOM     62  C   UNL A   1      45.732  27.932  31.883  1.00  0.00     0.058 A 
ATOM     63  C   UNL A   1      45.869  27.078  32.990  1.00  0.00     0.135 A 
ATOM     64  C   UNL A   1      46.813  28.023  30.991  1.00  0.00     0.135 A 
ATOM     65  F   UNL A   1      44.875  26.968  33.886  1.00  0.00    -0.206 F 
ATOM     66  C   UNL A   1      47.037  26.358  33.216  1.00  0.00     0.059 A 
ATOM     67  C   UNL A   1      47.982  27.290  31.182  1.00  0.00     0.059 A 
ATOM     68  F   UNL A   1      46.740  28.828  29.920  1.00  0.00    -0.206 F 
ATOM     69  C   UNL A   1      48.087  26.468  32.303  1.00  0.00     0.060 A 
BRANCH  69  70
ATOM     70  S   UNL A   1      49.587  25.510  32.605  1.00  0.00     0.124 S 
ATOM     71  O   UNL A   1      49.111  24.516  33.563  1.00  0.00    -0.237 OA
ATOM     72  O   UNL A   1      49.903  25.004  31.273  1.00  0.00    -0.237 OA
ATOM     73  O   UNL A   1      50.520  26.497  33.137  1.00  0.00    -0.744 OA
ENDBRANCH  69  70
ENDBRANCH  48  62
BRANCH  49  74
ATOM     74  C   UNL A   1      37.102  32.639  29.925  1.00  0.00     0.058 A 
ATOM     75  C   UNL A   1      35.955  32.401  30.697  1.00  0.00     0.135 A 
ATOM     76  C   UNL A   1      37.008  33.585  28.892  1.00  0.00     0.135 A 
ATOM     77  F   UNL A   1      35.992  31.501  31.692  1.00  0.00    -0.206 F 
ATOM     78  C   UNL A   1      34.759  33.068  30.451  1.00  0.00     0.059 A 
ATOM     79  C   UNL A   1      35.831  34.284  28.643  1.00  0.00     0.059 A 
ATOM     80  F   UNL A   1      38.083  33.863  28.136  1.00  0.00    -0.206 F 
ATOM     81  C   UNL A   1      34.709  34.013  29.426  1.00  0.00     0.060 A 
BRANCH  81  82
ATOM     82  S   UNL A   1      33.167  34.914  29.157  1.00  0.00     0.124 S 
ATOM     83  O   UNL A   1      32.563  34.865  30.484  1.00  0.00    -0.237 OA
ATOM     84  O   UNL A   1      33.651  36.221  28.724  1.00  0.00    -0.237 OA
ATOM     85  O   UNL A   1      32.493  34.130  28.128  1.00  0.00    -0.744 OA
ENDBRANCH  81  82
ENDBRANCH  49  74
BRANCH  61  86
ATOM     86  C   UNL A   1      42.860  34.341  33.498  1.00  0.00     0.058 A 
ATOM     87  C   UNL A   1      42.671  34.434  34.885  1.00  0.00     0.135 A 
ATOM     88  C   UNL A   1      43.516  35.400  32.850  1.00  0.00     0.135 A 
ATOM     89  F   UNL A   1      42.043  33.451  35.550  1.00  0.00    -0.206 F 
ATOM     90  C   UNL A   1      43.107  35.542  35.602  1.00  0.00     0.059 A 
ATOM     91  C   UNL A   1      43.987  36.504  33.552  1.00  0.00     0.059 A 
ATOM     92  F   UNL A   1      43.731  35.354  31.526  1.00  0.00    -0.206 F 
ATOM     93  C   UNL A   1      43.771  36.569  34.928  1.00  0.00     0.060 A 
BRANCH  93  94
ATOM     94  S   UNL A   1      44.376  37.975  35.884  1.00  0.00     0.124 S 
ATOM     95  O   UNL A   1      45.812  37.717  35.909  1.00  0.00    -0.237 OA
ATOM     96  O   UNL A   1      43.950  39.110  35.072  1.00  0.00    -0.237 OA
ATOM     97  O   UNL A   1      43.691  37.836  37.166  1.00  0.00    -0.744 OA
ENDBRANCH  93  94
ENDBRANCH  61  86
ENDBRANCH  35  36
ENDBRANCH  27  30
ENDBRANCH   1  26
TORSDOF 14
ENDMDL
