MODEL 1
REMARK VINA RESULT:     -12.0      0.000      0.000
REMARK SMILES O=C(NCCCNC(=O)c1ccc(-c2c3nc(c(-c4c(F)cc(S(=O)(=O)[O-])cc4F)c4ccc([nH]4)c(-c4c(F)cc(S(=O)(=O)[O-])cc4F)c4nc(c(-c5c(F)cc(S(=O)(=O)[O-])cc5F)c5ccc2[nH]5)C=C4)C=C3)cc1)c1ccc(NC(=O)c2cc(F)cc(Br)c2)cc1
REMARK SMILES IDX 5 1 4 2 3 3 1 4 2 5 76 7 77 8 92 9 78 10 91 11 79 12 80 13
REMARK SMILES IDX 81 14 82 16 83 17 84 18 90 19 85 20 88 21 86 22 87 23 89 24
REMARK SMILES IDX 6 25 7 26 8 27 9 29 10 30 11 31 75 32 12 33 74 34 13 35
REMARK SMILES IDX 14 36 15 37 68 38 16 39 73 40 67 41 69 42 17 43 72 44 66 45
REMARK SMILES IDX 65 46 18 48 52 49 31 50 51 51 32 52 35 53 50 54 70 55 33 56
REMARK SMILES IDX 34 57 49 59 71 60 36 61 19 62 20 63 29 64 21 65 22 66 28 67
REMARK SMILES IDX 30 68 23 69 24 70 25 71 26 72 27 73 53 74 54 75 63 76 55 77
REMARK SMILES IDX 56 78 62 79 64 80 57 81 58 82 59 83 60 84 61 85 37 86 38 87
REMARK SMILES IDX 47 88 39 89 40 90 46 91 48 92 41 93 42 94 43 95 44 96 45 97
REMARK H PARENT 3 6 80 15 7 28 69 47 35 58
REMARK Flexibility Score: inf
ROOT
ATOM      1  C   UNL A   1      32.993  28.297  25.846  1.00  0.00     0.042 C 
ENDROOT
BRANCH   1   2
ATOM      2  C   UNL A   1      31.500  28.523  25.724  1.00  0.00     0.118 C 
BRANCH   2   3
ATOM      3  N   UNL A   1      31.103  29.129  24.454  1.00  0.00    -0.352 N 
ATOM      4  O   UNL A   1      30.730  29.270  22.228  1.00  0.00    -0.269 OA
ATOM      5  C   UNL A   1      30.953  28.563  23.207  1.00  0.00     0.251 C 
ATOM      6  H   UNL A   1      30.914  30.095  24.496  1.00  0.00     0.163 HD
BRANCH   5   7
ATOM      7  C   UNL A   1      31.069  27.098  23.041  1.00  0.00     0.039 A 
ATOM      8  C   UNL A   1      30.127  26.262  23.620  1.00  0.00     0.016 A 
ATOM      9  C   UNL A   1      32.137  26.541  22.337  1.00  0.00     0.016 A 
ATOM     10  C   UNL A   1      30.357  24.894  23.671  1.00  0.00     0.027 A 
ATOM     11  C   UNL A   1      32.283  25.146  22.278  1.00  0.00     0.027 A 
ATOM     12  C   UNL A   1      31.390  24.301  22.955  1.00  0.00     0.041 A 
BRANCH  12  13
ATOM     13  N   UNL A   1      31.596  22.909  22.866  1.00  0.00    -0.322 N 
ATOM     14  C   UNL A   1      32.356  22.019  23.601  1.00  0.00     0.255 C 
ATOM     15  H   UNL A   1      31.096  22.484  22.133  1.00  0.00     0.170 HD
ATOM     16  O   UNL A   1      32.420  20.837  23.272  1.00  0.00    -0.269 OA
BRANCH  14  17
ATOM     17  C   UNL A   1      33.116  22.441  24.790  1.00  0.00     0.044 A 
ATOM     18  C   UNL A   1      32.536  22.253  26.047  1.00  0.00     0.053 A 
ATOM     19  C   UNL A   1      34.431  22.913  24.667  1.00  0.00     0.029 A 
ATOM     20  C   UNL A   1      33.317  22.454  27.179  1.00  0.00     0.125 A 
ATOM     21  C   UNL A   1      35.200  23.074  25.821  1.00  0.00     0.021 A 
ATOM     22  F   UNL A   1      32.792  22.222  28.389  1.00  0.00    -0.207 F 
ATOM     23  C   UNL A   1      34.651  22.836  27.080  1.00  0.00     0.055 A 
ATOM     24  Br  UNL A   1      37.039  23.488  25.667  1.00  0.00    -0.051 Br
ENDBRANCH  14  17
ENDBRANCH  12  13
ENDBRANCH   5   7
ENDBRANCH   2   3
ENDBRANCH   1   2
BRANCH   1  25
ATOM     25  C   UNL A   1      33.533  28.502  27.249  1.00  0.00     0.118 C 
BRANCH  25  26
ATOM     26  N   UNL A   1      33.531  29.902  27.658  1.00  0.00    -0.352 N 
ATOM     27  C   UNL A   1      34.503  30.658  28.270  1.00  0.00     0.251 C 
ATOM     28  H   UNL A   1      32.695  30.385  27.464  1.00  0.00     0.163 HD
ATOM     29  O   UNL A   1      34.218  31.779  28.684  1.00  0.00    -0.269 OA
BRANCH  27  30
ATOM     30  C   UNL A   1      35.869  30.122  28.459  1.00  0.00     0.039 A 
ATOM     31  C   UNL A   1      36.759  30.134  27.380  1.00  0.00     0.014 A 
ATOM     32  C   UNL A   1      36.279  29.605  29.689  1.00  0.00     0.014 A 
ATOM     33  C   UNL A   1      38.080  29.716  27.565  1.00  0.00     0.010 A 
ATOM     34  C   UNL A   1      37.618  29.292  29.900  1.00  0.00     0.010 A 
ATOM     35  C   UNL A   1      38.533  29.342  28.840  1.00  0.00    -0.014 A 
BRANCH  35  36
ATOM     36  C   UNL A   1      39.956  29.001  29.097  1.00  0.00     0.031 A 
ATOM     37  C   UNL A   1      40.894  30.045  29.644  1.00  0.00     0.074 A 
ATOM     38  C   UNL A   1      40.425  27.786  28.749  1.00  0.00     0.049 A 
ATOM     39  N   UNL A   1      42.189  29.980  29.817  1.00  0.00    -0.248 NA
ATOM     40  C   UNL A   1      40.305  31.343  30.009  1.00  0.00     0.031 C 
ATOM     41  C   UNL A   1      39.630  26.709  28.152  1.00  0.00     0.029 A 
ATOM     42  N   UNL A   1      41.687  27.255  28.833  1.00  0.00    -0.354 N 
ATOM     43  C   UNL A   1      42.572  31.233  30.283  1.00  0.00     0.074 A 
ATOM     44  C   UNL A   1      41.379  32.051  30.320  1.00  0.00     0.031 C 
ATOM     45  C   UNL A   1      40.418  25.641  27.945  1.00  0.00     0.029 A 
ATOM     46  C   UNL A   1      41.780  25.968  28.356  1.00  0.00     0.049 A 
ATOM     47  H   UNL A   1      42.456  27.750  29.199  1.00  0.00     0.167 HD
ATOM     48  C   UNL A   1      43.799  31.656  30.667  1.00  0.00     0.037 A 
ATOM     49  C   UNL A   1      42.843  25.148  28.252  1.00  0.00     0.037 A 
ATOM     50  C   UNL A   1      44.972  30.824  30.674  1.00  0.00     0.049 A 
ATOM     51  C   UNL A   1      44.188  25.628  28.719  1.00  0.00     0.074 A 
ATOM     52  C   UNL A   1      46.247  31.137  31.113  1.00  0.00     0.029 A 
ATOM     53  N   UNL A   1      45.014  29.512  30.228  1.00  0.00    -0.354 N 
ATOM     54  N   UNL A   1      44.519  26.800  29.209  1.00  0.00    -0.248 NA
ATOM     55  C   UNL A   1      45.303  24.676  28.625  1.00  0.00     0.031 C 
ATOM     56  C   UNL A   1      47.066  30.021  30.907  1.00  0.00     0.029 A 
ATOM     57  C   UNL A   1      46.294  29.004  30.370  1.00  0.00     0.049 A 
ATOM     58  H   UNL A   1      44.246  29.015  29.863  1.00  0.00     0.167 HD
ATOM     59  C   UNL A   1      45.876  26.718  29.499  1.00  0.00     0.074 A 
ATOM     60  C   UNL A   1      46.302  25.380  29.141  1.00  0.00     0.031 C 
ATOM     61  C   UNL A   1      46.696  27.667  30.014  1.00  0.00     0.037 A 
BRANCH  48  62
ATOM     62  C   UNL A   1      43.930  33.081  31.126  1.00  0.00     0.058 A 
ATOM     63  C   UNL A   1      44.316  34.105  30.245  1.00  0.00     0.135 A 
ATOM     64  C   UNL A   1      43.643  33.434  32.455  1.00  0.00     0.135 A 
ATOM     65  F   UNL A   1      44.619  33.819  28.970  1.00  0.00    -0.206 F 
ATOM     66  C   UNL A   1      44.440  35.422  30.672  1.00  0.00     0.059 A 
ATOM     67  C   UNL A   1      43.737  34.750  32.897  1.00  0.00     0.059 A 
ATOM     68  F   UNL A   1      43.272  32.494  33.339  1.00  0.00    -0.206 F 
ATOM     69  C   UNL A   1      44.153  35.735  32.002  1.00  0.00     0.060 A 
BRANCH  69  70
ATOM     70  S   UNL A   1      44.318  37.450  32.541  1.00  0.00     0.124 S 
ATOM     71  O   UNL A   1      43.469  37.462  33.729  1.00  0.00    -0.237 OA
ATOM     72  O   UNL A   1      45.752  37.565  32.788  1.00  0.00    -0.237 OA
ATOM     73  O   UNL A   1      43.817  38.213  31.402  1.00  0.00    -0.744 OA
ENDBRANCH  69  70
ENDBRANCH  48  62
BRANCH  49  74
ATOM     74  C   UNL A   1      42.668  23.777  27.708  1.00  0.00     0.058 A 
ATOM     75  C   UNL A   1      42.504  22.679  28.566  1.00  0.00     0.135 A 
ATOM     76  C   UNL A   1      42.639  23.537  26.325  1.00  0.00     0.135 A 
ATOM     77  F   UNL A   1      42.530  22.860  29.895  1.00  0.00    -0.206 F 
ATOM     78  C   UNL A   1      42.331  21.390  28.076  1.00  0.00     0.059 A 
ATOM     79  C   UNL A   1      42.447  22.260  25.810  1.00  0.00     0.059 A 
ATOM     80  F   UNL A   1      42.773  24.557  25.464  1.00  0.00    -0.206 F 
ATOM     81  C   UNL A   1      42.302  21.190  26.694  1.00  0.00     0.060 A 
BRANCH  81  82
ATOM     82  S   UNL A   1      42.019  19.522  26.064  1.00  0.00     0.124 S 
ATOM     83  O   UNL A   1      42.456  18.705  27.190  1.00  0.00    -0.237 OA
ATOM     84  O   UNL A   1      40.583  19.530  25.799  1.00  0.00    -0.237 OA
ATOM     85  O   UNL A   1      42.866  19.467  24.875  1.00  0.00    -0.744 OA
ENDBRANCH  81  82
ENDBRANCH  49  74
BRANCH  61  86
ATOM     86  C   UNL A   1      48.129  27.283  30.248  1.00  0.00     0.058 A 
ATOM     87  C   UNL A   1      49.123  27.544  29.293  1.00  0.00     0.135 A 
ATOM     88  C   UNL A   1      48.517  26.693  31.461  1.00  0.00     0.135 A 
ATOM     89  F   UNL A   1      48.798  28.101  28.115  1.00  0.00    -0.206 F 
ATOM     90  C   UNL A   1      50.453  27.214  29.525  1.00  0.00     0.059 A 
ATOM     91  C   UNL A   1      49.846  26.375  31.722  1.00  0.00     0.059 A 
ATOM     92  F   UNL A   1      47.604  26.432  32.409  1.00  0.00    -0.206 F 
ATOM     93  C   UNL A   1      50.805  26.629  30.743  1.00  0.00     0.060 A 
BRANCH  93  94
ATOM     94  S   UNL A   1      52.540  26.237  31.048  1.00  0.00     0.124 S 
ATOM     95  O   UNL A   1      52.971  27.395  31.825  1.00  0.00    -0.237 OA
ATOM     96  O   UNL A   1      52.456  24.977  31.782  1.00  0.00    -0.237 OA
ATOM     97  O   UNL A   1      53.105  26.136  29.706  1.00  0.00    -0.744 OA
ENDBRANCH  93  94
ENDBRANCH  61  86
ENDBRANCH  35  36
ENDBRANCH  27  30
ENDBRANCH  25  26
ENDBRANCH   1  25
TORSDOF 15
ENDMDL
MODEL 2
REMARK VINA RESULT:     -12.0      5.008     10.449
REMARK SMILES O=C(NCCCNC(=O)c1ccc(-c2c3nc(c(-c4c(F)cc(S(=O)(=O)[O-])cc4F)c4ccc([nH]4)c(-c4c(F)cc(S(=O)(=O)[O-])cc4F)c4nc(c(-c5c(F)cc(S(=O)(=O)[O-])cc5F)c5ccc2[nH]5)C=C4)C=C3)cc1)c1ccc(NC(=O)c2cc(F)cc(Br)c2)cc1
REMARK SMILES IDX 5 1 4 2 3 3 1 4 2 5 76 7 77 8 92 9 78 10 91 11 79 12 80 13
REMARK SMILES IDX 81 14 82 16 83 17 84 18 90 19 85 20 88 21 86 22 87 23 89 24
REMARK SMILES IDX 6 25 7 26 8 27 9 29 10 30 11 31 75 32 12 33 74 34 13 35
REMARK SMILES IDX 14 36 15 37 68 38 16 39 73 40 67 41 69 42 17 43 72 44 66 45
REMARK SMILES IDX 65 46 18 48 52 49 31 50 51 51 32 52 35 53 50 54 70 55 33 56
REMARK SMILES IDX 34 57 49 59 71 60 36 61 19 62 20 63 29 64 21 65 22 66 28 67
REMARK SMILES IDX 30 68 23 69 24 70 25 71 26 72 27 73 53 74 54 75 63 76 55 77
REMARK SMILES IDX 56 78 62 79 64 80 57 81 58 82 59 83 60 84 61 85 37 86 38 87
REMARK SMILES IDX 47 88 39 89 40 90 46 91 48 92 41 93 42 94 43 95 44 96 45 97
REMARK H PARENT 3 6 80 15 7 28 69 47 35 58
REMARK Flexibility Score: inf
ROOT
ATOM      1  C   UNL A   1      38.970  22.023  26.289  1.00  0.00     0.042 C 
ENDROOT
BRANCH   1   2
ATOM      2  C   UNL A   1      37.582  22.325  25.764  1.00  0.00     0.118 C 
BRANCH   2   3
ATOM      3  N   UNL A   1      37.545  22.584  24.325  1.00  0.00    -0.352 N 
ATOM      4  O   UNL A   1      36.638  22.981  22.292  1.00  0.00    -0.269 OA
ATOM      5  C   UNL A   1      36.489  22.927  23.510  1.00  0.00     0.251 C 
ATOM      6  H   UNL A   1      38.413  22.500  23.867  1.00  0.00     0.163 HD
BRANCH   5   7
ATOM      7  C   UNL A   1      35.166  23.223  24.100  1.00  0.00     0.039 A 
ATOM      8  C   UNL A   1      35.025  24.284  24.981  1.00  0.00     0.016 A 
ATOM      9  C   UNL A   1      34.059  22.424  23.808  1.00  0.00     0.016 A 
ATOM     10  C   UNL A   1      33.854  24.422  25.714  1.00  0.00     0.027 A 
ATOM     11  C   UNL A   1      32.837  22.661  24.457  1.00  0.00     0.027 A 
ATOM     12  C   UNL A   1      32.722  23.668  25.429  1.00  0.00     0.041 A 
BRANCH  12  13
ATOM     13  N   UNL A   1      31.470  23.849  26.053  1.00  0.00    -0.322 N 
ATOM     14  C   UNL A   1      30.601  24.921  26.130  1.00  0.00     0.255 C 
ATOM     15  H   UNL A   1      31.150  23.050  26.529  1.00  0.00     0.170 HD
ATOM     16  O   UNL A   1      29.580  24.844  26.808  1.00  0.00    -0.269 OA
BRANCH  14  17
ATOM     17  C   UNL A   1      30.858  26.184  25.418  1.00  0.00     0.044 A 
ATOM     18  C   UNL A   1      30.374  26.320  24.115  1.00  0.00     0.053 A 
ATOM     19  C   UNL A   1      31.472  27.261  26.074  1.00  0.00     0.029 A 
ATOM     20  C   UNL A   1      30.428  27.569  23.509  1.00  0.00     0.125 A 
ATOM     21  C   UNL A   1      31.481  28.511  25.453  1.00  0.00     0.021 A 
ATOM     22  F   UNL A   1      29.916  27.727  22.282  1.00  0.00    -0.207 F 
ATOM     23  C   UNL A   1      30.951  28.674  24.174  1.00  0.00     0.055 A 
ATOM     24  Br  UNL A   1      32.097  30.023  26.407  1.00  0.00    -0.051 Br
ENDBRANCH  14  17
ENDBRANCH  12  13
ENDBRANCH   5   7
ENDBRANCH   2   3
ENDBRANCH   1   2
BRANCH   1  25
ATOM     25  C   UNL A   1      39.673  23.224  26.893  1.00  0.00     0.118 C 
BRANCH  25  26
ATOM     26  N   UNL A   1      40.911  23.563  26.200  1.00  0.00    -0.352 N 
ATOM     27  C   UNL A   1      41.680  24.703  26.245  1.00  0.00     0.251 C 
ATOM     28  H   UNL A   1      41.252  22.861  25.601  1.00  0.00     0.163 HD
ATOM     29  O   UNL A   1      42.595  24.841  25.438  1.00  0.00    -0.269 OA
BRANCH  27  30
ATOM     30  C   UNL A   1      41.393  25.769  27.232  1.00  0.00     0.039 A 
ATOM     31  C   UNL A   1      40.404  25.552  28.196  1.00  0.00     0.014 A 
ATOM     32  C   UNL A   1      42.089  26.978  27.212  1.00  0.00     0.014 A 
ATOM     33  C   UNL A   1      40.183  26.510  29.191  1.00  0.00     0.010 A 
ATOM     34  C   UNL A   1      41.945  27.879  28.261  1.00  0.00     0.010 A 
ATOM     35  C   UNL A   1      40.990  27.657  29.262  1.00  0.00    -0.014 A 
BRANCH  35  36
ATOM     36  C   UNL A   1      40.859  28.639  30.369  1.00  0.00     0.031 A 
ATOM     37  C   UNL A   1      41.728  28.515  31.592  1.00  0.00     0.074 A 
ATOM     38  C   UNL A   1      39.896  29.581  30.316  1.00  0.00     0.049 A 
ATOM     39  N   UNL A   1      41.680  29.193  32.710  1.00  0.00    -0.248 NA
ATOM     40  C   UNL A   1      42.764  27.468  31.569  1.00  0.00     0.031 C 
ATOM     41  C   UNL A   1      38.948  29.764  29.213  1.00  0.00     0.029 A 
ATOM     42  N   UNL A   1      39.543  30.552  31.218  1.00  0.00    -0.354 N 
ATOM     43  C   UNL A   1      42.656  28.637  33.531  1.00  0.00     0.074 A 
ATOM     44  C   UNL A   1      43.247  27.538  32.800  1.00  0.00     0.031 C 
ATOM     45  C   UNL A   1      38.138  30.798  29.494  1.00  0.00     0.029 A 
ATOM     46  C   UNL A   1      38.481  31.326  30.811  1.00  0.00     0.049 A 
ATOM     47  H   UNL A   1      40.006  30.683  32.077  1.00  0.00     0.167 HD
ATOM     48  C   UNL A   1      43.040  29.023  34.771  1.00  0.00     0.037 A 
ATOM     49  C   UNL A   1      37.848  32.340  31.432  1.00  0.00     0.037 A 
ATOM     50  C   UNL A   1      42.482  30.147  35.474  1.00  0.00     0.049 A 
ATOM     51  C   UNL A   1      38.317  32.773  32.793  1.00  0.00     0.074 A 
ATOM     52  C   UNL A   1      42.853  30.663  36.703  1.00  0.00     0.029 A 
ATOM     53  N   UNL A   1      41.441  30.934  35.007  1.00  0.00    -0.354 N 
ATOM     54  N   UNL A   1      39.279  32.270  33.531  1.00  0.00    -0.248 NA
ATOM     55  C   UNL A   1      37.620  33.913  33.405  1.00  0.00     0.031 C 
ATOM     56  C   UNL A   1      42.017  31.747  36.992  1.00  0.00     0.029 A 
ATOM     57  C   UNL A   1      41.148  31.925  35.928  1.00  0.00     0.049 A 
ATOM     58  H   UNL A   1      40.978  30.806  34.148  1.00  0.00     0.167 HD
ATOM     59  C   UNL A   1      39.314  33.044  34.684  1.00  0.00     0.074 A 
ATOM     60  C   UNL A   1      38.287  34.056  34.542  1.00  0.00     0.031 C 
ATOM     61  C   UNL A   1      40.125  32.927  35.765  1.00  0.00     0.037 A 
BRANCH  48  62
ATOM     62  C   UNL A   1      44.127  28.228  35.439  1.00  0.00     0.058 A 
ATOM     63  C   UNL A   1      43.833  27.145  36.283  1.00  0.00     0.135 A 
ATOM     64  C   UNL A   1      45.479  28.537  35.214  1.00  0.00     0.135 A 
ATOM     65  F   UNL A   1      42.558  26.820  36.545  1.00  0.00    -0.206 F 
ATOM     66  C   UNL A   1      44.840  26.413  36.904  1.00  0.00     0.059 A 
ATOM     67  C   UNL A   1      46.503  27.802  35.806  1.00  0.00     0.059 A 
ATOM     68  F   UNL A   1      45.815  29.563  34.419  1.00  0.00    -0.206 F 
ATOM     69  C   UNL A   1      46.172  26.752  36.662  1.00  0.00     0.060 A 
BRANCH  69  70
ATOM     70  S   UNL A   1      47.468  25.793  37.474  1.00  0.00     0.124 S 
ATOM     71  O   UNL A   1      46.888  25.585  38.797  1.00  0.00    -0.237 OA
ATOM     72  O   UNL A   1      47.558  24.606  36.630  1.00  0.00    -0.237 OA
ATOM     73  O   UNL A   1      48.626  26.680  37.427  1.00  0.00    -0.744 OA
ENDBRANCH  69  70
ENDBRANCH  48  62
BRANCH  49  74
ATOM     74  C   UNL A   1      36.720  33.032  30.758  1.00  0.00     0.058 A 
ATOM     75  C   UNL A   1      35.394  32.791  31.147  1.00  0.00     0.135 A 
ATOM     76  C   UNL A   1      36.943  33.962  29.731  1.00  0.00     0.135 A 
ATOM     77  F   UNL A   1      35.133  31.906  32.122  1.00  0.00    -0.206 F 
ATOM     78  C   UNL A   1      34.326  33.435  30.534  1.00  0.00     0.059 A 
ATOM     79  C   UNL A   1      35.892  34.635  29.116  1.00  0.00     0.059 A 
ATOM     80  F   UNL A   1      38.194  34.241  29.336  1.00  0.00    -0.206 F 
ATOM     81  C   UNL A   1      34.585  34.358  29.519  1.00  0.00     0.060 A 
BRANCH  81  82
ATOM     82  S   UNL A   1      33.197  35.234  28.766  1.00  0.00     0.124 S 
ATOM     83  O   UNL A   1      33.885  36.241  27.967  1.00  0.00    -0.237 OA
ATOM     84  O   UNL A   1      32.529  34.172  28.019  1.00  0.00    -0.237 OA
ATOM     85  O   UNL A   1      32.456  35.738  29.919  1.00  0.00    -0.744 OA
ENDBRANCH  81  82
ENDBRANCH  49  74
BRANCH  61  86
ATOM     86  C   UNL A   1      39.952  33.934  36.865  1.00  0.00     0.058 A 
ATOM     87  C   UNL A   1      40.610  35.172  36.836  1.00  0.00     0.135 A 
ATOM     88  C   UNL A   1      39.080  33.675  37.934  1.00  0.00     0.135 A 
ATOM     89  F   UNL A   1      41.460  35.462  35.837  1.00  0.00    -0.206 F 
ATOM     90  C   UNL A   1      40.425  36.115  37.841  1.00  0.00     0.059 A 
ATOM     91  C   UNL A   1      38.863  34.612  38.939  1.00  0.00     0.059 A 
ATOM     92  F   UNL A   1      38.420  32.509  38.001  1.00  0.00    -0.206 F 
ATOM     93  C   UNL A   1      39.549  35.825  38.890  1.00  0.00     0.060 A 
BRANCH  93  94
ATOM     94  S   UNL A   1      39.289  37.068  40.172  1.00  0.00     0.124 S 
ATOM     95  O   UNL A   1      40.661  37.410  40.532  1.00  0.00    -0.237 OA
ATOM     96  O   UNL A   1      38.544  38.104  39.462  1.00  0.00    -0.237 OA
ATOM     97  O   UNL A   1      38.531  36.349  41.192  1.00  0.00    -0.744 OA
ENDBRANCH  93  94
ENDBRANCH  61  86
ENDBRANCH  35  36
ENDBRANCH  27  30
ENDBRANCH  25  26
ENDBRANCH   1  25
TORSDOF 15
ENDMDL
MODEL 3
REMARK VINA RESULT:     -11.9      2.803      3.738
REMARK SMILES O=C(NCCCNC(=O)c1ccc(-c2c3nc(c(-c4c(F)cc(S(=O)(=O)[O-])cc4F)c4ccc([nH]4)c(-c4c(F)cc(S(=O)(=O)[O-])cc4F)c4nc(c(-c5c(F)cc(S(=O)(=O)[O-])cc5F)c5ccc2[nH]5)C=C4)C=C3)cc1)c1ccc(NC(=O)c2cc(F)cc(Br)c2)cc1
REMARK SMILES IDX 5 1 4 2 3 3 1 4 2 5 76 7 77 8 92 9 78 10 91 11 79 12 80 13
REMARK SMILES IDX 81 14 82 16 83 17 84 18 90 19 85 20 88 21 86 22 87 23 89 24
REMARK SMILES IDX 6 25 7 26 8 27 9 29 10 30 11 31 75 32 12 33 74 34 13 35
REMARK SMILES IDX 14 36 15 37 68 38 16 39 73 40 67 41 69 42 17 43 72 44 66 45
REMARK SMILES IDX 65 46 18 48 52 49 31 50 51 51 32 52 35 53 50 54 70 55 33 56
REMARK SMILES IDX 34 57 49 59 71 60 36 61 19 62 20 63 29 64 21 65 22 66 28 67
REMARK SMILES IDX 30 68 23 69 24 70 25 71 26 72 27 73 53 74 54 75 63 76 55 77
REMARK SMILES IDX 56 78 62 79 64 80 57 81 58 82 59 83 60 84 61 85 37 86 38 87
REMARK SMILES IDX 47 88 39 89 40 90 46 91 48 92 41 93 42 94 43 95 44 96 45 97
REMARK H PARENT 3 6 80 15 7 28 69 47 35 58
REMARK Flexibility Score: inf
ROOT
ATOM      1  C   UNL A   1      34.342  31.219  27.617  1.00  0.00     0.042 C 
ENDROOT
BRANCH   1   2
ATOM      2  C   UNL A   1      33.560  30.204  26.807  1.00  0.00     0.118 C 
BRANCH   2   3
ATOM      3  N   UNL A   1      32.718  29.330  27.621  1.00  0.00    -0.352 N 
ATOM      4  O   UNL A   1      31.277  27.650  28.086  1.00  0.00    -0.269 OA
ATOM      5  C   UNL A   1      32.041  28.180  27.283  1.00  0.00     0.251 C 
ATOM      6  H   UNL A   1      32.619  29.609  28.561  1.00  0.00     0.163 HD
BRANCH   5   7
ATOM      7  C   UNL A   1      32.224  27.581  25.943  1.00  0.00     0.039 A 
ATOM      8  C   UNL A   1      31.130  27.413  25.107  1.00  0.00     0.016 A 
ATOM      9  C   UNL A   1      33.481  27.149  25.520  1.00  0.00     0.016 A 
ATOM     10  C   UNL A   1      31.252  26.644  23.958  1.00  0.00     0.027 A 
ATOM     11  C   UNL A   1      33.614  26.491  24.286  1.00  0.00     0.027 A 
ATOM     12  C   UNL A   1      32.491  26.225  23.489  1.00  0.00     0.041 A 
BRANCH  12  13
ATOM     13  N   UNL A   1      32.689  25.551  22.265  1.00  0.00    -0.322 N 
ATOM     14  C   UNL A   1      33.134  24.282  21.949  1.00  0.00     0.255 C 
ATOM     15  H   UNL A   1      32.462  26.096  21.477  1.00  0.00     0.170 HD
ATOM     16  O   UNL A   1      33.285  23.952  20.775  1.00  0.00    -0.269 OA
BRANCH  14  17
ATOM     17  C   UNL A   1      33.448  23.286  22.986  1.00  0.00     0.044 A 
ATOM     18  C   UNL A   1      32.428  22.430  23.411  1.00  0.00     0.053 A 
ATOM     19  C   UNL A   1      34.761  23.127  23.451  1.00  0.00     0.029 A 
ATOM     20  C   UNL A   1      32.755  21.358  24.233  1.00  0.00     0.125 A 
ATOM     21  C   UNL A   1      35.065  22.022  24.248  1.00  0.00     0.021 A 
ATOM     22  F   UNL A   1      31.799  20.496  24.602  1.00  0.00    -0.207 F 
ATOM     23  C   UNL A   1      34.068  21.128  24.634  1.00  0.00     0.055 A 
ATOM     24  Br  UNL A   1      36.867  21.663  24.697  1.00  0.00    -0.051 Br
ENDBRANCH  14  17
ENDBRANCH  12  13
ENDBRANCH   5   7
ENDBRANCH   2   3
ENDBRANCH   1   2
BRANCH   1  25
ATOM     25  C   UNL A   1      35.614  30.666  28.231  1.00  0.00     0.118 C 
BRANCH  25  26
ATOM     26  N   UNL A   1      35.554  30.591  29.686  1.00  0.00    -0.352 N 
ATOM     27  C   UNL A   1      36.515  30.240  30.606  1.00  0.00     0.251 C 
ATOM     28  H   UNL A   1      34.682  30.831  30.074  1.00  0.00     0.163 HD
ATOM     29  O   UNL A   1      36.190  30.076  31.779  1.00  0.00    -0.269 OA
BRANCH  27  30
ATOM     30  C   UNL A   1      37.919  30.029  30.187  1.00  0.00     0.039 A 
ATOM     31  C   UNL A   1      38.879  29.727  31.159  1.00  0.00     0.014 A 
ATOM     32  C   UNL A   1      38.297  30.131  28.848  1.00  0.00     0.014 A 
ATOM     33  C   UNL A   1      40.190  29.435  30.772  1.00  0.00     0.010 A 
ATOM     34  C   UNL A   1      39.571  29.736  28.454  1.00  0.00     0.010 A 
ATOM     35  C   UNL A   1      40.533  29.386  29.411  1.00  0.00    -0.014 A 
BRANCH  35  36
ATOM     36  C   UNL A   1      41.885  28.970  28.959  1.00  0.00     0.031 A 
ATOM     37  C   UNL A   1      42.992  29.986  28.858  1.00  0.00     0.074 A 
ATOM     38  C   UNL A   1      42.092  27.702  28.548  1.00  0.00     0.049 A 
ATOM     39  N   UNL A   1      44.197  29.848  28.369  1.00  0.00    -0.248 NA
ATOM     40  C   UNL A   1      42.691  31.346  29.335  1.00  0.00     0.031 C 
ATOM     41  C   UNL A   1      41.083  26.639  28.537  1.00  0.00     0.029 A 
ATOM     42  N   UNL A   1      43.214  27.095  28.044  1.00  0.00    -0.354 N 
ATOM     43  C   UNL A   1      44.787  31.104  28.455  1.00  0.00     0.074 A 
ATOM     44  C   UNL A   1      43.791  32.002  28.997  1.00  0.00     0.031 C 
ATOM     45  C   UNL A   1      41.639  25.508  28.073  1.00  0.00     0.029 A 
ATOM     46  C   UNL A   1      43.029  25.773  27.717  1.00  0.00     0.049 A 
ATOM     47  H   UNL A   1      44.073  27.564  27.928  1.00  0.00     0.167 HD
ATOM     48  C   UNL A   1      46.050  31.471  28.132  1.00  0.00     0.037 A 
ATOM     49  C   UNL A   1      43.880  24.876  27.181  1.00  0.00     0.037 A 
ATOM     50  C   UNL A   1      47.051  30.564  27.638  1.00  0.00     0.049 A 
ATOM     51  C   UNL A   1      45.287  25.299  26.866  1.00  0.00     0.074 A 
ATOM     52  C   UNL A   1      48.380  30.823  27.350  1.00  0.00     0.029 A 
ATOM     53  N   UNL A   1      46.836  29.222  27.364  1.00  0.00    -0.354 N 
ATOM     54  N   UNL A   1      45.842  26.479  27.005  1.00  0.00    -0.248 NA
ATOM     55  C   UNL A   1      46.185  24.269  26.325  1.00  0.00     0.031 C 
ATOM     56  C   UNL A   1      48.962  29.642  26.877  1.00  0.00     0.029 A 
ATOM     57  C   UNL A   1      48.004  28.641  26.901  1.00  0.00     0.049 A 
ATOM     58  H   UNL A   1      45.980  28.752  27.482  1.00  0.00     0.167 HD
ATOM     59  C   UNL A   1      47.160  26.328  26.588  1.00  0.00     0.074 A 
ATOM     60  C   UNL A   1      47.321  24.941  26.202  1.00  0.00     0.031 C 
ATOM     61  C   UNL A   1      48.147  27.256  26.529  1.00  0.00     0.037 A 
BRANCH  48  62
ATOM     62  C   UNL A   1      46.422  32.915  28.319  1.00  0.00     0.058 A 
ATOM     63  C   UNL A   1      46.814  33.416  29.571  1.00  0.00     0.135 A 
ATOM     64  C   UNL A   1      46.410  33.804  27.232  1.00  0.00     0.135 A 
ATOM     65  F   UNL A   1      46.826  32.613  30.647  1.00  0.00    -0.206 F 
ATOM     66  C   UNL A   1      47.154  34.753  29.746  1.00  0.00     0.059 A 
ATOM     67  C   UNL A   1      46.771  35.140  27.379  1.00  0.00     0.059 A 
ATOM     68  F   UNL A   1      46.041  33.378  26.015  1.00  0.00    -0.206 F 
ATOM     69  C   UNL A   1      47.126  35.610  28.644  1.00  0.00     0.060 A 
BRANCH  69  70
ATOM     70  S   UNL A   1      47.570  37.342  28.884  1.00  0.00     0.124 S 
ATOM     71  O   UNL A   1      46.547  37.774  29.831  1.00  0.00    -0.237 OA
ATOM     72  O   UNL A   1      48.926  37.249  29.416  1.00  0.00    -0.237 OA
ATOM     73  O   UNL A   1      47.464  37.909  27.542  1.00  0.00    -0.744 OA
ENDBRANCH  69  70
ENDBRANCH  48  62
BRANCH  49  74
ATOM     74  C   UNL A   1      43.428  23.482  26.937  1.00  0.00     0.058 A 
ATOM     75  C   UNL A   1      43.239  23.008  25.630  1.00  0.00     0.135 A 
ATOM     76  C   UNL A   1      43.199  22.592  27.996  1.00  0.00     0.135 A 
ATOM     77  F   UNL A   1      43.442  23.826  24.585  1.00  0.00    -0.206 F 
ATOM     78  C   UNL A   1      42.826  21.705  25.380  1.00  0.00     0.059 A 
ATOM     79  C   UNL A   1      42.804  21.277  27.771  1.00  0.00     0.059 A 
ATOM     80  F   UNL A   1      43.384  22.993  29.263  1.00  0.00    -0.206 F 
ATOM     81  C   UNL A   1      42.612  20.845  26.459  1.00  0.00     0.060 A 
BRANCH  81  82
ATOM     82  S   UNL A   1      42.130  19.136  26.126  1.00  0.00     0.124 S 
ATOM     83  O   UNL A   1      42.891  18.848  24.916  1.00  0.00    -0.237 OA
ATOM     84  O   UNL A   1      42.570  18.449  27.337  1.00  0.00    -0.237 OA
ATOM     85  O   UNL A   1      40.682  19.226  25.958  1.00  0.00    -0.744 OA
ENDBRANCH  81  82
ENDBRANCH  49  74
BRANCH  61  86
ATOM     86  C   UNL A   1      49.495  26.795  26.055  1.00  0.00     0.058 A 
ATOM     87  C   UNL A   1      49.898  26.955  24.722  1.00  0.00     0.135 A 
ATOM     88  C   UNL A   1      50.411  26.233  26.959  1.00  0.00     0.135 A 
ATOM     89  F   UNL A   1      49.054  27.482  23.819  1.00  0.00    -0.206 F 
ATOM     90  C   UNL A   1      51.158  26.554  24.293  1.00  0.00     0.059 A 
ATOM     91  C   UNL A   1      51.684  25.845  26.557  1.00  0.00     0.059 A 
ATOM     92  F   UNL A   1      50.075  26.068  28.248  1.00  0.00    -0.206 F 
ATOM     93  C   UNL A   1      52.045  26.000  25.219  1.00  0.00     0.060 A 
BRANCH  93  94
ATOM     94  S   UNL A   1      53.691  25.514  24.660  1.00  0.00     0.124 S 
ATOM     95  O   UNL A   1      54.545  26.245  25.592  1.00  0.00    -0.237 OA
ATOM     96  O   UNL A   1      53.668  24.064  24.826  1.00  0.00    -0.237 OA
ATOM     97  O   UNL A   1      53.730  25.979  23.276  1.00  0.00    -0.744 OA
ENDBRANCH  93  94
ENDBRANCH  61  86
ENDBRANCH  35  36
ENDBRANCH  27  30
ENDBRANCH  25  26
ENDBRANCH   1  25
TORSDOF 15
ENDMDL
