MODEL 1
REMARK VINA RESULT:     -12.2      0.000      0.000
REMARK SMILES CCS(=O)(=O)Nc1ccc(N2CC[NH+](C)CC2)cc1C(=O)NCCCNC(=O)c1ccc(-c2c3nc(c(-c4c(F)cc(S(=O)(=O)[O-])cc4F)c4ccc([nH]4)c(-c4c(F)cc(S(=O)(=O)[O-])cc4F)c4nc(c(-c5c(F)cc(S(=O)(=O)[O-])cc5F)c5ccc2[nH]5)C=C4)C=C3)cc1
REMARK SMILES IDX 24 1 23 2 22 3 20 4 21 5 19 7 7 8 8 9 9 10 18 11 10 12 6 13
REMARK SMILES IDX 3 15 4 16 5 17 2 18 1 19 11 20 12 21 17 22 13 23 16 24 14 25
REMARK SMILES IDX 15 26 25 28 26 29 27 30 28 32 29 33 30 34 94 35 31 36 93 37
REMARK SMILES IDX 32 38 33 39 34 40 87 41 35 42 92 43 86 44 88 45 36 46 91 47
REMARK SMILES IDX 85 48 84 49 37 51 71 52 50 53 70 54 51 55 54 56 69 57 89 58
REMARK SMILES IDX 52 59 53 60 68 62 90 63 55 64 38 65 39 66 48 67 40 68 41 69
REMARK SMILES IDX 47 70 49 71 42 72 43 73 44 74 45 75 46 76 72 77 73 78 82 79
REMARK SMILES IDX 74 80 75 81 81 82 83 83 76 84 77 85 78 86 79 87 80 88 56 89
REMARK SMILES IDX 57 90 66 91 58 92 59 93 65 94 67 95 60 96 61 97 62 98 63 99
REMARK SMILES IDX 64 100
REMARK H PARENT 22 6 6 14 14 27 26 31 88 50 54 61
REMARK Flexibility Score: inf
ROOT
ATOM      1  C   UNL A   1      34.669  28.562  26.819  1.00  0.00     0.042 C 
ENDROOT
BRANCH   1   2
ATOM      2  C   UNL A   1      33.545  29.051  25.923  1.00  0.00     0.118 C 
BRANCH   2   3
ATOM      3  N   UNL A   1      33.965  29.276  24.553  1.00  0.00    -0.352 N 
ATOM      4  C   UNL A   1      33.803  28.506  23.438  1.00  0.00     0.253 C 
ATOM      5  O   UNL A   1      34.273  28.908  22.372  1.00  0.00    -0.269 OA
ATOM      6  H   UNL A   1      34.445  30.122  24.403  1.00  0.00     0.163 HD
BRANCH   4   7
ATOM      7  C   UNL A   1      33.165  27.169  23.477  1.00  0.00     0.066 A 
ATOM      8  C   UNL A   1      31.920  26.828  22.946  1.00  0.00     0.061 A 
ATOM      9  C   UNL A   1      31.413  25.556  23.222  1.00  0.00     0.030 A 
ATOM     10  C   UNL A   1      32.201  24.586  23.843  1.00  0.00     0.028 A 
ATOM     11  C   UNL A   1      33.969  26.150  24.052  1.00  0.00     0.042 A 
ATOM     12  C   UNL A   1      33.534  24.825  24.186  1.00  0.00     0.038 A 
BRANCH   8  13
ATOM     13  N   UNL A   1      31.073  27.622  22.118  1.00  0.00    -0.283 N 
ATOM     14  H   UNL A   1      31.101  27.458  21.147  1.00  0.00     0.180 HD
BRANCH  13  15
ATOM     15  S   UNL A   1      30.035  28.809  22.669  1.00  0.00     0.232 S 
ATOM     16  O   UNL A   1      29.827  29.775  21.610  1.00  0.00    -0.207 OA
ATOM     17  O   UNL A   1      30.655  29.226  23.909  1.00  0.00    -0.207 OA
BRANCH  15  18
ATOM     18  C   UNL A   1      28.481  28.026  23.116  1.00  0.00     0.156 C 
ATOM     19  C   UNL A   1      27.271  28.935  23.096  1.00  0.00     0.023 C 
ENDBRANCH  15  18
ENDBRANCH  13  15
ENDBRANCH   8  13
BRANCH  12  20
ATOM     20  N   UNL A   1      34.379  23.796  24.554  1.00  0.00    -0.360 N 
ATOM     21  C   UNL A   1      34.558  23.346  25.947  1.00  0.00     0.178 C 
ATOM     22  C   UNL A   1      34.943  22.881  23.545  1.00  0.00     0.178 C 
ATOM     23  C   UNL A   1      36.031  22.939  26.215  1.00  0.00     0.283 C 
ATOM     24  C   UNL A   1      36.405  22.521  23.879  1.00  0.00     0.283 C 
ATOM     25  N   UNL A   1      36.561  21.962  25.235  1.00  0.00    -0.334 N 
ATOM     26  C   UNL A   1      37.968  21.668  25.500  1.00  0.00     0.332 C 
ATOM     27  H   UNL A   1      36.040  21.088  25.314  1.00  0.00     0.347 HD
ENDBRANCH  12  20
ENDBRANCH   4   7
ENDBRANCH   2   3
ENDBRANCH   1   2
BRANCH   1  28
ATOM     28  C   UNL A   1      35.455  29.665  27.524  1.00  0.00     0.118 C 
BRANCH  28  29
ATOM     29  N   UNL A   1      35.295  29.730  28.972  1.00  0.00    -0.352 N 
ATOM     30  C   UNL A   1      36.249  29.795  29.968  1.00  0.00     0.251 C 
ATOM     31  H   UNL A   1      34.363  29.726  29.288  1.00  0.00     0.163 HD
ATOM     32  O   UNL A   1      35.921  29.808  31.152  1.00  0.00    -0.269 OA
BRANCH  30  33
ATOM     33  C   UNL A   1      37.689  29.792  29.613  1.00  0.00     0.039 A 
ATOM     34  C   UNL A   1      38.638  29.572  30.615  1.00  0.00     0.014 A 
ATOM     35  C   UNL A   1      38.102  29.936  28.290  1.00  0.00     0.014 A 
ATOM     36  C   UNL A   1      39.976  29.358  30.265  1.00  0.00     0.010 A 
ATOM     37  C   UNL A   1      39.399  29.584  27.934  1.00  0.00     0.010 A 
ATOM     38  C   UNL A   1      40.355  29.282  28.914  1.00  0.00    -0.014 A 
BRANCH  38  39
ATOM     39  C   UNL A   1      41.728  28.867  28.507  1.00  0.00     0.031 A 
ATOM     40  C   UNL A   1      42.844  29.880  28.439  1.00  0.00     0.074 A 
ATOM     41  C   UNL A   1      41.954  27.597  28.108  1.00  0.00     0.049 A 
ATOM     42  N   UNL A   1      44.077  29.726  28.027  1.00  0.00    -0.248 NA
ATOM     43  C   UNL A   1      42.522  31.258  28.842  1.00  0.00     0.031 C 
ATOM     44  C   UNL A   1      40.944  26.537  28.027  1.00  0.00     0.029 A 
ATOM     45  N   UNL A   1      43.107  26.979  27.690  1.00  0.00    -0.354 N 
ATOM     46  C   UNL A   1      44.658  30.987  28.084  1.00  0.00     0.074 A 
ATOM     47  C   UNL A   1      43.626  31.907  28.508  1.00  0.00     0.031 C 
ATOM     48  C   UNL A   1      41.530  25.394  27.637  1.00  0.00     0.029 A 
ATOM     49  C   UNL A   1      42.948  25.642  27.404  1.00  0.00     0.049 A 
ATOM     50  H   UNL A   1      43.968  27.448  27.602  1.00  0.00     0.167 HD
ATOM     51  C   UNL A   1      45.942  31.347  27.844  1.00  0.00     0.037 A 
ATOM     52  C   UNL A   1      43.845  24.715  27.010  1.00  0.00     0.037 A 
ATOM     53  C   UNL A   1      46.983  30.419  27.490  1.00  0.00     0.049 A 
ATOM     54  C   UNL A   1      45.282  25.118  26.835  1.00  0.00     0.074 A 
ATOM     55  C   UNL A   1      48.331  30.667  27.301  1.00  0.00     0.029 A 
ATOM     56  N   UNL A   1      46.794  29.061  27.288  1.00  0.00    -0.354 N 
ATOM     57  N   UNL A   1      45.827  26.305  26.961  1.00  0.00    -0.248 NA
ATOM     58  C   UNL A   1      46.233  24.054  26.481  1.00  0.00     0.031 C 
ATOM     59  C   UNL A   1      48.955  29.460  26.966  1.00  0.00     0.029 A 
ATOM     60  C   UNL A   1      48.001  28.456  26.980  1.00  0.00     0.049 A 
ATOM     61  H   UNL A   1      45.929  28.594  27.355  1.00  0.00     0.167 HD
ATOM     62  C   UNL A   1      47.186  26.126  26.731  1.00  0.00     0.074 A 
ATOM     63  C   UNL A   1      47.382  24.715  26.467  1.00  0.00     0.031 C 
ATOM     64  C   UNL A   1      48.181  27.046  26.738  1.00  0.00     0.037 A 
BRANCH  51  65
ATOM     65  C   UNL A   1      46.293  32.803  27.988  1.00  0.00     0.058 A 
ATOM     66  C   UNL A   1      46.807  33.320  29.189  1.00  0.00     0.135 A 
ATOM     67  C   UNL A   1      46.124  33.691  26.914  1.00  0.00     0.135 A 
ATOM     68  F   UNL A   1      46.974  32.519  30.253  1.00  0.00    -0.206 F 
ATOM     69  C   UNL A   1      47.101  34.672  29.333  1.00  0.00     0.059 A 
ATOM     70  C   UNL A   1      46.441  35.043  27.026  1.00  0.00     0.059 A 
ATOM     71  F   UNL A   1      45.640  33.252  25.742  1.00  0.00    -0.206 F 
ATOM     72  C   UNL A   1      46.910  35.527  28.247  1.00  0.00     0.060 A 
BRANCH  72  73
ATOM     73  S   UNL A   1      47.290  37.279  28.451  1.00  0.00     0.124 S 
ATOM     74  O   UNL A   1      46.669  37.562  29.742  1.00  0.00    -0.237 OA
ATOM     75  O   UNL A   1      48.750  37.288  28.436  1.00  0.00    -0.237 OA
ATOM     76  O   UNL A   1      46.651  37.902  27.296  1.00  0.00    -0.744 OA
ENDBRANCH  72  73
ENDBRANCH  51  65
BRANCH  52  77
ATOM     77  C   UNL A   1      43.418  23.303  26.815  1.00  0.00     0.058 A 
ATOM     78  C   UNL A   1      43.337  22.751  25.528  1.00  0.00     0.135 A 
ATOM     79  C   UNL A   1      43.107  22.474  27.903  1.00  0.00     0.135 A 
ATOM     80  F   UNL A   1      43.621  23.506  24.456  1.00  0.00    -0.206 F 
ATOM     81  C   UNL A   1      42.944  21.432  25.322  1.00  0.00     0.059 A 
ATOM     82  C   UNL A   1      42.733  21.145  27.724  1.00  0.00     0.059 A 
ATOM     83  F   UNL A   1      43.189  22.948  29.156  1.00  0.00    -0.206 F 
ATOM     84  C   UNL A   1      42.644  20.636  26.428  1.00  0.00     0.060 A 
BRANCH  84  85
ATOM     85  S   UNL A   1      42.187  18.910  26.155  1.00  0.00     0.124 S 
ATOM     86  O   UNL A   1      42.479  18.320  27.456  1.00  0.00    -0.237 OA
ATOM     87  O   UNL A   1      40.774  19.016  25.804  1.00  0.00    -0.237 OA
ATOM     88  O   UNL A   1      43.065  18.500  25.063  1.00  0.00    -0.744 OA
ENDBRANCH  84  85
ENDBRANCH  52  77
BRANCH  64  89
ATOM     89  C   UNL A   1      49.578  26.552  26.500  1.00  0.00     0.058 A 
ATOM     90  C   UNL A   1      50.441  26.237  27.561  1.00  0.00     0.135 A 
ATOM     91  C   UNL A   1      50.044  26.350  25.191  1.00  0.00     0.135 A 
ATOM     92  F   UNL A   1      50.043  26.416  28.831  1.00  0.00    -0.206 F 
ATOM     93  C   UNL A   1      51.728  25.763  27.333  1.00  0.00     0.059 A 
ATOM     94  C   UNL A   1      51.319  25.854  24.939  1.00  0.00     0.059 A 
ATOM     95  F   UNL A   1      49.255  26.626  24.141  1.00  0.00    -0.206 F 
ATOM     96  C   UNL A   1      52.159  25.576  26.018  1.00  0.00     0.060 A 
BRANCH  96  97
ATOM     97  S   UNL A   1      53.822  24.936  25.732  1.00  0.00     0.124 S 
ATOM     98  O   UNL A   1      54.447  25.152  27.033  1.00  0.00    -0.237 OA
ATOM     99  O   UNL A   1      53.566  23.544  25.374  1.00  0.00    -0.237 OA
ATOM    100  O   UNL A   1      54.325  25.772  24.646  1.00  0.00    -0.744 OA
ENDBRANCH  96  97
ENDBRANCH  64  89
ENDBRANCH  38  39
ENDBRANCH  30  33
ENDBRANCH  28  29
ENDBRANCH   1  28
TORSDOF 17
ENDMDL
MODEL 2
REMARK VINA RESULT:     -12.1      1.076      1.774
REMARK SMILES CCS(=O)(=O)Nc1ccc(N2CC[NH+](C)CC2)cc1C(=O)NCCCNC(=O)c1ccc(-c2c3nc(c(-c4c(F)cc(S(=O)(=O)[O-])cc4F)c4ccc([nH]4)c(-c4c(F)cc(S(=O)(=O)[O-])cc4F)c4nc(c(-c5c(F)cc(S(=O)(=O)[O-])cc5F)c5ccc2[nH]5)C=C4)C=C3)cc1
REMARK SMILES IDX 24 1 23 2 22 3 20 4 21 5 19 7 7 8 8 9 9 10 18 11 10 12 6 13
REMARK SMILES IDX 3 15 4 16 5 17 2 18 1 19 11 20 12 21 17 22 13 23 16 24 14 25
REMARK SMILES IDX 15 26 25 28 26 29 27 30 28 32 29 33 30 34 94 35 31 36 93 37
REMARK SMILES IDX 32 38 33 39 34 40 87 41 35 42 92 43 86 44 88 45 36 46 91 47
REMARK SMILES IDX 85 48 84 49 37 51 71 52 50 53 70 54 51 55 54 56 69 57 89 58
REMARK SMILES IDX 52 59 53 60 68 62 90 63 55 64 38 65 39 66 48 67 40 68 41 69
REMARK SMILES IDX 47 70 49 71 42 72 43 73 44 74 45 75 46 76 72 77 73 78 82 79
REMARK SMILES IDX 74 80 75 81 81 82 83 83 76 84 77 85 78 86 79 87 80 88 56 89
REMARK SMILES IDX 57 90 66 91 58 92 59 93 65 94 67 95 60 96 61 97 62 98 63 99
REMARK SMILES IDX 64 100
REMARK H PARENT 22 6 6 14 14 27 26 31 88 50 54 61
REMARK Flexibility Score: inf
ROOT
ATOM      1  C   UNL A   1      34.690  28.968  27.388  1.00  0.00     0.042 C 
ENDROOT
BRANCH   1   2
ATOM      2  C   UNL A   1      33.626  29.582  26.497  1.00  0.00     0.118 C 
BRANCH   2   3
ATOM      3  N   UNL A   1      33.818  29.282  25.091  1.00  0.00    -0.352 N 
ATOM      4  C   UNL A   1      33.613  28.126  24.394  1.00  0.00     0.253 C 
ATOM      5  O   UNL A   1      33.871  28.111  23.189  1.00  0.00    -0.269 OA
ATOM      6  H   UNL A   1      34.152  30.034  24.550  1.00  0.00     0.163 HD
BRANCH   4   7
ATOM      7  C   UNL A   1      33.177  26.868  25.045  1.00  0.00     0.066 A 
ATOM      8  C   UNL A   1      31.866  26.509  25.362  1.00  0.00     0.061 A 
ATOM      9  C   UNL A   1      31.665  25.354  26.121  1.00  0.00     0.030 A 
ATOM     10  C   UNL A   1      32.719  24.479  26.393  1.00  0.00     0.028 A 
ATOM     11  C   UNL A   1      34.220  25.935  25.281  1.00  0.00     0.042 A 
ATOM     12  C   UNL A   1      34.006  24.696  25.896  1.00  0.00     0.038 A 
BRANCH   8  13
ATOM     13  N   UNL A   1      30.660  27.173  24.989  1.00  0.00    -0.283 N 
ATOM     14  H   UNL A   1      30.263  27.796  25.640  1.00  0.00     0.180 HD
BRANCH  13  15
ATOM     15  S   UNL A   1      29.870  26.977  23.530  1.00  0.00     0.232 S 
ATOM     16  O   UNL A   1      28.485  26.645  23.790  1.00  0.00    -0.207 OA
ATOM     17  O   UNL A   1      30.716  26.030  22.833  1.00  0.00    -0.207 OA
BRANCH  15  18
ATOM     18  C   UNL A   1      29.985  28.523  22.623  1.00  0.00     0.156 C 
ATOM     19  C   UNL A   1      29.906  29.775  23.469  1.00  0.00     0.023 C 
ENDBRANCH  15  18
ENDBRANCH  13  15
ENDBRANCH   8  13
BRANCH  12  20
ATOM     20  N   UNL A   1      34.972  23.709  25.944  1.00  0.00    -0.360 N 
ATOM     21  C   UNL A   1      36.408  23.961  25.723  1.00  0.00     0.178 C 
ATOM     22  C   UNL A   1      34.669  22.381  26.508  1.00  0.00     0.178 C 
ATOM     23  C   UNL A   1      37.068  22.783  24.957  1.00  0.00     0.283 C 
ATOM     24  C   UNL A   1      35.360  21.265  25.698  1.00  0.00     0.283 C 
ATOM     25  N   UNL A   1      36.816  21.461  25.579  1.00  0.00    -0.334 N 
ATOM     26  C   UNL A   1      37.406  20.389  24.778  1.00  0.00     0.332 C 
ATOM     27  H   UNL A   1      37.250  21.435  26.502  1.00  0.00     0.347 HD
ENDBRANCH  12  20
ENDBRANCH   4   7
ENDBRANCH   2   3
ENDBRANCH   1   2
BRANCH   1  28
ATOM     28  C   UNL A   1      35.613  29.974  28.072  1.00  0.00     0.118 C 
BRANCH  28  29
ATOM     29  N   UNL A   1      35.506  30.045  29.525  1.00  0.00    -0.352 N 
ATOM     30  C   UNL A   1      36.496  30.095  30.487  1.00  0.00     0.251 C 
ATOM     31  H   UNL A   1      34.586  30.061  29.873  1.00  0.00     0.163 HD
ATOM     32  O   UNL A   1      36.211  30.117  31.681  1.00  0.00    -0.269 OA
BRANCH  30  33
ATOM     33  C   UNL A   1      37.922  30.062  30.081  1.00  0.00     0.039 A 
ATOM     34  C   UNL A   1      38.897  29.771  31.038  1.00  0.00     0.014 A 
ATOM     35  C   UNL A   1      38.294  30.249  28.751  1.00  0.00     0.014 A 
ATOM     36  C   UNL A   1      40.215  29.531  30.632  1.00  0.00     0.010 A 
ATOM     37  C   UNL A   1      39.566  29.873  28.334  1.00  0.00     0.010 A 
ATOM     38  C   UNL A   1      40.544  29.501  29.266  1.00  0.00    -0.014 A 
BRANCH  38  39
ATOM     39  C   UNL A   1      41.889  29.062  28.795  1.00  0.00     0.031 A 
ATOM     40  C   UNL A   1      43.030  30.046  28.713  1.00  0.00     0.074 A 
ATOM     41  C   UNL A   1      42.064  27.798  28.350  1.00  0.00     0.049 A 
ATOM     42  N   UNL A   1      44.241  29.872  28.248  1.00  0.00    -0.248 NA
ATOM     43  C   UNL A   1      42.761  31.420  29.168  1.00  0.00     0.031 C 
ATOM     44  C   UNL A   1      41.023  26.770  28.278  1.00  0.00     0.029 A 
ATOM     45  N   UNL A   1      43.183  27.163  27.870  1.00  0.00    -0.354 N 
ATOM     46  C   UNL A   1      44.859  31.114  28.320  1.00  0.00     0.074 A 
ATOM     47  C   UNL A   1      43.870  32.048  28.810  1.00  0.00     0.031 C 
ATOM     48  C   UNL A   1      41.561  25.623  27.833  1.00  0.00     0.029 A 
ATOM     49  C   UNL A   1      42.975  25.840  27.552  1.00  0.00     0.049 A 
ATOM     50  H   UNL A   1      44.052  27.611  27.762  1.00  0.00     0.167 HD
ATOM     51  C   UNL A   1      46.142  31.447  28.040  1.00  0.00     0.037 A 
ATOM     52  C   UNL A   1      43.830  24.902  27.096  1.00  0.00     0.037 A 
ATOM     53  C   UNL A   1      47.142  30.502  27.618  1.00  0.00     0.049 A 
ATOM     54  C   UNL A   1      45.270  25.270  26.877  1.00  0.00     0.074 A 
ATOM     55  C   UNL A   1      48.489  30.720  27.384  1.00  0.00     0.029 A 
ATOM     56  N   UNL A   1      46.908  29.156  27.385  1.00  0.00    -0.354 N 
ATOM     57  N   UNL A   1      45.852  26.439  27.016  1.00  0.00    -0.248 NA
ATOM     58  C   UNL A   1      46.177  24.193  26.456  1.00  0.00     0.031 C 
ATOM     59  C   UNL A   1      49.066  29.507  26.990  1.00  0.00     0.029 A 
ATOM     60  C   UNL A   1      48.086  28.528  27.013  1.00  0.00     0.049 A 
ATOM     61  H   UNL A   1      46.034  28.711  27.472  1.00  0.00     0.167 HD
ATOM     62  C   UNL A   1      47.196  26.230  26.728  1.00  0.00     0.074 A 
ATOM     63  C   UNL A   1      47.343  24.823  26.416  1.00  0.00     0.031 C 
ATOM     64  C   UNL A   1      48.216  27.123  26.723  1.00  0.00     0.037 A 
BRANCH  51  65
ATOM     65  C   UNL A   1      46.539  32.887  28.212  1.00  0.00     0.058 A 
ATOM     66  C   UNL A   1      46.380  33.822  27.176  1.00  0.00     0.135 A 
ATOM     67  C   UNL A   1      47.074  33.345  29.427  1.00  0.00     0.135 A 
ATOM     68  F   UNL A   1      45.889  33.437  25.988  1.00  0.00    -0.206 F 
ATOM     69  C   UNL A   1      46.777  35.148  27.323  1.00  0.00     0.059 A 
ATOM     70  C   UNL A   1      47.449  34.673  29.607  1.00  0.00     0.059 A 
ATOM     71  F   UNL A   1      47.244  32.496  30.453  1.00  0.00    -0.206 F 
ATOM     72  C   UNL A   1      47.315  35.563  28.541  1.00  0.00     0.060 A 
BRANCH  72  73
ATOM     73  S   UNL A   1      47.831  37.283  28.715  1.00  0.00     0.124 S 
ATOM     74  O   UNL A   1      46.616  37.898  29.242  1.00  0.00    -0.237 OA
ATOM     75  O   UNL A   1      48.946  37.184  29.652  1.00  0.00    -0.237 OA
ATOM     76  O   UNL A   1      48.192  37.670  27.355  1.00  0.00    -0.744 OA
ENDBRANCH  72  73
ENDBRANCH  51  65
BRANCH  52  77
ATOM     77  C   UNL A   1      43.357  23.508  26.877  1.00  0.00     0.058 A 
ATOM     78  C   UNL A   1      43.208  22.998  25.579  1.00  0.00     0.135 A 
ATOM     79  C   UNL A   1      43.067  22.654  27.952  1.00  0.00     0.135 A 
ATOM     80  F   UNL A   1      43.469  23.779  24.519  1.00  0.00    -0.206 F 
ATOM     81  C   UNL A   1      42.770  21.698  25.350  1.00  0.00     0.059 A 
ATOM     82  C   UNL A   1      42.649  21.341  27.749  1.00  0.00     0.059 A 
ATOM     83  F   UNL A   1      43.214  23.086  29.214  1.00  0.00    -0.206 F 
ATOM     84  C   UNL A   1      42.494  20.876  26.443  1.00  0.00     0.060 A 
BRANCH  84  85
ATOM     85  S   UNL A   1      41.978  19.171  26.138  1.00  0.00     0.124 S 
ATOM     86  O   UNL A   1      40.544  19.332  25.930  1.00  0.00    -0.237 OA
ATOM     87  O   UNL A   1      42.760  18.818  24.957  1.00  0.00    -0.237 OA
ATOM     88  O   UNL A   1      42.366  18.481  27.365  1.00  0.00    -0.744 OA
ENDBRANCH  84  85
ENDBRANCH  52  77
BRANCH  64  89
ATOM     89  C   UNL A   1      49.589  26.599  26.416  1.00  0.00     0.058 A 
ATOM     90  C   UNL A   1      50.151  26.706  25.134  1.00  0.00     0.135 A 
ATOM     91  C   UNL A   1      50.369  26.020  27.430  1.00  0.00     0.135 A 
ATOM     92  F   UNL A   1      49.444  27.249  24.130  1.00  0.00    -0.206 F 
ATOM     93  C   UNL A   1      51.430  26.235  24.862  1.00  0.00     0.059 A 
ATOM     94  C   UNL A   1      51.660  25.563  27.186  1.00  0.00     0.059 A 
ATOM     95  F   UNL A   1      49.881  25.903  28.675  1.00  0.00    -0.206 F 
ATOM     96  C   UNL A   1      52.177  25.663  25.894  1.00  0.00     0.060 A 
BRANCH  96  97
ATOM     97  S   UNL A   1      53.846  25.077  25.538  1.00  0.00     0.124 S 
ATOM     98  O   UNL A   1      54.183  25.857  24.351  1.00  0.00    -0.237 OA
ATOM     99  O   UNL A   1      54.571  25.430  26.755  1.00  0.00    -0.237 OA
ATOM    100  O   UNL A   1      53.663  23.645  25.319  1.00  0.00    -0.744 OA
ENDBRANCH  96  97
ENDBRANCH  64  89
ENDBRANCH  38  39
ENDBRANCH  30  33
ENDBRANCH  28  29
ENDBRANCH   1  28
TORSDOF 17
ENDMDL
MODEL 3
REMARK VINA RESULT:     -12.0      6.781     12.288
REMARK SMILES CCS(=O)(=O)Nc1ccc(N2CC[NH+](C)CC2)cc1C(=O)NCCCNC(=O)c1ccc(-c2c3nc(c(-c4c(F)cc(S(=O)(=O)[O-])cc4F)c4ccc([nH]4)c(-c4c(F)cc(S(=O)(=O)[O-])cc4F)c4nc(c(-c5c(F)cc(S(=O)(=O)[O-])cc5F)c5ccc2[nH]5)C=C4)C=C3)cc1
REMARK SMILES IDX 24 1 23 2 22 3 20 4 21 5 19 7 7 8 8 9 9 10 18 11 10 12 6 13
REMARK SMILES IDX 3 15 4 16 5 17 2 18 1 19 11 20 12 21 17 22 13 23 16 24 14 25
REMARK SMILES IDX 15 26 25 28 26 29 27 30 28 32 29 33 30 34 94 35 31 36 93 37
REMARK SMILES IDX 32 38 33 39 34 40 87 41 35 42 92 43 86 44 88 45 36 46 91 47
REMARK SMILES IDX 85 48 84 49 37 51 71 52 50 53 70 54 51 55 54 56 69 57 89 58
REMARK SMILES IDX 52 59 53 60 68 62 90 63 55 64 38 65 39 66 48 67 40 68 41 69
REMARK SMILES IDX 47 70 49 71 42 72 43 73 44 74 45 75 46 76 72 77 73 78 82 79
REMARK SMILES IDX 74 80 75 81 81 82 83 83 76 84 77 85 78 86 79 87 80 88 56 89
REMARK SMILES IDX 57 90 66 91 58 92 59 93 65 94 67 95 60 96 61 97 62 98 63 99
REMARK SMILES IDX 64 100
REMARK H PARENT 22 6 6 14 14 27 26 31 88 50 54 61
REMARK Flexibility Score: inf
ROOT
ATOM      1  C   UNL A   1      37.709  23.215  26.050  1.00  0.00     0.042 C 
ENDROOT
BRANCH   1   2
ATOM      2  C   UNL A   1      36.251  23.598  25.873  1.00  0.00     0.118 C 
BRANCH   2   3
ATOM      3  N   UNL A   1      35.406  23.145  26.961  1.00  0.00    -0.352 N 
ATOM      4  C   UNL A   1      34.061  22.918  27.004  1.00  0.00     0.253 C 
ATOM      5  O   UNL A   1      33.560  22.549  28.068  1.00  0.00    -0.269 OA
ATOM      6  H   UNL A   1      35.879  22.975  27.808  1.00  0.00     0.163 HD
BRANCH   4   7
ATOM      7  C   UNL A   1      33.169  23.181  25.850  1.00  0.00     0.066 A 
ATOM      8  C   UNL A   1      32.372  22.246  25.186  1.00  0.00     0.061 A 
ATOM      9  C   UNL A   1      31.723  22.648  24.017  1.00  0.00     0.030 A 
ATOM     10  C   UNL A   1      31.710  23.987  23.624  1.00  0.00     0.028 A 
ATOM     11  C   UNL A   1      33.092  24.545  25.465  1.00  0.00     0.042 A 
ATOM     12  C   UNL A   1      32.310  24.988  24.391  1.00  0.00     0.038 A 
BRANCH   8  13
ATOM     13  N   UNL A   1      32.108  20.896  25.562  1.00  0.00    -0.283 N 
ATOM     14  H   UNL A   1      31.389  20.737  26.216  1.00  0.00     0.180 HD
BRANCH  13  15
ATOM     15  S   UNL A   1      32.924  19.562  24.974  1.00  0.00     0.232 S 
ATOM     16  O   UNL A   1      32.521  18.396  25.734  1.00  0.00    -0.207 OA
ATOM     17  O   UNL A   1      34.306  19.994  25.003  1.00  0.00    -0.207 OA
BRANCH  15  18
ATOM     18  C   UNL A   1      32.491  19.362  23.243  1.00  0.00     0.156 C 
ATOM     19  C   UNL A   1      32.480  17.934  22.741  1.00  0.00     0.023 C 
ENDBRANCH  15  18
ENDBRANCH  13  15
ENDBRANCH   8  13
BRANCH  12  20
ATOM     20  N   UNL A   1      32.074  26.326  24.141  1.00  0.00    -0.360 N 
ATOM     21  C   UNL A   1      32.333  27.397  25.120  1.00  0.00     0.178 C 
ATOM     22  C   UNL A   1      31.818  26.806  22.771  1.00  0.00     0.178 C 
ATOM     23  C   UNL A   1      31.251  28.507  25.031  1.00  0.00     0.283 C 
ATOM     24  C   UNL A   1      30.736  27.906  22.762  1.00  0.00     0.283 C 
ATOM     25  N   UNL A   1      31.057  29.032  23.659  1.00  0.00    -0.334 N 
ATOM     26  C   UNL A   1      29.983  30.023  23.627  1.00  0.00     0.332 C 
ATOM     27  H   UNL A   1      31.914  29.491  23.349  1.00  0.00     0.347 HD
ENDBRANCH  12  20
ENDBRANCH   4   7
ENDBRANCH   2   3
ENDBRANCH   1   2
BRANCH   1  28
ATOM     28  C   UNL A   1      38.605  24.331  26.583  1.00  0.00     0.118 C 
BRANCH  28  29
ATOM     29  N   UNL A   1      39.721  24.710  25.724  1.00  0.00    -0.352 N 
ATOM     30  C   UNL A   1      40.786  25.555  25.972  1.00  0.00     0.251 C 
ATOM     31  H   UNL A   1      39.715  24.300  24.830  1.00  0.00     0.163 HD
ATOM     32  O   UNL A   1      41.622  25.783  25.102  1.00  0.00    -0.269 OA
BRANCH  30  33
ATOM     33  C   UNL A   1      40.893  26.242  27.282  1.00  0.00     0.039 A 
ATOM     34  C   UNL A   1      41.817  27.278  27.434  1.00  0.00     0.014 A 
ATOM     35  C   UNL A   1      40.041  25.915  28.335  1.00  0.00     0.014 A 
ATOM     36  C   UNL A   1      41.785  28.069  28.588  1.00  0.00     0.010 A 
ATOM     37  C   UNL A   1      39.916  26.786  29.412  1.00  0.00     0.010 A 
ATOM     38  C   UNL A   1      40.780  27.880  29.553  1.00  0.00    -0.014 A 
BRANCH  38  39
ATOM     39  C   UNL A   1      40.602  28.824  30.693  1.00  0.00     0.031 A 
ATOM     40  C   UNL A   1      41.460  28.702  31.928  1.00  0.00     0.074 A 
ATOM     41  C   UNL A   1      39.604  29.735  30.660  1.00  0.00     0.049 A 
ATOM     42  N   UNL A   1      41.394  29.372  33.051  1.00  0.00    -0.248 NA
ATOM     43  C   UNL A   1      42.497  27.658  31.921  1.00  0.00     0.031 C 
ATOM     44  C   UNL A   1      38.636  29.897  29.573  1.00  0.00     0.029 A 
ATOM     45  N   UNL A   1      39.236  30.696  31.570  1.00  0.00    -0.354 N 
ATOM     46  C   UNL A   1      42.348  28.807  33.888  1.00  0.00     0.074 A 
ATOM     47  C   UNL A   1      42.934  27.698  33.169  1.00  0.00     0.031 C 
ATOM     48  C   UNL A   1      37.820  30.926  29.853  1.00  0.00     0.029 A 
ATOM     49  C   UNL A   1      38.180  31.475  31.155  1.00  0.00     0.049 A 
ATOM     50  H   UNL A   1      39.685  30.816  32.437  1.00  0.00     0.167 HD
ATOM     51  C   UNL A   1      42.733  29.195  35.128  1.00  0.00     0.037 A 
ATOM     52  C   UNL A   1      37.575  32.522  31.751  1.00  0.00     0.037 A 
ATOM     53  C   UNL A   1      42.196  30.341  35.813  1.00  0.00     0.049 A 
ATOM     54  C   UNL A   1      38.076  32.992  33.089  1.00  0.00     0.074 A 
ATOM     55  C   UNL A   1      42.571  30.866  37.037  1.00  0.00     0.029 A 
ATOM     56  N   UNL A   1      41.183  31.150  35.324  1.00  0.00    -0.354 N 
ATOM     57  N   UNL A   1      39.029  32.485  33.836  1.00  0.00    -0.248 NA
ATOM     58  C   UNL A   1      37.435  34.185  33.658  1.00  0.00     0.031 C 
ATOM     59  C   UNL A   1      41.769  31.983  37.297  1.00  0.00     0.029 A 
ATOM     60  C   UNL A   1      40.920  32.173  36.219  1.00  0.00     0.049 A 
ATOM     61  H   UNL A   1      40.718  31.017  34.465  1.00  0.00     0.167 HD
ATOM     62  C   UNL A   1      39.120  33.313  34.948  1.00  0.00     0.074 A 
ATOM     63  C   UNL A   1      38.133  34.359  34.772  1.00  0.00     0.031 C 
ATOM     64  C   UNL A   1      39.946  33.217  36.019  1.00  0.00     0.037 A 
BRANCH  51  65
ATOM     65  C   UNL A   1      43.805  28.387  35.806  1.00  0.00     0.058 A 
ATOM     66  C   UNL A   1      45.168  28.660  35.605  1.00  0.00     0.135 A 
ATOM     67  C   UNL A   1      43.471  27.335  36.674  1.00  0.00     0.135 A 
ATOM     68  F   UNL A   1      45.546  29.643  34.774  1.00  0.00    -0.206 F 
ATOM     69  C   UNL A   1      46.161  27.893  36.207  1.00  0.00     0.059 A 
ATOM     70  C   UNL A   1      44.448  26.574  37.311  1.00  0.00     0.059 A 
ATOM     71  F   UNL A   1      42.184  27.032  36.906  1.00  0.00    -0.206 F 
ATOM     72  C   UNL A   1      45.791  26.848  37.054  1.00  0.00     0.060 A 
BRANCH  72  73
ATOM     73  S   UNL A   1      47.089  25.858  37.822  1.00  0.00     0.124 S 
ATOM     74  O   UNL A   1      46.332  24.701  38.293  1.00  0.00    -0.237 OA
ATOM     75  O   UNL A   1      47.996  25.607  36.706  1.00  0.00    -0.237 OA
ATOM     76  O   UNL A   1      47.613  26.733  38.866  1.00  0.00    -0.744 OA
ENDBRANCH  72  73
ENDBRANCH  51  65
BRANCH  52  77
ATOM     77  C   UNL A   1      36.469  33.237  31.057  1.00  0.00     0.058 A 
ATOM     78  C   UNL A   1      35.152  33.150  31.533  1.00  0.00     0.135 A 
ATOM     79  C   UNL A   1      36.706  34.032  29.926  1.00  0.00     0.135 A 
ATOM     80  F   UNL A   1      34.876  32.398  32.609  1.00  0.00    -0.206 F 
ATOM     81  C   UNL A   1      34.103  33.812  30.902  1.00  0.00     0.059 A 
ATOM     82  C   UNL A   1      35.676  34.721  29.291  1.00  0.00     0.059 A 
ATOM     83  F   UNL A   1      37.951  34.164  29.445  1.00  0.00    -0.206 F 
ATOM     84  C   UNL A   1      34.376  34.597  29.781  1.00  0.00     0.060 A 
BRANCH  84  85
ATOM     85  S   UNL A   1      33.017  35.495  29.000  1.00  0.00     0.124 S 
ATOM     86  O   UNL A   1      32.419  34.457  28.169  1.00  0.00    -0.237 OA
ATOM     87  O   UNL A   1      32.228  35.925  30.151  1.00  0.00    -0.237 OA
ATOM     88  O   UNL A   1      33.696  36.568  28.280  1.00  0.00    -0.744 OA
ENDBRANCH  84  85
ENDBRANCH  52  77
BRANCH  64  89
ATOM     89  C   UNL A   1      39.854  34.294  37.060  1.00  0.00     0.058 A 
ATOM     90  C   UNL A   1      40.482  35.538  36.892  1.00  0.00     0.135 A 
ATOM     91  C   UNL A   1      39.090  34.093  38.221  1.00  0.00     0.135 A 
ATOM     92  F   UNL A   1      41.225  35.777  35.801  1.00  0.00    -0.206 F 
ATOM     93  C   UNL A   1      40.377  36.538  37.853  1.00  0.00     0.059 A 
ATOM     94  C   UNL A   1      38.952  35.087  39.184  1.00  0.00     0.059 A 
ATOM     95  F   UNL A   1      38.461  32.924  38.424  1.00  0.00    -0.206 F 
ATOM     96  C   UNL A   1      39.611  36.302  38.997  1.00  0.00     0.060 A 
BRANCH  96  97
ATOM     97  S   UNL A   1      39.460  37.615  40.226  1.00  0.00     0.124 S 
ATOM     98  O   UNL A   1      40.845  38.056  40.355  1.00  0.00    -0.237 OA
ATOM     99  O   UNL A   1      38.554  38.555  39.574  1.00  0.00    -0.237 OA
ATOM    100  O   UNL A   1      38.908  36.928  41.390  1.00  0.00    -0.744 OA
ENDBRANCH  96  97
ENDBRANCH  64  89
ENDBRANCH  38  39
ENDBRANCH  30  33
ENDBRANCH  28  29
ENDBRANCH   1  28
TORSDOF 17
ENDMDL
