MODEL 1
REMARK VINA RESULT:     -13.6      0.000      0.000
REMARK SMILES COc1ccc(-c2cc(CC3(C(=O)NCCCNC(=O)c4ccc(-c5c6nc(c(-c7c(F)cc(S(=O)(=O)[O-])cc7F)c7ccc([nH]7)c(-c7c(F)cc(S(=O)(=O)[O-])cc7F)c7nc(c(-c8c(F)cc(S(=O)(=O)[O-])cc8F)c8ccc5[nH]8)C=C7)C=C6)cc4)CCN(C(=O)C4CCCC4)CC3)on2)cc1
REMARK SMILES IDX 15 1 14 2 12 3 13 4 11 6 87 7 98 8 88 9 97 10 89 11 90 12
REMARK SMILES IDX 91 13 10 14 9 15 7 16 8 17 100 18 99 19 6 20 3 21 4 22
REMARK SMILES IDX 102 23 5 24 101 25 2 26 1 27 92 28 93 29 96 30 94 31 95 32
REMARK SMILES IDX 16 33 17 34 18 35 19 36 20 38 21 39 22 40 86 41 23 42 85 43
REMARK SMILES IDX 24 44 25 45 26 46 79 47 27 48 84 49 78 50 80 51 28 52 83 53
REMARK SMILES IDX 77 54 76 55 29 57 63 58 42 59 62 60 43 61 46 62 61 63 81 64
REMARK SMILES IDX 44 65 45 66 60 68 82 69 47 70 30 71 31 72 40 73 32 74 33 75
REMARK SMILES IDX 39 76 41 77 34 78 35 79 36 80 37 81 38 82 64 83 65 84 74 85
REMARK SMILES IDX 66 86 67 87 73 88 75 89 68 90 69 91 70 92 71 93 72 94 48 95
REMARK SMILES IDX 49 96 58 97 50 98 51 99 57 100 59 101 52 102 53 103 54 104
REMARK SMILES IDX 55 105 56 106
REMARK H PARENT 14 5 18 37 80 56 46 67
REMARK Flexibility Score: inf
ROOT
ATOM      1  C   UNL A   1      34.643  29.683  27.451  1.00  0.00     0.117 C 
ENDROOT
BRANCH   1   2
ATOM      2  N   UNL A   1      33.467  28.993  27.968  1.00  0.00    -0.356 N 
ATOM      3  C   UNL A   1      32.515  28.230  27.359  1.00  0.00     0.226 C 
ATOM      4  O   UNL A   1      31.637  27.768  28.093  1.00  0.00    -0.274 OA
ATOM      5  H   UNL A   1      33.336  29.097  28.938  1.00  0.00     0.163 HD
BRANCH   3   6
ATOM      6  C   UNL A   1      32.545  27.925  25.841  1.00  0.00     0.060 C 
ATOM      7  C   UNL A   1      31.380  26.952  25.515  1.00  0.00     0.039 C 
ATOM      8  C   UNL A   1      32.494  29.282  25.091  1.00  0.00     0.039 C 
ATOM      9  C   UNL A   1      30.700  27.117  24.160  1.00  0.00     0.120 C 
ATOM     10  C   UNL A   1      31.854  29.229  23.713  1.00  0.00     0.120 C 
ATOM     11  N   UNL A   1      30.595  28.503  23.718  1.00  0.00    -0.342 N 
ATOM     12  C   UNL A   1      29.421  28.883  23.080  1.00  0.00     0.225 C 
ATOM     13  O   UNL A   1      28.459  28.111  23.000  1.00  0.00    -0.275 OA
BRANCH   6  14
ATOM     14  C   UNL A   1      33.917  27.221  25.561  1.00  0.00     0.095 C 
BRANCH  14  15
ATOM     15  C   UNL A   1      33.803  25.844  25.024  1.00  0.00     0.138 A 
ATOM     16  C   UNL A   1      33.733  23.704  24.506  1.00  0.00     0.114 A 
ATOM     17  C   UNL A   1      33.673  24.603  25.598  1.00  0.00     0.077 A 
ATOM     18  N   UNL A   1      33.851  24.365  23.348  1.00  0.00    -0.080 NA
ATOM     19  O   UNL A   1      33.853  25.706  23.674  1.00  0.00    -0.361 OA
BRANCH  16  20
ATOM     20  C   UNL A   1      33.619  22.262  24.545  1.00  0.00     0.004 A 
ATOM     21  C   UNL A   1      33.466  19.481  24.742  1.00  0.00     0.118 A 
ATOM     22  C   UNL A   1      32.307  20.229  24.523  1.00  0.00     0.047 A 
ATOM     23  C   UNL A   1      34.706  20.117  24.808  1.00  0.00     0.047 A 
ATOM     24  C   UNL A   1      32.378  21.624  24.438  1.00  0.00     0.014 A 
ATOM     25  C   UNL A   1      34.781  21.505  24.713  1.00  0.00     0.014 A 
BRANCH  21  26
ATOM     26  O   UNL A   1      33.313  18.125  24.841  1.00  0.00    -0.497 OA
ATOM     27  C   UNL A   1      33.514  17.445  23.603  1.00  0.00     0.278 C 
ENDBRANCH  21  26
ENDBRANCH  16  20
ENDBRANCH  14  15
ENDBRANCH   6  14
BRANCH  12  28
ATOM     28  C   UNL A   1      29.266  30.267  22.457  1.00  0.00     0.078 C 
ATOM     29  C   UNL A   1      28.276  30.341  21.302  1.00  0.00     0.013 C 
ATOM     30  C   UNL A   1      28.895  31.378  23.436  1.00  0.00     0.013 C 
ATOM     31  C   UNL A   1      27.852  31.799  21.249  1.00  0.00     0.001 C 
ATOM     32  C   UNL A   1      28.042  32.368  22.651  1.00  0.00     0.001 C 
ENDBRANCH  12  28
ENDBRANCH   3   6
ENDBRANCH   1   2
BRANCH   1  33
ATOM     33  C   UNL A   1      34.633  31.173  27.762  1.00  0.00     0.042 C 
BRANCH  33  34
ATOM     34  C   UNL A   1      35.760  31.621  28.679  1.00  0.00     0.118 C 
BRANCH  34  35
ATOM     35  N   UNL A   1      35.671  31.030  30.007  1.00  0.00    -0.352 N 
ATOM     36  C   UNL A   1      36.583  30.257  30.688  1.00  0.00     0.251 C 
ATOM     37  H   UNL A   1      34.832  31.210  30.490  1.00  0.00     0.163 HD
ATOM     38  O   UNL A   1      36.242  29.690  31.720  1.00  0.00    -0.269 OA
BRANCH  36  39
ATOM     39  C   UNL A   1      37.959  30.096  30.165  1.00  0.00     0.039 A 
ATOM     40  C   UNL A   1      39.026  30.054  31.066  1.00  0.00     0.014 A 
ATOM     41  C   UNL A   1      38.198  29.989  28.794  1.00  0.00     0.014 A 
ATOM     42  C   UNL A   1      40.321  29.829  30.595  1.00  0.00     0.010 A 
ATOM     43  C   UNL A   1      39.472  29.668  28.336  1.00  0.00     0.010 A 
ATOM     44  C   UNL A   1      40.551  29.591  29.228  1.00  0.00    -0.014 A 
BRANCH  44  45
ATOM     45  C   UNL A   1      41.906  29.263  28.712  1.00  0.00     0.031 A 
ATOM     46  C   UNL A   1      42.219  27.862  28.256  1.00  0.00     0.074 A 
ATOM     47  C   UNL A   1      42.872  30.203  28.722  1.00  0.00     0.049 A 
ATOM     48  N   UNL A   1      43.357  27.359  27.853  1.00  0.00    -0.248 NA
ATOM     49  C   UNL A   1      41.114  26.888  28.285  1.00  0.00     0.031 C 
ATOM     50  C   UNL A   1      42.706  31.582  29.186  1.00  0.00     0.029 A 
ATOM     51  N   UNL A   1      44.189  30.141  28.341  1.00  0.00    -0.354 N 
ATOM     52  C   UNL A   1      43.111  26.015  27.597  1.00  0.00     0.074 A 
ATOM     53  C   UNL A   1      41.730  25.766  27.946  1.00  0.00     0.031 C 
ATOM     54  C   UNL A   1      43.867  32.240  29.039  1.00  0.00     0.029 A 
ATOM     55  C   UNL A   1      44.873  31.321  28.516  1.00  0.00     0.049 A 
ATOM     56  H   UNL A   1      44.606  29.326  27.976  1.00  0.00     0.167 HD
ATOM     57  C   UNL A   1      43.950  25.081  27.092  1.00  0.00     0.037 A 
ATOM     58  C   UNL A   1      46.166  31.628  28.292  1.00  0.00     0.037 A 
ATOM     59  C   UNL A   1      45.317  25.344  26.724  1.00  0.00     0.049 A 
ATOM     60  C   UNL A   1      47.085  30.570  27.741  1.00  0.00     0.074 A 
ATOM     61  C   UNL A   1      46.234  24.481  26.153  1.00  0.00     0.029 A 
ATOM     62  N   UNL A   1      45.964  26.559  26.896  1.00  0.00    -0.354 N 
ATOM     63  N   UNL A   1      46.816  29.320  27.442  1.00  0.00    -0.248 NA
ATOM     64  C   UNL A   1      48.478  30.961  27.489  1.00  0.00     0.031 C 
ATOM     65  C   UNL A   1      47.452  25.157  26.029  1.00  0.00     0.029 A 
ATOM     66  C   UNL A   1      47.276  26.461  26.462  1.00  0.00     0.049 A 
ATOM     67  H   UNL A   1      45.552  27.372  27.271  1.00  0.00     0.167 HD
ATOM     68  C   UNL A   1      47.996  28.789  26.931  1.00  0.00     0.074 A 
ATOM     69  C   UNL A   1      48.978  29.852  26.960  1.00  0.00     0.031 C 
ATOM     70  C   UNL A   1      48.239  27.536  26.476  1.00  0.00     0.037 A 
BRANCH  57  71
ATOM     71  C   UNL A   1      43.416  23.686  26.903  1.00  0.00     0.058 A 
ATOM     72  C   UNL A   1      43.023  23.209  25.642  1.00  0.00     0.135 A 
ATOM     73  C   UNL A   1      43.337  22.798  27.989  1.00  0.00     0.135 A 
ATOM     74  F   UNL A   1      43.065  24.016  24.570  1.00  0.00    -0.206 F 
ATOM     75  C   UNL A   1      42.541  21.916  25.469  1.00  0.00     0.059 A 
ATOM     76  C   UNL A   1      42.889  21.489  27.834  1.00  0.00     0.059 A 
ATOM     77  F   UNL A   1      43.700  23.199  29.218  1.00  0.00    -0.206 F 
ATOM     78  C   UNL A   1      42.479  21.062  26.571  1.00  0.00     0.060 A 
BRANCH  78  79
ATOM     79  S   UNL A   1      41.858  19.385  26.327  1.00  0.00     0.124 S 
ATOM     80  O   UNL A   1      42.620  18.959  25.157  1.00  0.00    -0.237 OA
ATOM     81  O   UNL A   1      42.214  18.735  27.584  1.00  0.00    -0.237 OA
ATOM     82  O   UNL A   1      40.428  19.579  26.107  1.00  0.00    -0.744 OA
ENDBRANCH  78  79
ENDBRANCH  57  71
BRANCH  58  83
ATOM     83  C   UNL A   1      46.663  33.003  28.568  1.00  0.00     0.058 A 
ATOM     84  C   UNL A   1      46.662  33.987  27.567  1.00  0.00     0.135 A 
ATOM     85  C   UNL A   1      47.137  33.367  29.839  1.00  0.00     0.135 A 
ATOM     86  F   UNL A   1      46.225  33.689  26.335  1.00  0.00    -0.206 F 
ATOM     87  C   UNL A   1      47.130  35.275  27.809  1.00  0.00     0.059 A 
ATOM     88  C   UNL A   1      47.583  34.657  30.112  1.00  0.00     0.059 A 
ATOM     89  F   UNL A   1      47.145  32.469  30.837  1.00  0.00    -0.206 F 
ATOM     90  C   UNL A   1      47.586  35.601  29.087  1.00  0.00     0.060 A 
BRANCH  90  91
ATOM     91  S   UNL A   1      48.155  37.288  29.397  1.00  0.00     0.124 S 
ATOM     92  O   UNL A   1      46.964  38.063  29.072  1.00  0.00    -0.237 OA
ATOM     93  O   UNL A   1      48.517  37.232  30.810  1.00  0.00    -0.237 OA
ATOM     94  O   UNL A   1      49.277  37.438  28.475  1.00  0.00    -0.744 OA
ENDBRANCH  90  91
ENDBRANCH  58  83
BRANCH  70  95
ATOM     95  C   UNL A   1      49.603  27.245  25.911  1.00  0.00     0.058 A 
ATOM     96  C   UNL A   1      50.661  26.801  26.715  1.00  0.00     0.135 A 
ATOM     97  C   UNL A   1      49.824  27.334  24.526  1.00  0.00     0.135 A 
ATOM     98  F   UNL A   1      50.507  26.706  28.046  1.00  0.00    -0.206 F 
ATOM     99  C   UNL A   1      51.895  26.462  26.169  1.00  0.00     0.059 A 
ATOM    100  C   UNL A   1      51.038  26.972  23.955  1.00  0.00     0.059 A 
ATOM    101  F   UNL A   1      48.840  27.747  23.710  1.00  0.00    -0.206 F 
ATOM    102  C   UNL A   1      52.071  26.543  24.786  1.00  0.00     0.060 A 
BRANCH 102 103
ATOM    103  S   UNL A   1      53.656  26.038  24.085  1.00  0.00     0.124 S 
ATOM    104  O   UNL A   1      53.862  24.742  24.723  1.00  0.00    -0.237 OA
ATOM    105  O   UNL A   1      53.368  26.002  22.655  1.00  0.00    -0.237 OA
ATOM    106  O   UNL A   1      54.568  27.097  24.507  1.00  0.00    -0.744 OA
ENDBRANCH 102 103
ENDBRANCH  70  95
ENDBRANCH  44  45
ENDBRANCH  36  39
ENDBRANCH  34  35
ENDBRANCH  33  34
ENDBRANCH   1  33
TORSDOF 18
ENDMDL
MODEL 2
REMARK VINA RESULT:     -13.4      0.695      7.869
REMARK SMILES COc1ccc(-c2cc(CC3(C(=O)NCCCNC(=O)c4ccc(-c5c6nc(c(-c7c(F)cc(S(=O)(=O)[O-])cc7F)c7ccc([nH]7)c(-c7c(F)cc(S(=O)(=O)[O-])cc7F)c7nc(c(-c8c(F)cc(S(=O)(=O)[O-])cc8F)c8ccc5[nH]8)C=C7)C=C6)cc4)CCN(C(=O)C4CCCC4)CC3)on2)cc1
REMARK SMILES IDX 15 1 14 2 12 3 13 4 11 6 87 7 98 8 88 9 97 10 89 11 90 12
REMARK SMILES IDX 91 13 10 14 9 15 7 16 8 17 100 18 99 19 6 20 3 21 4 22
REMARK SMILES IDX 102 23 5 24 101 25 2 26 1 27 92 28 93 29 96 30 94 31 95 32
REMARK SMILES IDX 16 33 17 34 18 35 19 36 20 38 21 39 22 40 86 41 23 42 85 43
REMARK SMILES IDX 24 44 25 45 26 46 79 47 27 48 84 49 78 50 80 51 28 52 83 53
REMARK SMILES IDX 77 54 76 55 29 57 63 58 42 59 62 60 43 61 46 62 61 63 81 64
REMARK SMILES IDX 44 65 45 66 60 68 82 69 47 70 30 71 31 72 40 73 32 74 33 75
REMARK SMILES IDX 39 76 41 77 34 78 35 79 36 80 37 81 38 82 64 83 65 84 74 85
REMARK SMILES IDX 66 86 67 87 73 88 75 89 68 90 69 91 70 92 71 93 72 94 48 95
REMARK SMILES IDX 49 96 58 97 50 98 51 99 57 100 59 101 52 102 53 103 54 104
REMARK SMILES IDX 55 105 56 106
REMARK H PARENT 14 5 18 37 80 56 46 67
REMARK Flexibility Score: inf
ROOT
ATOM      1  C   UNL A   1      34.394  29.379  27.233  1.00  0.00     0.117 C 
ENDROOT
BRANCH   1   2
ATOM      2  N   UNL A   1      33.238  28.647  27.740  1.00  0.00    -0.356 N 
ATOM      3  C   UNL A   1      32.281  27.905  27.114  1.00  0.00     0.226 C 
ATOM      4  O   UNL A   1      31.426  27.394  27.843  1.00  0.00    -0.274 OA
ATOM      5  H   UNL A   1      33.130  28.698  28.718  1.00  0.00     0.163 HD
BRANCH   3   6
ATOM      6  C   UNL A   1      32.277  27.682  25.582  1.00  0.00     0.060 C 
ATOM      7  C   UNL A   1      31.042  26.815  25.217  1.00  0.00     0.039 C 
ATOM      8  C   UNL A   1      32.321  29.078  24.906  1.00  0.00     0.039 C 
ATOM      9  C   UNL A   1      30.366  27.103  23.881  1.00  0.00     0.120 C 
ATOM     10  C   UNL A   1      31.668  29.146  23.534  1.00  0.00     0.120 C 
ATOM     11  N   UNL A   1      30.359  28.514  23.514  1.00  0.00    -0.342 N 
ATOM     12  C   UNL A   1      29.212  29.013  22.911  1.00  0.00     0.225 C 
ATOM     13  O   UNL A   1      28.196  28.319  22.801  1.00  0.00    -0.275 OA
BRANCH   6  14
ATOM     14  C   UNL A   1      33.592  26.896  25.250  1.00  0.00     0.095 C 
BRANCH  14  15
ATOM     15  C   UNL A   1      33.374  25.528  24.721  1.00  0.00     0.138 A 
ATOM     16  C   UNL A   1      33.160  23.396  24.210  1.00  0.00     0.114 A 
ATOM     17  C   UNL A   1      33.215  24.294  25.303  1.00  0.00     0.077 A 
ATOM     18  N   UNL A   1      33.240  24.053  23.046  1.00  0.00    -0.080 NA
ATOM     19  O   UNL A   1      33.332  25.391  23.371  1.00  0.00    -0.361 OA
BRANCH  16  20
ATOM     20  C   UNL A   1      32.974  21.962  24.256  1.00  0.00     0.004 A 
ATOM     21  C   UNL A   1      32.681  19.185  24.220  1.00  0.00     0.118 A 
ATOM     22  C   UNL A   1      33.270  19.810  25.321  1.00  0.00     0.047 A 
ATOM     23  C   UNL A   1      32.188  19.952  23.163  1.00  0.00     0.047 A 
ATOM     24  C   UNL A   1      33.433  21.199  25.336  1.00  0.00     0.014 A 
ATOM     25  C   UNL A   1      32.338  21.336  23.181  1.00  0.00     0.014 A 
BRANCH  21  26
ATOM     26  O   UNL A   1      32.581  17.821  24.267  1.00  0.00    -0.497 OA
ATOM     27  C   UNL A   1      32.580  17.302  25.596  1.00  0.00     0.278 C 
ENDBRANCH  21  26
ENDBRANCH  16  20
ENDBRANCH  14  15
ENDBRANCH   6  14
BRANCH  12  28
ATOM     28  C   UNL A   1      29.154  30.436  22.365  1.00  0.00     0.078 C 
ATOM     29  C   UNL A   1      28.217  30.629  21.180  1.00  0.00     0.013 C 
ATOM     30  C   UNL A   1      28.802  31.509  23.392  1.00  0.00     0.013 C 
ATOM     31  C   UNL A   1      27.872  32.109  21.196  1.00  0.00     0.001 C 
ATOM     32  C   UNL A   1      28.034  32.587  22.636  1.00  0.00     0.001 C 
ENDBRANCH  12  28
ENDBRANCH   3   6
ENDBRANCH   1   2
BRANCH   1  33
ATOM     33  C   UNL A   1      34.354  30.857  27.588  1.00  0.00     0.042 C 
BRANCH  33  34
ATOM     34  C   UNL A   1      35.632  31.376  28.226  1.00  0.00     0.118 C 
BRANCH  34  35
ATOM     35  N   UNL A   1      35.564  31.400  29.680  1.00  0.00    -0.352 N 
ATOM     36  C   UNL A   1      36.417  30.852  30.610  1.00  0.00     0.251 C 
ATOM     37  H   UNL A   1      34.791  31.881  30.055  1.00  0.00     0.163 HD
ATOM     38  O   UNL A   1      36.081  30.813  31.788  1.00  0.00    -0.269 OA
BRANCH  36  39
ATOM     39  C   UNL A   1      37.721  30.295  30.185  1.00  0.00     0.039 A 
ATOM     40  C   UNL A   1      38.031  30.258  28.824  1.00  0.00     0.014 A 
ATOM     41  C   UNL A   1      38.635  29.810  31.122  1.00  0.00     0.014 A 
ATOM     42  C   UNL A   1      39.286  29.803  28.411  1.00  0.00     0.010 A 
ATOM     43  C   UNL A   1      39.917  29.451  30.719  1.00  0.00     0.010 A 
ATOM     44  C   UNL A   1      40.257  29.436  29.359  1.00  0.00    -0.014 A 
BRANCH  44  45
ATOM     45  C   UNL A   1      41.629  29.033  28.951  1.00  0.00     0.031 A 
ATOM     46  C   UNL A   1      42.731  30.057  28.902  1.00  0.00     0.074 A 
ATOM     47  C   UNL A   1      41.865  27.765  28.558  1.00  0.00     0.049 A 
ATOM     48  N   UNL A   1      43.968  29.922  28.496  1.00  0.00    -0.248 NA
ATOM     49  C   UNL A   1      42.393  31.423  29.337  1.00  0.00     0.031 C 
ATOM     50  C   UNL A   1      40.868  26.693  28.514  1.00  0.00     0.029 A 
ATOM     51  N   UNL A   1      43.014  27.164  28.108  1.00  0.00    -0.354 N 
ATOM     52  C   UNL A   1      44.546  31.180  28.612  1.00  0.00     0.074 A 
ATOM     53  C   UNL A   1      43.512  32.080  29.070  1.00  0.00     0.031 C 
ATOM     54  C   UNL A   1      41.454  25.563  28.088  1.00  0.00     0.029 A 
ATOM     55  C   UNL A   1      42.854  25.837  27.783  1.00  0.00     0.049 A 
ATOM     56  H   UNL A   1      43.873  27.638  28.027  1.00  0.00     0.167 HD
ATOM     57  C   UNL A   1      45.829  31.548  28.384  1.00  0.00     0.037 A 
ATOM     58  C   UNL A   1      43.732  24.944  27.284  1.00  0.00     0.037 A 
ATOM     59  C   UNL A   1      46.860  30.639  27.951  1.00  0.00     0.049 A 
ATOM     60  C   UNL A   1      45.151  25.377  27.026  1.00  0.00     0.074 A 
ATOM     61  C   UNL A   1      48.202  30.899  27.745  1.00  0.00     0.029 A 
ATOM     62  N   UNL A   1      46.661  29.299  27.654  1.00  0.00    -0.354 N 
ATOM     63  N   UNL A   1      45.697  26.557  27.205  1.00  0.00    -0.248 NA
ATOM     64  C   UNL A   1      46.076  24.360  26.508  1.00  0.00     0.031 C 
ATOM     65  C   UNL A   1      48.806  29.730  27.271  1.00  0.00     0.029 A 
ATOM     66  C   UNL A   1      47.853  28.724  27.245  1.00  0.00     0.049 A 
ATOM     67  H   UNL A   1      45.800  28.825  27.725  1.00  0.00     0.167 HD
ATOM     68  C   UNL A   1      47.036  26.413  26.858  1.00  0.00     0.074 A 
ATOM     69  C   UNL A   1      47.218  25.033  26.461  1.00  0.00     0.031 C 
ATOM     70  C   UNL A   1      48.025  27.340  26.873  1.00  0.00     0.037 A 
BRANCH  57  71
ATOM     71  C   UNL A   1      46.196  32.992  28.598  1.00  0.00     0.058 A 
ATOM     72  C   UNL A   1      46.663  33.460  29.838  1.00  0.00     0.135 A 
ATOM     73  C   UNL A   1      46.121  33.913  27.541  1.00  0.00     0.135 A 
ATOM     74  F   UNL A   1      46.742  32.628  30.889  1.00  0.00    -0.206 F 
ATOM     75  C   UNL A   1      47.010  34.792  30.030  1.00  0.00     0.059 A 
ATOM     76  C   UNL A   1      46.496  35.244  27.701  1.00  0.00     0.059 A 
ATOM     77  F   UNL A   1      45.683  33.522  26.333  1.00  0.00    -0.206 F 
ATOM     78  C   UNL A   1      46.926  35.678  28.954  1.00  0.00     0.060 A 
BRANCH  78  79
ATOM     79  S   UNL A   1      47.388  37.402  29.220  1.00  0.00     0.124 S 
ATOM     80  O   UNL A   1      47.102  37.985  27.913  1.00  0.00    -0.237 OA
ATOM     81  O   UNL A   1      46.493  37.801  30.301  1.00  0.00    -0.237 OA
ATOM     82  O   UNL A   1      48.802  37.325  29.576  1.00  0.00    -0.744 OA
ENDBRANCH  78  79
ENDBRANCH  57  71
BRANCH  58  83
ATOM     83  C   UNL A   1      43.299  23.546  27.015  1.00  0.00     0.058 A 
ATOM     84  C   UNL A   1      43.041  23.108  25.707  1.00  0.00     0.135 A 
ATOM     85  C   UNL A   1      43.147  22.615  28.055  1.00  0.00     0.135 A 
ATOM     86  F   UNL A   1      43.166  23.959  24.678  1.00  0.00    -0.206 F 
ATOM     87  C   UNL A   1      42.630  21.805  25.441  1.00  0.00     0.059 A 
ATOM     88  C   UNL A   1      42.764  21.300  27.811  1.00  0.00     0.059 A 
ATOM     89  F   UNL A   1      43.396  22.977  29.324  1.00  0.00    -0.206 F 
ATOM     90  C   UNL A   1      42.497  20.907  26.501  1.00  0.00     0.060 A 
BRANCH  90  91
ATOM     91  S   UNL A   1      41.998  19.209  26.137  1.00  0.00     0.124 S 
ATOM     92  O   UNL A   1      42.820  18.906  24.971  1.00  0.00    -0.237 OA
ATOM     93  O   UNL A   1      42.357  18.515  27.370  1.00  0.00    -0.237 OA
ATOM     94  O   UNL A   1      40.565  19.327  25.885  1.00  0.00    -0.744 OA
ENDBRANCH  90  91
ENDBRANCH  58  83
BRANCH  70  95
ATOM     95  C   UNL A   1      49.413  26.893  26.506  1.00  0.00     0.058 A 
ATOM     96  C   UNL A   1      50.334  26.458  27.469  1.00  0.00     0.135 A 
ATOM     97  C   UNL A   1      49.794  26.821  25.155  1.00  0.00     0.135 A 
ATOM     98  F   UNL A   1      50.024  26.513  28.775  1.00  0.00    -0.206 F 
ATOM     99  C   UNL A   1      51.587  25.973  27.109  1.00  0.00     0.059 A 
ATOM    100  C   UNL A   1      51.030  26.312  24.770  1.00  0.00     0.059 A 
ATOM    101  F   UNL A   1      48.947  27.217  24.192  1.00  0.00    -0.206 F 
ATOM    102  C   UNL A   1      51.923  25.897  25.756  1.00  0.00     0.060 A 
BRANCH 102 103
ATOM    103  S   UNL A   1      53.528  25.206  25.300  1.00  0.00     0.124 S 
ATOM    104  O   UNL A   1      53.776  25.857  24.018  1.00  0.00    -0.237 OA
ATOM    105  O   UNL A   1      54.377  25.637  26.406  1.00  0.00    -0.237 OA
ATOM    106  O   UNL A   1      53.274  23.770  25.235  1.00  0.00    -0.744 OA
ENDBRANCH 102 103
ENDBRANCH  70  95
ENDBRANCH  44  45
ENDBRANCH  36  39
ENDBRANCH  34  35
ENDBRANCH  33  34
ENDBRANCH   1  33
TORSDOF 18
ENDMDL
MODEL 3
REMARK VINA RESULT:     -13.2      6.241     11.989
REMARK SMILES COc1ccc(-c2cc(CC3(C(=O)NCCCNC(=O)c4ccc(-c5c6nc(c(-c7c(F)cc(S(=O)(=O)[O-])cc7F)c7ccc([nH]7)c(-c7c(F)cc(S(=O)(=O)[O-])cc7F)c7nc(c(-c8c(F)cc(S(=O)(=O)[O-])cc8F)c8ccc5[nH]8)C=C7)C=C6)cc4)CCN(C(=O)C4CCCC4)CC3)on2)cc1
REMARK SMILES IDX 15 1 14 2 12 3 13 4 11 6 87 7 98 8 88 9 97 10 89 11 90 12
REMARK SMILES IDX 91 13 10 14 9 15 7 16 8 17 100 18 99 19 6 20 3 21 4 22
REMARK SMILES IDX 102 23 5 24 101 25 2 26 1 27 92 28 93 29 96 30 94 31 95 32
REMARK SMILES IDX 16 33 17 34 18 35 19 36 20 38 21 39 22 40 86 41 23 42 85 43
REMARK SMILES IDX 24 44 25 45 26 46 79 47 27 48 84 49 78 50 80 51 28 52 83 53
REMARK SMILES IDX 77 54 76 55 29 57 63 58 42 59 62 60 43 61 46 62 61 63 81 64
REMARK SMILES IDX 44 65 45 66 60 68 82 69 47 70 30 71 31 72 40 73 32 74 33 75
REMARK SMILES IDX 39 76 41 77 34 78 35 79 36 80 37 81 38 82 64 83 65 84 74 85
REMARK SMILES IDX 66 86 67 87 73 88 75 89 68 90 69 91 70 92 71 93 72 94 48 95
REMARK SMILES IDX 49 96 58 97 50 98 51 99 57 100 59 101 52 102 53 103 54 104
REMARK SMILES IDX 55 105 56 106
REMARK H PARENT 14 5 18 37 80 56 46 67
REMARK Flexibility Score: inf
ROOT
ATOM      1  C   UNL A   1      37.644  22.638  25.732  1.00  0.00     0.117 C 
ENDROOT
BRANCH   1   2
ATOM      2  N   UNL A   1      37.160  23.008  24.407  1.00  0.00    -0.356 N 
ATOM      3  C   UNL A   1      35.941  22.877  23.810  1.00  0.00     0.226 C 
ATOM      4  O   UNL A   1      35.850  23.311  22.658  1.00  0.00    -0.274 OA
ATOM      5  H   UNL A   1      37.841  23.433  23.837  1.00  0.00     0.163 HD
BRANCH   3   6
ATOM      6  C   UNL A   1      34.726  22.253  24.539  1.00  0.00     0.060 C 
ATOM      7  C   UNL A   1      33.532  22.209  23.548  1.00  0.00     0.039 C 
ATOM      8  C   UNL A   1      35.170  20.873  25.092  1.00  0.00     0.039 C 
ATOM      9  C   UNL A   1      32.577  21.026  23.668  1.00  0.00     0.120 C 
ATOM     10  C   UNL A   1      34.056  19.846  25.221  1.00  0.00     0.120 C 
ATOM     11  N   UNL A   1      33.232  19.773  24.026  1.00  0.00    -0.342 N 
ATOM     12  C   UNL A   1      32.782  18.615  23.405  1.00  0.00     0.225 C 
ATOM     13  O   UNL A   1      31.944  18.662  22.498  1.00  0.00    -0.275 OA
BRANCH   6  14
ATOM     14  C   UNL A   1      34.389  23.213  25.731  1.00  0.00     0.095 C 
BRANCH  14  15
ATOM     15  C   UNL A   1      33.276  24.157  25.465  1.00  0.00     0.138 A 
ATOM     16  C   UNL A   1      31.844  25.755  24.969  1.00  0.00     0.114 A 
ATOM     17  C   UNL A   1      33.127  25.250  24.648  1.00  0.00     0.077 A 
ATOM     18  N   UNL A   1      31.245  24.990  25.891  1.00  0.00    -0.080 NA
ATOM     19  O   UNL A   1      32.130  23.967  26.168  1.00  0.00    -0.361 OA
BRANCH  16  20
ATOM     20  C   UNL A   1      31.171  26.891  24.378  1.00  0.00     0.004 A 
ATOM     21  C   UNL A   1      29.763  29.061  23.327  1.00  0.00     0.118 A 
ATOM     22  C   UNL A   1      31.065  29.238  23.800  1.00  0.00     0.047 A 
ATOM     23  C   UNL A   1      29.186  27.790  23.328  1.00  0.00     0.047 A 
ATOM     24  C   UNL A   1      31.768  28.156  24.341  1.00  0.00     0.014 A 
ATOM     25  C   UNL A   1      29.888  26.710  23.856  1.00  0.00     0.014 A 
BRANCH  21  26
ATOM     26  O   UNL A   1      29.130  30.171  22.837  1.00  0.00    -0.497 OA
ATOM     27  C   UNL A   1      27.791  29.914  22.414  1.00  0.00     0.278 C 
ENDBRANCH  21  26
ENDBRANCH  16  20
ENDBRANCH  14  15
ENDBRANCH   6  14
BRANCH  12  28
ATOM     28  C   UNL A   1      33.303  17.240  23.810  1.00  0.00     0.078 C 
ATOM     29  C   UNL A   1      34.784  17.195  24.162  1.00  0.00     0.013 C 
ATOM     30  C   UNL A   1      32.549  16.576  24.959  1.00  0.00     0.013 C 
ATOM     31  C   UNL A   1      34.932  15.975  25.057  1.00  0.00     0.001 C 
ATOM     32  C   UNL A   1      33.576  15.739  25.714  1.00  0.00     0.001 C 
ENDBRANCH  12  28
ENDBRANCH   3   6
ENDBRANCH   1   2
BRANCH   1  33
ATOM     33  C   UNL A   1      38.158  23.831  26.523  1.00  0.00     0.042 C 
BRANCH  33  34
ATOM     34  C   UNL A   1      39.579  23.667  27.038  1.00  0.00     0.118 C 
BRANCH  34  35
ATOM     35  N   UNL A   1      40.576  24.155  26.095  1.00  0.00    -0.352 N 
ATOM     36  C   UNL A   1      41.295  25.328  26.105  1.00  0.00     0.251 C 
ATOM     37  H   UNL A   1      40.765  23.555  25.338  1.00  0.00     0.163 HD
ATOM     38  O   UNL A   1      41.946  25.645  25.115  1.00  0.00    -0.269 OA
BRANCH  36  39
ATOM     39  C   UNL A   1      41.265  26.209  27.294  1.00  0.00     0.039 A 
ATOM     40  C   UNL A   1      42.104  27.325  27.332  1.00  0.00     0.014 A 
ATOM     41  C   UNL A   1      40.415  25.938  28.368  1.00  0.00     0.014 A 
ATOM     42  C   UNL A   1      42.035  28.207  28.414  1.00  0.00     0.010 A 
ATOM     43  C   UNL A   1      40.277  26.866  29.395  1.00  0.00     0.010 A 
ATOM     44  C   UNL A   1      41.089  28.008  29.435  1.00  0.00    -0.014 A 
BRANCH  44  45
ATOM     45  C   UNL A   1      40.934  28.978  30.552  1.00  0.00     0.031 A 
ATOM     46  C   UNL A   1      41.813  28.871  31.770  1.00  0.00     0.074 A 
ATOM     47  C   UNL A   1      39.958  29.906  30.502  1.00  0.00     0.049 A 
ATOM     48  N   UNL A   1      41.778  29.565  32.878  1.00  0.00    -0.248 NA
ATOM     49  C   UNL A   1      42.850  27.825  31.754  1.00  0.00     0.031 C 
ATOM     50  C   UNL A   1      39.009  30.079  29.398  1.00  0.00     0.029 A 
ATOM     51  N   UNL A   1      39.590  30.873  31.404  1.00  0.00    -0.354 N 
ATOM     52  C   UNL A   1      42.771  29.033  33.692  1.00  0.00     0.074 A 
ATOM     53  C   UNL A   1      43.352  27.920  32.976  1.00  0.00     0.031 C 
ATOM     54  C   UNL A   1      38.189  31.103  29.677  1.00  0.00     0.029 A 
ATOM     55  C   UNL A   1      38.518  31.632  30.997  1.00  0.00     0.049 A 
ATOM     56  H   UNL A   1      40.052  31.010  32.263  1.00  0.00     0.167 HD
ATOM     57  C   UNL A   1      43.180  29.450  34.913  1.00  0.00     0.037 A 
ATOM     58  C   UNL A   1      37.864  32.632  31.620  1.00  0.00     0.037 A 
ATOM     59  C   UNL A   1      42.611  30.576  35.609  1.00  0.00     0.049 A 
ATOM     60  C   UNL A   1      38.328  33.073  32.984  1.00  0.00     0.074 A 
ATOM     61  C   UNL A   1      42.990  31.114  36.825  1.00  0.00     0.029 A 
ATOM     62  N   UNL A   1      41.541  31.332  35.152  1.00  0.00    -0.354 N 
ATOM     63  N   UNL A   1      39.314  32.600  33.711  1.00  0.00    -0.248 NA
ATOM     64  C   UNL A   1      37.600  34.185  33.609  1.00  0.00     0.031 C 
ATOM     65  C   UNL A   1      42.115  32.162  37.131  1.00  0.00     0.029 A 
ATOM     66  C   UNL A   1      41.232  32.319  36.074  1.00  0.00     0.049 A 
ATOM     67  H   UNL A   1      41.070  31.189  34.299  1.00  0.00     0.167 HD
ATOM     68  C   UNL A   1      39.347  33.382  34.861  1.00  0.00     0.074 A 
ATOM     69  C   UNL A   1      38.286  34.358  34.732  1.00  0.00     0.031 C 
ATOM     70  C   UNL A   1      40.185  33.300  35.923  1.00  0.00     0.037 A 
BRANCH  57  71
ATOM     71  C   UNL A   1      44.296  28.691  35.578  1.00  0.00     0.058 A 
ATOM     72  C   UNL A   1      45.645  29.021  35.364  1.00  0.00     0.135 A 
ATOM     73  C   UNL A   1      44.015  27.648  36.476  1.00  0.00     0.135 A 
ATOM     74  F   UNL A   1      45.974  30.001  34.507  1.00  0.00    -0.206 F 
ATOM     75  C   UNL A   1      46.674  28.324  35.988  1.00  0.00     0.059 A 
ATOM     76  C   UNL A   1      45.028  26.958  37.138  1.00  0.00     0.059 A 
ATOM     77  F   UNL A   1      42.745  27.289  36.720  1.00  0.00    -0.206 F 
ATOM     78  C   UNL A   1      46.355  27.295  36.876  1.00  0.00     0.060 A 
BRANCH  78  79
ATOM     79  S   UNL A   1      47.704  26.406  37.683  1.00  0.00     0.124 S 
ATOM     80  O   UNL A   1      47.542  26.830  39.071  1.00  0.00    -0.237 OA
ATOM     81  O   UNL A   1      47.369  25.013  37.404  1.00  0.00    -0.237 OA
ATOM     82  O   UNL A   1      48.896  26.910  37.009  1.00  0.00    -0.744 OA
ENDBRANCH  78  79
ENDBRANCH  57  71
BRANCH  58  83
ATOM     83  C   UNL A   1      36.715  33.301  30.952  1.00  0.00     0.058 A 
ATOM     84  C   UNL A   1      36.918  34.193  29.887  1.00  0.00     0.135 A 
ATOM     85  C   UNL A   1      35.392  33.053  31.351  1.00  0.00     0.135 A 
ATOM     86  F   UNL A   1      38.162  34.468  29.471  1.00  0.00    -0.206 F 
ATOM     87  C   UNL A   1      35.853  34.830  29.257  1.00  0.00     0.059 A 
ATOM     88  C   UNL A   1      34.310  33.656  30.717  1.00  0.00     0.059 A 
ATOM     89  F   UNL A   1      35.141  32.195  32.353  1.00  0.00    -0.206 F 
ATOM     90  C   UNL A   1      34.552  34.552  29.678  1.00  0.00     0.060 A 
BRANCH  90  91
ATOM     91  S   UNL A   1      33.178  35.358  28.825  1.00  0.00     0.124 S 
ATOM     92  O   UNL A   1      32.588  34.239  28.099  1.00  0.00    -0.237 OA
ATOM     93  O   UNL A   1      32.393  35.883  29.938  1.00  0.00    -0.237 OA
ATOM     94  O   UNL A   1      33.839  36.366  28.002  1.00  0.00    -0.744 OA
ENDBRANCH  90  91
ENDBRANCH  58  83
BRANCH  70  95
ATOM     95  C   UNL A   1      40.040  34.326  37.013  1.00  0.00     0.058 A 
ATOM     96  C   UNL A   1      40.718  35.552  36.978  1.00  0.00     0.135 A 
ATOM     97  C   UNL A   1      39.137  34.106  38.068  1.00  0.00     0.135 A 
ATOM     98  F   UNL A   1      41.598  35.809  35.997  1.00  0.00    -0.206 F 
ATOM     99  C   UNL A   1      40.515  36.523  37.953  1.00  0.00     0.059 A 
ATOM    100  C   UNL A   1      38.896  35.074  39.037  1.00  0.00     0.059 A 
ATOM    101  F   UNL A   1      38.455  32.952  38.145  1.00  0.00    -0.206 F 
ATOM    102  C   UNL A   1      39.594  36.277  38.975  1.00  0.00     0.060 A 
BRANCH 102 103
ATOM    103  S   UNL A   1      39.293  37.572  40.196  1.00  0.00     0.124 S 
ATOM    104  O   UNL A   1      40.585  38.250  40.232  1.00  0.00    -0.237 OA
ATOM    105  O   UNL A   1      38.198  38.323  39.591  1.00  0.00    -0.237 OA
ATOM    106  O   UNL A   1      38.944  36.828  41.402  1.00  0.00    -0.744 OA
ENDBRANCH 102 103
ENDBRANCH  70  95
ENDBRANCH  44  45
ENDBRANCH  36  39
ENDBRANCH  34  35
ENDBRANCH  33  34
ENDBRANCH   1  33
TORSDOF 18
ENDMDL
