MODEL 1
REMARK VINA RESULT:     -11.1      0.000      0.000
REMARK SMILES CCCCCCOC(=O)Nc1cccc(-c2ccc([C@@H](C)C(=O)NCCCNC(=O)c3ccc(-c4c5nc(c(-c6c(F)cc(S(=O)(=O)[O-])cc6F)c6ccc([nH]6)c(-c6c(F)cc(S(=O)(=O)[O-])cc6F)c6nc(c(-c7c(F)cc(S(=O)(=O)[O-])cc7F)c7ccc4[nH]7)C=C6)C=C5)cc3)cc2F)c1
REMARK SMILES IDX 20 1 21 2 19 3 16 4 17 5 98 6 18 7 97 8 99 9 15 10 11 11
REMARK SMILES IDX 12 12 100 13 13 14 14 15 10 16 8 17 9 18 7 20 6 21 5 22 4 23
REMARK SMILES IDX 3 24 2 25 1 26 22 27 23 28 24 29 25 31 26 32 27 33 28 34
REMARK SMILES IDX 29 35 30 37 31 38 32 39 96 40 33 41 95 42 34 43 35 44 36 45
REMARK SMILES IDX 89 46 37 47 94 48 88 49 90 50 38 51 93 52 87 53 86 54 39 56
REMARK SMILES IDX 73 57 52 58 72 59 53 60 56 61 71 62 91 63 54 64 55 65 70 67
REMARK SMILES IDX 92 68 57 69 40 70 41 71 50 72 42 73 43 74 49 75 51 76 44 77
REMARK SMILES IDX 45 78 46 79 47 80 48 81 74 82 75 83 84 84 76 85 77 86 83 87
REMARK SMILES IDX 85 88 78 89 79 90 80 91 81 92 82 93 58 94 59 95 68 96 60 97
REMARK SMILES IDX 61 98 67 99 69 100 62 101 63 102 64 103 65 104 66 105
REMARK H PARENT 10 19 24 30 28 36 90 55 56 66
REMARK Flexibility Score: inf
ROOT
ATOM      1  C   UNL A   1      35.319  32.473  28.532  1.00  0.00     0.105 C 
ATOM      2  C   UNL A   1      36.621  32.686  27.765  1.00  0.00     0.023 C 
ENDROOT
BRANCH   1   3
ATOM      3  C   UNL A   1      34.404  31.386  27.991  1.00  0.00    -0.033 A 
ATOM      4  C   UNL A   1      32.685  29.455  26.762  1.00  0.00     0.018 A 
ATOM      5  C   UNL A   1      33.968  29.113  27.212  1.00  0.00     0.012 A 
ATOM      6  C   UNL A   1      32.269  30.776  27.002  1.00  0.00     0.131 A 
ATOM      7  C   UNL A   1      34.797  30.051  27.846  1.00  0.00     0.005 A 
ATOM      8  C   UNL A   1      33.111  31.727  27.579  1.00  0.00     0.044 A 
ATOM      9  F   UNL A   1      31.028  31.172  26.677  1.00  0.00    -0.206 F 
BRANCH   4  10
ATOM     10  C   UNL A   1      31.834  28.478  26.050  1.00  0.00    -0.013 A 
ATOM     11  C   UNL A   1      30.700  26.304  26.009  1.00  0.00     0.045 A 
ATOM     12  C   UNL A   1      30.317  26.515  24.688  1.00  0.00     0.026 A 
ATOM     13  C   UNL A   1      31.435  27.287  26.680  1.00  0.00     0.035 A 
ATOM     14  C   UNL A   1      30.638  27.716  24.060  1.00  0.00     0.003 A 
ATOM     15  C   UNL A   1      31.398  28.682  24.730  1.00  0.00     0.009 A 
BRANCH  11  16
ATOM     16  N   UNL A   1      30.442  25.059  26.598  1.00  0.00    -0.291 N 
ATOM     17  C   UNL A   1      30.855  23.832  26.150  1.00  0.00     0.411 C 
ATOM     18  O   UNL A   1      30.212  22.822  26.379  1.00  0.00    -0.224 OA
ATOM     19  H   UNL A   1      29.906  25.068  27.424  1.00  0.00     0.173 HD
BRANCH  17  20
ATOM     20  O   UNL A   1      32.074  23.878  25.552  1.00  0.00    -0.449 OA
BRANCH  20  21
ATOM     21  C   UNL A   1      33.233  24.097  26.372  1.00  0.00     0.235 C 
BRANCH  21  22
ATOM     22  C   UNL A   1      34.393  24.723  25.591  1.00  0.00     0.042 C 
BRANCH  22  23
ATOM     23  C   UNL A   1      34.003  25.773  24.544  1.00  0.00     0.003 C 
BRANCH  23  24
ATOM     24  C   UNL A   1      33.902  25.250  23.105  1.00  0.00    -0.000 C 
BRANCH  24  25
ATOM     25  C   UNL A   1      33.458  26.285  22.073  1.00  0.00    -0.003 C 
ATOM     26  C   UNL A   1      32.167  25.896  21.372  1.00  0.00     0.004 C 
ENDBRANCH  24  25
ENDBRANCH  23  24
ENDBRANCH  22  23
ENDBRANCH  21  22
ENDBRANCH  20  21
ENDBRANCH  17  20
ENDBRANCH  11  16
ENDBRANCH   4  10
ENDBRANCH   1   3
BRANCH   1  27
ATOM     27  C   UNL A   1      34.580  33.766  28.910  1.00  0.00     0.227 C 
ATOM     28  O   UNL A   1      34.100  34.481  28.022  1.00  0.00    -0.274 OA
ATOM     29  N   UNL A   1      34.400  34.192  30.189  1.00  0.00    -0.356 N 
ATOM     30  H   UNL A   1      33.856  35.009  30.269  1.00  0.00     0.163 HD
BRANCH  29  31
ATOM     31  C   UNL A   1      34.863  33.661  31.455  1.00  0.00     0.117 C 
BRANCH  31  32
ATOM     32  C   UNL A   1      36.325  34.001  31.726  1.00  0.00     0.042 C 
BRANCH  32  33
ATOM     33  C   UNL A   1      37.221  32.782  31.884  1.00  0.00     0.118 C 
BRANCH  33  34
ATOM     34  N   UNL A   1      36.466  31.539  31.815  1.00  0.00    -0.352 N 
ATOM     35  C   UNL A   1      36.765  30.345  31.207  1.00  0.00     0.251 C 
ATOM     36  H   UNL A   1      35.599  31.558  32.281  1.00  0.00     0.163 HD
ATOM     37  O   UNL A   1      35.871  29.510  31.086  1.00  0.00    -0.269 OA
BRANCH  35  38
ATOM     38  C   UNL A   1      38.127  30.051  30.700  1.00  0.00     0.039 A 
ATOM     39  C   UNL A   1      38.360  30.131  29.323  1.00  0.00     0.014 A 
ATOM     40  C   UNL A   1      39.150  29.619  31.547  1.00  0.00     0.014 A 
ATOM     41  C   UNL A   1      39.614  29.798  28.804  1.00  0.00     0.010 A 
ATOM     42  C   UNL A   1      40.426  29.378  31.041  1.00  0.00     0.010 A 
ATOM     43  C   UNL A   1      40.662  29.428  29.660  1.00  0.00    -0.014 A 
BRANCH  43  44
ATOM     44  C   UNL A   1      41.983  29.007  29.127  1.00  0.00     0.031 A 
ATOM     45  C   UNL A   1      43.119  29.999  29.079  1.00  0.00     0.074 A 
ATOM     46  C   UNL A   1      42.156  27.754  28.661  1.00  0.00     0.049 A 
ATOM     47  N   UNL A   1      44.327  29.854  28.596  1.00  0.00    -0.248 NA
ATOM     48  C   UNL A   1      42.852  31.342  29.621  1.00  0.00     0.031 C 
ATOM     49  C   UNL A   1      41.124  26.716  28.618  1.00  0.00     0.029 A 
ATOM     50  N   UNL A   1      43.263  27.141  28.132  1.00  0.00    -0.354 N 
ATOM     51  C   UNL A   1      44.953  31.084  28.764  1.00  0.00     0.074 A 
ATOM     52  C   UNL A   1      43.972  31.984  29.330  1.00  0.00     0.031 C 
ATOM     53  C   UNL A   1      41.656  25.587  28.121  1.00  0.00     0.029 A 
ATOM     54  C   UNL A   1      43.053  25.829  27.778  1.00  0.00     0.049 A 
ATOM     55  H   UNL A   1      44.128  27.599  28.017  1.00  0.00     0.167 HD
ATOM     56  C   UNL A   1      46.238  31.428  28.504  1.00  0.00     0.037 A 
ATOM     57  C   UNL A   1      43.896  24.926  27.239  1.00  0.00     0.037 A 
ATOM     58  C   UNL A   1      47.219  30.519  27.974  1.00  0.00     0.049 A 
ATOM     59  C   UNL A   1      45.321  25.331  26.967  1.00  0.00     0.074 A 
ATOM     60  C   UNL A   1      48.553  30.755  27.694  1.00  0.00     0.029 A 
ATOM     61  N   UNL A   1      46.974  29.190  27.659  1.00  0.00    -0.354 N 
ATOM     62  N   UNL A   1      45.902  26.492  27.160  1.00  0.00    -0.248 NA
ATOM     63  C   UNL A   1      46.210  24.295  26.422  1.00  0.00     0.031 C 
ATOM     64  C   UNL A   1      49.109  29.577  27.184  1.00  0.00     0.029 A 
ATOM     65  C   UNL A   1      48.132  28.594  27.191  1.00  0.00     0.049 A 
ATOM     66  H   UNL A   1      46.105  28.738  27.755  1.00  0.00     0.167 HD
ATOM     67  C   UNL A   1      47.234  26.314  26.798  1.00  0.00     0.074 A 
ATOM     68  C   UNL A   1      47.371  24.932  26.385  1.00  0.00     0.031 C 
ATOM     69  C   UNL A   1      48.252  27.210  26.808  1.00  0.00     0.037 A 
BRANCH  56  70
ATOM     70  C   UNL A   1      46.657  32.840  28.813  1.00  0.00     0.058 A 
ATOM     71  C   UNL A   1      47.166  33.196  30.073  1.00  0.00     0.135 A 
ATOM     72  C   UNL A   1      46.577  33.845  27.835  1.00  0.00     0.135 A 
ATOM     73  F   UNL A   1      47.247  32.282  31.053  1.00  0.00    -0.206 F 
ATOM     74  C   UNL A   1      47.552  34.501  30.362  1.00  0.00     0.059 A 
ATOM     75  C   UNL A   1      46.987  35.151  28.092  1.00  0.00     0.059 A 
ATOM     76  F   UNL A   1      46.098  33.563  26.613  1.00  0.00    -0.206 F 
ATOM     77  C   UNL A   1      47.459  35.472  29.364  1.00  0.00     0.060 A 
BRANCH  77  78
ATOM     78  S   UNL A   1      47.975  37.157  29.753  1.00  0.00     0.124 S 
ATOM     79  O   UNL A   1      49.412  36.987  29.939  1.00  0.00    -0.237 OA
ATOM     80  O   UNL A   1      47.573  37.891  28.558  1.00  0.00    -0.237 OA
ATOM     81  O   UNL A   1      47.220  37.474  30.962  1.00  0.00    -0.744 OA
ENDBRANCH  77  78
ENDBRANCH  56  70
BRANCH  57  82
ATOM     82  C   UNL A   1      43.434  23.542  26.956  1.00  0.00     0.058 A 
ATOM     83  C   UNL A   1      43.270  22.610  27.993  1.00  0.00     0.135 A 
ATOM     84  C   UNL A   1      43.165  23.113  25.647  1.00  0.00     0.135 A 
ATOM     85  F   UNL A   1      43.516  22.970  29.262  1.00  0.00    -0.206 F 
ATOM     86  C   UNL A   1      42.893  21.295  27.742  1.00  0.00     0.059 A 
ATOM     87  C   UNL A   1      42.758  21.811  25.372  1.00  0.00     0.059 A 
ATOM     88  F   UNL A   1      43.285  23.970  24.621  1.00  0.00    -0.206 F 
ATOM     89  C   UNL A   1      42.642  20.904  26.425  1.00  0.00     0.060 A 
BRANCH  89  90
ATOM     90  S   UNL A   1      42.134  19.200  26.109  1.00  0.00     0.124 S 
ATOM     91  O   UNL A   1      40.728  19.374  25.763  1.00  0.00    -0.237 OA
ATOM     92  O   UNL A   1      43.019  18.812  25.016  1.00  0.00    -0.237 OA
ATOM     93  O   UNL A   1      42.393  18.533  27.381  1.00  0.00    -0.744 OA
ENDBRANCH  89  90
ENDBRANCH  57  82
BRANCH  69  94
ATOM     94  C   UNL A   1      49.616  26.703  26.426  1.00  0.00     0.058 A 
ATOM     95  C   UNL A   1      50.075  26.727  25.100  1.00  0.00     0.135 A 
ATOM     96  C   UNL A   1      50.481  26.200  27.412  1.00  0.00     0.135 A 
ATOM     97  F   UNL A   1      49.285  27.196  24.121  1.00  0.00    -0.206 F 
ATOM     98  C   UNL A   1      51.327  26.230  24.756  1.00  0.00     0.059 A 
ATOM     99  C   UNL A   1      51.750  25.725  27.096  1.00  0.00     0.059 A 
ATOM    100  F   UNL A   1      50.098  26.169  28.697  1.00  0.00    -0.206 F 
ATOM    101  C   UNL A   1      52.155  25.724  25.762  1.00  0.00     0.060 A 
BRANCH 101 102
ATOM    102  S   UNL A   1      53.777  25.078  25.305  1.00  0.00     0.124 S 
ATOM    103  O   UNL A   1      54.211  26.052  24.309  1.00  0.00    -0.237 OA
ATOM    104  O   UNL A   1      54.496  25.105  26.575  1.00  0.00    -0.237 OA
ATOM    105  O   UNL A   1      53.477  23.744  24.791  1.00  0.00    -0.744 OA
ENDBRANCH 101 102
ENDBRANCH  69  94
ENDBRANCH  43  44
ENDBRANCH  35  38
ENDBRANCH  33  34
ENDBRANCH  32  33
ENDBRANCH  31  32
ENDBRANCH  29  31
ENDBRANCH   1  27
TORSDOF 22
ENDMDL
MODEL 2
REMARK VINA RESULT:     -10.8      1.083      8.073
REMARK SMILES CCCCCCOC(=O)Nc1cccc(-c2ccc([C@@H](C)C(=O)NCCCNC(=O)c3ccc(-c4c5nc(c(-c6c(F)cc(S(=O)(=O)[O-])cc6F)c6ccc([nH]6)c(-c6c(F)cc(S(=O)(=O)[O-])cc6F)c6nc(c(-c7c(F)cc(S(=O)(=O)[O-])cc7F)c7ccc4[nH]7)C=C6)C=C5)cc3)cc2F)c1
REMARK SMILES IDX 20 1 21 2 19 3 16 4 17 5 98 6 18 7 97 8 99 9 15 10 11 11
REMARK SMILES IDX 12 12 100 13 13 14 14 15 10 16 8 17 9 18 7 20 6 21 5 22 4 23
REMARK SMILES IDX 3 24 2 25 1 26 22 27 23 28 24 29 25 31 26 32 27 33 28 34
REMARK SMILES IDX 29 35 30 37 31 38 32 39 96 40 33 41 95 42 34 43 35 44 36 45
REMARK SMILES IDX 89 46 37 47 94 48 88 49 90 50 38 51 93 52 87 53 86 54 39 56
REMARK SMILES IDX 73 57 52 58 72 59 53 60 56 61 71 62 91 63 54 64 55 65 70 67
REMARK SMILES IDX 92 68 57 69 40 70 41 71 50 72 42 73 43 74 49 75 51 76 44 77
REMARK SMILES IDX 45 78 46 79 47 80 48 81 74 82 75 83 84 84 76 85 77 86 83 87
REMARK SMILES IDX 85 88 78 89 79 90 80 91 81 92 82 93 58 94 59 95 68 96 60 97
REMARK SMILES IDX 61 98 67 99 69 100 62 101 63 102 64 103 65 104 66 105
REMARK H PARENT 10 19 24 30 28 36 90 55 56 66
REMARK Flexibility Score: inf
ROOT
ATOM      1  C   UNL A   1      34.818  32.381  28.536  1.00  0.00     0.105 C 
ATOM      2  C   UNL A   1      36.222  32.672  28.013  1.00  0.00     0.023 C 
ENDROOT
BRANCH   1   3
ATOM      3  C   UNL A   1      33.989  31.419  27.701  1.00  0.00    -0.033 A 
ATOM      4  C   UNL A   1      32.431  29.456  26.317  1.00  0.00     0.018 A 
ATOM      5  C   UNL A   1      31.906  30.716  26.637  1.00  0.00     0.012 A 
ATOM      6  C   UNL A   1      33.776  29.234  26.656  1.00  0.00     0.131 A 
ATOM      7  C   UNL A   1      32.681  31.690  27.284  1.00  0.00     0.005 A 
ATOM      8  C   UNL A   1      34.533  30.177  27.352  1.00  0.00     0.044 A 
ATOM      9  F   UNL A   1      34.387  28.086  26.319  1.00  0.00    -0.206 F 
BRANCH   4  10
ATOM     10  C   UNL A   1      31.596  28.415  25.680  1.00  0.00    -0.013 A 
ATOM     11  C   UNL A   1      30.483  26.234  25.809  1.00  0.00     0.045 A 
ATOM     12  C   UNL A   1      30.112  26.331  24.471  1.00  0.00     0.026 A 
ATOM     13  C   UNL A   1      31.201  27.277  26.403  1.00  0.00     0.035 A 
ATOM     14  C   UNL A   1      30.429  27.479  23.749  1.00  0.00     0.003 A 
ATOM     15  C   UNL A   1      31.173  28.504  24.344  1.00  0.00     0.009 A 
BRANCH  11  16
ATOM     16  N   UNL A   1      30.229  25.040  26.497  1.00  0.00    -0.291 N 
ATOM     17  C   UNL A   1      31.027  23.927  26.540  1.00  0.00     0.411 C 
ATOM     18  O   UNL A   1      30.556  22.813  26.700  1.00  0.00    -0.224 OA
ATOM     19  H   UNL A   1      29.387  24.997  27.004  1.00  0.00     0.173 HD
BRANCH  17  20
ATOM     20  O   UNL A   1      32.351  24.231  26.503  1.00  0.00    -0.449 OA
BRANCH  20  21
ATOM     21  C   UNL A   1      33.240  23.337  25.816  1.00  0.00     0.235 C 
BRANCH  21  22
ATOM     22  C   UNL A   1      34.710  23.587  26.170  1.00  0.00     0.042 C 
BRANCH  22  23
ATOM     23  C   UNL A   1      35.711  23.415  25.021  1.00  0.00     0.003 C 
BRANCH  23  24
ATOM     24  C   UNL A   1      37.154  23.125  25.455  1.00  0.00    -0.000 C 
BRANCH  24  25
ATOM     25  C   UNL A   1      37.708  21.780  24.987  1.00  0.00    -0.003 C 
ATOM     26  C   UNL A   1      36.665  20.675  25.013  1.00  0.00     0.004 C 
ENDBRANCH  24  25
ENDBRANCH  23  24
ENDBRANCH  22  23
ENDBRANCH  21  22
ENDBRANCH  20  21
ENDBRANCH  17  20
ENDBRANCH  11  16
ENDBRANCH   4  10
ENDBRANCH   1   3
BRANCH   1  27
ATOM     27  C   UNL A   1      34.039  33.622  28.998  1.00  0.00     0.227 C 
ATOM     28  O   UNL A   1      33.424  34.305  28.170  1.00  0.00    -0.274 OA
ATOM     29  N   UNL A   1      33.964  34.033  30.293  1.00  0.00    -0.356 N 
ATOM     30  H   UNL A   1      33.379  34.812  30.435  1.00  0.00     0.163 HD
BRANCH  29  31
ATOM     31  C   UNL A   1      34.589  33.531  31.500  1.00  0.00     0.117 C 
BRANCH  31  32
ATOM     32  C   UNL A   1      36.047  33.961  31.619  1.00  0.00     0.042 C 
BRANCH  32  33
ATOM     33  C   UNL A   1      37.029  32.800  31.661  1.00  0.00     0.118 C 
BRANCH  33  34
ATOM     34  N   UNL A   1      36.354  31.512  31.575  1.00  0.00    -0.352 N 
ATOM     35  C   UNL A   1      36.740  30.341  30.974  1.00  0.00     0.251 C 
ATOM     36  H   UNL A   1      35.478  31.477  32.022  1.00  0.00     0.163 HD
ATOM     37  O   UNL A   1      35.903  29.451  30.833  1.00  0.00    -0.269 OA
BRANCH  35  38
ATOM     38  C   UNL A   1      38.128  30.132  30.497  1.00  0.00     0.039 A 
ATOM     39  C   UNL A   1      38.383  30.213  29.124  1.00  0.00     0.014 A 
ATOM     40  C   UNL A   1      39.161  29.778  31.369  1.00  0.00     0.014 A 
ATOM     41  C   UNL A   1      39.667  29.958  28.633  1.00  0.00     0.010 A 
ATOM     42  C   UNL A   1      40.459  29.616  30.891  1.00  0.00     0.010 A 
ATOM     43  C   UNL A   1      40.720  29.668  29.515  1.00  0.00    -0.014 A 
BRANCH  43  44
ATOM     44  C   UNL A   1      42.076  29.329  29.011  1.00  0.00     0.031 A 
ATOM     45  C   UNL A   1      42.367  27.926  28.540  1.00  0.00     0.074 A 
ATOM     46  C   UNL A   1      43.048  30.262  29.005  1.00  0.00     0.049 A 
ATOM     47  N   UNL A   1      43.494  27.407  28.124  1.00  0.00    -0.248 NA
ATOM     48  C   UNL A   1      41.247  26.969  28.566  1.00  0.00     0.031 C 
ATOM     49  C   UNL A   1      42.900  31.643  29.471  1.00  0.00     0.029 A 
ATOM     50  N   UNL A   1      44.353  30.191  28.592  1.00  0.00    -0.354 N 
ATOM     51  C   UNL A   1      43.222  26.070  27.854  1.00  0.00     0.074 A 
ATOM     52  C   UNL A   1      41.841  25.839  28.218  1.00  0.00     0.031 C 
ATOM     53  C   UNL A   1      44.060  32.295  29.289  1.00  0.00     0.029 A 
ATOM     54  C   UNL A   1      45.042  31.374  28.728  1.00  0.00     0.049 A 
ATOM     55  H   UNL A   1      44.761  29.369  28.233  1.00  0.00     0.167 HD
ATOM     56  C   UNL A   1      44.035  25.127  27.321  1.00  0.00     0.037 A 
ATOM     57  C   UNL A   1      46.320  31.677  28.429  1.00  0.00     0.037 A 
ATOM     58  C   UNL A   1      45.397  25.372  26.928  1.00  0.00     0.049 A 
ATOM     59  C   UNL A   1      47.201  30.612  27.829  1.00  0.00     0.074 A 
ATOM     60  C   UNL A   1      46.303  24.495  26.357  1.00  0.00     0.029 A 
ATOM     61  N   UNL A   1      46.046  26.592  27.052  1.00  0.00    -0.354 N 
ATOM     62  N   UNL A   1      46.916  29.361  27.555  1.00  0.00    -0.248 NA
ATOM     63  C   UNL A   1      48.573  31.008  27.480  1.00  0.00     0.031 C 
ATOM     64  C   UNL A   1      47.508  25.177  26.160  1.00  0.00     0.029 A 
ATOM     65  C   UNL A   1      47.339  26.492  26.566  1.00  0.00     0.049 A 
ATOM     66  H   UNL A   1      45.647  27.408  27.429  1.00  0.00     0.167 HD
ATOM     67  C   UNL A   1      48.060  28.833  26.963  1.00  0.00     0.074 A 
ATOM     68  C   UNL A   1      49.034  29.903  26.913  1.00  0.00     0.031 C 
ATOM     69  C   UNL A   1      48.284  27.577  26.502  1.00  0.00     0.037 A 
BRANCH  56  70
ATOM     70  C   UNL A   1      43.461  23.751  27.110  1.00  0.00     0.058 A 
ATOM     71  C   UNL A   1      43.110  23.290  25.830  1.00  0.00     0.135 A 
ATOM     72  C   UNL A   1      43.285  22.872  28.190  1.00  0.00     0.135 A 
ATOM     73  F   UNL A   1      43.238  24.095  24.763  1.00  0.00    -0.206 F 
ATOM     74  C   UNL A   1      42.577  22.021  25.633  1.00  0.00     0.059 A 
ATOM     75  C   UNL A   1      42.782  21.585  28.012  1.00  0.00     0.059 A 
ATOM     76  F   UNL A   1      43.602  23.259  29.436  1.00  0.00    -0.206 F 
ATOM     77  C   UNL A   1      42.417  21.175  26.730  1.00  0.00     0.060 A 
BRANCH  77  78
ATOM     78  S   UNL A   1      41.734  19.527  26.454  1.00  0.00     0.124 S 
ATOM     79  O   UNL A   1      42.333  19.175  25.171  1.00  0.00    -0.237 OA
ATOM     80  O   UNL A   1      42.229  18.786  27.610  1.00  0.00    -0.237 OA
ATOM     81  O   UNL A   1      40.292  19.755  26.432  1.00  0.00    -0.744 OA
ENDBRANCH  77  78
ENDBRANCH  56  70
BRANCH  57  82
ATOM     82  C   UNL A   1      46.839  33.053  28.653  1.00  0.00     0.058 A 
ATOM     83  C   UNL A   1      47.449  33.404  29.867  1.00  0.00     0.135 A 
ATOM     84  C   UNL A   1      46.721  34.048  27.671  1.00  0.00     0.135 A 
ATOM     85  F   UNL A   1      47.584  32.488  30.839  1.00  0.00    -0.206 F 
ATOM     86  C   UNL A   1      47.890  34.699  30.116  1.00  0.00     0.059 A 
ATOM     87  C   UNL A   1      47.181  35.344  27.884  1.00  0.00     0.059 A 
ATOM     88  F   UNL A   1      46.166  33.759  26.484  1.00  0.00    -0.206 F 
ATOM     89  C   UNL A   1      47.748  35.665  29.118  1.00  0.00     0.060 A 
BRANCH  89  90
ATOM     90  S   UNL A   1      48.340  37.340  29.441  1.00  0.00     0.124 S 
ATOM     91  O   UNL A   1      49.728  37.249  29.002  1.00  0.00    -0.237 OA
ATOM     92  O   UNL A   1      47.456  38.146  28.606  1.00  0.00    -0.237 OA
ATOM     93  O   UNL A   1      48.142  37.492  30.879  1.00  0.00    -0.744 OA
ENDBRANCH  89  90
ENDBRANCH  57  82
BRANCH  69  94
ATOM     94  C   UNL A   1      49.609  27.316  25.841  1.00  0.00     0.058 A 
ATOM     95  C   UNL A   1      50.753  26.968  26.576  1.00  0.00     0.135 A 
ATOM     96  C   UNL A   1      49.727  27.400  24.443  1.00  0.00     0.135 A 
ATOM     97  F   UNL A   1      50.694  26.877  27.914  1.00  0.00    -0.206 F 
ATOM     98  C   UNL A   1      51.979  26.757  25.954  1.00  0.00     0.059 A 
ATOM     99  C   UNL A   1      50.935  27.163  23.797  1.00  0.00     0.059 A 
ATOM    100  F   UNL A   1      48.660  27.713  23.692  1.00  0.00    -0.206 F 
ATOM    101  C   UNL A   1      52.061  26.863  24.563  1.00  0.00     0.060 A 
BRANCH 101 102
ATOM    102  S   UNL A   1      53.657  26.590  23.766  1.00  0.00     0.124 S 
ATOM    103  O   UNL A   1      54.438  27.710  24.283  1.00  0.00    -0.237 OA
ATOM    104  O   UNL A   1      54.035  25.271  24.261  1.00  0.00    -0.237 OA
ATOM    105  O   UNL A   1      53.339  26.651  22.342  1.00  0.00    -0.744 OA
ENDBRANCH 101 102
ENDBRANCH  69  94
ENDBRANCH  43  44
ENDBRANCH  35  38
ENDBRANCH  33  34
ENDBRANCH  32  33
ENDBRANCH  31  32
ENDBRANCH  29  31
ENDBRANCH   1  27
TORSDOF 22
ENDMDL
MODEL 3
REMARK VINA RESULT:     -10.7      2.130      8.579
REMARK SMILES CCCCCCOC(=O)Nc1cccc(-c2ccc([C@@H](C)C(=O)NCCCNC(=O)c3ccc(-c4c5nc(c(-c6c(F)cc(S(=O)(=O)[O-])cc6F)c6ccc([nH]6)c(-c6c(F)cc(S(=O)(=O)[O-])cc6F)c6nc(c(-c7c(F)cc(S(=O)(=O)[O-])cc7F)c7ccc4[nH]7)C=C6)C=C5)cc3)cc2F)c1
REMARK SMILES IDX 20 1 21 2 19 3 16 4 17 5 98 6 18 7 97 8 99 9 15 10 11 11
REMARK SMILES IDX 12 12 100 13 13 14 14 15 10 16 8 17 9 18 7 20 6 21 5 22 4 23
REMARK SMILES IDX 3 24 2 25 1 26 22 27 23 28 24 29 25 31 26 32 27 33 28 34
REMARK SMILES IDX 29 35 30 37 31 38 32 39 96 40 33 41 95 42 34 43 35 44 36 45
REMARK SMILES IDX 89 46 37 47 94 48 88 49 90 50 38 51 93 52 87 53 86 54 39 56
REMARK SMILES IDX 73 57 52 58 72 59 53 60 56 61 71 62 91 63 54 64 55 65 70 67
REMARK SMILES IDX 92 68 57 69 40 70 41 71 50 72 42 73 43 74 49 75 51 76 44 77
REMARK SMILES IDX 45 78 46 79 47 80 48 81 74 82 75 83 84 84 76 85 77 86 83 87
REMARK SMILES IDX 85 88 78 89 79 90 80 91 81 92 82 93 58 94 59 95 68 96 60 97
REMARK SMILES IDX 61 98 67 99 69 100 62 101 63 102 64 103 65 104 66 105
REMARK H PARENT 10 19 24 30 28 36 90 55 56 66
REMARK Flexibility Score: inf
ROOT
ATOM      1  C   UNL A   1      32.247  28.209  25.478  1.00  0.00     0.105 C 
ATOM      2  C   UNL A   1      31.056  28.456  24.555  1.00  0.00     0.023 C 
ENDROOT
BRANCH   1   3
ATOM      3  C   UNL A   1      32.907  26.846  25.352  1.00  0.00    -0.033 A 
ATOM      4  C   UNL A   1      34.361  24.394  25.089  1.00  0.00     0.018 A 
ATOM      5  C   UNL A   1      33.697  24.729  26.277  1.00  0.00     0.012 A 
ATOM      6  C   UNL A   1      34.224  25.295  24.020  1.00  0.00     0.131 A 
ATOM      7  C   UNL A   1      32.955  25.914  26.394  1.00  0.00     0.005 A 
ATOM      8  C   UNL A   1      33.537  26.503  24.149  1.00  0.00     0.044 A 
ATOM      9  F   UNL A   1      34.759  25.020  22.820  1.00  0.00    -0.206 F 
BRANCH   4  10
ATOM     10  C   UNL A   1      35.183  23.169  24.986  1.00  0.00    -0.013 A 
ATOM     11  C   UNL A   1      35.321  20.721  24.928  1.00  0.00     0.045 A 
ATOM     12  C   UNL A   1      36.710  20.788  24.923  1.00  0.00     0.026 A 
ATOM     13  C   UNL A   1      34.573  21.903  24.942  1.00  0.00     0.035 A 
ATOM     14  C   UNL A   1      37.342  22.029  24.896  1.00  0.00     0.003 A 
ATOM     15  C   UNL A   1      36.586  23.206  24.939  1.00  0.00     0.009 A 
BRANCH  11  16
ATOM     16  N   UNL A   1      34.703  19.469  25.039  1.00  0.00    -0.291 N 
ATOM     17  C   UNL A   1      33.358  19.210  25.062  1.00  0.00     0.411 C 
ATOM     18  O   UNL A   1      32.906  18.241  25.648  1.00  0.00    -0.224 OA
ATOM     19  H   UNL A   1      35.301  18.689  25.109  1.00  0.00     0.173 HD
BRANCH  17  20
ATOM     20  O   UNL A   1      32.648  20.069  24.284  1.00  0.00    -0.449 OA
BRANCH  20  21
ATOM     21  C   UNL A   1      32.241  19.633  22.978  1.00  0.00     0.235 C 
BRANCH  21  22
ATOM     22  C   UNL A   1      31.879  20.804  22.057  1.00  0.00     0.042 C 
BRANCH  22  23
ATOM     23  C   UNL A   1      32.284  22.195  22.558  1.00  0.00     0.003 C 
BRANCH  23  24
ATOM     24  C   UNL A   1      31.223  22.919  23.397  1.00  0.00    -0.000 C 
BRANCH  24  25
ATOM     25  C   UNL A   1      30.978  24.376  23.009  1.00  0.00    -0.003 C 
ATOM     26  C   UNL A   1      30.026  25.083  23.959  1.00  0.00     0.004 C 
ENDBRANCH  24  25
ENDBRANCH  23  24
ENDBRANCH  22  23
ENDBRANCH  21  22
ENDBRANCH  20  21
ENDBRANCH  17  20
ENDBRANCH  11  16
ENDBRANCH   4  10
ENDBRANCH   1   3
BRANCH   1  27
ATOM     27  C   UNL A   1      32.031  28.656  26.932  1.00  0.00     0.227 C 
ATOM     28  O   UNL A   1      31.244  28.035  27.656  1.00  0.00    -0.274 OA
ATOM     29  N   UNL A   1      32.671  29.712  27.504  1.00  0.00    -0.356 N 
ATOM     30  H   UNL A   1      32.469  29.835  28.460  1.00  0.00     0.163 HD
BRANCH  29  31
ATOM     31  C   UNL A   1      33.596  30.686  26.962  1.00  0.00     0.117 C 
BRANCH  31  32
ATOM     32  C   UNL A   1      34.335  31.453  28.053  1.00  0.00     0.042 C 
BRANCH  32  33
ATOM     33  C   UNL A   1      35.632  30.794  28.497  1.00  0.00     0.118 C 
BRANCH  33  34
ATOM     34  N   UNL A   1      35.683  30.607  29.940  1.00  0.00    -0.352 N 
ATOM     35  C   UNL A   1      36.623  29.991  30.728  1.00  0.00     0.251 C 
ATOM     36  H   UNL A   1      34.918  30.985  30.430  1.00  0.00     0.163 HD
ATOM     37  O   UNL A   1      36.339  29.753  31.900  1.00  0.00    -0.269 OA
BRANCH  35  38
ATOM     38  C   UNL A   1      37.954  29.612  30.197  1.00  0.00     0.039 A 
ATOM     39  C   UNL A   1      38.905  29.094  31.083  1.00  0.00     0.014 A 
ATOM     40  C   UNL A   1      38.307  29.837  28.864  1.00  0.00     0.014 A 
ATOM     41  C   UNL A   1      40.191  28.787  30.629  1.00  0.00     0.010 A 
ATOM     42  C   UNL A   1      39.556  29.443  28.392  1.00  0.00     0.010 A 
ATOM     43  C   UNL A   1      40.525  28.949  29.276  1.00  0.00    -0.014 A 
BRANCH  43  44
ATOM     44  C   UNL A   1      41.904  28.692  28.785  1.00  0.00     0.031 A 
ATOM     45  C   UNL A   1      42.281  27.311  28.312  1.00  0.00     0.074 A 
ATOM     46  C   UNL A   1      42.819  29.681  28.792  1.00  0.00     0.049 A 
ATOM     47  N   UNL A   1      43.441  26.861  27.906  1.00  0.00    -0.248 NA
ATOM     48  C   UNL A   1      41.218  26.290  28.324  1.00  0.00     0.031 C 
ATOM     49  C   UNL A   1      42.587  31.049  29.261  1.00  0.00     0.029 A 
ATOM     50  N   UNL A   1      44.131  29.688  28.392  1.00  0.00    -0.354 N 
ATOM     51  C   UNL A   1      43.250  25.511  27.628  1.00  0.00     0.074 A 
ATOM     52  C   UNL A   1      41.882  25.198  27.977  1.00  0.00     0.031 C 
ATOM     53  C   UNL A   1      43.708  31.768  29.093  1.00  0.00     0.029 A 
ATOM     54  C   UNL A   1      44.748  30.909  28.538  1.00  0.00     0.049 A 
ATOM     55  H   UNL A   1      44.589  28.893  28.034  1.00  0.00     0.167 HD
ATOM     56  C   UNL A   1      44.122  24.619  27.099  1.00  0.00     0.037 A 
ATOM     57  C   UNL A   1      46.009  31.287  28.254  1.00  0.00     0.037 A 
ATOM     58  C   UNL A   1      45.471  24.946  26.721  1.00  0.00     0.049 A 
ATOM     59  C   UNL A   1      46.957  30.278  27.658  1.00  0.00     0.074 A 
ATOM     60  C   UNL A   1      46.432  24.125  26.156  1.00  0.00     0.029 A 
ATOM     61  N   UNL A   1      46.046  26.201  26.856  1.00  0.00    -0.354 N 
ATOM     62  N   UNL A   1      46.748  29.014  27.377  1.00  0.00    -0.248 NA
ATOM     63  C   UNL A   1      48.306  30.755  27.325  1.00  0.00     0.031 C 
ATOM     64  C   UNL A   1      47.597  24.877  25.973  1.00  0.00     0.029 A 
ATOM     65  C   UNL A   1      47.347  26.178  26.382  1.00  0.00     0.049 A 
ATOM     66  H   UNL A   1      45.597  26.991  27.232  1.00  0.00     0.167 HD
ATOM     67  C   UNL A   1      47.926  28.555  26.795  1.00  0.00     0.074 A 
ATOM     68  C   UNL A   1      48.837  29.681  26.758  1.00  0.00     0.031 C 
ATOM     69  C   UNL A   1      48.228  27.317  26.332  1.00  0.00     0.037 A 
BRANCH  56  70
ATOM     70  C   UNL A   1      43.631  23.213  26.878  1.00  0.00     0.058 A 
ATOM     71  C   UNL A   1      43.435  22.327  27.950  1.00  0.00     0.135 A 
ATOM     72  C   UNL A   1      43.326  22.753  25.587  1.00  0.00     0.135 A 
ATOM     73  F   UNL A   1      43.729  22.706  29.203  1.00  0.00    -0.206 F 
ATOM     74  C   UNL A   1      42.985  21.027  27.748  1.00  0.00     0.059 A 
ATOM     75  C   UNL A   1      42.845  21.465  25.364  1.00  0.00     0.059 A 
ATOM     76  F   UNL A   1      43.495  23.556  24.525  1.00  0.00    -0.206 F 
ATOM     77  C   UNL A   1      42.692  20.604  26.451  1.00  0.00     0.060 A 
BRANCH  77  78
ATOM     78  S   UNL A   1      42.098  18.917  26.208  1.00  0.00     0.124 S 
ATOM     79  O   UNL A   1      40.740  19.153  25.728  1.00  0.00    -0.237 OA
ATOM     80  O   UNL A   1      43.038  18.394  25.223  1.00  0.00    -0.237 OA
ATOM     81  O   UNL A   1      42.198  18.327  27.540  1.00  0.00    -0.744 OA
ENDBRANCH  77  78
ENDBRANCH  56  70
BRANCH  57  82
ATOM     82  C   UNL A   1      46.445  32.690  28.487  1.00  0.00     0.058 A 
ATOM     83  C   UNL A   1      47.123  33.047  29.663  1.00  0.00     0.135 A 
ATOM     84  C   UNL A   1      46.178  33.704  27.555  1.00  0.00     0.135 A 
ATOM     85  F   UNL A   1      47.399  32.114  30.588  1.00  0.00    -0.206 F 
ATOM     86  C   UNL A   1      47.488  34.363  29.925  1.00  0.00     0.059 A 
ATOM     87  C   UNL A   1      46.560  35.023  27.780  1.00  0.00     0.059 A 
ATOM     88  F   UNL A   1      45.552  33.412  26.405  1.00  0.00    -0.206 F 
ATOM     89  C   UNL A   1      47.198  35.346  28.977  1.00  0.00     0.060 A 
BRANCH  89  90
ATOM     90  S   UNL A   1      47.693  37.050  29.316  1.00  0.00     0.124 S 
ATOM     91  O   UNL A   1      46.698  37.799  28.557  1.00  0.00    -0.237 OA
ATOM     92  O   UNL A   1      47.578  37.122  30.768  1.00  0.00    -0.237 OA
ATOM     93  O   UNL A   1      49.057  37.110  28.799  1.00  0.00    -0.744 OA
ENDBRANCH  89  90
ENDBRANCH  57  82
BRANCH  69  94
ATOM     94  C   UNL A   1      49.573  27.136  25.683  1.00  0.00     0.058 A 
ATOM     95  C   UNL A   1      49.765  27.318  24.304  1.00  0.00     0.135 A 
ATOM     96  C   UNL A   1      50.689  26.791  26.462  1.00  0.00     0.135 A 
ATOM     97  F   UNL A   1      48.729  27.646  23.515  1.00  0.00    -0.206 F 
ATOM     98  C   UNL A   1      51.007  27.119  23.713  1.00  0.00     0.059 A 
ATOM     99  C   UNL A   1      51.948  26.618  25.897  1.00  0.00     0.059 A 
ATOM    100  F   UNL A   1      50.563  26.621  27.787  1.00  0.00    -0.206 F 
ATOM    101  C   UNL A   1      52.093  26.763  24.518  1.00  0.00     0.060 A 
BRANCH 101 102
ATOM    102  S   UNL A   1      53.701  26.506  23.740  1.00  0.00     0.124 S 
ATOM    103  O   UNL A   1      53.313  26.031  22.416  1.00  0.00    -0.237 OA
ATOM    104  O   UNL A   1      54.292  27.839  23.788  1.00  0.00    -0.237 OA
ATOM    105  O   UNL A   1      54.338  25.514  24.602  1.00  0.00    -0.744 OA
ENDBRANCH 101 102
ENDBRANCH  69  94
ENDBRANCH  43  44
ENDBRANCH  35  38
ENDBRANCH  33  34
ENDBRANCH  32  33
ENDBRANCH  31  32
ENDBRANCH  29  31
ENDBRANCH   1  27
TORSDOF 22
ENDMDL
