MODEL 1
REMARK VINA RESULT:     -11.5      0.000      0.000
REMARK SMILES O=C(Cc1ccccc1Nc1c(F)cccc1C(F)(F)F)NCCCNC(=O)c1ccc(-c2c3nc(c(-c4c(F)cc(S(=O)(=O)[O-])cc4F)c4ccc([nH]4)c(-c4c(F)cc(S(=O)(=O)[O-])cc4F)c4nc(c(-c5c(F)cc(S(=O)(=O)[O-])cc5F)c5ccc2[nH]5)C=C4)C=C3)cc1
REMARK SMILES IDX 23 1 22 2 1 3 2 4 3 6 4 7 5 8 9 9 6 10 8 11 7 12 10 13 11 15
REMARK SMILES IDX 12 16 17 17 13 18 14 19 16 20 15 21 18 22 19 23 20 24 21 25
REMARK SMILES IDX 24 26 25 27 26 28 27 29 28 31 29 32 30 33 94 34 31 35 93 36
REMARK SMILES IDX 32 37 33 38 34 39 87 40 35 41 92 42 86 43 88 44 36 45 91 46
REMARK SMILES IDX 85 47 84 48 37 50 71 51 50 52 70 53 51 54 54 55 69 56 89 57
REMARK SMILES IDX 52 58 53 59 68 61 90 62 55 63 38 64 39 65 48 66 40 67 41 68
REMARK SMILES IDX 47 69 49 70 42 71 43 72 44 73 45 74 46 75 72 76 73 77 82 78
REMARK SMILES IDX 74 79 75 80 81 81 83 82 76 83 77 84 78 85 79 86 80 87 56 88
REMARK SMILES IDX 57 89 66 90 58 91 59 92 65 93 67 94 60 95 61 96 62 97 63 98
REMARK SMILES IDX 64 99
REMARK H PARENT 22 5 10 14 26 30 88 49 54 60
REMARK Flexibility Score: inf
ROOT
ATOM      1  C   UNL A   1      38.263  21.891  25.555  1.00  0.00     0.117 C 
ENDROOT
BRANCH   1   2
ATOM      2  N   UNL A   1      39.443  21.551  26.324  1.00  0.00    -0.356 N 
ATOM      3  O   UNL A   1      39.711  19.387  25.581  1.00  0.00    -0.275 OA
ATOM      4  C   UNL A   1      40.089  20.333  26.265  1.00  0.00     0.224 C 
ATOM      5  H   UNL A   1      39.809  22.236  26.928  1.00  0.00     0.163 HD
BRANCH   4   6
ATOM      6  C   UNL A   1      41.333  20.252  27.145  1.00  0.00     0.137 C 
BRANCH   6   7
ATOM      7  C   UNL A   1      42.576  19.958  26.329  1.00  0.00    -0.015 A 
ATOM      8  C   UNL A   1      42.975  18.612  26.191  1.00  0.00     0.006 A 
ATOM      9  C   UNL A   1      43.374  20.978  25.769  1.00  0.00     0.042 A 
ATOM     10  C   UNL A   1      44.177  18.277  25.572  1.00  0.00     0.000 A 
ATOM     11  C   UNL A   1      44.585  20.614  25.159  1.00  0.00     0.026 A 
ATOM     12  C   UNL A   1      44.990  19.282  25.070  1.00  0.00     0.002 A 
BRANCH   9  13
ATOM     13  N   UNL A   1      42.937  22.320  25.757  1.00  0.00    -0.352 N 
ATOM     14  H   UNL A   1      42.016  22.453  25.434  1.00  0.00     0.167 HD
BRANCH  13  15
ATOM     15  C   UNL A   1      43.613  23.503  26.135  1.00  0.00     0.087 A 
ATOM     16  C   UNL A   1      44.355  24.167  25.136  1.00  0.00     0.147 A 
ATOM     17  C   UNL A   1      43.525  24.113  27.402  1.00  0.00     0.082 A 
ATOM     18  F   UNL A   1      44.486  23.594  23.928  1.00  0.00    -0.205 F 
ATOM     19  C   UNL A   1      44.942  25.412  25.340  1.00  0.00     0.041 A 
ATOM     20  C   UNL A   1      44.105  25.393  27.588  1.00  0.00     0.015 A 
ATOM     21  C   UNL A   1      44.800  26.041  26.568  1.00  0.00     0.004 A 
BRANCH  17  22
ATOM     22  C   UNL A   1      42.881  23.480  28.614  1.00  0.00     0.418 C 
ATOM     23  F   UNL A   1      43.487  22.295  28.940  1.00  0.00    -0.166 F 
ATOM     24  F   UNL A   1      43.011  24.250  29.733  1.00  0.00    -0.166 F 
ATOM     25  F   UNL A   1      41.565  23.168  28.499  1.00  0.00    -0.166 F 
ENDBRANCH  17  22
ENDBRANCH  13  15
ENDBRANCH   9  13
ENDBRANCH   6   7
ENDBRANCH   4   6
ENDBRANCH   1   2
BRANCH   1  26
ATOM     26  C   UNL A   1      37.687  23.248  25.953  1.00  0.00     0.042 C 
BRANCH  26  27
ATOM     27  C   UNL A   1      38.661  24.191  26.659  1.00  0.00     0.118 C 
BRANCH  27  28
ATOM     28  N   UNL A   1      39.719  24.698  25.797  1.00  0.00    -0.352 N 
ATOM     29  C   UNL A   1      40.600  25.734  26.004  1.00  0.00     0.251 C 
ATOM     30  H   UNL A   1      39.818  24.230  24.937  1.00  0.00     0.163 HD
ATOM     31  O   UNL A   1      41.350  26.078  25.091  1.00  0.00    -0.269 OA
BRANCH  29  32
ATOM     32  C   UNL A   1      40.631  26.460  27.295  1.00  0.00     0.039 A 
ATOM     33  C   UNL A   1      41.428  27.605  27.403  1.00  0.00     0.014 A 
ATOM     34  C   UNL A   1      39.889  26.026  28.396  1.00  0.00     0.014 A 
ATOM     35  C   UNL A   1      41.414  28.355  28.583  1.00  0.00     0.010 A 
ATOM     36  C   UNL A   1      39.820  26.814  29.546  1.00  0.00     0.010 A 
ATOM     37  C   UNL A   1      40.573  27.995  29.649  1.00  0.00    -0.014 A 
BRANCH  37  38
ATOM     38  C   UNL A   1      40.443  28.858  30.855  1.00  0.00     0.031 A 
ATOM     39  C   UNL A   1      39.430  29.970  30.898  1.00  0.00     0.074 A 
ATOM     40  C   UNL A   1      41.290  28.684  31.891  1.00  0.00     0.049 A 
ATOM     41  N   UNL A   1      39.223  30.864  31.833  1.00  0.00    -0.248 NA
ATOM     42  C   UNL A   1      38.547  30.112  29.729  1.00  0.00     0.031 C 
ATOM     43  C   UNL A   1      42.346  27.671  31.956  1.00  0.00     0.029 A 
ATOM     44  N   UNL A   1      41.406  29.356  33.082  1.00  0.00    -0.354 N 
ATOM     45  C   UNL A   1      38.197  31.677  31.364  1.00  0.00     0.074 A 
ATOM     46  C   UNL A   1      37.859  31.202  30.039  1.00  0.00     0.031 C 
ATOM     47  C   UNL A   1      42.988  27.777  33.130  1.00  0.00     0.029 A 
ATOM     48  C   UNL A   1      42.422  28.891  33.884  1.00  0.00     0.049 A 
ATOM     49  H   UNL A   1      40.817  30.102  33.338  1.00  0.00     0.167 HD
ATOM     50  C   UNL A   1      37.581  32.711  31.987  1.00  0.00     0.037 A 
ATOM     51  C   UNL A   1      42.862  29.318  35.085  1.00  0.00     0.037 A 
ATOM     52  C   UNL A   1      37.914  33.171  33.312  1.00  0.00     0.049 A 
ATOM     53  C   UNL A   1      42.175  30.481  35.748  1.00  0.00     0.074 A 
ATOM     54  C   UNL A   1      37.310  34.176  34.050  1.00  0.00     0.029 A 
ATOM     55  N   UNL A   1      38.943  32.667  34.095  1.00  0.00    -0.354 N 
ATOM     56  N   UNL A   1      41.164  31.197  35.316  1.00  0.00    -0.248 NA
ATOM     57  C   UNL A   1      42.685  30.894  37.063  1.00  0.00     0.031 C 
ATOM     58  C   UNL A   1      38.008  34.316  35.253  1.00  0.00     0.029 A 
ATOM     59  C   UNL A   1      39.008  33.358  35.296  1.00  0.00     0.049 A 
ATOM     60  H   UNL A   1      39.538  31.927  33.837  1.00  0.00     0.167 HD
ATOM     61  C   UNL A   1      40.898  32.123  36.318  1.00  0.00     0.074 A 
ATOM     62  C   UNL A   1      41.846  31.870  37.383  1.00  0.00     0.031 C 
ATOM     63  C   UNL A   1      39.953  33.095  36.353  1.00  0.00     0.037 A 
BRANCH  50  64
ATOM     64  C   UNL A   1      36.482  33.423  31.244  1.00  0.00     0.058 A 
ATOM     65  C   UNL A   1      36.751  34.250  30.140  1.00  0.00     0.135 A 
ATOM     66  C   UNL A   1      35.137  33.240  31.607  1.00  0.00     0.135 A 
ATOM     67  F   UNL A   1      38.017  34.472  29.753  1.00  0.00    -0.206 F 
ATOM     68  C   UNL A   1      35.731  34.893  29.445  1.00  0.00     0.059 A 
ATOM     69  C   UNL A   1      34.098  33.848  30.907  1.00  0.00     0.059 A 
ATOM     70  F   UNL A   1      34.820  32.459  32.652  1.00  0.00    -0.206 F 
ATOM     71  C   UNL A   1      34.407  34.684  29.836  1.00  0.00     0.060 A 
BRANCH  71  72
ATOM     72  S   UNL A   1      33.097  35.522  28.919  1.00  0.00     0.124 S 
ATOM     73  O   UNL A   1      32.485  34.407  28.203  1.00  0.00    -0.237 OA
ATOM     74  O   UNL A   1      32.293  36.105  29.988  1.00  0.00    -0.237 OA
ATOM     75  O   UNL A   1      33.820  36.479  28.087  1.00  0.00    -0.744 OA
ENDBRANCH  71  72
ENDBRANCH  50  64
BRANCH  51  76
ATOM     76  C   UNL A   1      44.008  28.632  35.744  1.00  0.00     0.058 A 
ATOM     77  C   UNL A   1      43.798  27.577  36.644  1.00  0.00     0.135 A 
ATOM     78  C   UNL A   1      45.334  29.011  35.481  1.00  0.00     0.135 A 
ATOM     79  F   UNL A   1      42.549  27.183  36.936  1.00  0.00    -0.206 F 
ATOM     80  C   UNL A   1      44.858  26.933  37.273  1.00  0.00     0.059 A 
ATOM     81  C   UNL A   1      46.412  28.363  36.075  1.00  0.00     0.059 A 
ATOM     82  F   UNL A   1      45.590  30.004  34.616  1.00  0.00    -0.206 F 
ATOM     83  C   UNL A   1      46.163  27.331  36.979  1.00  0.00     0.060 A 
BRANCH  83  84
ATOM     84  S   UNL A   1      47.533  26.455  37.765  1.00  0.00     0.124 S 
ATOM     85  O   UNL A   1      47.386  25.116  37.208  1.00  0.00    -0.237 OA
ATOM     86  O   UNL A   1      48.688  27.218  37.303  1.00  0.00    -0.237 OA
ATOM     87  O   UNL A   1      47.238  26.581  39.190  1.00  0.00    -0.744 OA
ENDBRANCH  83  84
ENDBRANCH  51  76
BRANCH  63  88
ATOM     88  C   UNL A   1      39.867  33.939  37.598  1.00  0.00     0.058 A 
ATOM     89  C   UNL A   1      40.568  35.147  37.724  1.00  0.00     0.135 A 
ATOM     90  C   UNL A   1      39.031  33.553  38.659  1.00  0.00     0.135 A 
ATOM     91  F   UNL A   1      41.387  35.560  36.744  1.00  0.00    -0.206 F 
ATOM     92  C   UNL A   1      40.464  35.932  38.870  1.00  0.00     0.059 A 
ATOM     93  C   UNL A   1      38.886  34.337  39.800  1.00  0.00     0.059 A 
ATOM     94  F   UNL A   1      38.329  32.411  38.587  1.00  0.00    -0.206 F 
ATOM     95  C   UNL A   1      39.618  35.520  39.901  1.00  0.00     0.060 A 
BRANCH  95  96
ATOM     96  S   UNL A   1      39.466  36.565  41.365  1.00  0.00     0.124 S 
ATOM     97  O   UNL A   1      40.840  36.585  41.856  1.00  0.00    -0.237 OA
ATOM     98  O   UNL A   1      38.974  37.819  40.803  1.00  0.00    -0.237 OA
ATOM     99  O   UNL A   1      38.512  35.842  42.202  1.00  0.00    -0.744 OA
ENDBRANCH  95  96
ENDBRANCH  63  88
ENDBRANCH  37  38
ENDBRANCH  29  32
ENDBRANCH  27  28
ENDBRANCH  26  27
ENDBRANCH   1  26
TORSDOF 17
ENDMDL
MODEL 2
REMARK VINA RESULT:     -11.4      0.635      8.298
REMARK SMILES O=C(Cc1ccccc1Nc1c(F)cccc1C(F)(F)F)NCCCNC(=O)c1ccc(-c2c3nc(c(-c4c(F)cc(S(=O)(=O)[O-])cc4F)c4ccc([nH]4)c(-c4c(F)cc(S(=O)(=O)[O-])cc4F)c4nc(c(-c5c(F)cc(S(=O)(=O)[O-])cc5F)c5ccc2[nH]5)C=C4)C=C3)cc1
REMARK SMILES IDX 23 1 22 2 1 3 2 4 3 6 4 7 5 8 9 9 6 10 8 11 7 12 10 13 11 15
REMARK SMILES IDX 12 16 17 17 13 18 14 19 16 20 15 21 18 22 19 23 20 24 21 25
REMARK SMILES IDX 24 26 25 27 26 28 27 29 28 31 29 32 30 33 94 34 31 35 93 36
REMARK SMILES IDX 32 37 33 38 34 39 87 40 35 41 92 42 86 43 88 44 36 45 91 46
REMARK SMILES IDX 85 47 84 48 37 50 71 51 50 52 70 53 51 54 54 55 69 56 89 57
REMARK SMILES IDX 52 58 53 59 68 61 90 62 55 63 38 64 39 65 48 66 40 67 41 68
REMARK SMILES IDX 47 69 49 70 42 71 43 72 44 73 45 74 46 75 72 76 73 77 82 78
REMARK SMILES IDX 74 79 75 80 81 81 83 82 76 83 77 84 78 85 79 86 80 87 56 88
REMARK SMILES IDX 57 89 66 90 58 91 59 92 65 93 67 94 60 95 61 96 62 97 63 98
REMARK SMILES IDX 64 99
REMARK H PARENT 22 5 10 14 26 30 88 49 54 60
REMARK Flexibility Score: inf
ROOT
ATOM      1  C   UNL A   1      38.409  21.765  25.542  1.00  0.00     0.117 C 
ENDROOT
BRANCH   1   2
ATOM      2  N   UNL A   1      39.601  21.404  26.283  1.00  0.00    -0.356 N 
ATOM      3  O   UNL A   1      39.778  19.216  25.583  1.00  0.00    -0.275 OA
ATOM      4  C   UNL A   1      40.206  20.165  26.233  1.00  0.00     0.224 C 
ATOM      5  H   UNL A   1      40.007  22.090  26.860  1.00  0.00     0.163 HD
BRANCH   4   6
ATOM      6  C   UNL A   1      41.474  20.064  27.077  1.00  0.00     0.137 C 
BRANCH   6   7
ATOM      7  C   UNL A   1      42.719  20.053  26.214  1.00  0.00    -0.015 A 
ATOM      8  C   UNL A   1      43.219  18.804  25.787  1.00  0.00     0.006 A 
ATOM      9  C   UNL A   1      43.425  21.230  25.886  1.00  0.00     0.042 A 
ATOM     10  C   UNL A   1      44.430  18.707  25.107  1.00  0.00     0.000 A 
ATOM     11  C   UNL A   1      44.649  21.103  25.208  1.00  0.00     0.026 A 
ATOM     12  C   UNL A   1      45.153  19.857  24.832  1.00  0.00     0.002 A 
BRANCH   9  13
ATOM     13  N   UNL A   1      42.886  22.503  26.165  1.00  0.00    -0.352 N 
ATOM     14  H   UNL A   1      42.078  22.732  25.652  1.00  0.00     0.167 HD
BRANCH  13  15
ATOM     15  C   UNL A   1      43.323  23.501  27.065  1.00  0.00     0.087 A 
ATOM     16  C   UNL A   1      42.816  23.449  28.379  1.00  0.00     0.147 A 
ATOM     17  C   UNL A   1      44.294  24.481  26.776  1.00  0.00     0.082 A 
ATOM     18  F   UNL A   1      41.865  22.549  28.678  1.00  0.00    -0.205 F 
ATOM     19  C   UNL A   1      43.276  24.280  29.397  1.00  0.00     0.041 A 
ATOM     20  C   UNL A   1      44.775  25.302  27.826  1.00  0.00     0.015 A 
ATOM     21  C   UNL A   1      44.278  25.200  29.125  1.00  0.00     0.004 A 
BRANCH  17  22
ATOM     22  C   UNL A   1      44.847  24.756  25.396  1.00  0.00     0.418 C 
ATOM     23  F   UNL A   1      44.727  26.081  25.065  1.00  0.00    -0.166 F 
ATOM     24  F   UNL A   1      46.186  24.504  25.313  1.00  0.00    -0.166 F 
ATOM     25  F   UNL A   1      44.254  24.096  24.369  1.00  0.00    -0.166 F 
ENDBRANCH  17  22
ENDBRANCH  13  15
ENDBRANCH   9  13
ENDBRANCH   6   7
ENDBRANCH   4   6
ENDBRANCH   1   2
BRANCH   1  26
ATOM     26  C   UNL A   1      37.831  23.103  25.998  1.00  0.00     0.042 C 
BRANCH  26  27
ATOM     27  C   UNL A   1      38.824  24.053  26.665  1.00  0.00     0.118 C 
BRANCH  27  28
ATOM     28  N   UNL A   1      39.897  24.494  25.786  1.00  0.00    -0.352 N 
ATOM     29  C   UNL A   1      40.792  25.527  25.941  1.00  0.00     0.251 C 
ATOM     30  H   UNL A   1      39.998  23.976  24.955  1.00  0.00     0.163 HD
ATOM     31  O   UNL A   1      41.556  25.807  25.018  1.00  0.00    -0.269 OA
BRANCH  29  32
ATOM     32  C   UNL A   1      40.823  26.326  27.189  1.00  0.00     0.039 A 
ATOM     33  C   UNL A   1      41.718  27.397  27.279  1.00  0.00     0.014 A 
ATOM     34  C   UNL A   1      39.984  26.031  28.267  1.00  0.00     0.014 A 
ATOM     35  C   UNL A   1      41.712  28.217  28.413  1.00  0.00     0.010 A 
ATOM     36  C   UNL A   1      39.929  26.892  29.364  1.00  0.00     0.010 A 
ATOM     37  C   UNL A   1      40.785  28.002  29.445  1.00  0.00    -0.014 A 
BRANCH  37  38
ATOM     38  C   UNL A   1      40.672  28.947  30.590  1.00  0.00     0.031 A 
ATOM     39  C   UNL A   1      41.548  28.792  31.804  1.00  0.00     0.074 A 
ATOM     40  C   UNL A   1      39.726  29.909  30.566  1.00  0.00     0.049 A 
ATOM     41  N   UNL A   1      41.542  29.476  32.921  1.00  0.00    -0.248 NA
ATOM     42  C   UNL A   1      42.549  27.714  31.768  1.00  0.00     0.031 C 
ATOM     43  C   UNL A   1      38.783  30.138  29.468  1.00  0.00     0.029 A 
ATOM     44  N   UNL A   1      39.392  30.867  31.491  1.00  0.00    -0.354 N 
ATOM     45  C   UNL A   1      42.526  28.908  33.722  1.00  0.00     0.074 A 
ATOM     46  C   UNL A   1      43.074  27.790  32.983  1.00  0.00     0.031 C 
ATOM     47  C   UNL A   1      37.992  31.179  29.775  1.00  0.00     0.029 A 
ATOM     48  C   UNL A   1      38.339  31.665  31.107  1.00  0.00     0.049 A 
ATOM     49  H   UNL A   1      39.862  30.973  32.349  1.00  0.00     0.167 HD
ATOM     50  C   UNL A   1      42.947  29.292  34.951  1.00  0.00     0.037 A 
ATOM     51  C   UNL A   1      37.710  32.666  31.756  1.00  0.00     0.037 A 
ATOM     52  C   UNL A   1      42.405  30.414  35.677  1.00  0.00     0.049 A 
ATOM     53  C   UNL A   1      38.183  33.062  33.129  1.00  0.00     0.074 A 
ATOM     54  C   UNL A   1      42.803  30.917  36.905  1.00  0.00     0.029 A 
ATOM     55  N   UNL A   1      41.346  31.203  35.250  1.00  0.00    -0.354 N 
ATOM     56  N   UNL A   1      39.158  32.554  33.844  1.00  0.00    -0.248 NA
ATOM     57  C   UNL A   1      37.473  34.170  33.782  1.00  0.00     0.031 C 
ATOM     58  C   UNL A   1      41.949  31.971  37.245  1.00  0.00     0.029 A 
ATOM     59  C   UNL A   1      41.059  32.170  36.202  1.00  0.00     0.049 A 
ATOM     60  H   UNL A   1      40.869  31.093  34.396  1.00  0.00     0.167 HD
ATOM     61  C   UNL A   1      39.198  33.300  35.017  1.00  0.00     0.074 A 
ATOM     62  C   UNL A   1      38.158  34.300  34.911  1.00  0.00     0.031 C 
ATOM     63  C   UNL A   1      40.023  33.167  36.085  1.00  0.00     0.037 A 
BRANCH  50  64
ATOM     64  C   UNL A   1      44.048  28.495  35.598  1.00  0.00     0.058 A 
ATOM     65  C   UNL A   1      43.776  27.365  36.387  1.00  0.00     0.135 A 
ATOM     66  C   UNL A   1      45.395  28.833  35.387  1.00  0.00     0.135 A 
ATOM     67  F   UNL A   1      42.508  27.000  36.633  1.00  0.00    -0.206 F 
ATOM     68  C   UNL A   1      44.798  26.620  36.969  1.00  0.00     0.059 A 
ATOM     69  C   UNL A   1      46.434  28.084  35.933  1.00  0.00     0.059 A 
ATOM     70  F   UNL A   1      45.714  29.901  34.639  1.00  0.00    -0.206 F 
ATOM     71  C   UNL A   1      46.124  26.987  36.735  1.00  0.00     0.060 A 
BRANCH  71  72
ATOM     72  S   UNL A   1      47.436  26.005  37.493  1.00  0.00     0.124 S 
ATOM     73  O   UNL A   1      48.441  25.995  36.433  1.00  0.00    -0.237 OA
ATOM     74  O   UNL A   1      47.770  26.792  38.675  1.00  0.00    -0.237 OA
ATOM     75  O   UNL A   1      46.793  24.722  37.758  1.00  0.00    -0.744 OA
ENDBRANCH  71  72
ENDBRANCH  50  64
BRANCH  51  76
ATOM     76  C   UNL A   1      36.571  33.371  31.108  1.00  0.00     0.058 A 
ATOM     77  C   UNL A   1      36.780  34.243  30.028  1.00  0.00     0.135 A 
ATOM     78  C   UNL A   1      35.251  33.183  31.548  1.00  0.00     0.135 A 
ATOM     79  F   UNL A   1      38.024  34.464  29.576  1.00  0.00    -0.206 F 
ATOM     80  C   UNL A   1      35.726  34.915  29.419  1.00  0.00     0.059 A 
ATOM     81  C   UNL A   1      34.178  33.821  30.935  1.00  0.00     0.059 A 
ATOM     82  F   UNL A   1      34.995  32.349  32.566  1.00  0.00    -0.206 F 
ATOM     83  C   UNL A   1      34.426  34.695  29.877  1.00  0.00     0.060 A 
BRANCH  83  84
ATOM     84  S   UNL A   1      33.061  35.536  29.047  1.00  0.00     0.124 S 
ATOM     85  O   UNL A   1      33.760  36.605  28.343  1.00  0.00    -0.237 OA
ATOM     86  O   UNL A   1      32.511  34.474  28.212  1.00  0.00    -0.237 OA
ATOM     87  O   UNL A   1      32.207  35.962  30.152  1.00  0.00    -0.744 OA
ENDBRANCH  83  84
ENDBRANCH  51  76
BRANCH  63  88
ATOM     88  C   UNL A   1      39.864  34.150  37.215  1.00  0.00     0.058 A 
ATOM     89  C   UNL A   1      40.408  35.442  37.155  1.00  0.00     0.135 A 
ATOM     90  C   UNL A   1      39.115  33.808  38.352  1.00  0.00     0.135 A 
ATOM     91  F   UNL A   1      41.140  35.819  36.095  1.00  0.00    -0.206 F 
ATOM     92  C   UNL A   1      40.236  36.352  38.194  1.00  0.00     0.059 A 
ATOM     93  C   UNL A   1      38.903  34.712  39.389  1.00  0.00     0.059 A 
ATOM     94  F   UNL A   1      38.564  32.588  38.458  1.00  0.00    -0.206 F 
ATOM     95  C   UNL A   1      39.479  35.979  39.306  1.00  0.00     0.060 A 
BRANCH  95  96
ATOM     96  S   UNL A   1      39.235  37.181  40.631  1.00  0.00     0.124 S 
ATOM     97  O   UNL A   1      38.278  36.487  41.486  1.00  0.00    -0.237 OA
ATOM     98  O   UNL A   1      40.582  37.324  41.172  1.00  0.00    -0.237 OA
ATOM     99  O   UNL A   1      38.717  38.355  39.933  1.00  0.00    -0.744 OA
ENDBRANCH  95  96
ENDBRANCH  63  88
ENDBRANCH  37  38
ENDBRANCH  29  32
ENDBRANCH  27  28
ENDBRANCH  26  27
ENDBRANCH   1  26
TORSDOF 17
ENDMDL
MODEL 3
REMARK VINA RESULT:     -11.4      5.715     13.432
REMARK SMILES O=C(Cc1ccccc1Nc1c(F)cccc1C(F)(F)F)NCCCNC(=O)c1ccc(-c2c3nc(c(-c4c(F)cc(S(=O)(=O)[O-])cc4F)c4ccc([nH]4)c(-c4c(F)cc(S(=O)(=O)[O-])cc4F)c4nc(c(-c5c(F)cc(S(=O)(=O)[O-])cc5F)c5ccc2[nH]5)C=C4)C=C3)cc1
REMARK SMILES IDX 23 1 22 2 1 3 2 4 3 6 4 7 5 8 9 9 6 10 8 11 7 12 10 13 11 15
REMARK SMILES IDX 12 16 17 17 13 18 14 19 16 20 15 21 18 22 19 23 20 24 21 25
REMARK SMILES IDX 24 26 25 27 26 28 27 29 28 31 29 32 30 33 94 34 31 35 93 36
REMARK SMILES IDX 32 37 33 38 34 39 87 40 35 41 92 42 86 43 88 44 36 45 91 46
REMARK SMILES IDX 85 47 84 48 37 50 71 51 50 52 70 53 51 54 54 55 69 56 89 57
REMARK SMILES IDX 52 58 53 59 68 61 90 62 55 63 38 64 39 65 48 66 40 67 41 68
REMARK SMILES IDX 47 69 49 70 42 71 43 72 44 73 45 74 46 75 72 76 73 77 82 78
REMARK SMILES IDX 74 79 75 80 81 81 83 82 76 83 77 84 78 85 79 86 80 87 56 88
REMARK SMILES IDX 57 89 66 90 58 91 59 92 65 93 67 94 60 95 61 96 62 97 63 98
REMARK SMILES IDX 64 99
REMARK H PARENT 22 5 10 14 26 30 88 49 54 60
REMARK Flexibility Score: inf
ROOT
ATOM      1  C   UNL A   1      33.211  30.869  27.381  1.00  0.00     0.117 C 
ENDROOT
BRANCH   1   2
ATOM      2  N   UNL A   1      33.922  32.049  27.833  1.00  0.00    -0.356 N 
ATOM      3  O   UNL A   1      32.212  33.576  27.603  1.00  0.00    -0.275 OA
ATOM      4  C   UNL A   1      33.365  33.307  27.928  1.00  0.00     0.224 C 
ATOM      5  H   UNL A   1      34.865  31.944  28.091  1.00  0.00     0.163 HD
BRANCH   4   6
ATOM      6  C   UNL A   1      34.320  34.365  28.474  1.00  0.00     0.137 C 
BRANCH   6   7
ATOM      7  C   UNL A   1      33.920  34.814  29.865  1.00  0.00    -0.015 A 
ATOM      8  C   UNL A   1      32.965  35.846  29.979  1.00  0.00     0.006 A 
ATOM      9  C   UNL A   1      34.514  34.288  31.032  1.00  0.00     0.042 A 
ATOM     10  C   UNL A   1      32.650  36.402  31.216  1.00  0.00     0.000 A 
ATOM     11  C   UNL A   1      34.185  34.873  32.266  1.00  0.00     0.026 A 
ATOM     12  C   UNL A   1      33.273  35.925  32.359  1.00  0.00     0.002 A 
BRANCH   9  13
ATOM     13  N   UNL A   1      35.359  33.159  30.973  1.00  0.00    -0.352 N 
ATOM     14  H   UNL A   1      34.967  32.371  30.533  1.00  0.00     0.167 HD
BRANCH  13  15
ATOM     15  C   UNL A   1      36.680  32.984  31.446  1.00  0.00     0.087 A 
ATOM     16  C   UNL A   1      36.833  32.531  32.772  1.00  0.00     0.147 A 
ATOM     17  C   UNL A   1      37.844  33.138  30.667  1.00  0.00     0.082 A 
ATOM     18  F   UNL A   1      35.746  32.407  33.551  1.00  0.00    -0.205 F 
ATOM     19  C   UNL A   1      38.069  32.179  33.308  1.00  0.00     0.041 A 
ATOM     20  C   UNL A   1      39.092  32.750  31.214  1.00  0.00     0.015 A 
ATOM     21  C   UNL A   1      39.205  32.269  32.518  1.00  0.00     0.004 A 
BRANCH  17  22
ATOM     22  C   UNL A   1      37.871  33.730  29.276  1.00  0.00     0.418 C 
ATOM     23  F   UNL A   1      37.226  34.939  29.236  1.00  0.00    -0.166 F 
ATOM     24  F   UNL A   1      39.138  34.005  28.853  1.00  0.00    -0.166 F 
ATOM     25  F   UNL A   1      37.277  32.996  28.300  1.00  0.00    -0.166 F 
ENDBRANCH  17  22
ENDBRANCH  13  15
ENDBRANCH   9  13
ENDBRANCH   6   7
ENDBRANCH   4   6
ENDBRANCH   1   2
BRANCH   1  26
ATOM     26  C   UNL A   1      34.156  29.799  26.841  1.00  0.00     0.042 C 
BRANCH  26  27
ATOM     27  C   UNL A   1      35.450  29.609  27.630  1.00  0.00     0.118 C 
BRANCH  27  28
ATOM     28  N   UNL A   1      35.293  29.780  29.067  1.00  0.00    -0.352 N 
ATOM     29  C   UNL A   1      36.237  29.729  30.068  1.00  0.00     0.251 C 
ATOM     30  H   UNL A   1      34.373  29.958  29.370  1.00  0.00     0.163 HD
ATOM     31  O   UNL A   1      35.873  29.788  31.241  1.00  0.00    -0.269 OA
BRANCH  29  32
ATOM     32  C   UNL A   1      37.674  29.568  29.749  1.00  0.00     0.039 A 
ATOM     33  C   UNL A   1      38.543  29.142  30.759  1.00  0.00     0.014 A 
ATOM     34  C   UNL A   1      38.174  29.834  28.472  1.00  0.00     0.014 A 
ATOM     35  C   UNL A   1      39.890  28.905  30.467  1.00  0.00     0.010 A 
ATOM     36  C   UNL A   1      39.501  29.528  28.164  1.00  0.00     0.010 A 
ATOM     37  C   UNL A   1      40.372  29.049  29.155  1.00  0.00    -0.014 A 
BRANCH  37  38
ATOM     38  C   UNL A   1      41.767  28.667  28.800  1.00  0.00     0.031 A 
ATOM     39  C   UNL A   1      42.863  29.697  28.774  1.00  0.00     0.074 A 
ATOM     40  C   UNL A   1      42.033  27.397  28.430  1.00  0.00     0.049 A 
ATOM     41  N   UNL A   1      44.117  29.561  28.422  1.00  0.00    -0.248 NA
ATOM     42  C   UNL A   1      42.500  31.065  29.177  1.00  0.00     0.031 C 
ATOM     43  C   UNL A   1      41.051  26.311  28.370  1.00  0.00     0.029 A 
ATOM     44  N   UNL A   1      43.203  26.803  28.026  1.00  0.00    -0.354 N 
ATOM     45  C   UNL A   1      44.689  30.822  28.550  1.00  0.00     0.074 A 
ATOM     46  C   UNL A   1      43.632  31.721  28.963  1.00  0.00     0.031 C 
ATOM     47  C   UNL A   1      41.662  25.184  27.972  1.00  0.00     0.029 A 
ATOM     48  C   UNL A   1      43.067  25.472  27.706  1.00  0.00     0.049 A 
ATOM     49  H   UNL A   1      44.060  27.285  27.970  1.00  0.00     0.167 HD
ATOM     50  C   UNL A   1      45.978  31.193  28.359  1.00  0.00     0.037 A 
ATOM     51  C   UNL A   1      43.966  24.583  27.237  1.00  0.00     0.037 A 
ATOM     52  C   UNL A   1      47.029  30.290  27.960  1.00  0.00     0.049 A 
ATOM     53  C   UNL A   1      45.388  25.023  27.015  1.00  0.00     0.074 A 
ATOM     54  C   UNL A   1      48.377  30.561  27.795  1.00  0.00     0.029 A 
ATOM     55  N   UNL A   1      46.853  28.948  27.655  1.00  0.00    -0.354 N 
ATOM     56  N   UNL A   1      45.924  26.206  27.203  1.00  0.00    -0.248 NA
ATOM     57  C   UNL A   1      46.329  24.009  26.519  1.00  0.00     0.031 C 
ATOM     58  C   UNL A   1      49.005  29.398  27.336  1.00  0.00     0.029 A 
ATOM     59  C   UNL A   1      48.062  28.384  27.276  1.00  0.00     0.049 A 
ATOM     60  H   UNL A   1      45.995  28.467  27.702  1.00  0.00     0.167 HD
ATOM     61  C   UNL A   1      47.269  26.069  26.879  1.00  0.00     0.074 A 
ATOM     62  C   UNL A   1      47.468  24.688  26.494  1.00  0.00     0.031 C 
ATOM     63  C   UNL A   1      48.251  27.005  26.899  1.00  0.00     0.037 A 
BRANCH  50  64
ATOM     64  C   UNL A   1      46.332  32.641  28.577  1.00  0.00     0.058 A 
ATOM     65  C   UNL A   1      46.755  33.117  29.829  1.00  0.00     0.135 A 
ATOM     66  C   UNL A   1      46.293  33.555  27.511  1.00  0.00     0.135 A 
ATOM     67  F   UNL A   1      46.801  32.293  30.888  1.00  0.00    -0.206 F 
ATOM     68  C   UNL A   1      47.098  34.452  30.023  1.00  0.00     0.059 A 
ATOM     69  C   UNL A   1      46.661  34.888  27.674  1.00  0.00     0.059 A 
ATOM     70  F   UNL A   1      45.899  33.155  26.292  1.00  0.00    -0.206 F 
ATOM     71  C   UNL A   1      47.049  35.330  28.938  1.00  0.00     0.060 A 
BRANCH  71  72
ATOM     72  S   UNL A   1      47.501  37.057  29.207  1.00  0.00     0.124 S 
ATOM     73  O   UNL A   1      46.315  37.749  28.712  1.00  0.00    -0.237 OA
ATOM     74  O   UNL A   1      47.705  37.104  30.651  1.00  0.00    -0.237 OA
ATOM     75  O   UNL A   1      48.706  37.224  28.400  1.00  0.00    -0.744 OA
ENDBRANCH  71  72
ENDBRANCH  50  64
BRANCH  51  76
ATOM     76  C   UNL A   1      43.549  23.181  26.958  1.00  0.00     0.058 A 
ATOM     77  C   UNL A   1      43.417  22.715  25.641  1.00  0.00     0.135 A 
ATOM     78  C   UNL A   1      43.284  22.277  27.999  1.00  0.00     0.135 A 
ATOM     79  F   UNL A   1      43.650  23.542  24.611  1.00  0.00    -0.206 F 
ATOM     80  C   UNL A   1      43.020  21.411  25.365  1.00  0.00     0.059 A 
ATOM     81  C   UNL A   1      42.915  20.960  27.749  1.00  0.00     0.059 A 
ATOM     82  F   UNL A   1      43.411  22.668  29.276  1.00  0.00    -0.206 F 
ATOM     83  C   UNL A   1      42.775  20.539  26.427  1.00  0.00     0.060 A 
BRANCH  83  84
ATOM     84  S   UNL A   1      42.307  18.834  26.056  1.00  0.00     0.124 S 
ATOM     85  O   UNL A   1      42.555  18.176  27.333  1.00  0.00    -0.237 OA
ATOM     86  O   UNL A   1      40.907  18.979  25.672  1.00  0.00    -0.237 OA
ATOM     87  O   UNL A   1      43.213  18.466  24.971  1.00  0.00    -0.744 OA
ENDBRANCH  83  84
ENDBRANCH  51  76
BRANCH  63  88
ATOM     88  C   UNL A   1      49.642  26.563  26.530  1.00  0.00     0.058 A 
ATOM     89  C   UNL A   1      50.489  25.930  27.453  1.00  0.00     0.135 A 
ATOM     90  C   UNL A   1      50.116  26.732  25.218  1.00  0.00     0.135 A 
ATOM     91  F   UNL A   1      50.090  25.749  28.722  1.00  0.00    -0.206 F 
ATOM     92  C   UNL A   1      51.765  25.503  27.096  1.00  0.00     0.059 A 
ATOM     93  C   UNL A   1      51.375  26.285  24.830  1.00  0.00     0.059 A 
ATOM     94  F   UNL A   1      49.345  27.322  24.291  1.00  0.00    -0.206 F 
ATOM     95  C   UNL A   1      52.198  25.682  25.781  1.00  0.00     0.060 A 
BRANCH  95  96
ATOM     96  S   UNL A   1      53.842  25.093  25.324  1.00  0.00     0.124 S 
ATOM     97  O   UNL A   1      54.657  25.617  26.416  1.00  0.00    -0.237 OA
ATOM     98  O   UNL A   1      53.660  23.645  25.306  1.00  0.00    -0.237 OA
ATOM     99  O   UNL A   1      54.073  25.707  24.019  1.00  0.00    -0.744 OA
ENDBRANCH  95  96
ENDBRANCH  63  88
ENDBRANCH  37  38
ENDBRANCH  29  32
ENDBRANCH  27  28
ENDBRANCH  26  27
ENDBRANCH   1  26
TORSDOF 17
ENDMDL
