MODEL 1
REMARK VINA RESULT:     -13.5      0.000      0.000
REMARK SMILES Cc1ccc(C)c(N2CCN(C(=O)[C@@H]3[C@H](C(=O)NCCCNC(=O)c4ccc(-c5c6nc(c(-c7c(F)cc(S(=O)(=O)[O-])cc7F)c7ccc([nH]7)c(-c7c(F)cc(S(=O)(=O)[O-])cc7F)c7nc(c(-c8c(F)cc(S(=O)(=O)[O-])cc8F)c8ccc5[nH]8)C=C7)C=C6)cc4)C3(C)C)CC2)c1
REMARK SMILES IDX 20 1 19 2 18 3 16 4 17 5 15 7 14 8 91 9 92 10 93 11 12 12
REMARK SMILES IDX 8 13 9 14 95 15 10 16 94 17 11 18 13 19 7 20 1 21 2 22 3 23
REMARK SMILES IDX 96 24 4 25 5 26 6 27 21 28 22 29 23 30 24 32 25 33 26 34
REMARK SMILES IDX 90 35 27 36 89 37 28 38 29 39 30 40 83 41 31 42 88 43 82 44
REMARK SMILES IDX 84 45 32 46 87 47 81 48 80 49 33 51 67 52 46 53 66 54 47 55
REMARK SMILES IDX 50 56 65 57 85 58 48 59 49 60 64 62 86 63 51 64 34 65 35 66
REMARK SMILES IDX 44 67 36 68 37 69 43 70 45 71 38 72 39 73 40 74 41 75 42 76
REMARK SMILES IDX 68 77 69 78 78 79 70 80 71 81 77 82 79 83 72 84 73 85 74 86
REMARK SMILES IDX 75 87 76 88 52 89 53 90 62 91 54 92 55 93 61 94 63 95 56 96
REMARK SMILES IDX 57 97 58 98 59 99 60 100
REMARK H PARENT 18 6 22 31 84 50 50 61
REMARK Flexibility Score: inf
ROOT
ATOM      1  C   UNL A   1      37.548  21.276  24.906  1.00  0.00     0.042 C 
ENDROOT
BRANCH   1   2
ATOM      2  C   UNL A   1      36.148  20.813  25.326  1.00  0.00     0.117 C 
BRANCH   2   3
ATOM      3  N   UNL A   1      35.463  21.720  26.226  1.00  0.00    -0.356 N 
ATOM      4  C   UNL A   1      34.136  21.868  26.548  1.00  0.00     0.224 C 
ATOM      5  O   UNL A   1      33.850  22.632  27.445  1.00  0.00    -0.275 OA
ATOM      6  H   UNL A   1      36.059  22.347  26.695  1.00  0.00     0.163 HD
BRANCH   4   7
ATOM      7  C   UNL A   1      33.111  21.093  25.803  1.00  0.00     0.098 C 
ATOM      8  C   UNL A   1      31.834  21.697  25.235  1.00  0.00     0.098 C 
ATOM      9  C   UNL A   1      32.914  21.210  24.289  1.00  0.00    -0.011 C 
ATOM     10  C   UNL A   1      32.622  19.894  23.578  1.00  0.00     0.013 C 
ATOM     11  C   UNL A   1      33.673  22.149  23.394  1.00  0.00     0.013 C 
BRANCH   8  12
ATOM     12  C   UNL A   1      31.264  22.941  25.853  1.00  0.00     0.227 C 
ATOM     13  N   UNL A   1      32.391  26.864  26.257  1.00  0.00    -0.368 N 
ATOM     14  C   UNL A   1      31.153  26.332  26.822  1.00  0.00     0.138 C 
ATOM     15  C   UNL A   1      33.402  25.871  25.881  1.00  0.00     0.138 C 
ATOM     16  C   UNL A   1      30.557  25.302  25.840  1.00  0.00     0.141 C 
ATOM     17  C   UNL A   1      32.779  24.801  24.956  1.00  0.00     0.141 C 
ATOM     18  N   UNL A   1      31.525  24.249  25.471  1.00  0.00    -0.339 N 
ATOM     19  O   UNL A   1      30.364  22.714  26.668  1.00  0.00    -0.275 OA
BRANCH  13  20
ATOM     20  C   UNL A   1      32.799  28.172  26.426  1.00  0.00     0.040 A 
ATOM     21  C   UNL A   1      35.623  29.865  28.379  1.00  0.00     0.044 C 
ATOM     22  C   UNL A   1      34.410  29.677  27.519  1.00  0.00    -0.049 A 
ATOM     23  C   UNL A   1      33.852  30.760  26.846  1.00  0.00     0.004 A 
ATOM     24  C   UNL A   1      33.867  28.404  27.316  1.00  0.00     0.029 A 
ATOM     25  C   UNL A   1      32.773  30.564  25.987  1.00  0.00     0.006 A 
ATOM     26  C   UNL A   1      32.232  29.280  25.773  1.00  0.00    -0.028 A 
ATOM     27  C   UNL A   1      31.063  29.178  24.834  1.00  0.00     0.046 C 
ENDBRANCH  13  20
ENDBRANCH   8  12
ENDBRANCH   4   7
ENDBRANCH   2   3
ENDBRANCH   1   2
BRANCH   1  28
ATOM     28  C   UNL A   1      38.293  22.099  25.950  1.00  0.00     0.118 C 
BRANCH  28  29
ATOM     29  N   UNL A   1      39.665  21.650  26.235  1.00  0.00    -0.352 N 
ATOM     30  C   UNL A   1      40.817  22.393  26.491  1.00  0.00     0.251 C 
ATOM     31  H   UNL A   1      39.790  20.673  26.246  1.00  0.00     0.163 HD
ATOM     32  O   UNL A   1      41.921  21.886  26.312  1.00  0.00    -0.269 OA
BRANCH  30  33
ATOM     33  C   UNL A   1      40.714  23.781  26.996  1.00  0.00     0.039 A 
ATOM     34  C   UNL A   1      39.762  24.720  26.607  1.00  0.00     0.014 A 
ATOM     35  C   UNL A   1      41.723  24.213  27.824  1.00  0.00     0.014 A 
ATOM     36  C   UNL A   1      39.912  26.041  27.060  1.00  0.00     0.010 A 
ATOM     37  C   UNL A   1      41.553  25.298  28.615  1.00  0.00     0.010 A 
ATOM     38  C   UNL A   1      40.861  26.330  28.054  1.00  0.00    -0.014 A 
BRANCH  38  39
ATOM     39  C   UNL A   1      40.966  27.588  28.765  1.00  0.00     0.031 A 
ATOM     40  C   UNL A   1      41.999  28.451  28.168  1.00  0.00     0.074 A 
ATOM     41  C   UNL A   1      40.077  28.041  29.681  1.00  0.00     0.049 A 
ATOM     42  N   UNL A   1      43.230  28.513  28.545  1.00  0.00    -0.248 NA
ATOM     43  C   UNL A   1      41.744  29.073  26.857  1.00  0.00     0.031 C 
ATOM     44  C   UNL A   1      38.805  27.459  30.127  1.00  0.00     0.029 A 
ATOM     45  N   UNL A   1      40.128  29.203  30.390  1.00  0.00    -0.354 N 
ATOM     46  C   UNL A   1      43.805  29.456  27.713  1.00  0.00     0.074 A 
ATOM     47  C   UNL A   1      42.971  29.497  26.543  1.00  0.00     0.031 C 
ATOM     48  C   UNL A   1      38.125  28.367  30.871  1.00  0.00     0.029 A 
ATOM     49  C   UNL A   1      38.956  29.540  31.069  1.00  0.00     0.049 A 
ATOM     50  H   UNL A   1      40.935  29.767  30.420  1.00  0.00     0.167 HD
ATOM     51  C   UNL A   1      44.683  30.362  28.224  1.00  0.00     0.037 A 
ATOM     52  C   UNL A   1      38.711  30.718  31.711  1.00  0.00     0.037 A 
ATOM     53  C   UNL A   1      45.126  29.948  29.544  1.00  0.00     0.049 A 
ATOM     54  C   UNL A   1      40.042  31.311  32.029  1.00  0.00     0.074 A 
ATOM     55  C   UNL A   1      45.652  28.777  30.063  1.00  0.00     0.029 A 
ATOM     56  N   UNL A   1      44.634  30.640  30.629  1.00  0.00    -0.354 N 
ATOM     57  N   UNL A   1      40.886  30.779  32.873  1.00  0.00    -0.248 NA
ATOM     58  C   UNL A   1      40.630  32.189  31.026  1.00  0.00     0.031 C 
ATOM     59  C   UNL A   1      44.992  28.598  31.315  1.00  0.00     0.029 A 
ATOM     60  C   UNL A   1      44.195  29.719  31.547  1.00  0.00     0.049 A 
ATOM     61  H   UNL A   1      44.604  31.619  30.728  1.00  0.00     0.167 HD
ATOM     62  C   UNL A   1      42.118  30.875  32.243  1.00  0.00     0.074 A 
ATOM     63  C   UNL A   1      41.904  31.803  31.129  1.00  0.00     0.031 C 
ATOM     64  C   UNL A   1      43.113  29.969  32.473  1.00  0.00     0.037 A 
BRANCH  51  65
ATOM     65  C   UNL A   1      44.806  31.792  27.742  1.00  0.00     0.058 A 
ATOM     66  C   UNL A   1      45.992  32.172  27.081  1.00  0.00     0.135 A 
ATOM     67  C   UNL A   1      43.954  32.859  28.111  1.00  0.00     0.135 A 
ATOM     68  F   UNL A   1      46.879  31.247  26.682  1.00  0.00    -0.206 F 
ATOM     69  C   UNL A   1      46.343  33.504  26.879  1.00  0.00     0.059 A 
ATOM     70  C   UNL A   1      44.259  34.192  27.868  1.00  0.00     0.059 A 
ATOM     71  F   UNL A   1      42.822  32.691  28.798  1.00  0.00    -0.206 F 
ATOM     72  C   UNL A   1      45.472  34.508  27.285  1.00  0.00     0.060 A 
BRANCH  72  73
ATOM     73  S   UNL A   1      45.942  36.229  27.066  1.00  0.00     0.124 S 
ATOM     74  O   UNL A   1      46.741  36.464  28.262  1.00  0.00    -0.237 OA
ATOM     75  O   UNL A   1      46.673  36.176  25.804  1.00  0.00    -0.237 OA
ATOM     76  O   UNL A   1      44.658  36.922  27.012  1.00  0.00    -0.744 OA
ENDBRANCH  72  73
ENDBRANCH  51  65
BRANCH  52  77
ATOM     77  C   UNL A   1      37.466  31.546  31.691  1.00  0.00     0.058 A 
ATOM     78  C   UNL A   1      36.752  31.816  32.879  1.00  0.00     0.135 A 
ATOM     79  C   UNL A   1      37.104  32.324  30.575  1.00  0.00     0.135 A 
ATOM     80  F   UNL A   1      37.024  31.133  34.002  1.00  0.00    -0.206 F 
ATOM     81  C   UNL A   1      35.775  32.820  32.965  1.00  0.00     0.059 A 
ATOM     82  C   UNL A   1      36.128  33.323  30.633  1.00  0.00     0.059 A 
ATOM     83  F   UNL A   1      37.740  32.195  29.401  1.00  0.00    -0.206 F 
ATOM     84  C   UNL A   1      35.478  33.578  31.835  1.00  0.00     0.060 A 
BRANCH  84  85
ATOM     85  S   UNL A   1      34.245  34.897  31.937  1.00  0.00     0.124 S 
ATOM     86  O   UNL A   1      33.188  34.262  32.717  1.00  0.00    -0.237 OA
ATOM     87  O   UNL A   1      34.981  35.962  32.608  1.00  0.00    -0.237 OA
ATOM     88  O   UNL A   1      33.911  35.159  30.538  1.00  0.00    -0.744 OA
ENDBRANCH  84  85
ENDBRANCH  52  77
BRANCH  64  89
ATOM     89  C   UNL A   1      43.007  29.032  33.651  1.00  0.00     0.058 A 
ATOM     90  C   UNL A   1      43.377  29.337  34.974  1.00  0.00     0.135 A 
ATOM     91  C   UNL A   1      42.325  27.822  33.445  1.00  0.00     0.135 A 
ATOM     92  F   UNL A   1      43.942  30.514  35.280  1.00  0.00    -0.206 F 
ATOM     93  C   UNL A   1      43.108  28.462  36.033  1.00  0.00     0.059 A 
ATOM     94  C   UNL A   1      42.015  26.954  34.487  1.00  0.00     0.059 A 
ATOM     95  F   UNL A   1      41.896  27.494  32.214  1.00  0.00    -0.206 F 
ATOM     96  C   UNL A   1      42.420  27.274  35.779  1.00  0.00     0.060 A 
BRANCH  96  97
ATOM     97  S   UNL A   1      42.001  26.174  37.149  1.00  0.00     0.124 S 
ATOM     98  O   UNL A   1      40.692  26.676  37.557  1.00  0.00    -0.237 OA
ATOM     99  O   UNL A   1      42.007  24.859  36.515  1.00  0.00    -0.237 OA
ATOM    100  O   UNL A   1      43.079  26.396  38.110  1.00  0.00    -0.744 OA
ENDBRANCH  96  97
ENDBRANCH  64  89
ENDBRANCH  38  39
ENDBRANCH  30  33
ENDBRANCH  28  29
ENDBRANCH   1  28
TORSDOF 15
ENDMDL
MODEL 2
REMARK VINA RESULT:     -13.3      1.541      2.606
REMARK SMILES Cc1ccc(C)c(N2CCN(C(=O)[C@@H]3[C@H](C(=O)NCCCNC(=O)c4ccc(-c5c6nc(c(-c7c(F)cc(S(=O)(=O)[O-])cc7F)c7ccc([nH]7)c(-c7c(F)cc(S(=O)(=O)[O-])cc7F)c7nc(c(-c8c(F)cc(S(=O)(=O)[O-])cc8F)c8ccc5[nH]8)C=C7)C=C6)cc4)C3(C)C)CC2)c1
REMARK SMILES IDX 20 1 19 2 18 3 16 4 17 5 15 7 14 8 91 9 92 10 93 11 12 12
REMARK SMILES IDX 8 13 9 14 95 15 10 16 94 17 11 18 13 19 7 20 1 21 2 22 3 23
REMARK SMILES IDX 96 24 4 25 5 26 6 27 21 28 22 29 23 30 24 32 25 33 26 34
REMARK SMILES IDX 90 35 27 36 89 37 28 38 29 39 30 40 83 41 31 42 88 43 82 44
REMARK SMILES IDX 84 45 32 46 87 47 81 48 80 49 33 51 67 52 46 53 66 54 47 55
REMARK SMILES IDX 50 56 65 57 85 58 48 59 49 60 64 62 86 63 51 64 34 65 35 66
REMARK SMILES IDX 44 67 36 68 37 69 43 70 45 71 38 72 39 73 40 74 41 75 42 76
REMARK SMILES IDX 68 77 69 78 78 79 70 80 71 81 77 82 79 83 72 84 73 85 74 86
REMARK SMILES IDX 75 87 76 88 52 89 53 90 62 91 54 92 55 93 61 94 63 95 56 96
REMARK SMILES IDX 57 97 58 98 59 99 60 100
REMARK H PARENT 18 6 22 31 84 50 50 61
REMARK Flexibility Score: inf
ROOT
ATOM      1  C   UNL A   1      38.566  21.614  25.490  1.00  0.00     0.042 C 
ENDROOT
BRANCH   1   2
ATOM      2  C   UNL A   1      37.068  21.821  25.741  1.00  0.00     0.117 C 
BRANCH   2   3
ATOM      3  N   UNL A   1      36.325  22.284  24.584  1.00  0.00    -0.356 N 
ATOM      4  C   UNL A   1      35.029  22.078  24.182  1.00  0.00     0.224 C 
ATOM      5  O   UNL A   1      34.625  22.704  23.224  1.00  0.00    -0.275 OA
ATOM      6  H   UNL A   1      36.847  22.853  23.974  1.00  0.00     0.163 HD
BRANCH   4   7
ATOM      7  C   UNL A   1      34.174  21.118  24.925  1.00  0.00     0.098 C 
ATOM      8  C   UNL A   1      32.826  21.476  25.536  1.00  0.00     0.098 C 
ATOM      9  C   UNL A   1      32.881  20.533  24.350  1.00  0.00    -0.011 C 
ATOM     10  C   UNL A   1      32.649  19.061  24.667  1.00  0.00     0.013 C 
ATOM     11  C   UNL A   1      32.294  20.896  23.015  1.00  0.00     0.013 C 
BRANCH   8  12
ATOM     12  C   UNL A   1      32.537  22.900  25.914  1.00  0.00     0.227 C 
ATOM     13  N   UNL A   1      30.910  26.200  24.103  1.00  0.00    -0.368 N 
ATOM     14  C   UNL A   1      31.435  26.222  25.467  1.00  0.00     0.138 C 
ATOM     15  C   UNL A   1      31.338  25.074  23.270  1.00  0.00     0.138 C 
ATOM     16  C   UNL A   1      31.094  24.883  26.155  1.00  0.00     0.141 C 
ATOM     17  C   UNL A   1      31.061  23.738  23.996  1.00  0.00     0.141 C 
ATOM     18  N   UNL A   1      31.553  23.716  25.375  1.00  0.00    -0.339 N 
ATOM     19  O   UNL A   1      33.160  23.277  26.911  1.00  0.00    -0.275 OA
BRANCH  13  20
ATOM     20  C   UNL A   1      30.401  27.318  23.471  1.00  0.00     0.040 A 
ATOM     21  C   UNL A   1      26.907  28.844  23.134  1.00  0.00     0.044 C 
ATOM     22  C   UNL A   1      28.380  28.626  22.965  1.00  0.00    -0.049 A 
ATOM     23  C   UNL A   1      29.162  29.583  22.325  1.00  0.00     0.004 A 
ATOM     24  C   UNL A   1      29.004  27.500  23.511  1.00  0.00     0.029 A 
ATOM     25  C   UNL A   1      30.542  29.411  22.241  1.00  0.00     0.006 A 
ATOM     26  C   UNL A   1      31.174  28.282  22.801  1.00  0.00    -0.028 A 
ATOM     27  C   UNL A   1      32.666  28.187  22.647  1.00  0.00     0.046 C 
ENDBRANCH  13  20
ENDBRANCH   8  12
ENDBRANCH   4   7
ENDBRANCH   2   3
ENDBRANCH   1   2
BRANCH   1  28
ATOM     28  C   UNL A   1      39.486  22.323  26.476  1.00  0.00     0.118 C 
BRANCH  28  29
ATOM     29  N   UNL A   1      40.917  22.277  26.137  1.00  0.00    -0.352 N 
ATOM     30  C   UNL A   1      41.826  23.316  25.938  1.00  0.00     0.251 C 
ATOM     31  H   UNL A   1      41.292  21.372  26.036  1.00  0.00     0.163 HD
ATOM     32  O   UNL A   1      42.847  23.115  25.286  1.00  0.00    -0.269 OA
BRANCH  30  33
ATOM     33  C   UNL A   1      41.574  24.651  26.526  1.00  0.00     0.039 A 
ATOM     34  C   UNL A   1      40.852  25.681  25.928  1.00  0.00     0.014 A 
ATOM     35  C   UNL A   1      42.219  24.938  27.706  1.00  0.00     0.014 A 
ATOM     36  C   UNL A   1      40.853  26.940  26.552  1.00  0.00     0.010 A 
ATOM     37  C   UNL A   1      41.793  25.948  28.501  1.00  0.00     0.010 A 
ATOM     38  C   UNL A   1      41.377  27.070  27.848  1.00  0.00    -0.014 A 
BRANCH  38  39
ATOM     39  C   UNL A   1      41.242  28.244  28.687  1.00  0.00     0.031 A 
ATOM     40  C   UNL A   1      42.332  29.202  28.441  1.00  0.00     0.074 A 
ATOM     41  C   UNL A   1      40.140  28.561  29.408  1.00  0.00     0.049 A 
ATOM     42  N   UNL A   1      43.437  29.263  29.101  1.00  0.00    -0.248 NA
ATOM     43  C   UNL A   1      42.350  29.958  27.176  1.00  0.00     0.031 C 
ATOM     44  C   UNL A   1      38.837  27.891  29.481  1.00  0.00     0.029 A 
ATOM     45  N   UNL A   1      39.958  29.638  30.223  1.00  0.00    -0.354 N 
ATOM     46  C   UNL A   1      44.132  30.313  28.528  1.00  0.00     0.074 A 
ATOM     47  C   UNL A   1      43.589  30.456  27.205  1.00  0.00     0.031 C 
ATOM     48  C   UNL A   1      37.950  28.686  30.131  1.00  0.00     0.029 A 
ATOM     49  C   UNL A   1      38.643  29.857  30.637  1.00  0.00     0.049 A 
ATOM     50  H   UNL A   1      40.701  30.221  30.500  1.00  0.00     0.167 HD
ATOM     51  C   UNL A   1      44.813  31.185  29.320  1.00  0.00     0.037 A 
ATOM     52  C   UNL A   1      38.188  30.947  31.319  1.00  0.00     0.037 A 
ATOM     53  C   UNL A   1      44.963  30.640  30.658  1.00  0.00     0.049 A 
ATOM     54  C   UNL A   1      39.372  31.545  32.000  1.00  0.00     0.074 A 
ATOM     55  C   UNL A   1      45.424  29.437  31.165  1.00  0.00     0.029 A 
ATOM     56  N   UNL A   1      44.195  31.189  31.661  1.00  0.00    -0.354 N 
ATOM     57  N   UNL A   1      40.029  30.950  32.961  1.00  0.00    -0.248 NA
ATOM     58  C   UNL A   1      40.122  32.549  31.258  1.00  0.00     0.031 C 
ATOM     59  C   UNL A   1      44.505  29.097  32.203  1.00  0.00     0.029 A 
ATOM     60  C   UNL A   1      43.611  30.157  32.352  1.00  0.00     0.049 A 
ATOM     61  H   UNL A   1      44.084  32.150  31.849  1.00  0.00     0.167 HD
ATOM     62  C   UNL A   1      41.365  31.158  32.652  1.00  0.00     0.074 A 
ATOM     63  C   UNL A   1      41.360  32.197  31.619  1.00  0.00     0.031 C 
ATOM     64  C   UNL A   1      42.332  30.265  33.018  1.00  0.00     0.037 A 
BRANCH  51  65
ATOM     65  C   UNL A   1      44.959  32.663  29.028  1.00  0.00     0.058 A 
ATOM     66  C   UNL A   1      43.792  33.408  28.765  1.00  0.00     0.135 A 
ATOM     67  C   UNL A   1      46.175  33.327  28.742  1.00  0.00     0.135 A 
ATOM     68  F   UNL A   1      42.578  32.884  28.998  1.00  0.00    -0.206 F 
ATOM     69  C   UNL A   1      43.826  34.674  28.186  1.00  0.00     0.059 A 
ATOM     70  C   UNL A   1      46.233  34.611  28.217  1.00  0.00     0.059 A 
ATOM     71  F   UNL A   1      47.373  32.751  28.870  1.00  0.00    -0.206 F 
ATOM     72  C   UNL A   1      45.054  35.264  27.908  1.00  0.00     0.060 A 
BRANCH  72  73
ATOM     73  S   UNL A   1      45.101  36.878  27.120  1.00  0.00     0.124 S 
ATOM     74  O   UNL A   1      45.899  36.597  25.933  1.00  0.00    -0.237 OA
ATOM     75  O   UNL A   1      43.683  37.138  26.895  1.00  0.00    -0.237 OA
ATOM     76  O   UNL A   1      45.737  37.723  28.127  1.00  0.00    -0.744 OA
ENDBRANCH  72  73
ENDBRANCH  51  65
BRANCH  52  77
ATOM     77  C   UNL A   1      36.934  31.730  31.090  1.00  0.00     0.058 A 
ATOM     78  C   UNL A   1      36.032  31.986  32.146  1.00  0.00     0.135 A 
ATOM     79  C   UNL A   1      36.727  32.483  29.919  1.00  0.00     0.135 A 
ATOM     80  F   UNL A   1      36.146  31.324  33.308  1.00  0.00    -0.206 F 
ATOM     81  C   UNL A   1      35.021  32.954  32.061  1.00  0.00     0.059 A 
ATOM     82  C   UNL A   1      35.722  33.447  29.807  1.00  0.00     0.059 A 
ATOM     83  F   UNL A   1      37.545  32.365  28.863  1.00  0.00    -0.206 F 
ATOM     84  C   UNL A   1      34.881  33.690  30.887  1.00  0.00     0.060 A 
BRANCH  84  85
ATOM     85  S   UNL A   1      33.603  34.965  30.772  1.00  0.00     0.124 S 
ATOM     86  O   UNL A   1      34.400  36.182  30.668  1.00  0.00    -0.237 OA
ATOM     87  O   UNL A   1      32.877  34.573  29.569  1.00  0.00    -0.237 OA
ATOM     88  O   UNL A   1      32.861  34.815  32.023  1.00  0.00    -0.744 OA
ENDBRANCH  84  85
ENDBRANCH  52  77
BRANCH  64  89
ATOM     89  C   UNL A   1      42.012  29.199  34.036  1.00  0.00     0.058 A 
ATOM     90  C   UNL A   1      41.423  27.952  33.756  1.00  0.00     0.135 A 
ATOM     91  C   UNL A   1      42.495  29.396  35.340  1.00  0.00     0.135 A 
ATOM     92  F   UNL A   1      41.025  27.638  32.515  1.00  0.00    -0.206 F 
ATOM     93  C   UNL A   1      41.296  26.962  34.738  1.00  0.00     0.059 A 
ATOM     94  C   UNL A   1      42.411  28.414  36.321  1.00  0.00     0.059 A 
ATOM     95  F   UNL A   1      43.115  30.544  35.661  1.00  0.00    -0.206 F 
ATOM     96  C   UNL A   1      41.799  27.201  36.017  1.00  0.00     0.060 A 
BRANCH  96  97
ATOM     97  S   UNL A   1      41.708  25.904  37.271  1.00  0.00     0.124 S 
ATOM     98  O   UNL A   1      42.006  24.704  36.494  1.00  0.00    -0.237 OA
ATOM     99  O   UNL A   1      42.734  26.311  38.227  1.00  0.00    -0.237 OA
ATOM    100  O   UNL A   1      40.336  25.999  37.765  1.00  0.00    -0.744 OA
ENDBRANCH  96  97
ENDBRANCH  64  89
ENDBRANCH  38  39
ENDBRANCH  30  33
ENDBRANCH  28  29
ENDBRANCH   1  28
TORSDOF 15
ENDMDL
MODEL 3
REMARK VINA RESULT:     -13.1      2.898      9.701
REMARK SMILES Cc1ccc(C)c(N2CCN(C(=O)[C@@H]3[C@H](C(=O)NCCCNC(=O)c4ccc(-c5c6nc(c(-c7c(F)cc(S(=O)(=O)[O-])cc7F)c7ccc([nH]7)c(-c7c(F)cc(S(=O)(=O)[O-])cc7F)c7nc(c(-c8c(F)cc(S(=O)(=O)[O-])cc8F)c8ccc5[nH]8)C=C7)C=C6)cc4)C3(C)C)CC2)c1
REMARK SMILES IDX 20 1 19 2 18 3 16 4 17 5 15 7 14 8 91 9 92 10 93 11 12 12
REMARK SMILES IDX 8 13 9 14 95 15 10 16 94 17 11 18 13 19 7 20 1 21 2 22 3 23
REMARK SMILES IDX 96 24 4 25 5 26 6 27 21 28 22 29 23 30 24 32 25 33 26 34
REMARK SMILES IDX 90 35 27 36 89 37 28 38 29 39 30 40 83 41 31 42 88 43 82 44
REMARK SMILES IDX 84 45 32 46 87 47 81 48 80 49 33 51 67 52 46 53 66 54 47 55
REMARK SMILES IDX 50 56 65 57 85 58 48 59 49 60 64 62 86 63 51 64 34 65 35 66
REMARK SMILES IDX 44 67 36 68 37 69 43 70 45 71 38 72 39 73 40 74 41 75 42 76
REMARK SMILES IDX 68 77 69 78 78 79 70 80 71 81 77 82 79 83 72 84 73 85 74 86
REMARK SMILES IDX 75 87 76 88 52 89 53 90 62 91 54 92 55 93 61 94 63 95 56 96
REMARK SMILES IDX 57 97 58 98 59 99 60 100
REMARK H PARENT 18 6 22 31 84 50 50 61
REMARK Flexibility Score: inf
ROOT
ATOM      1  C   UNL A   1      33.751  29.923  27.446  1.00  0.00     0.042 C 
ENDROOT
BRANCH   1   2
ATOM      2  C   UNL A   1      32.425  29.846  26.681  1.00  0.00     0.117 C 
BRANCH   2   3
ATOM      3  N   UNL A   1      31.788  28.543  26.714  1.00  0.00    -0.356 N 
ATOM      4  C   UNL A   1      31.184  27.791  25.738  1.00  0.00     0.224 C 
ATOM      5  O   UNL A   1      30.845  26.661  26.020  1.00  0.00    -0.275 OA
ATOM      6  H   UNL A   1      31.789  28.119  27.603  1.00  0.00     0.163 HD
BRANCH   4   7
ATOM      7  C   UNL A   1      30.976  28.373  24.387  1.00  0.00     0.098 C 
ATOM      8  C   UNL A   1      31.319  27.654  23.089  1.00  0.00     0.098 C 
ATOM      9  C   UNL A   1      29.865  27.907  23.441  1.00  0.00    -0.011 C 
ATOM     10  C   UNL A   1      29.183  29.022  22.658  1.00  0.00     0.013 C 
ATOM     11  C   UNL A   1      28.907  26.785  23.726  1.00  0.00     0.013 C 
BRANCH   8  12
ATOM     12  C   UNL A   1      32.376  26.588  23.089  1.00  0.00     0.227 C 
ATOM     13  N   UNL A   1      32.564  22.564  23.859  1.00  0.00    -0.368 N 
ATOM     14  C   UNL A   1      33.738  23.359  23.504  1.00  0.00     0.138 C 
ATOM     15  C   UNL A   1      31.393  23.319  24.313  1.00  0.00     0.138 C 
ATOM     16  C   UNL A   1      33.330  24.408  22.448  1.00  0.00     0.141 C 
ATOM     17  C   UNL A   1      31.034  24.416  23.286  1.00  0.00     0.141 C 
ATOM     18  N   UNL A   1      32.183  25.230  22.883  1.00  0.00    -0.339 N 
ATOM     19  O   UNL A   1      33.525  27.040  23.123  1.00  0.00    -0.275 OA
BRANCH  13  20
ATOM     20  C   UNL A   1      32.626  21.219  24.163  1.00  0.00     0.040 A 
ATOM     21  C   UNL A   1      32.234  17.996  22.136  1.00  0.00     0.044 C 
ATOM     22  C   UNL A   1      32.430  18.925  23.294  1.00  0.00    -0.049 A 
ATOM     23  C   UNL A   1      32.786  18.424  24.543  1.00  0.00     0.004 A 
ATOM     24  C   UNL A   1      32.336  20.311  23.125  1.00  0.00     0.029 A 
ATOM     25  C   UNL A   1      33.044  19.299  25.596  1.00  0.00     0.006 A 
ATOM     26  C   UNL A   1      32.961  20.695  25.424  1.00  0.00    -0.028 A 
ATOM     27  C   UNL A   1      33.249  21.551  26.625  1.00  0.00     0.046 C 
ENDBRANCH  13  20
ENDBRANCH   8  12
ENDBRANCH   4   7
ENDBRANCH   2   3
ENDBRANCH   1   2
BRANCH   1  28
ATOM     28  C   UNL A   1      34.505  31.238  27.295  1.00  0.00     0.118 C 
BRANCH  28  29
ATOM     29  N   UNL A   1      34.570  32.063  28.512  1.00  0.00    -0.352 N 
ATOM     30  C   UNL A   1      35.282  31.864  29.695  1.00  0.00     0.251 C 
ATOM     31  H   UNL A   1      34.027  32.884  28.488  1.00  0.00     0.163 HD
ATOM     32  O   UNL A   1      34.916  32.421  30.726  1.00  0.00    -0.269 OA
BRANCH  30  33
ATOM     33  C   UNL A   1      36.484  31.000  29.706  1.00  0.00     0.039 A 
ATOM     34  C   UNL A   1      36.486  29.607  29.679  1.00  0.00     0.014 A 
ATOM     35  C   UNL A   1      37.693  31.628  29.888  1.00  0.00     0.014 A 
ATOM     36  C   UNL A   1      37.710  28.944  29.865  1.00  0.00     0.010 A 
ATOM     37  C   UNL A   1      38.851  31.010  29.558  1.00  0.00     0.010 A 
ATOM     38  C   UNL A   1      38.907  29.678  29.845  1.00  0.00    -0.014 A 
BRANCH  38  39
ATOM     39  C   UNL A   1      40.236  29.103  29.801  1.00  0.00     0.031 A 
ATOM     40  C   UNL A   1      40.779  28.914  31.156  1.00  0.00     0.074 A 
ATOM     41  C   UNL A   1      40.813  28.561  28.702  1.00  0.00     0.049 A 
ATOM     42  N   UNL A   1      41.523  29.757  31.787  1.00  0.00    -0.248 NA
ATOM     43  C   UNL A   1      40.217  27.856  32.013  1.00  0.00     0.031 C 
ATOM     44  C   UNL A   1      40.264  28.352  27.357  1.00  0.00     0.029 A 
ATOM     45  N   UNL A   1      42.059  28.021  28.593  1.00  0.00    -0.354 N 
ATOM     46  C   UNL A   1      41.793  29.148  32.999  1.00  0.00     0.074 A 
ATOM     47  C   UNL A   1      40.735  28.196  33.196  1.00  0.00     0.031 C 
ATOM     48  C   UNL A   1      41.099  27.556  26.642  1.00  0.00     0.029 A 
ATOM     49  C   UNL A   1      42.299  27.305  27.420  1.00  0.00     0.049 A 
ATOM     50  H   UNL A   1      42.742  28.127  29.295  1.00  0.00     0.167 HD
ATOM     51  C   UNL A   1      43.045  29.224  33.529  1.00  0.00     0.037 A 
ATOM     52  C   UNL A   1      43.402  26.548  27.153  1.00  0.00     0.037 A 
ATOM     53  C   UNL A   1      43.817  30.255  32.856  1.00  0.00     0.049 A 
ATOM     54  C   UNL A   1      44.488  27.055  28.041  1.00  0.00     0.074 A 
ATOM     55  C   UNL A   1      43.594  31.589  32.558  1.00  0.00     0.029 A 
ATOM     56  N   UNL A   1      44.807  29.847  31.990  1.00  0.00    -0.354 N 
ATOM     57  N   UNL A   1      45.013  28.247  27.928  1.00  0.00    -0.248 NA
ATOM     58  C   UNL A   1      44.607  26.440  29.355  1.00  0.00     0.031 C 
ATOM     59  C   UNL A   1      44.069  31.753  31.223  1.00  0.00     0.029 A 
ATOM     60  C   UNL A   1      44.659  30.554  30.823  1.00  0.00     0.049 A 
ATOM     61  H   UNL A   1      45.498  29.171  32.175  1.00  0.00     0.167 HD
ATOM     62  C   UNL A   1      45.109  28.710  29.232  1.00  0.00     0.074 A 
ATOM     63  C   UNL A   1      44.893  27.530  30.073  1.00  0.00     0.031 C 
ATOM     64  C   UNL A   1      45.039  30.042  29.526  1.00  0.00     0.037 A 
BRANCH  51  65
ATOM     65  C   UNL A   1      43.699  28.118  34.329  1.00  0.00     0.058 A 
ATOM     66  C   UNL A   1      44.316  28.456  35.551  1.00  0.00     0.135 A 
ATOM     67  C   UNL A   1      43.976  26.815  33.854  1.00  0.00     0.135 A 
ATOM     68  F   UNL A   1      44.127  29.666  36.102  1.00  0.00    -0.206 F 
ATOM     69  C   UNL A   1      45.202  27.602  36.203  1.00  0.00     0.059 A 
ATOM     70  C   UNL A   1      44.812  25.927  34.519  1.00  0.00     0.059 A 
ATOM     71  F   UNL A   1      43.529  26.349  32.686  1.00  0.00    -0.206 F 
ATOM     72  C   UNL A   1      45.450  26.342  35.673  1.00  0.00     0.060 A 
BRANCH  72  73
ATOM     73  S   UNL A   1      46.627  25.256  36.489  1.00  0.00     0.124 S 
ATOM     74  O   UNL A   1      47.851  26.042  36.406  1.00  0.00    -0.237 OA
ATOM     75  O   UNL A   1      46.035  25.123  37.816  1.00  0.00    -0.237 OA
ATOM     76  O   UNL A   1      46.591  24.048  35.668  1.00  0.00    -0.744 OA
ENDBRANCH  72  73
ENDBRANCH  51  65
BRANCH  52  77
ATOM     77  C   UNL A   1      43.469  25.193  26.524  1.00  0.00     0.058 A 
ATOM     78  C   UNL A   1      44.244  24.965  25.366  1.00  0.00     0.135 A 
ATOM     79  C   UNL A   1      43.017  24.037  27.189  1.00  0.00     0.135 A 
ATOM     80  F   UNL A   1      44.729  26.000  24.662  1.00  0.00    -0.206 F 
ATOM     81  C   UNL A   1      44.585  23.678  24.924  1.00  0.00     0.059 A 
ATOM     82  C   UNL A   1      43.336  22.745  26.763  1.00  0.00     0.059 A 
ATOM     83  F   UNL A   1      42.311  24.120  28.326  1.00  0.00    -0.206 F 
ATOM     84  C   UNL A   1      44.134  22.571  25.638  1.00  0.00     0.060 A 
BRANCH  84  85
ATOM     85  S   UNL A   1      44.591  20.906  25.099  1.00  0.00     0.124 S 
ATOM     86  O   UNL A   1      43.534  20.096  25.694  1.00  0.00    -0.237 OA
ATOM     87  O   UNL A   1      44.559  21.029  23.646  1.00  0.00    -0.237 OA
ATOM     88  O   UNL A   1      45.920  20.715  25.678  1.00  0.00    -0.744 OA
ENDBRANCH  84  85
ENDBRANCH  52  77
BRANCH  64  89
ATOM     89  C   UNL A   1      45.175  31.056  28.416  1.00  0.00     0.058 A 
ATOM     90  C   UNL A   1      44.143  31.459  27.548  1.00  0.00     0.135 A 
ATOM     91  C   UNL A   1      46.377  31.779  28.355  1.00  0.00     0.135 A 
ATOM     92  F   UNL A   1      42.929  30.892  27.605  1.00  0.00    -0.206 F 
ATOM     93  C   UNL A   1      44.316  32.512  26.642  1.00  0.00     0.059 A 
ATOM     94  C   UNL A   1      46.557  32.851  27.488  1.00  0.00     0.059 A 
ATOM     95  F   UNL A   1      47.384  31.481  29.193  1.00  0.00    -0.206 F 
ATOM     96  C   UNL A   1      45.526  33.206  26.624  1.00  0.00     0.060 A 
BRANCH  96  97
ATOM     97  S   UNL A   1      45.732  34.615  25.512  1.00  0.00     0.124 S 
ATOM     98  O   UNL A   1      47.174  34.619  25.285  1.00  0.00    -0.237 OA
ATOM     99  O   UNL A   1      44.910  34.240  24.366  1.00  0.00    -0.237 OA
ATOM    100  O   UNL A   1      45.223  35.743  26.289  1.00  0.00    -0.744 OA
ENDBRANCH  96  97
ENDBRANCH  64  89
ENDBRANCH  38  39
ENDBRANCH  30  33
ENDBRANCH  28  29
ENDBRANCH   1  28
TORSDOF 15
ENDMDL
