MODEL 1
REMARK VINA RESULT:     -11.9      0.000      0.000
REMARK SMILES COc1c(Cl)cc(C[NH2+][C@@H](Cc2c[nH]c3ccccc23)C(=O)NCCCNC(=O)c2ccc(-c3c4nc(c(-c5c(F)cc(S(=O)(=O)[O-])cc5F)c5ccc([nH]5)c(-c5c(F)cc(S(=O)(=O)[O-])cc5F)c5nc(c(-c6c(F)cc(S(=O)(=O)[O-])cc6F)c6ccc3[nH]6)C=C5)C=C4)cc2)cc1Cl
REMARK SMILES IDX 24 1 23 2 21 3 22 4 10 6 9 7 8 10 7 11 3 12 4 13 97 14 5 15
REMARK SMILES IDX 6 16 96 17 98 18 2 19 1 20 11 21 12 22 13 23 20 24 14 25
REMARK SMILES IDX 15 26 19 27 16 29 18 30 17 31 25 32 26 33 27 34 28 35 29 37
REMARK SMILES IDX 30 38 31 39 95 40 32 41 94 42 33 43 34 44 35 45 88 46 36 47
REMARK SMILES IDX 93 48 87 49 89 50 37 51 92 52 86 53 85 54 38 56 72 57 51 58
REMARK SMILES IDX 71 59 52 60 55 61 70 62 90 63 53 64 54 65 69 67 91 68 56 69
REMARK SMILES IDX 39 70 40 71 49 72 41 73 42 74 48 75 50 76 43 77 44 78 45 79
REMARK SMILES IDX 46 80 47 81 73 82 74 83 83 84 75 85 76 86 82 87 84 88 77 89
REMARK SMILES IDX 78 90 79 91 80 92 81 93 57 94 58 95 67 96 59 97 60 98 66 99
REMARK SMILES IDX 68 100 61 101 62 102 63 103 64 104 65 105
REMARK H PARENT 23 5 9 8 9 9 14 28 27 36 89 55 55 66
REMARK Flexibility Score: inf
ROOT
ATOM      1  C   UNL A   1      31.650  28.033  26.909  1.00  0.00     0.118 C 
ENDROOT
BRANCH   1   2
ATOM      2  N   UNL A   1      30.749  26.914  27.045  1.00  0.00    -0.351 N 
ATOM      3  C   UNL A   1      30.344  26.034  26.081  1.00  0.00     0.278 C 
ATOM      4  O   UNL A   1      29.828  24.977  26.468  1.00  0.00    -0.268 OA
ATOM      5  H   UNL A   1      30.380  26.766  27.945  1.00  0.00     0.163 HD
BRANCH   3   6
ATOM      6  C   UNL A   1      30.503  26.307  24.556  1.00  0.00     0.277 C 
BRANCH   6   7
ATOM      7  N   UNL A   1      30.893  25.061  23.852  1.00  0.00    -0.332 N 
ATOM      8  H   UNL A   1      30.946  24.305  24.535  1.00  0.00     0.347 HD
ATOM      9  H   UNL A   1      30.187  24.885  23.137  1.00  0.00     0.347 HD
BRANCH   7  10
ATOM     10  C   UNL A   1      32.178  25.161  23.173  1.00  0.00     0.298 C 
BRANCH  10  11
ATOM     11  C   UNL A   1      33.202  24.302  23.880  1.00  0.00     0.009 A 
ATOM     12  C   UNL A   1      35.085  22.613  25.133  1.00  0.00     0.156 A 
ATOM     13  C   UNL A   1      35.361  23.175  23.882  1.00  0.00     0.085 A 
ATOM     14  C   UNL A   1      33.849  22.872  25.737  1.00  0.00     0.085 A 
ATOM     15  Cl  UNL A   1      36.812  22.829  23.011  1.00  0.00    -0.080 Cl
ATOM     16  C   UNL A   1      34.435  24.027  23.273  1.00  0.00     0.034 A 
ATOM     17  C   UNL A   1      32.913  23.708  25.115  1.00  0.00     0.034 A 
ATOM     18  Cl  UNL A   1      33.432  22.184  27.267  1.00  0.00    -0.080 Cl
BRANCH  12  19
ATOM     19  O   UNL A   1      35.956  21.743  25.736  1.00  0.00    -0.494 OA
ATOM     20  C   UNL A   1      35.825  20.420  25.216  1.00  0.00     0.278 C 
ENDBRANCH  12  19
ENDBRANCH  10  11
ENDBRANCH   7  10
ENDBRANCH   6   7
BRANCH   6  21
ATOM     21  C   UNL A   1      29.375  27.194  23.955  1.00  0.00     0.113 C 
BRANCH  21  22
ATOM     22  C   UNL A   1      29.772  28.426  23.187  1.00  0.00    -0.016 A 
ATOM     23  C   UNL A   1      30.895  28.598  22.397  1.00  0.00     0.087 A 
ATOM     24  C   UNL A   1      29.035  29.659  23.106  1.00  0.00     0.003 A 
ATOM     25  N   UNL A   1      30.782  29.790  21.728  1.00  0.00    -0.361 N 
ATOM     26  C   UNL A   1      29.649  30.451  22.133  1.00  0.00     0.046 A 
ATOM     27  C   UNL A   1      27.861  30.148  23.718  1.00  0.00     0.010 A 
ATOM     28  H   UNL A   1      31.420  30.122  21.055  1.00  0.00     0.166 HD
ATOM     29  C   UNL A   1      29.117  31.670  21.697  1.00  0.00     0.026 A 
ATOM     30  C   UNL A   1      27.340  31.386  23.324  1.00  0.00     0.001 A 
ATOM     31  C   UNL A   1      27.950  32.125  22.313  1.00  0.00     0.002 A 
ENDBRANCH  21  22
ENDBRANCH   6  21
ENDBRANCH   3   6
ENDBRANCH   1   2
BRANCH   1  32
ATOM     32  C   UNL A   1      33.051  27.696  26.449  1.00  0.00     0.042 C 
BRANCH  32  33
ATOM     33  C   UNL A   1      33.829  28.900  25.949  1.00  0.00     0.118 C 
BRANCH  33  34
ATOM     34  N   UNL A   1      33.696  30.077  26.807  1.00  0.00    -0.352 N 
ATOM     35  C   UNL A   1      34.509  30.604  27.784  1.00  0.00     0.251 C 
ATOM     36  H   UNL A   1      32.867  30.588  26.657  1.00  0.00     0.163 HD
ATOM     37  O   UNL A   1      34.097  31.540  28.462  1.00  0.00    -0.269 OA
BRANCH  35  38
ATOM     38  C   UNL A   1      35.849  30.033  28.055  1.00  0.00     0.039 A 
ATOM     39  C   UNL A   1      36.839  30.136  27.072  1.00  0.00     0.014 A 
ATOM     40  C   UNL A   1      36.143  29.404  29.262  1.00  0.00     0.014 A 
ATOM     41  C   UNL A   1      38.139  29.702  27.344  1.00  0.00     0.010 A 
ATOM     42  C   UNL A   1      37.460  29.092  29.578  1.00  0.00     0.010 A 
ATOM     43  C   UNL A   1      38.474  29.231  28.623  1.00  0.00    -0.014 A 
BRANCH  43  44
ATOM     44  C   UNL A   1      39.869  28.877  28.991  1.00  0.00     0.031 A 
ATOM     45  C   UNL A   1      40.754  29.897  29.659  1.00  0.00     0.074 A 
ATOM     46  C   UNL A   1      40.370  27.679  28.633  1.00  0.00     0.049 A 
ATOM     47  N   UNL A   1      42.030  29.827  29.942  1.00  0.00    -0.248 NA
ATOM     48  C   UNL A   1      40.133  31.185  30.013  1.00  0.00     0.031 C 
ATOM     49  C   UNL A   1      39.639  26.633  27.913  1.00  0.00     0.029 A 
ATOM     50  N   UNL A   1      41.621  27.143  28.809  1.00  0.00    -0.354 N 
ATOM     51  C   UNL A   1      42.369  31.069  30.466  1.00  0.00     0.074 A 
ATOM     52  C   UNL A   1      41.179  31.891  30.410  1.00  0.00     0.031 C 
ATOM     53  C   UNL A   1      40.443  25.573  27.737  1.00  0.00     0.029 A 
ATOM     54  C   UNL A   1      41.758  25.875  28.292  1.00  0.00     0.049 A 
ATOM     55  H   UNL A   1      42.352  27.620  29.263  1.00  0.00     0.167 HD
ATOM     56  C   UNL A   1      43.555  31.481  30.975  1.00  0.00     0.037 A 
ATOM     57  C   UNL A   1      42.823  25.051  28.263  1.00  0.00     0.037 A 
ATOM     58  C   UNL A   1      44.717  30.639  31.078  1.00  0.00     0.049 A 
ATOM     59  C   UNL A   1      44.113  25.504  28.885  1.00  0.00     0.074 A 
ATOM     60  C   UNL A   1      45.941  30.926  31.656  1.00  0.00     0.029 A 
ATOM     61  N   UNL A   1      44.796  29.340  30.597  1.00  0.00    -0.354 N 
ATOM     62  N   UNL A   1      44.398  26.658  29.441  1.00  0.00    -0.248 NA
ATOM     63  C   UNL A   1      45.225  24.545  28.885  1.00  0.00     0.031 C 
ATOM     64  C   UNL A   1      46.771  29.810  31.497  1.00  0.00     0.029 A 
ATOM     65  C   UNL A   1      46.051  28.815  30.854  1.00  0.00     0.049 A 
ATOM     66  H   UNL A   1      44.067  28.862  30.139  1.00  0.00     0.167 HD
ATOM     67  C   UNL A   1      45.714  26.557  29.873  1.00  0.00     0.074 A 
ATOM     68  C   UNL A   1      46.166  25.225  29.525  1.00  0.00     0.031 C 
ATOM     69  C   UNL A   1      46.481  27.484  30.500  1.00  0.00     0.037 A 
BRANCH  56  70
ATOM     70  C   UNL A   1      43.641  32.901  31.464  1.00  0.00     0.058 A 
ATOM     71  C   UNL A   1      43.951  33.962  30.599  1.00  0.00     0.135 A 
ATOM     72  C   UNL A   1      43.417  33.205  32.817  1.00  0.00     0.135 A 
ATOM     73  F   UNL A   1      44.190  33.726  29.298  1.00  0.00    -0.206 F 
ATOM     74  C   UNL A   1      44.089  35.265  31.064  1.00  0.00     0.059 A 
ATOM     75  C   UNL A   1      43.519  34.508  33.299  1.00  0.00     0.059 A 
ATOM     76  F   UNL A   1      43.113  32.231  33.689  1.00  0.00    -0.206 F 
ATOM     77  C   UNL A   1      43.878  35.527  32.418  1.00  0.00     0.060 A 
BRANCH  77  78
ATOM     78  S   UNL A   1      44.088  37.218  33.014  1.00  0.00     0.124 S 
ATOM     79  O   UNL A   1      42.933  37.359  33.897  1.00  0.00    -0.237 OA
ATOM     80  O   UNL A   1      45.387  37.160  33.678  1.00  0.00    -0.237 OA
ATOM     81  O   UNL A   1      44.047  38.015  31.793  1.00  0.00    -0.744 OA
ENDBRANCH  77  78
ENDBRANCH  56  70
BRANCH  57  82
ATOM     82  C   UNL A   1      42.688  23.699  27.661  1.00  0.00     0.058 A 
ATOM     83  C   UNL A   1      42.911  23.500  26.291  1.00  0.00     0.135 A 
ATOM     84  C   UNL A   1      42.392  22.574  28.447  1.00  0.00     0.135 A 
ATOM     85  F   UNL A   1      43.193  24.546  25.499  1.00  0.00    -0.206 F 
ATOM     86  C   UNL A   1      42.842  22.234  25.718  1.00  0.00     0.059 A 
ATOM     87  C   UNL A   1      42.339  21.295  27.901  1.00  0.00     0.059 A 
ATOM     88  F   UNL A   1      42.188  22.711  29.766  1.00  0.00    -0.206 F 
ATOM     89  C   UNL A   1      42.563  21.136  26.533  1.00  0.00     0.060 A 
BRANCH  89  90
ATOM     90  S   UNL A   1      42.558  19.488  25.791  1.00  0.00     0.124 S 
ATOM     91  O   UNL A   1      43.521  19.651  24.708  1.00  0.00    -0.237 OA
ATOM     92  O   UNL A   1      42.988  18.648  26.905  1.00  0.00    -0.237 OA
ATOM     93  O   UNL A   1      41.168  19.309  25.381  1.00  0.00    -0.744 OA
ENDBRANCH  89  90
ENDBRANCH  57  82
BRANCH  69  94
ATOM     94  C   UNL A   1      47.879  27.083  30.872  1.00  0.00     0.058 A 
ATOM     95  C   UNL A   1      48.146  26.341  32.033  1.00  0.00     0.135 A 
ATOM     96  C   UNL A   1      48.956  27.395  30.028  1.00  0.00     0.135 A 
ATOM     97  F   UNL A   1      47.150  26.023  32.875  1.00  0.00    -0.206 F 
ATOM     98  C   UNL A   1      49.437  25.938  32.355  1.00  0.00     0.059 A 
ATOM     99  C   UNL A   1      50.253  26.983  30.318  1.00  0.00     0.059 A 
ATOM    100  F   UNL A   1      48.751  28.095  28.901  1.00  0.00    -0.206 F 
ATOM    101  C   UNL A   1      50.485  26.264  31.490  1.00  0.00     0.060 A 
BRANCH 101 102
ATOM    102  S   UNL A   1      52.151  25.704  31.897  1.00  0.00     0.124 S 
ATOM    103  O   UNL A   1      52.504  26.603  32.989  1.00  0.00    -0.237 OA
ATOM    104  O   UNL A   1      51.933  24.309  32.270  1.00  0.00    -0.237 OA
ATOM    105  O   UNL A   1      52.890  25.904  30.654  1.00  0.00    -0.744 OA
ENDBRANCH 101 102
ENDBRANCH  69  94
ENDBRANCH  43  44
ENDBRANCH  35  38
ENDBRANCH  33  34
ENDBRANCH  32  33
ENDBRANCH   1  32
TORSDOF 19
ENDMDL
MODEL 2
REMARK VINA RESULT:     -11.9      2.283      2.884
REMARK SMILES COc1c(Cl)cc(C[NH2+][C@@H](Cc2c[nH]c3ccccc23)C(=O)NCCCNC(=O)c2ccc(-c3c4nc(c(-c5c(F)cc(S(=O)(=O)[O-])cc5F)c5ccc([nH]5)c(-c5c(F)cc(S(=O)(=O)[O-])cc5F)c5nc(c(-c6c(F)cc(S(=O)(=O)[O-])cc6F)c6ccc3[nH]6)C=C5)C=C4)cc2)cc1Cl
REMARK SMILES IDX 24 1 23 2 21 3 22 4 10 6 9 7 8 10 7 11 3 12 4 13 97 14 5 15
REMARK SMILES IDX 6 16 96 17 98 18 2 19 1 20 11 21 12 22 13 23 20 24 14 25
REMARK SMILES IDX 15 26 19 27 16 29 18 30 17 31 25 32 26 33 27 34 28 35 29 37
REMARK SMILES IDX 30 38 31 39 95 40 32 41 94 42 33 43 34 44 35 45 88 46 36 47
REMARK SMILES IDX 93 48 87 49 89 50 37 51 92 52 86 53 85 54 38 56 72 57 51 58
REMARK SMILES IDX 71 59 52 60 55 61 70 62 90 63 53 64 54 65 69 67 91 68 56 69
REMARK SMILES IDX 39 70 40 71 49 72 41 73 42 74 48 75 50 76 43 77 44 78 45 79
REMARK SMILES IDX 46 80 47 81 73 82 74 83 83 84 75 85 76 86 82 87 84 88 77 89
REMARK SMILES IDX 78 90 79 91 80 92 81 93 57 94 58 95 67 96 59 97 60 98 66 99
REMARK SMILES IDX 68 100 61 101 62 102 63 103 64 104 65 105
REMARK H PARENT 23 5 9 8 9 9 14 28 27 36 89 55 55 66
REMARK Flexibility Score: inf
ROOT
ATOM      1  C   UNL A   1      31.912  27.383  26.290  1.00  0.00     0.118 C 
ENDROOT
BRANCH   1   2
ATOM      2  N   UNL A   1      31.029  26.354  26.784  1.00  0.00    -0.351 N 
ATOM      3  C   UNL A   1      30.527  25.276  26.110  1.00  0.00     0.278 C 
ATOM      4  O   UNL A   1      30.053  24.359  26.793  1.00  0.00    -0.268 OA
ATOM      5  H   UNL A   1      30.755  26.439  27.725  1.00  0.00     0.163 HD
BRANCH   3   6
ATOM      6  C   UNL A   1      30.528  25.167  24.556  1.00  0.00     0.277 C 
BRANCH   6   7
ATOM      7  N   UNL A   1      30.627  23.745  24.145  1.00  0.00    -0.332 N 
ATOM      8  H   UNL A   1      30.842  23.183  24.969  1.00  0.00     0.347 HD
ATOM      9  H   UNL A   1      29.733  23.489  23.727  1.00  0.00     0.347 HD
BRANCH   7  10
ATOM     10  C   UNL A   1      31.656  23.506  23.142  1.00  0.00     0.298 C 
BRANCH  10  11
ATOM     11  C   UNL A   1      32.861  22.857  23.785  1.00  0.00     0.009 A 
ATOM     12  C   UNL A   1      35.048  21.625  25.077  1.00  0.00     0.156 A 
ATOM     13  C   UNL A   1      34.025  20.849  24.522  1.00  0.00     0.085 A 
ATOM     14  C   UNL A   1      34.954  23.021  25.012  1.00  0.00     0.085 A 
ATOM     15  Cl  UNL A   1      34.001  19.126  24.644  1.00  0.00    -0.080 Cl
ATOM     16  C   UNL A   1      32.953  21.461  23.866  1.00  0.00     0.034 A 
ATOM     17  C   UNL A   1      33.868  23.633  24.373  1.00  0.00     0.034 A 
ATOM     18  Cl  UNL A   1      36.167  24.039  25.705  1.00  0.00    -0.080 Cl
BRANCH  12  19
ATOM     19  O   UNL A   1      36.091  21.056  25.760  1.00  0.00    -0.494 OA
ATOM     20  C   UNL A   1      37.192  20.770  24.897  1.00  0.00     0.278 C 
ENDBRANCH  12  19
ENDBRANCH  10  11
ENDBRANCH   7  10
ENDBRANCH   6   7
BRANCH   6  21
ATOM     21  C   UNL A   1      29.482  26.084  23.860  1.00  0.00     0.113 C 
BRANCH  21  22
ATOM     22  C   UNL A   1      29.969  27.345  23.199  1.00  0.00    -0.016 A 
ATOM     23  C   UNL A   1      31.233  27.593  22.691  1.00  0.00     0.087 A 
ATOM     24  C   UNL A   1      29.198  28.531  22.942  1.00  0.00     0.003 A 
ATOM     25  N   UNL A   1      31.205  28.782  22.008  1.00  0.00    -0.361 N 
ATOM     26  C   UNL A   1      29.970  29.368  22.134  1.00  0.00     0.046 A 
ATOM     27  C   UNL A   1      27.886  28.942  23.261  1.00  0.00     0.010 A 
ATOM     28  H   UNL A   1      31.961  29.159  21.501  1.00  0.00     0.166 HD
ATOM     29  C   UNL A   1      29.481  30.557  21.580  1.00  0.00     0.026 A 
ATOM     30  C   UNL A   1      27.395  30.149  22.750  1.00  0.00     0.001 A 
ATOM     31  C   UNL A   1      28.177  30.933  21.906  1.00  0.00     0.002 A 
ENDBRANCH  21  22
ENDBRANCH   6  21
ENDBRANCH   3   6
ENDBRANCH   1   2
BRANCH   1  32
ATOM     32  C   UNL A   1      33.263  26.911  25.801  1.00  0.00     0.042 C 
BRANCH  32  33
ATOM     33  C   UNL A   1      34.391  27.878  26.110  1.00  0.00     0.118 C 
BRANCH  33  34
ATOM     34  N   UNL A   1      33.935  29.248  26.345  1.00  0.00    -0.352 N 
ATOM     35  C   UNL A   1      34.414  30.254  27.154  1.00  0.00     0.251 C 
ATOM     36  H   UNL A   1      33.135  29.497  25.828  1.00  0.00     0.163 HD
ATOM     37  O   UNL A   1      33.759  31.284  27.274  1.00  0.00    -0.269 OA
BRANCH  35  38
ATOM     38  C   UNL A   1      35.678  30.094  27.908  1.00  0.00     0.039 A 
ATOM     39  C   UNL A   1      35.622  29.652  29.235  1.00  0.00     0.014 A 
ATOM     40  C   UNL A   1      36.914  30.369  27.328  1.00  0.00     0.014 A 
ATOM     41  C   UNL A   1      36.804  29.390  29.933  1.00  0.00     0.010 A 
ATOM     42  C   UNL A   1      38.084  29.987  27.975  1.00  0.00     0.010 A 
ATOM     43  C   UNL A   1      38.045  29.498  29.287  1.00  0.00    -0.014 A 
BRANCH  43  44
ATOM     44  C   UNL A   1      39.316  29.111  29.952  1.00  0.00     0.031 A 
ATOM     45  C   UNL A   1      39.810  29.889  31.144  1.00  0.00     0.074 A 
ATOM     46  C   UNL A   1      40.074  28.130  29.425  1.00  0.00     0.049 A 
ATOM     47  N   UNL A   1      40.949  29.792  31.781  1.00  0.00    -0.248 NA
ATOM     48  C   UNL A   1      38.927  30.950  31.657  1.00  0.00     0.031 C 
ATOM     49  C   UNL A   1      39.743  27.352  28.227  1.00  0.00     0.029 A 
ATOM     50  N   UNL A   1      41.290  27.629  29.816  1.00  0.00    -0.354 N 
ATOM     51  C   UNL A   1      40.934  30.800  32.738  1.00  0.00     0.074 A 
ATOM     52  C   UNL A   1      39.698  31.532  32.561  1.00  0.00     0.031 C 
ATOM     53  C   UNL A   1      40.715  26.455  28.001  1.00  0.00     0.029 A 
ATOM     54  C   UNL A   1      41.757  26.618  29.008  1.00  0.00     0.049 A 
ATOM     55  H   UNL A   1      41.781  27.961  30.601  1.00  0.00     0.167 HD
ATOM     56  C   UNL A   1      41.851  31.075  33.696  1.00  0.00     0.037 A 
ATOM     57  C   UNL A   1      42.899  25.906  29.069  1.00  0.00     0.037 A 
ATOM     58  C   UNL A   1      43.049  30.307  33.901  1.00  0.00     0.049 A 
ATOM     59  C   UNL A   1      43.876  26.187  30.175  1.00  0.00     0.074 A 
ATOM     60  C   UNL A   1      44.001  30.444  34.895  1.00  0.00     0.029 A 
ATOM     61  N   UNL A   1      43.457  29.252  33.098  1.00  0.00    -0.354 N 
ATOM     62  N   UNL A   1      43.814  27.099  31.116  1.00  0.00    -0.248 NA
ATOM     63  C   UNL A   1      45.075  25.341  30.234  1.00  0.00     0.031 C 
ATOM     64  C   UNL A   1      45.002  29.489  34.676  1.00  0.00     0.029 A 
ATOM     65  C   UNL A   1      44.653  28.734  33.567  1.00  0.00     0.049 A 
ATOM     66  H   UNL A   1      42.969  28.919  32.310  1.00  0.00     0.167 HD
ATOM     67  C   UNL A   1      44.954  26.925  31.891  1.00  0.00     0.074 A 
ATOM     68  C   UNL A   1      45.682  25.812  31.315  1.00  0.00     0.031 C 
ATOM     69  C   UNL A   1      45.362  27.623  32.980  1.00  0.00     0.037 A 
BRANCH  56  70
ATOM     70  C   UNL A   1      41.578  32.250  34.596  1.00  0.00     0.058 A 
ATOM     71  C   UNL A   1      40.831  32.117  35.778  1.00  0.00     0.135 A 
ATOM     72  C   UNL A   1      42.061  33.528  34.269  1.00  0.00     0.135 A 
ATOM     73  F   UNL A   1      40.331  30.921  36.131  1.00  0.00    -0.206 F 
ATOM     74  C   UNL A   1      40.529  33.215  36.576  1.00  0.00     0.059 A 
ATOM     75  C   UNL A   1      41.797  34.635  35.070  1.00  0.00     0.059 A 
ATOM     76  F   UNL A   1      42.783  33.713  33.153  1.00  0.00    -0.206 F 
ATOM     77  C   UNL A   1      41.010  34.472  36.209  1.00  0.00     0.060 A 
BRANCH  77  78
ATOM     78  S   UNL A   1      40.587  35.893  37.239  1.00  0.00     0.124 S 
ATOM     79  O   UNL A   1      41.907  36.452  37.518  1.00  0.00    -0.237 OA
ATOM     80  O   UNL A   1      39.741  36.685  36.351  1.00  0.00    -0.237 OA
ATOM     81  O   UNL A   1      39.904  35.293  38.380  1.00  0.00    -0.744 OA
ENDBRANCH  77  78
ENDBRANCH  56  70
BRANCH  57  82
ATOM     82  C   UNL A   1      43.147  24.831  28.073  1.00  0.00     0.058 A 
ATOM     83  C   UNL A   1      43.744  25.122  26.838  1.00  0.00     0.135 A 
ATOM     84  C   UNL A   1      42.847  23.489  28.356  1.00  0.00     0.135 A 
ATOM     85  F   UNL A   1      44.045  26.391  26.523  1.00  0.00    -0.206 F 
ATOM     86  C   UNL A   1      44.033  24.122  25.915  1.00  0.00     0.059 A 
ATOM     87  C   UNL A   1      43.146  22.469  27.457  1.00  0.00     0.059 A 
ATOM     88  F   UNL A   1      42.291  23.158  29.532  1.00  0.00    -0.206 F 
ATOM     89  C   UNL A   1      43.738  22.797  26.237  1.00  0.00     0.060 A 
BRANCH  89  90
ATOM     90  S   UNL A   1      44.194  21.501  25.064  1.00  0.00     0.124 S 
ATOM     91  O   UNL A   1      45.538  21.159  25.511  1.00  0.00    -0.237 OA
ATOM     92  O   UNL A   1      43.166  20.492  25.305  1.00  0.00    -0.237 OA
ATOM     93  O   UNL A   1      44.109  22.174  23.771  1.00  0.00    -0.744 OA
ENDBRANCH  89  90
ENDBRANCH  57  82
BRANCH  69  94
ATOM     94  C   UNL A   1      46.641  27.191  33.635  1.00  0.00     0.058 A 
ATOM     95  C   UNL A   1      46.659  26.204  34.633  1.00  0.00     0.135 A 
ATOM     96  C   UNL A   1      47.870  27.728  33.219  1.00  0.00     0.135 A 
ATOM     97  F   UNL A   1      45.510  25.664  35.068  1.00  0.00    -0.206 F 
ATOM     98  C   UNL A   1      47.849  25.778  35.210  1.00  0.00     0.059 A 
ATOM     99  C   UNL A   1      49.075  27.301  33.767  1.00  0.00     0.059 A 
ATOM    100  F   UNL A   1      47.907  28.668  32.261  1.00  0.00    -0.206 F 
ATOM    101  C   UNL A   1      49.054  26.333  34.770  1.00  0.00     0.060 A 
BRANCH 101 102
ATOM    102  S   UNL A   1      50.597  25.746  35.499  1.00  0.00     0.124 S 
ATOM    103  O   UNL A   1      50.933  26.845  36.397  1.00  0.00    -0.237 OA
ATOM    104  O   UNL A   1      50.187  24.502  36.145  1.00  0.00    -0.237 OA
ATOM    105  O   UNL A   1      51.477  25.584  34.346  1.00  0.00    -0.744 OA
ENDBRANCH 101 102
ENDBRANCH  69  94
ENDBRANCH  43  44
ENDBRANCH  35  38
ENDBRANCH  33  34
ENDBRANCH  32  33
ENDBRANCH   1  32
TORSDOF 19
ENDMDL
MODEL 3
REMARK VINA RESULT:     -11.8      0.872      8.059
REMARK SMILES COc1c(Cl)cc(C[NH2+][C@@H](Cc2c[nH]c3ccccc23)C(=O)NCCCNC(=O)c2ccc(-c3c4nc(c(-c5c(F)cc(S(=O)(=O)[O-])cc5F)c5ccc([nH]5)c(-c5c(F)cc(S(=O)(=O)[O-])cc5F)c5nc(c(-c6c(F)cc(S(=O)(=O)[O-])cc6F)c6ccc3[nH]6)C=C5)C=C4)cc2)cc1Cl
REMARK SMILES IDX 24 1 23 2 21 3 22 4 10 6 9 7 8 10 7 11 3 12 4 13 97 14 5 15
REMARK SMILES IDX 6 16 96 17 98 18 2 19 1 20 11 21 12 22 13 23 20 24 14 25
REMARK SMILES IDX 15 26 19 27 16 29 18 30 17 31 25 32 26 33 27 34 28 35 29 37
REMARK SMILES IDX 30 38 31 39 95 40 32 41 94 42 33 43 34 44 35 45 88 46 36 47
REMARK SMILES IDX 93 48 87 49 89 50 37 51 92 52 86 53 85 54 38 56 72 57 51 58
REMARK SMILES IDX 71 59 52 60 55 61 70 62 90 63 53 64 54 65 69 67 91 68 56 69
REMARK SMILES IDX 39 70 40 71 49 72 41 73 42 74 48 75 50 76 43 77 44 78 45 79
REMARK SMILES IDX 46 80 47 81 73 82 74 83 83 84 75 85 76 86 82 87 84 88 77 89
REMARK SMILES IDX 78 90 79 91 80 92 81 93 57 94 58 95 67 96 59 97 60 98 66 99
REMARK SMILES IDX 68 100 61 101 62 102 63 103 64 104 65 105
REMARK H PARENT 23 5 9 8 9 9 14 28 27 36 89 55 55 66
REMARK Flexibility Score: inf
ROOT
ATOM      1  C   UNL A   1      31.427  28.201  26.361  1.00  0.00     0.118 C 
ENDROOT
BRANCH   1   2
ATOM      2  N   UNL A   1      30.719  26.998  26.731  1.00  0.00    -0.351 N 
ATOM      3  C   UNL A   1      30.333  25.964  25.924  1.00  0.00     0.278 C 
ATOM      4  O   UNL A   1      30.024  24.903  26.483  1.00  0.00    -0.268 OA
ATOM      5  H   UNL A   1      30.487  26.912  27.682  1.00  0.00     0.163 HD
BRANCH   3   6
ATOM      6  C   UNL A   1      30.266  26.072  24.372  1.00  0.00     0.277 C 
BRANCH   6   7
ATOM      7  N   UNL A   1      30.336  24.722  23.763  1.00  0.00    -0.332 N 
ATOM      8  H   UNL A   1      30.292  24.027  24.508  1.00  0.00     0.347 HD
ATOM      9  H   UNL A   1      29.551  24.642  23.116  1.00  0.00     0.347 HD
BRANCH   7  10
ATOM     10  C   UNL A   1      31.553  24.498  22.994  1.00  0.00     0.298 C 
BRANCH  10  11
ATOM     11  C   UNL A   1      32.498  23.611  23.772  1.00  0.00     0.009 A 
ATOM     12  C   UNL A   1      34.338  21.964  25.139  1.00  0.00     0.156 A 
ATOM     13  C   UNL A   1      34.518  23.350  25.108  1.00  0.00     0.085 A 
ATOM     14  C   UNL A   1      33.253  21.403  24.453  1.00  0.00     0.085 A 
ATOM     15  Cl  UNL A   1      35.881  24.124  25.834  1.00  0.00    -0.080 Cl
ATOM     16  C   UNL A   1      33.594  24.165  24.447  1.00  0.00     0.034 A 
ATOM     17  C   UNL A   1      32.341  22.220  23.773  1.00  0.00     0.034 A 
ATOM     18  Cl  UNL A   1      32.991  19.694  24.425  1.00  0.00    -0.080 Cl
BRANCH  12  19
ATOM     19  O   UNL A   1      35.247  21.135  25.745  1.00  0.00    -0.494 OA
ATOM     20  C   UNL A   1      36.366  20.873  24.899  1.00  0.00     0.278 C 
ENDBRANCH  12  19
ENDBRANCH  10  11
ENDBRANCH   7  10
ENDBRANCH   6   7
BRANCH   6  21
ATOM     21  C   UNL A   1      29.199  27.080  23.857  1.00  0.00     0.113 C 
BRANCH  21  22
ATOM     22  C   UNL A   1      29.674  28.313  23.136  1.00  0.00    -0.016 A 
ATOM     23  C   UNL A   1      30.836  28.461  22.400  1.00  0.00     0.087 A 
ATOM     24  C   UNL A   1      28.987  29.574  23.052  1.00  0.00     0.003 A 
ATOM     25  N   UNL A   1      30.797  29.670  21.756  1.00  0.00    -0.361 N 
ATOM     26  C   UNL A   1      29.671  30.364  22.126  1.00  0.00     0.046 A 
ATOM     27  C   UNL A   1      27.805  30.093  23.623  1.00  0.00     0.010 A 
ATOM     28  H   UNL A   1      31.476  29.993  21.120  1.00  0.00     0.166 HD
ATOM     29  C   UNL A   1      29.204  31.611  21.696  1.00  0.00     0.026 A 
ATOM     30  C   UNL A   1      27.347  31.357  23.236  1.00  0.00     0.001 A 
ATOM     31  C   UNL A   1      28.028  32.095  22.272  1.00  0.00     0.002 A 
ENDBRANCH  21  22
ENDBRANCH   6  21
ENDBRANCH   3   6
ENDBRANCH   1   2
BRANCH   1  32
ATOM     32  C   UNL A   1      32.836  28.003  25.850  1.00  0.00     0.042 C 
BRANCH  32  33
ATOM     33  C   UNL A   1      33.902  28.249  26.903  1.00  0.00     0.118 C 
BRANCH  33  34
ATOM     34  N   UNL A   1      33.860  29.596  27.469  1.00  0.00    -0.352 N 
ATOM     35  C   UNL A   1      34.804  30.350  28.129  1.00  0.00     0.251 C 
ATOM     36  H   UNL A   1      32.993  30.050  27.357  1.00  0.00     0.163 HD
ATOM     37  O   UNL A   1      34.470  31.418  28.632  1.00  0.00    -0.269 OA
BRANCH  35  38
ATOM     38  C   UNL A   1      36.199  29.872  28.277  1.00  0.00     0.039 A 
ATOM     39  C   UNL A   1      37.074  29.998  27.194  1.00  0.00     0.014 A 
ATOM     40  C   UNL A   1      36.653  29.306  29.466  1.00  0.00     0.014 A 
ATOM     41  C   UNL A   1      38.421  29.654  27.343  1.00  0.00     0.010 A 
ATOM     42  C   UNL A   1      38.013  29.086  29.653  1.00  0.00     0.010 A 
ATOM     43  C   UNL A   1      38.914  29.251  28.593  1.00  0.00    -0.014 A 
BRANCH  43  44
ATOM     44  C   UNL A   1      40.359  28.996  28.826  1.00  0.00     0.031 A 
ATOM     45  C   UNL A   1      40.957  27.663  28.459  1.00  0.00     0.074 A 
ATOM     46  C   UNL A   1      41.107  29.922  29.458  1.00  0.00     0.049 A 
ATOM     47  N   UNL A   1      42.158  27.202  28.698  1.00  0.00    -0.248 NA
ATOM     48  C   UNL A   1      40.073  26.704  27.777  1.00  0.00     0.031 C 
ATOM     49  C   UNL A   1      40.626  31.222  29.934  1.00  0.00     0.029 A 
ATOM     50  N   UNL A   1      42.428  29.905  29.829  1.00  0.00    -0.354 N 
ATOM     51  C   UNL A   1      42.159  25.892  28.233  1.00  0.00     0.074 A 
ATOM     52  C   UNL A   1      40.823  25.614  27.750  1.00  0.00     0.031 C 
ATOM     53  C   UNL A   1      41.643  31.887  30.504  1.00  0.00     0.029 A 
ATOM     54  C   UNL A   1      42.836  31.049  30.473  1.00  0.00     0.049 A 
ATOM     55  H   UNL A   1      43.028  29.145  29.649  1.00  0.00     0.167 HD
ATOM     56  C   UNL A   1      43.184  25.008  28.186  1.00  0.00     0.037 A 
ATOM     57  C   UNL A   1      44.036  31.384  30.986  1.00  0.00     0.037 A 
ATOM     58  C   UNL A   1      44.522  25.311  28.617  1.00  0.00     0.049 A 
ATOM     59  C   UNL A   1      45.176  30.414  30.871  1.00  0.00     0.074 A 
ATOM     60  C   UNL A   1      45.655  24.521  28.532  1.00  0.00     0.029 A 
ATOM     61  N   UNL A   1      44.909  26.505  29.209  1.00  0.00    -0.354 N 
ATOM     62  N   UNL A   1      45.178  29.203  30.363  1.00  0.00    -0.248 NA
ATOM     63  C   UNL A   1      46.479  30.852  31.389  1.00  0.00     0.031 C 
ATOM     64  C   UNL A   1      46.722  25.226  29.100  1.00  0.00     0.029 A 
ATOM     65  C   UNL A   1      46.262  26.470  29.506  1.00  0.00     0.049 A 
ATOM     66  H   UNL A   1      44.312  27.265  29.392  1.00  0.00     0.167 HD
ATOM     67  C   UNL A   1      46.483  28.742  30.485  1.00  0.00     0.074 A 
ATOM     68  C   UNL A   1      47.246  29.809  31.102  1.00  0.00     0.031 C 
ATOM     69  C   UNL A   1      47.003  27.544  30.118  1.00  0.00     0.037 A 
BRANCH  56  70
ATOM     70  C   UNL A   1      42.890  23.638  27.638  1.00  0.00     0.058 A 
ATOM     71  C   UNL A   1      42.484  22.582  28.471  1.00  0.00     0.135 A 
ATOM     72  C   UNL A   1      43.021  23.373  26.265  1.00  0.00     0.135 A 
ATOM     73  F   UNL A   1      42.358  22.775  29.794  1.00  0.00    -0.206 F 
ATOM     74  C   UNL A   1      42.271  21.302  27.972  1.00  0.00     0.059 A 
ATOM     75  C   UNL A   1      42.782  22.107  25.740  1.00  0.00     0.059 A 
ATOM     76  F   UNL A   1      43.402  24.346  25.422  1.00  0.00    -0.206 F 
ATOM     77  C   UNL A   1      42.430  21.072  26.605  1.00  0.00     0.060 A 
BRANCH  77  78
ATOM     78  S   UNL A   1      42.178  19.399  25.975  1.00  0.00     0.124 S 
ATOM     79  O   UNL A   1      42.651  18.592  27.096  1.00  0.00    -0.237 OA
ATOM     80  O   UNL A   1      40.738  19.366  25.736  1.00  0.00    -0.237 OA
ATOM     81  O   UNL A   1      43.009  19.360  24.776  1.00  0.00    -0.744 OA
ENDBRANCH  77  78
ENDBRANCH  56  70
BRANCH  57  82
ATOM     82  C   UNL A   1      44.219  32.720  31.612  1.00  0.00     0.058 A 
ATOM     83  C   UNL A   1      44.572  33.833  30.835  1.00  0.00     0.135 A 
ATOM     84  C   UNL A   1      43.991  32.924  32.982  1.00  0.00     0.135 A 
ATOM     85  F   UNL A   1      44.804  33.686  29.522  1.00  0.00    -0.206 F 
ATOM     86  C   UNL A   1      44.695  35.101  31.392  1.00  0.00     0.059 A 
ATOM     87  C   UNL A   1      44.087  34.187  33.559  1.00  0.00     0.059 A 
ATOM     88  F   UNL A   1      43.633  31.893  33.764  1.00  0.00    -0.206 F 
ATOM     89  C   UNL A   1      44.443  35.270  32.755  1.00  0.00     0.060 A 
BRANCH  89  90
ATOM     90  S   UNL A   1      44.527  36.936  33.449  1.00  0.00     0.124 S 
ATOM     91  O   UNL A   1      45.051  37.698  32.322  1.00  0.00    -0.237 OA
ATOM     92  O   UNL A   1      43.134  37.193  33.800  1.00  0.00    -0.237 OA
ATOM     93  O   UNL A   1      45.433  36.782  34.584  1.00  0.00    -0.744 OA
ENDBRANCH  89  90
ENDBRANCH  57  82
BRANCH  69  94
ATOM     94  C   UNL A   1      48.471  27.331  30.353  1.00  0.00     0.058 A 
ATOM     95  C   UNL A   1      49.429  27.693  29.394  1.00  0.00     0.135 A 
ATOM     96  C   UNL A   1      48.927  26.811  31.575  1.00  0.00     0.135 A 
ATOM     97  F   UNL A   1      49.042  28.189  28.208  1.00  0.00    -0.206 F 
ATOM     98  C   UNL A   1      50.789  27.530  29.630  1.00  0.00     0.059 A 
ATOM     99  C   UNL A   1      50.284  26.660  31.842  1.00  0.00     0.059 A 
ATOM    100  F   UNL A   1      48.050  26.458  32.529  1.00  0.00    -0.206 F 
ATOM    101  C   UNL A   1      51.207  27.013  30.858  1.00  0.00     0.060 A 
BRANCH 101 102
ATOM    102  S   UNL A   1      52.976  26.840  31.169  1.00  0.00     0.124 S 
ATOM    103  O   UNL A   1      53.531  27.067  29.840  1.00  0.00    -0.237 OA
ATOM    104  O   UNL A   1      53.228  27.892  32.150  1.00  0.00    -0.237 OA
ATOM    105  O   UNL A   1      53.100  25.477  31.678  1.00  0.00    -0.744 OA
ENDBRANCH 101 102
ENDBRANCH  69  94
ENDBRANCH  43  44
ENDBRANCH  35  38
ENDBRANCH  33  34
ENDBRANCH  32  33
ENDBRANCH   1  32
TORSDOF 19
ENDMDL
