MODEL 1
REMARK VINA RESULT:     -12.3      0.000      0.000
REMARK SMILES CC[C@@](C)(NC(=O)/C=C/c1cccc(F)c1)C(=O)NCCCNC(=O)c1ccc(-c2c3nc(c(-c4c(F)cc(S(=O)(=O)[O-])cc4F)c4ccc([nH]4)c(-c4c(F)cc(S(=O)(=O)[O-])cc4F)c4nc(c(-c5c(F)cc(S(=O)(=O)[O-])cc5F)c5ccc2[nH]5)C=C4)C=C3)cc1
REMARK SMILES IDX 21 1 20 2 19 3 17 4 18 5 3 7 4 8 2 9 1 10 5 11 6 12 7 14
REMARK SMILES IDX 8 15 9 16 10 17 11 18 16 19 12 20 14 21 13 22 15 23 22 24
REMARK SMILES IDX 23 25 24 26 25 28 26 29 27 30 91 31 28 32 90 33 29 34 30 35
REMARK SMILES IDX 31 36 84 37 32 38 89 39 83 40 85 41 33 42 88 43 82 44 81 45
REMARK SMILES IDX 34 47 68 48 47 49 67 50 48 51 51 52 66 53 86 54 49 55 50 56
REMARK SMILES IDX 65 58 87 59 52 60 35 61 36 62 45 63 37 64 38 65 44 66 46 67
REMARK SMILES IDX 39 68 40 69 41 70 42 71 43 72 69 73 70 74 79 75 71 76 72 77
REMARK SMILES IDX 78 78 80 79 73 80 74 81 75 82 76 83 77 84 53 85 54 86 63 87
REMARK SMILES IDX 55 88 56 89 62 90 64 91 57 92 58 93 59 94 60 95 61 96
REMARK H PARENT 19 6 5 13 23 27 85 46 51 57
REMARK Flexibility Score: inf
ROOT
ATOM      1  C   UNL A   1      39.157  22.256  26.237  1.00  0.00     0.042 C 
ENDROOT
BRANCH   1   2
ATOM      2  C   UNL A   1      37.893  23.055  25.931  1.00  0.00     0.117 C 
BRANCH   2   3
ATOM      3  N   UNL A   1      37.285  22.828  24.629  1.00  0.00    -0.354 N 
ATOM      4  C   UNL A   1      36.026  23.041  24.142  1.00  0.00     0.245 C 
ATOM      5  O   UNL A   1      35.935  23.071  22.910  1.00  0.00    -0.272 OA
ATOM      6  H   UNL A   1      37.905  22.443  23.967  1.00  0.00     0.163 HD
BRANCH   4   7
ATOM      7  C   UNL A   1      34.806  23.383  25.053  1.00  0.00     0.116 C 
ATOM      8  C   UNL A   1      34.821  22.328  26.187  1.00  0.00     0.045 C 
BRANCH   7   9
ATOM      9  C   UNL A   1      34.836  24.784  25.741  1.00  0.00     0.035 C 
ATOM     10  C   UNL A   1      34.004  25.907  25.137  1.00  0.00     0.007 C 
ENDBRANCH   7   9
BRANCH   7  11
ATOM     11  N   UNL A   1      33.517  23.297  24.329  1.00  0.00    -0.338 N 
ATOM     12  C   UNL A   1      32.985  22.303  23.560  1.00  0.00     0.244 C 
ATOM     13  H   UNL A   1      32.945  24.094  24.418  1.00  0.00     0.164 HD
ATOM     14  O   UNL A   1      32.107  22.597  22.749  1.00  0.00    -0.270 OA
BRANCH  12  15
ATOM     15  C   UNL A   1      33.243  20.867  23.834  1.00  0.00     0.072 C 
ATOM     16  C   UNL A   1      32.686  20.061  24.749  1.00  0.00     0.014 C 
BRANCH  16  17
ATOM     17  C   UNL A   1      32.923  18.612  24.747  1.00  0.00    -0.023 A 
ATOM     18  C   UNL A   1      32.560  17.785  25.816  1.00  0.00     0.008 A 
ATOM     19  C   UNL A   1      33.555  18.045  23.633  1.00  0.00     0.047 A 
ATOM     20  C   UNL A   1      32.839  16.414  25.774  1.00  0.00     0.004 A 
ATOM     21  C   UNL A   1      33.841  16.685  23.608  1.00  0.00     0.123 A 
ATOM     22  C   UNL A   1      33.489  15.864  24.669  1.00  0.00     0.039 A 
ATOM     23  F   UNL A   1      34.469  16.165  22.546  1.00  0.00    -0.207 F 
ENDBRANCH  16  17
ENDBRANCH  12  15
ENDBRANCH   7  11
ENDBRANCH   4   7
ENDBRANCH   2   3
ENDBRANCH   1   2
BRANCH   1  24
ATOM     24  C   UNL A   1      40.300  23.013  26.903  1.00  0.00     0.118 C 
BRANCH  24  25
ATOM     25  N   UNL A   1      41.055  23.844  25.986  1.00  0.00    -0.352 N 
ATOM     26  C   UNL A   1      41.420  25.166  26.049  1.00  0.00     0.251 C 
ATOM     27  H   UNL A   1      41.361  23.377  25.174  1.00  0.00     0.163 HD
ATOM     28  O   UNL A   1      41.954  25.669  25.061  1.00  0.00    -0.269 OA
BRANCH  26  29
ATOM     29  C   UNL A   1      41.164  26.004  27.246  1.00  0.00     0.039 A 
ATOM     30  C   UNL A   1      42.082  27.019  27.539  1.00  0.00     0.014 A 
ATOM     31  C   UNL A   1      40.098  25.773  28.122  1.00  0.00     0.014 A 
ATOM     32  C   UNL A   1      41.906  27.825  28.667  1.00  0.00     0.010 A 
ATOM     33  C   UNL A   1      39.883  26.627  29.210  1.00  0.00     0.010 A 
ATOM     34  C   UNL A   1      40.787  27.658  29.501  1.00  0.00    -0.014 A 
BRANCH  34  35
ATOM     35  C   UNL A   1      40.577  28.567  30.663  1.00  0.00     0.031 A 
ATOM     36  C   UNL A   1      41.443  28.467  31.892  1.00  0.00     0.074 A 
ATOM     37  C   UNL A   1      39.599  29.493  30.611  1.00  0.00     0.049 A 
ATOM     38  N   UNL A   1      41.427  29.207  32.972  1.00  0.00    -0.248 NA
ATOM     39  C   UNL A   1      42.446  27.392  31.921  1.00  0.00     0.031 C 
ATOM     40  C   UNL A   1      38.659  29.664  29.500  1.00  0.00     0.029 A 
ATOM     41  N   UNL A   1      39.239  30.473  31.503  1.00  0.00    -0.354 N 
ATOM     42  C   UNL A   1      42.411  28.690  33.806  1.00  0.00     0.074 A 
ATOM     43  C   UNL A   1      42.970  27.539  33.130  1.00  0.00     0.031 C 
ATOM     44  C   UNL A   1      37.862  30.714  29.756  1.00  0.00     0.029 A 
ATOM     45  C   UNL A   1      38.210  31.273  31.059  1.00  0.00     0.049 A 
ATOM     46  H   UNL A   1      39.675  30.593  32.377  1.00  0.00     0.167 HD
ATOM     47  C   UNL A   1      42.833  29.148  35.011  1.00  0.00     0.037 A 
ATOM     48  C   UNL A   1      37.620  32.343  31.628  1.00  0.00     0.037 A 
ATOM     49  C   UNL A   1      42.292  30.307  35.675  1.00  0.00     0.049 A 
ATOM     50  C   UNL A   1      38.108  32.835  32.962  1.00  0.00     0.074 A 
ATOM     51  C   UNL A   1      42.687  30.870  36.876  1.00  0.00     0.029 A 
ATOM     52  N   UNL A   1      41.246  31.082  35.198  1.00  0.00    -0.354 N 
ATOM     53  N   UNL A   1      39.074  32.360  33.710  1.00  0.00    -0.248 NA
ATOM     54  C   UNL A   1      37.431  34.010  33.525  1.00  0.00     0.031 C 
ATOM     55  C   UNL A   1      41.856  31.963  37.145  1.00  0.00     0.029 A 
ATOM     56  C   UNL A   1      40.971  32.108  36.088  1.00  0.00     0.049 A 
ATOM     57  H   UNL A   1      40.769  30.925  34.351  1.00  0.00     0.167 HD
ATOM     58  C   UNL A   1      39.132  33.188  34.826  1.00  0.00     0.074 A 
ATOM     59  C   UNL A   1      38.117  34.205  34.645  1.00  0.00     0.031 C 
ATOM     60  C   UNL A   1      39.952  33.110  35.904  1.00  0.00     0.037 A 
BRANCH  47  61
ATOM     61  C   UNL A   1      43.952  28.405  35.691  1.00  0.00     0.058 A 
ATOM     62  C   UNL A   1      43.679  27.396  36.629  1.00  0.00     0.135 A 
ATOM     63  C   UNL A   1      45.297  28.738  35.461  1.00  0.00     0.135 A 
ATOM     64  F   UNL A   1      42.412  27.035  36.885  1.00  0.00    -0.206 F 
ATOM     65  C   UNL A   1      44.699  26.754  37.324  1.00  0.00     0.059 A 
ATOM     66  C   UNL A   1      46.334  28.091  36.126  1.00  0.00     0.059 A 
ATOM     67  F   UNL A   1      45.614  29.681  34.560  1.00  0.00    -0.206 F 
ATOM     68  C   UNL A   1      46.024  27.109  37.066  1.00  0.00     0.060 A 
BRANCH  68  69
ATOM     69  S   UNL A   1      47.339  26.242  37.952  1.00  0.00     0.124 S 
ATOM     70  O   UNL A   1      47.285  24.917  37.345  1.00  0.00    -0.237 OA
ATOM     71  O   UNL A   1      48.511  27.047  37.624  1.00  0.00    -0.237 OA
ATOM     72  O   UNL A   1      46.910  26.314  39.346  1.00  0.00    -0.744 OA
ENDBRANCH  68  69
ENDBRANCH  47  61
BRANCH  48  73
ATOM     73  C   UNL A   1      36.528  33.049  30.907  1.00  0.00     0.058 A 
ATOM     74  C   UNL A   1      36.797  33.877  29.806  1.00  0.00     0.135 A 
ATOM     75  C   UNL A   1      35.196  32.936  31.330  1.00  0.00     0.135 A 
ATOM     76  F   UNL A   1      38.056  34.025  29.367  1.00  0.00    -0.206 F 
ATOM     77  C   UNL A   1      35.787  34.590  29.169  1.00  0.00     0.059 A 
ATOM     78  C   UNL A   1      34.165  33.621  30.694  1.00  0.00     0.059 A 
ATOM     79  F   UNL A   1      34.889  32.145  32.370  1.00  0.00    -0.206 F 
ATOM     80  C   UNL A   1      34.474  34.461  29.625  1.00  0.00     0.060 A 
BRANCH  80  81
ATOM     81  S   UNL A   1      33.181  35.413  28.800  1.00  0.00     0.124 S 
ATOM     82  O   UNL A   1      32.456  35.966  29.938  1.00  0.00    -0.237 OA
ATOM     83  O   UNL A   1      33.957  36.369  28.016  1.00  0.00    -0.237 OA
ATOM     84  O   UNL A   1      32.464  34.407  28.024  1.00  0.00    -0.744 OA
ENDBRANCH  80  81
ENDBRANCH  48  73
BRANCH  60  85
ATOM     85  C   UNL A   1      39.792  34.157  36.972  1.00  0.00     0.058 A 
ATOM     86  C   UNL A   1      39.017  33.901  38.114  1.00  0.00     0.135 A 
ATOM     87  C   UNL A   1      40.372  35.430  36.845  1.00  0.00     0.135 A 
ATOM     88  F   UNL A   1      38.434  32.703  38.283  1.00  0.00    -0.206 F 
ATOM     89  C   UNL A   1      38.817  34.871  39.091  1.00  0.00     0.059 A 
ATOM     90  C   UNL A   1      40.208  36.406  37.823  1.00  0.00     0.059 A 
ATOM     91  F   UNL A   1      41.131  35.722  35.777  1.00  0.00    -0.206 F 
ATOM     92  C   UNL A   1      39.419  36.121  38.937  1.00  0.00     0.060 A 
BRANCH  92  93
ATOM     93  S   UNL A   1      39.188  37.355  40.235  1.00  0.00     0.124 S 
ATOM     94  O   UNL A   1      38.580  36.563  41.298  1.00  0.00    -0.237 OA
ATOM     95  O   UNL A   1      40.555  37.806  40.482  1.00  0.00    -0.237 OA
ATOM     96  O   UNL A   1      38.315  38.344  39.610  1.00  0.00    -0.744 OA
ENDBRANCH  92  93
ENDBRANCH  60  85
ENDBRANCH  34  35
ENDBRANCH  26  29
ENDBRANCH  24  25
ENDBRANCH   1  24
TORSDOF 17
ENDMDL
MODEL 2
REMARK VINA RESULT:     -12.2      1.892      3.460
REMARK SMILES CC[C@@](C)(NC(=O)/C=C/c1cccc(F)c1)C(=O)NCCCNC(=O)c1ccc(-c2c3nc(c(-c4c(F)cc(S(=O)(=O)[O-])cc4F)c4ccc([nH]4)c(-c4c(F)cc(S(=O)(=O)[O-])cc4F)c4nc(c(-c5c(F)cc(S(=O)(=O)[O-])cc5F)c5ccc2[nH]5)C=C4)C=C3)cc1
REMARK SMILES IDX 21 1 20 2 19 3 17 4 18 5 3 7 4 8 2 9 1 10 5 11 6 12 7 14
REMARK SMILES IDX 8 15 9 16 10 17 11 18 16 19 12 20 14 21 13 22 15 23 22 24
REMARK SMILES IDX 23 25 24 26 25 28 26 29 27 30 91 31 28 32 90 33 29 34 30 35
REMARK SMILES IDX 31 36 84 37 32 38 89 39 83 40 85 41 33 42 88 43 82 44 81 45
REMARK SMILES IDX 34 47 68 48 47 49 67 50 48 51 51 52 66 53 86 54 49 55 50 56
REMARK SMILES IDX 65 58 87 59 52 60 35 61 36 62 45 63 37 64 38 65 44 66 46 67
REMARK SMILES IDX 39 68 40 69 41 70 42 71 43 72 69 73 70 74 79 75 71 76 72 77
REMARK SMILES IDX 78 78 80 79 73 80 74 81 75 82 76 83 77 84 53 85 54 86 63 87
REMARK SMILES IDX 55 88 56 89 62 90 64 91 57 92 58 93 59 94 60 95 61 96
REMARK H PARENT 19 6 5 13 23 27 85 46 51 57
REMARK Flexibility Score: inf
ROOT
ATOM      1  C   UNL A   1      38.762  22.104  26.120  1.00  0.00     0.042 C 
ENDROOT
BRANCH   1   2
ATOM      2  C   UNL A   1      37.383  22.393  25.534  1.00  0.00     0.117 C 
BRANCH   2   3
ATOM      3  N   UNL A   1      36.318  22.658  26.489  1.00  0.00    -0.354 N 
ATOM      4  C   UNL A   1      34.978  22.390  26.484  1.00  0.00     0.245 C 
ATOM      5  O   UNL A   1      34.428  22.430  27.590  1.00  0.00    -0.272 OA
ATOM      6  H   UNL A   1      36.624  23.125  27.300  1.00  0.00     0.163 HD
BRANCH   4   7
ATOM      7  C   UNL A   1      34.209  21.908  25.213  1.00  0.00     0.116 C 
ATOM      8  C   UNL A   1      34.568  20.410  25.049  1.00  0.00     0.045 C 
BRANCH   7   9
ATOM      9  C   UNL A   1      32.651  21.993  25.282  1.00  0.00     0.035 C 
ATOM     10  C   UNL A   1      31.848  21.583  24.054  1.00  0.00     0.007 C 
ENDBRANCH   7   9
BRANCH   7  11
ATOM     11  N   UNL A   1      34.618  22.641  23.993  1.00  0.00    -0.338 N 
ATOM     12  C   UNL A   1      34.295  23.890  23.547  1.00  0.00     0.244 C 
ATOM     13  H   UNL A   1      35.228  22.142  23.403  1.00  0.00     0.164 HD
ATOM     14  O   UNL A   1      34.421  24.133  22.347  1.00  0.00    -0.270 OA
BRANCH  12  15
ATOM     15  C   UNL A   1      34.041  25.020  24.475  1.00  0.00     0.072 C 
ATOM     16  C   UNL A   1      33.035  25.906  24.483  1.00  0.00     0.014 C 
BRANCH  16  17
ATOM     17  C   UNL A   1      32.840  26.841  25.599  1.00  0.00    -0.023 A 
ATOM     18  C   UNL A   1      31.630  26.941  26.297  1.00  0.00     0.008 A 
ATOM     19  C   UNL A   1      33.906  27.673  25.962  1.00  0.00     0.047 A 
ATOM     20  C   UNL A   1      31.490  27.874  27.333  1.00  0.00     0.004 A 
ATOM     21  C   UNL A   1      33.750  28.605  26.981  1.00  0.00     0.123 A 
ATOM     22  C   UNL A   1      32.551  28.713  27.670  1.00  0.00     0.039 A 
ATOM     23  F   UNL A   1      34.772  29.411  27.296  1.00  0.00    -0.207 F 
ENDBRANCH  16  17
ENDBRANCH  12  15
ENDBRANCH   7  11
ENDBRANCH   4   7
ENDBRANCH   2   3
ENDBRANCH   1   2
BRANCH   1  24
ATOM     24  C   UNL A   1      39.458  23.258  26.833  1.00  0.00     0.118 C 
BRANCH  24  25
ATOM     25  N   UNL A   1      40.421  23.954  26.003  1.00  0.00    -0.352 N 
ATOM     26  C   UNL A   1      41.005  25.190  26.131  1.00  0.00     0.251 C 
ATOM     27  H   UNL A   1      40.708  23.451  25.206  1.00  0.00     0.163 HD
ATOM     28  O   UNL A   1      41.700  25.603  25.204  1.00  0.00    -0.269 OA
BRANCH  26  29
ATOM     29  C   UNL A   1      40.800  26.044  27.326  1.00  0.00     0.039 A 
ATOM     30  C   UNL A   1      41.665  27.130  27.507  1.00  0.00     0.014 A 
ATOM     31  C   UNL A   1      39.838  25.767  28.303  1.00  0.00     0.014 A 
ATOM     32  C   UNL A   1      41.535  27.956  28.628  1.00  0.00     0.010 A 
ATOM     33  C   UNL A   1      39.662  26.637  29.386  1.00  0.00     0.010 A 
ATOM     34  C   UNL A   1      40.513  27.737  29.566  1.00  0.00    -0.014 A 
BRANCH  34  35
ATOM     35  C   UNL A   1      40.345  28.664  30.720  1.00  0.00     0.031 A 
ATOM     36  C   UNL A   1      41.234  28.563  31.933  1.00  0.00     0.074 A 
ATOM     37  C   UNL A   1      39.385  29.609  30.676  1.00  0.00     0.049 A 
ATOM     38  N   UNL A   1      41.255  29.316  33.003  1.00  0.00    -0.248 NA
ATOM     39  C   UNL A   1      42.216  27.468  31.955  1.00  0.00     0.031 C 
ATOM     40  C   UNL A   1      38.426  29.785  29.583  1.00  0.00     0.029 A 
ATOM     41  N   UNL A   1      39.062  30.608  31.563  1.00  0.00    -0.354 N 
ATOM     42  C   UNL A   1      42.246  28.790  33.823  1.00  0.00     0.074 A 
ATOM     43  C   UNL A   1      42.768  27.620  33.151  1.00  0.00     0.031 C 
ATOM     44  C   UNL A   1      37.655  30.854  29.842  1.00  0.00     0.029 A 
ATOM     45  C   UNL A   1      38.041  31.422  31.130  1.00  0.00     0.049 A 
ATOM     46  H   UNL A   1      39.519  30.730  32.426  1.00  0.00     0.167 HD
ATOM     47  C   UNL A   1      42.702  29.254  35.013  1.00  0.00     0.037 A 
ATOM     48  C   UNL A   1      37.485  32.511  31.697  1.00  0.00     0.037 A 
ATOM     49  C   UNL A   1      42.198  30.432  35.673  1.00  0.00     0.049 A 
ATOM     50  C   UNL A   1      38.010  33.010  33.014  1.00  0.00     0.074 A 
ATOM     51  C   UNL A   1      42.629  31.002  36.859  1.00  0.00     0.029 A 
ATOM     52  N   UNL A   1      41.158  31.222  35.208  1.00  0.00    -0.354 N 
ATOM     53  N   UNL A   1      38.982  32.525  33.748  1.00  0.00    -0.248 NA
ATOM     54  C   UNL A   1      37.367  34.206  33.576  1.00  0.00     0.031 C 
ATOM     55  C   UNL A   1      41.825  32.115  37.130  1.00  0.00     0.029 A 
ATOM     56  C   UNL A   1      40.922  32.265  36.089  1.00  0.00     0.049 A 
ATOM     57  H   UNL A   1      40.660  31.065  34.373  1.00  0.00     0.167 HD
ATOM     58  C   UNL A   1      39.079  33.366  34.852  1.00  0.00     0.074 A 
ATOM     59  C   UNL A   1      38.081  34.401  34.678  1.00  0.00     0.031 C 
ATOM     60  C   UNL A   1      39.919  33.285  35.914  1.00  0.00     0.037 A 
BRANCH  47  61
ATOM     61  C   UNL A   1      43.819  28.497  35.680  1.00  0.00     0.058 A 
ATOM     62  C   UNL A   1      43.545  27.472  36.599  1.00  0.00     0.135 A 
ATOM     63  C   UNL A   1      45.165  28.833  35.457  1.00  0.00     0.135 A 
ATOM     64  F   UNL A   1      42.278  27.107  36.847  1.00  0.00    -0.206 F 
ATOM     65  C   UNL A   1      44.564  26.816  37.282  1.00  0.00     0.059 A 
ATOM     66  C   UNL A   1      46.201  28.173  36.110  1.00  0.00     0.059 A 
ATOM     67  F   UNL A   1      45.483  29.793  34.573  1.00  0.00    -0.206 F 
ATOM     68  C   UNL A   1      45.890  27.174  37.032  1.00  0.00     0.060 A 
BRANCH  68  69
ATOM     69  S   UNL A   1      47.203  26.289  37.901  1.00  0.00     0.124 S 
ATOM     70  O   UNL A   1      48.243  27.308  37.990  1.00  0.00    -0.237 OA
ATOM     71  O   UNL A   1      46.551  25.931  39.157  1.00  0.00    -0.237 OA
ATOM     72  O   UNL A   1      47.496  25.166  37.016  1.00  0.00    -0.744 OA
ENDBRANCH  68  69
ENDBRANCH  47  61
BRANCH  48  73
ATOM     73  C   UNL A   1      36.392  33.230  30.989  1.00  0.00     0.058 A 
ATOM     74  C   UNL A   1      36.651  34.017  29.856  1.00  0.00     0.135 A 
ATOM     75  C   UNL A   1      35.071  33.171  31.457  1.00  0.00     0.135 A 
ATOM     76  F   UNL A   1      37.899  34.113  29.374  1.00  0.00    -0.206 F 
ATOM     77  C   UNL A   1      35.643  34.742  29.230  1.00  0.00     0.059 A 
ATOM     78  C   UNL A   1      34.041  33.870  30.833  1.00  0.00     0.059 A 
ATOM     79  F   UNL A   1      34.774  32.421  32.529  1.00  0.00    -0.206 F 
ATOM     80  C   UNL A   1      34.342  34.668  29.730  1.00  0.00     0.060 A 
BRANCH  80  81
ATOM     81  S   UNL A   1      33.053  35.636  28.917  1.00  0.00     0.124 S 
ATOM     82  O   UNL A   1      32.213  36.010  30.049  1.00  0.00    -0.237 OA
ATOM     83  O   UNL A   1      33.820  36.719  28.309  1.00  0.00    -0.237 OA
ATOM     84  O   UNL A   1      32.460  34.688  27.980  1.00  0.00    -0.744 OA
ENDBRANCH  80  81
ENDBRANCH  48  73
BRANCH  60  85
ATOM     85  C   UNL A   1      39.803  34.348  36.971  1.00  0.00     0.058 A 
ATOM     86  C   UNL A   1      38.993  34.147  38.101  1.00  0.00     0.135 A 
ATOM     87  C   UNL A   1      40.459  35.583  36.846  1.00  0.00     0.135 A 
ATOM     88  F   UNL A   1      38.337  32.988  38.267  1.00  0.00    -0.206 F 
ATOM     89  C   UNL A   1      38.834  35.135  39.067  1.00  0.00     0.059 A 
ATOM     90  C   UNL A   1      40.336  36.575  37.814  1.00  0.00     0.059 A 
ATOM     91  F   UNL A   1      41.254  35.821  35.790  1.00  0.00    -0.206 F 
ATOM     92  C   UNL A   1      39.511  36.347  38.915  1.00  0.00     0.060 A 
BRANCH  92  93
ATOM     93  S   UNL A   1      39.331  37.603  40.199  1.00  0.00     0.124 S 
ATOM     94  O   UNL A   1      38.966  36.796  41.359  1.00  0.00    -0.237 OA
ATOM     95  O   UNL A   1      40.661  38.203  40.236  1.00  0.00    -0.237 OA
ATOM     96  O   UNL A   1      38.276  38.469  39.680  1.00  0.00    -0.744 OA
ENDBRANCH  92  93
ENDBRANCH  60  85
ENDBRANCH  34  35
ENDBRANCH  26  29
ENDBRANCH  24  25
ENDBRANCH   1  24
TORSDOF 17
ENDMDL
MODEL 3
REMARK VINA RESULT:     -12.1      4.911     10.366
REMARK SMILES CC[C@@](C)(NC(=O)/C=C/c1cccc(F)c1)C(=O)NCCCNC(=O)c1ccc(-c2c3nc(c(-c4c(F)cc(S(=O)(=O)[O-])cc4F)c4ccc([nH]4)c(-c4c(F)cc(S(=O)(=O)[O-])cc4F)c4nc(c(-c5c(F)cc(S(=O)(=O)[O-])cc5F)c5ccc2[nH]5)C=C4)C=C3)cc1
REMARK SMILES IDX 21 1 20 2 19 3 17 4 18 5 3 7 4 8 2 9 1 10 5 11 6 12 7 14
REMARK SMILES IDX 8 15 9 16 10 17 11 18 16 19 12 20 14 21 13 22 15 23 22 24
REMARK SMILES IDX 23 25 24 26 25 28 26 29 27 30 91 31 28 32 90 33 29 34 30 35
REMARK SMILES IDX 31 36 84 37 32 38 89 39 83 40 85 41 33 42 88 43 82 44 81 45
REMARK SMILES IDX 34 47 68 48 47 49 67 50 48 51 51 52 66 53 86 54 49 55 50 56
REMARK SMILES IDX 65 58 87 59 52 60 35 61 36 62 45 63 37 64 38 65 44 66 46 67
REMARK SMILES IDX 39 68 40 69 41 70 42 71 43 72 69 73 70 74 79 75 71 76 72 77
REMARK SMILES IDX 78 78 80 79 73 80 74 81 75 82 76 83 77 84 53 85 54 86 63 87
REMARK SMILES IDX 55 88 56 89 62 90 64 91 57 92 58 93 59 94 60 95 61 96
REMARK H PARENT 19 6 5 13 23 27 85 46 51 57
REMARK Flexibility Score: inf
ROOT
ATOM      1  C   UNL A   1      32.356  27.455  26.852  1.00  0.00     0.042 C 
ENDROOT
BRANCH   1   2
ATOM      2  C   UNL A   1      31.317  27.984  25.867  1.00  0.00     0.117 C 
BRANCH   2   3
ATOM      3  N   UNL A   1      30.616  26.988  25.072  1.00  0.00    -0.354 N 
ATOM      4  C   UNL A   1      30.768  26.551  23.785  1.00  0.00     0.245 C 
ATOM      5  O   UNL A   1      30.248  25.458  23.535  1.00  0.00    -0.272 OA
ATOM      6  H   UNL A   1      29.885  26.540  25.557  1.00  0.00     0.163 HD
BRANCH   4   7
ATOM      7  C   UNL A   1      31.664  27.282  22.737  1.00  0.00     0.116 C 
ATOM      8  C   UNL A   1      30.946  28.621  22.435  1.00  0.00     0.045 C 
BRANCH   7   9
ATOM      9  C   UNL A   1      33.110  27.641  23.203  1.00  0.00     0.035 C 
ATOM     10  C   UNL A   1      33.597  29.072  23.018  1.00  0.00     0.007 C 
ENDBRANCH   7   9
BRANCH   7  11
ATOM     11  N   UNL A   1      31.805  26.513  21.479  1.00  0.00    -0.338 N 
ATOM     12  C   UNL A   1      32.745  25.607  21.083  1.00  0.00     0.244 C 
ATOM     13  H   UNL A   1      31.098  26.684  20.815  1.00  0.00     0.164 HD
ATOM     14  O   UNL A   1      32.888  25.402  19.878  1.00  0.00    -0.270 OA
BRANCH  12  15
ATOM     15  C   UNL A   1      33.415  24.692  22.041  1.00  0.00     0.072 C 
ATOM     16  C   UNL A   1      32.985  23.531  22.554  1.00  0.00     0.014 C 
BRANCH  16  17
ATOM     17  C   UNL A   1      33.870  22.660  23.340  1.00  0.00    -0.023 A 
ATOM     18  C   UNL A   1      33.398  21.555  24.058  1.00  0.00     0.008 A 
ATOM     19  C   UNL A   1      35.235  22.966  23.381  1.00  0.00     0.047 A 
ATOM     20  C   UNL A   1      34.282  20.778  24.817  1.00  0.00     0.004 A 
ATOM     21  C   UNL A   1      36.101  22.197  24.150  1.00  0.00     0.123 A 
ATOM     22  C   UNL A   1      35.636  21.106  24.868  1.00  0.00     0.039 A 
ATOM     23  F   UNL A   1      37.400  22.521  24.199  1.00  0.00    -0.207 F 
ENDBRANCH  16  17
ENDBRANCH  12  15
ENDBRANCH   7  11
ENDBRANCH   4   7
ENDBRANCH   2   3
ENDBRANCH   1   2
BRANCH   1  24
ATOM     24  C   UNL A   1      33.678  28.212  26.923  1.00  0.00     0.118 C 
BRANCH  24  25
ATOM     25  N   UNL A   1      33.533  29.589  27.352  1.00  0.00    -0.352 N 
ATOM     26  C   UNL A   1      34.396  30.431  28.007  1.00  0.00     0.251 C 
ATOM     27  H   UNL A   1      32.661  29.992  27.134  1.00  0.00     0.163 HD
ATOM     28  O   UNL A   1      33.973  31.526  28.375  1.00  0.00    -0.269 OA
BRANCH  26  29
ATOM     29  C   UNL A   1      35.799  30.053  28.308  1.00  0.00     0.039 A 
ATOM     30  C   UNL A   1      36.735  30.144  27.271  1.00  0.00     0.014 A 
ATOM     31  C   UNL A   1      36.200  29.545  29.547  1.00  0.00     0.014 A 
ATOM     32  C   UNL A   1      38.067  29.778  27.489  1.00  0.00     0.010 A 
ATOM     33  C   UNL A   1      37.547  29.249  29.786  1.00  0.00     0.010 A 
ATOM     34  C   UNL A   1      38.496  29.354  28.758  1.00  0.00    -0.014 A 
BRANCH  34  35
ATOM     35  C   UNL A   1      39.931  29.030  28.993  1.00  0.00     0.031 A 
ATOM     36  C   UNL A   1      40.852  30.021  29.657  1.00  0.00     0.074 A 
ATOM     37  C   UNL A   1      40.410  27.829  28.609  1.00  0.00     0.049 A 
ATOM     38  N   UNL A   1      42.113  29.884  29.979  1.00  0.00    -0.248 NA
ATOM     39  C   UNL A   1      40.291  31.339  29.989  1.00  0.00     0.031 C 
ATOM     40  C   UNL A   1      39.637  26.797  27.914  1.00  0.00     0.029 A 
ATOM     41  N   UNL A   1      41.654  27.267  28.759  1.00  0.00    -0.354 N 
ATOM     42  C   UNL A   1      42.497  31.093  30.549  1.00  0.00     0.074 A 
ATOM     43  C   UNL A   1      41.348  31.970  30.479  1.00  0.00     0.031 C 
ATOM     44  C   UNL A   1      40.410  25.712  27.739  1.00  0.00     0.029 A 
ATOM     45  C   UNL A   1      41.739  25.979  28.280  1.00  0.00     0.049 A 
ATOM     46  H   UNL A   1      42.413  27.739  29.170  1.00  0.00     0.167 HD
ATOM     47  C   UNL A   1      43.686  31.432  31.105  1.00  0.00     0.037 A 
ATOM     48  C   UNL A   1      42.765  25.105  28.285  1.00  0.00     0.037 A 
ATOM     49  C   UNL A   1      44.823  30.551  31.194  1.00  0.00     0.049 A 
ATOM     50  C   UNL A   1      44.072  25.502  28.913  1.00  0.00     0.074 A 
ATOM     51  C   UNL A   1      46.053  30.794  31.781  1.00  0.00     0.029 A 
ATOM     52  N   UNL A   1      44.871  29.261  30.689  1.00  0.00    -0.354 N 
ATOM     53  N   UNL A   1      44.397  26.634  29.490  1.00  0.00    -0.248 NA
ATOM     54  C   UNL A   1      45.149  24.503  28.895  1.00  0.00     0.031 C 
ATOM     55  C   UNL A   1      46.859  29.665  31.597  1.00  0.00     0.029 A 
ATOM     56  C   UNL A   1      46.115  28.701  30.936  1.00  0.00     0.049 A 
ATOM     57  H   UNL A   1      44.131  28.809  30.223  1.00  0.00     0.167 HD
ATOM     58  C   UNL A   1      45.711  26.477  29.920  1.00  0.00     0.074 A 
ATOM     59  C   UNL A   1      46.113  25.135  29.552  1.00  0.00     0.031 C 
ATOM     60  C   UNL A   1      46.510  27.367  30.558  1.00  0.00     0.037 A 
BRANCH  47  61
ATOM     61  C   UNL A   1      43.820  32.815  31.683  1.00  0.00     0.058 A 
ATOM     62  C   UNL A   1      43.376  33.097  32.985  1.00  0.00     0.135 A 
ATOM     63  C   UNL A   1      44.329  33.881  30.922  1.00  0.00     0.135 A 
ATOM     64  F   UNL A   1      42.884  32.116  33.759  1.00  0.00    -0.206 F 
ATOM     65  C   UNL A   1      43.421  34.385  33.507  1.00  0.00     0.059 A 
ATOM     66  C   UNL A   1      44.406  35.173  31.432  1.00  0.00     0.059 A 
ATOM     67  F   UNL A   1      44.785  33.663  29.678  1.00  0.00    -0.206 F 
ATOM     68  C   UNL A   1      43.936  35.418  32.722  1.00  0.00     0.060 A 
BRANCH  68  69
ATOM     69  S   UNL A   1      44.019  37.079  33.426  1.00  0.00     0.124 S 
ATOM     70  O   UNL A   1      43.747  37.913  32.261  1.00  0.00    -0.237 OA
ATOM     71  O   UNL A   1      42.969  37.036  34.439  1.00  0.00    -0.237 OA
ATOM     72  O   UNL A   1      45.380  37.156  33.951  1.00  0.00    -0.744 OA
ENDBRANCH  68  69
ENDBRANCH  47  61
BRANCH  48  73
ATOM     73  C   UNL A   1      42.575  23.746  27.713  1.00  0.00     0.058 A 
ATOM     74  C   UNL A   1      42.344  22.633  28.537  1.00  0.00     0.135 A 
ATOM     75  C   UNL A   1      42.658  23.530  26.330  1.00  0.00     0.135 A 
ATOM     76  F   UNL A   1      42.264  22.786  29.867  1.00  0.00    -0.206 F 
ATOM     77  C   UNL A   1      42.230  21.352  28.011  1.00  0.00     0.059 A 
ATOM     78  C   UNL A   1      42.524  22.259  25.778  1.00  0.00     0.059 A 
ATOM     79  F   UNL A   1      42.865  24.566  25.502  1.00  0.00    -0.206 F 
ATOM     80  C   UNL A   1      42.328  21.173  26.630  1.00  0.00     0.060 A 
BRANCH  80  81
ATOM     81  S   UNL A   1      42.201  19.498  25.969  1.00  0.00     0.124 S 
ATOM     82  O   UNL A   1      42.696  18.705  27.089  1.00  0.00    -0.237 OA
ATOM     83  O   UNL A   1      40.772  19.384  25.693  1.00  0.00    -0.237 OA
ATOM     84  O   UNL A   1      43.063  19.532  24.793  1.00  0.00    -0.744 OA
ENDBRANCH  80  81
ENDBRANCH  48  73
BRANCH  60  85
ATOM     85  C   UNL A   1      47.902  26.920  30.909  1.00  0.00     0.058 A 
ATOM     86  C   UNL A   1      48.990  27.251  30.085  1.00  0.00     0.135 A 
ATOM     87  C   UNL A   1      48.155  26.126  32.040  1.00  0.00     0.135 A 
ATOM     88  F   UNL A   1      48.804  28.002  28.988  1.00  0.00    -0.206 F 
ATOM     89  C   UNL A   1      50.278  26.807  30.366  1.00  0.00     0.059 A 
ATOM     90  C   UNL A   1      49.440  25.693  32.354  1.00  0.00     0.059 A 
ATOM     91  F   UNL A   1      47.152  25.790  32.866  1.00  0.00    -0.206 F 
ATOM     92  C   UNL A   1      50.493  26.029  31.505  1.00  0.00     0.060 A 
BRANCH  92  93
ATOM     93  S   UNL A   1      52.177  25.498  31.881  1.00  0.00     0.124 S 
ATOM     94  O   UNL A   1      52.861  25.752  30.618  1.00  0.00    -0.237 OA
ATOM     95  O   UNL A   1      52.541  26.377  32.988  1.00  0.00    -0.237 OA
ATOM     96  O   UNL A   1      52.017  24.091  32.237  1.00  0.00    -0.744 OA
ENDBRANCH  92  93
ENDBRANCH  60  85
ENDBRANCH  34  35
ENDBRANCH  26  29
ENDBRANCH  24  25
ENDBRANCH   1  24
TORSDOF 17
ENDMDL
