MODEL 1
REMARK VINA RESULT:     -13.1      0.000      0.000
REMARK SMILES C[N@H+]1CCO[C@H](c2noc(-c3ccccc3C(=O)NCCCNC(=O)c3ccc(-c4c5nc(c(-c6c(F)cc(S(=O)(=O)[O-])cc6F)c6ccc([nH]6)c(-c6c(F)cc(S(=O)(=O)[O-])cc6F)c6nc(c(-c7c(F)cc(S(=O)(=O)[O-])cc7F)c7ccc4[nH]7)C=C6)C=C5)cc3)n2)C1
REMARK SMILES IDX 21 1 20 2 19 3 17 4 18 5 16 7 11 8 12 9 13 10 15 11 14 12
REMARK SMILES IDX 10 13 7 14 8 15 92 16 9 17 6 18 1 19 2 20 3 21 93 22 4 24
REMARK SMILES IDX 5 25 22 26 23 27 24 28 25 30 26 31 27 32 91 33 28 34 90 35
REMARK SMILES IDX 29 36 30 37 31 38 84 39 32 40 89 41 83 42 85 43 33 44 88 45
REMARK SMILES IDX 82 46 81 47 34 49 68 50 47 51 67 52 48 53 51 54 66 55 86 56
REMARK SMILES IDX 49 57 50 58 65 60 87 61 52 62 35 63 36 64 45 65 37 66 38 67
REMARK SMILES IDX 44 68 46 69 39 70 40 71 41 72 42 73 43 74 69 75 70 76 79 77
REMARK SMILES IDX 71 78 72 79 78 80 80 81 73 82 74 83 75 84 76 85 77 86 53 87
REMARK SMILES IDX 54 88 63 89 55 90 56 91 62 92 64 93 57 94 58 95 59 96 60 97
REMARK SMILES IDX 61 98
REMARK H PARENT 19 6 2 23 23 29 85 48 51 59
REMARK Flexibility Score: inf
ROOT
ATOM      1  C   UNL A   1      32.869  28.688  27.513  1.00  0.00     0.042 C 
ENDROOT
BRANCH   1   2
ATOM      2  C   UNL A   1      32.191  27.836  26.455  1.00  0.00     0.118 C 
BRANCH   2   3
ATOM      3  N   UNL A   1      31.567  26.622  26.950  1.00  0.00    -0.352 N 
ATOM      4  C   UNL A   1      31.826  25.313  26.609  1.00  0.00     0.252 C 
ATOM      5  O   UNL A   1      31.207  24.404  27.158  1.00  0.00    -0.269 OA
ATOM      6  H   UNL A   1      30.858  26.753  27.621  1.00  0.00     0.163 HD
BRANCH   4   7
ATOM      7  C   UNL A   1      32.756  24.977  25.500  1.00  0.00     0.052 A 
ATOM      8  C   UNL A   1      32.520  25.266  24.144  1.00  0.00     0.053 A 
ATOM      9  C   UNL A   1      33.442  24.798  23.189  1.00  0.00     0.015 A 
ATOM     10  C   UNL A   1      34.604  24.125  23.578  1.00  0.00     0.001 A 
ATOM     11  C   UNL A   1      33.947  24.338  25.886  1.00  0.00     0.014 A 
ATOM     12  C   UNL A   1      34.868  23.917  24.929  1.00  0.00     0.001 A 
BRANCH   8  13
ATOM     13  C   UNL A   1      31.377  26.054  23.716  1.00  0.00     0.258 A 
ATOM     14  C   UNL A   1      29.996  27.556  23.240  1.00  0.00     0.206 A 
ATOM     15  N   UNL A   1      29.217  26.561  23.692  1.00  0.00    -0.059 NA
ATOM     16  N   UNL A   1      31.335  27.252  23.183  1.00  0.00    -0.189 NA
ATOM     17  O   UNL A   1      30.138  25.559  24.018  1.00  0.00    -0.334 OA
BRANCH  14  18
ATOM     18  C   UNL A   1      29.476  28.922  22.910  1.00  0.00     0.245 C 
ATOM     19  C   UNL A   1      27.369  31.164  23.540  1.00  0.00     0.332 C 
ATOM     20  N   UNL A   1      27.298  30.189  22.451  1.00  0.00    -0.333 N 
ATOM     21  C   UNL A   1      27.972  30.684  21.230  1.00  0.00     0.290 C 
ATOM     22  C   UNL A   1      27.929  28.902  22.843  1.00  0.00     0.303 C 
ATOM     23  H   UNL A   1      26.308  30.044  22.256  1.00  0.00     0.348 HD
ATOM     24  C   UNL A   1      29.502  30.686  21.324  1.00  0.00     0.222 C 
ATOM     25  O   UNL A   1      30.008  29.381  21.638  1.00  0.00    -0.358 OA
ENDBRANCH  14  18
ENDBRANCH   8  13
ENDBRANCH   4   7
ENDBRANCH   2   3
ENDBRANCH   1   2
BRANCH   1  26
ATOM     26  C   UNL A   1      33.660  29.886  26.983  1.00  0.00     0.118 C 
BRANCH  26  27
ATOM     27  N   UNL A   1      33.927  30.914  27.984  1.00  0.00    -0.352 N 
ATOM     28  C   UNL A   1      34.903  31.094  28.930  1.00  0.00     0.251 C 
ATOM     29  H   UNL A   1      33.259  31.638  27.977  1.00  0.00     0.163 HD
ATOM     30  O   UNL A   1      34.727  31.944  29.806  1.00  0.00    -0.269 OA
BRANCH  28  31
ATOM     31  C   UNL A   1      36.148  30.305  28.998  1.00  0.00     0.039 A 
ATOM     32  C   UNL A   1      36.905  30.212  27.818  1.00  0.00     0.014 A 
ATOM     33  C   UNL A   1      36.591  29.653  30.144  1.00  0.00     0.014 A 
ATOM     34  C   UNL A   1      38.160  29.616  27.832  1.00  0.00     0.010 A 
ATOM     35  C   UNL A   1      37.889  29.168  30.194  1.00  0.00     0.010 A 
ATOM     36  C   UNL A   1      38.697  29.194  29.051  1.00  0.00    -0.014 A 
BRANCH  36  37
ATOM     37  C   UNL A   1      40.137  28.897  29.185  1.00  0.00     0.031 A 
ATOM     38  C   UNL A   1      41.089  29.989  29.556  1.00  0.00     0.074 A 
ATOM     39  C   UNL A   1      40.560  27.669  28.820  1.00  0.00     0.049 A 
ATOM     40  N   UNL A   1      42.392  29.997  29.503  1.00  0.00    -0.248 NA
ATOM     41  C   UNL A   1      40.493  31.261  29.998  1.00  0.00     0.031 C 
ATOM     42  C   UNL A   1      39.689  26.569  28.383  1.00  0.00     0.029 A 
ATOM     43  N   UNL A   1      41.819  27.140  28.730  1.00  0.00    -0.354 N 
ATOM     44  C   UNL A   1      42.774  31.284  29.862  1.00  0.00     0.074 A 
ATOM     45  C   UNL A   1      41.563  32.037  30.103  1.00  0.00     0.031 C 
ATOM     46  C   UNL A   1      40.437  25.496  28.093  1.00  0.00     0.029 A 
ATOM     47  C   UNL A   1      41.838  25.845  28.264  1.00  0.00     0.049 A 
ATOM     48  H   UNL A   1      42.632  27.638  28.975  1.00  0.00     0.167 HD
ATOM     49  C   UNL A   1      44.029  31.776  29.981  1.00  0.00     0.037 A 
ATOM     50  C   UNL A   1      42.879  25.041  27.980  1.00  0.00     0.037 A 
ATOM     51  C   UNL A   1      45.208  30.978  29.763  1.00  0.00     0.049 A 
ATOM     52  C   UNL A   1      44.259  25.595  28.177  1.00  0.00     0.074 A 
ATOM     53  C   UNL A   1      46.534  31.334  29.906  1.00  0.00     0.029 A 
ATOM     54  N   UNL A   1      45.189  29.647  29.361  1.00  0.00    -0.354 N 
ATOM     55  N   UNL A   1      44.608  26.804  28.552  1.00  0.00    -0.248 NA
ATOM     56  C   UNL A   1      45.382  24.691  27.913  1.00  0.00     0.031 C 
ATOM     57  C   UNL A   1      47.319  30.224  29.570  1.00  0.00     0.029 A 
ATOM     58  C   UNL A   1      46.481  29.167  29.244  1.00  0.00     0.049 A 
ATOM     59  H   UNL A   1      44.374  29.122  29.184  1.00  0.00     0.167 HD
ATOM     60  C   UNL A   1      45.994  26.810  28.568  1.00  0.00     0.074 A 
ATOM     61  C   UNL A   1      46.417  25.473  28.191  1.00  0.00     0.031 C 
ATOM     62  C   UNL A   1      46.845  27.826  28.856  1.00  0.00     0.037 A 
BRANCH  49  63
ATOM     63  C   UNL A   1      44.173  33.227  30.353  1.00  0.00     0.058 A 
ATOM     64  C   UNL A   1      44.308  33.637  31.689  1.00  0.00     0.135 A 
ATOM     65  C   UNL A   1      44.157  34.226  29.365  1.00  0.00     0.135 A 
ATOM     66  F   UNL A   1      44.311  32.728  32.678  1.00  0.00    -0.206 F 
ATOM     67  C   UNL A   1      44.379  34.982  32.038  1.00  0.00     0.059 A 
ATOM     68  C   UNL A   1      44.253  35.578  29.689  1.00  0.00     0.059 A 
ATOM     69  F   UNL A   1      44.028  33.895  28.071  1.00  0.00    -0.206 F 
ATOM     70  C   UNL A   1      44.341  35.947  31.031  1.00  0.00     0.060 A 
BRANCH  70  71
ATOM     71  S   UNL A   1      44.406  37.690  31.499  1.00  0.00     0.124 S 
ATOM     72  O   UNL A   1      43.827  38.329  30.322  1.00  0.00    -0.237 OA
ATOM     73  O   UNL A   1      43.584  37.723  32.704  1.00  0.00    -0.237 OA
ATOM     74  O   UNL A   1      45.830  37.932  31.709  1.00  0.00    -0.744 OA
ENDBRANCH  70  71
ENDBRANCH  49  63
BRANCH  50  75
ATOM     75  C   UNL A   1      42.640  23.655  27.499  1.00  0.00     0.058 A 
ATOM     76  C   UNL A   1      42.652  23.360  26.128  1.00  0.00     0.135 A 
ATOM     77  C   UNL A   1      42.465  22.585  28.393  1.00  0.00     0.135 A 
ATOM     78  F   UNL A   1      42.818  24.346  25.233  1.00  0.00    -0.206 F 
ATOM     79  C   UNL A   1      42.493  22.060  25.658  1.00  0.00     0.059 A 
ATOM     80  C   UNL A   1      42.326  21.273  27.948  1.00  0.00     0.059 A 
ATOM     81  F   UNL A   1      42.471  22.807  29.716  1.00  0.00    -0.206 F 
ATOM     82  C   UNL A   1      42.335  21.021  26.576  1.00  0.00     0.060 A 
BRANCH  82  83
ATOM     83  S   UNL A   1      42.202  19.327  25.960  1.00  0.00     0.124 S 
ATOM     84  O   UNL A   1      43.093  19.366  24.803  1.00  0.00    -0.237 OA
ATOM     85  O   UNL A   1      42.676  18.545  27.101  1.00  0.00    -0.237 OA
ATOM     86  O   UNL A   1      40.784  19.188  25.662  1.00  0.00    -0.744 OA
ENDBRANCH  82  83
ENDBRANCH  50  75
BRANCH  62  87
ATOM     87  C   UNL A   1      48.308  27.515  28.766  1.00  0.00     0.058 A 
ATOM     88  C   UNL A   1      49.009  27.682  27.563  1.00  0.00     0.135 A 
ATOM     89  C   UNL A   1      49.019  27.097  29.899  1.00  0.00     0.135 A 
ATOM     90  F   UNL A   1      48.364  28.069  26.451  1.00  0.00    -0.206 F 
ATOM     91  C   UNL A   1      50.373  27.435  27.484  1.00  0.00     0.059 A 
ATOM     92  C   UNL A   1      50.388  26.864  29.849  1.00  0.00     0.059 A 
ATOM     93  F   UNL A   1      48.386  26.929  31.072  1.00  0.00    -0.206 F 
ATOM     94  C   UNL A   1      51.054  27.028  28.634  1.00  0.00     0.060 A 
BRANCH  94  95
ATOM     95  S   UNL A   1      52.834  26.757  28.532  1.00  0.00     0.124 S 
ATOM     96  O   UNL A   1      53.145  26.340  29.896  1.00  0.00    -0.237 OA
ATOM     97  O   UNL A   1      52.937  25.718  27.512  1.00  0.00    -0.237 OA
ATOM     98  O   UNL A   1      53.352  28.065  28.141  1.00  0.00    -0.744 OA
ENDBRANCH  94  95
ENDBRANCH  62  87
ENDBRANCH  36  37
ENDBRANCH  28  31
ENDBRANCH  26  27
ENDBRANCH   1  26
TORSDOF 15
ENDMDL
MODEL 2
REMARK VINA RESULT:     -13.1      1.180      3.566
REMARK SMILES C[N@H+]1CCO[C@H](c2noc(-c3ccccc3C(=O)NCCCNC(=O)c3ccc(-c4c5nc(c(-c6c(F)cc(S(=O)(=O)[O-])cc6F)c6ccc([nH]6)c(-c6c(F)cc(S(=O)(=O)[O-])cc6F)c6nc(c(-c7c(F)cc(S(=O)(=O)[O-])cc7F)c7ccc4[nH]7)C=C6)C=C5)cc3)n2)C1
REMARK SMILES IDX 21 1 20 2 19 3 17 4 18 5 16 7 11 8 12 9 13 10 15 11 14 12
REMARK SMILES IDX 10 13 7 14 8 15 92 16 9 17 6 18 1 19 2 20 3 21 93 22 4 24
REMARK SMILES IDX 5 25 22 26 23 27 24 28 25 30 26 31 27 32 91 33 28 34 90 35
REMARK SMILES IDX 29 36 30 37 31 38 84 39 32 40 89 41 83 42 85 43 33 44 88 45
REMARK SMILES IDX 82 46 81 47 34 49 68 50 47 51 67 52 48 53 51 54 66 55 86 56
REMARK SMILES IDX 49 57 50 58 65 60 87 61 52 62 35 63 36 64 45 65 37 66 38 67
REMARK SMILES IDX 44 68 46 69 39 70 40 71 41 72 42 73 43 74 69 75 70 76 79 77
REMARK SMILES IDX 71 78 72 79 78 80 80 81 73 82 74 83 75 84 76 85 77 86 53 87
REMARK SMILES IDX 54 88 63 89 55 90 56 91 62 92 64 93 57 94 58 95 59 96 60 97
REMARK SMILES IDX 61 98
REMARK H PARENT 19 6 2 23 23 29 85 48 51 59
REMARK Flexibility Score: inf
ROOT
ATOM      1  C   UNL A   1      31.960  29.338  26.934  1.00  0.00     0.042 C 
ENDROOT
BRANCH   1   2
ATOM      2  C   UNL A   1      31.781  30.133  25.652  1.00  0.00     0.118 C 
BRANCH   2   3
ATOM      3  N   UNL A   1      32.417  29.559  24.479  1.00  0.00    -0.352 N 
ATOM      4  C   UNL A   1      31.836  28.942  23.394  1.00  0.00     0.252 C 
ATOM      5  O   UNL A   1      32.540  28.536  22.472  1.00  0.00    -0.269 OA
ATOM      6  H   UNL A   1      33.399  29.618  24.458  1.00  0.00     0.163 HD
BRANCH   4   7
ATOM      7  C   UNL A   1      30.380  28.645  23.367  1.00  0.00     0.052 A 
ATOM      8  C   UNL A   1      29.791  27.487  23.905  1.00  0.00     0.053 A 
ATOM      9  C   UNL A   1      28.410  27.287  23.718  1.00  0.00     0.015 A 
ATOM     10  C   UNL A   1      27.625  28.250  23.076  1.00  0.00     0.001 A 
ATOM     11  C   UNL A   1      29.576  29.626  22.762  1.00  0.00     0.014 A 
ATOM     12  C   UNL A   1      28.204  29.430  22.620  1.00  0.00     0.001 A 
BRANCH   8  13
ATOM     13  C   UNL A   1      30.561  26.519  24.668  1.00  0.00     0.258 A 
ATOM     14  C   UNL A   1      31.635  24.863  25.371  1.00  0.00     0.206 A 
ATOM     15  N   UNL A   1      30.957  25.267  26.456  1.00  0.00    -0.059 NA
ATOM     16  N   UNL A   1      31.461  25.655  24.261  1.00  0.00    -0.189 NA
ATOM     17  O   UNL A   1      30.233  26.369  25.987  1.00  0.00    -0.334 OA
BRANCH  14  18
ATOM     18  C   UNL A   1      32.446  23.603  25.329  1.00  0.00     0.245 C 
ATOM     19  C   UNL A   1      32.444  20.477  25.035  1.00  0.00     0.332 C 
ATOM     20  N   UNL A   1      32.525  21.229  26.288  1.00  0.00    -0.333 N 
ATOM     21  C   UNL A   1      33.927  21.540  26.648  1.00  0.00     0.290 C 
ATOM     22  C   UNL A   1      31.773  22.508  26.193  1.00  0.00     0.303 C 
ATOM     23  H   UNL A   1      32.113  20.638  27.008  1.00  0.00     0.348 HD
ATOM     24  C   UNL A   1      34.562  22.632  25.781  1.00  0.00     0.222 C 
ATOM     25  O   UNL A   1      33.793  23.842  25.817  1.00  0.00    -0.358 OA
ENDBRANCH  14  18
ENDBRANCH   8  13
ENDBRANCH   4   7
ENDBRANCH   2   3
ENDBRANCH   1   2
BRANCH   1  26
ATOM     26  C   UNL A   1      33.381  29.317  27.501  1.00  0.00     0.118 C 
BRANCH  26  27
ATOM     27  N   UNL A   1      33.801  30.577  28.105  1.00  0.00    -0.352 N 
ATOM     28  C   UNL A   1      34.922  30.982  28.785  1.00  0.00     0.251 C 
ATOM     29  H   UNL A   1      33.134  31.293  28.001  1.00  0.00     0.163 HD
ATOM     30  O   UNL A   1      34.886  32.052  29.397  1.00  0.00    -0.269 OA
BRANCH  28  31
ATOM     31  C   UNL A   1      36.169  30.199  28.869  1.00  0.00     0.039 A 
ATOM     32  C   UNL A   1      36.940  30.106  27.699  1.00  0.00     0.014 A 
ATOM     33  C   UNL A   1      36.601  29.552  30.022  1.00  0.00     0.014 A 
ATOM     34  C   UNL A   1      38.198  29.516  27.729  1.00  0.00     0.010 A 
ATOM     35  C   UNL A   1      37.901  29.073  30.089  1.00  0.00     0.010 A 
ATOM     36  C   UNL A   1      38.722  29.100  28.955  1.00  0.00    -0.014 A 
BRANCH  36  37
ATOM     37  C   UNL A   1      40.162  28.810  29.107  1.00  0.00     0.031 A 
ATOM     38  C   UNL A   1      41.103  29.905  29.496  1.00  0.00     0.074 A 
ATOM     39  C   UNL A   1      40.596  27.586  28.743  1.00  0.00     0.049 A 
ATOM     40  N   UNL A   1      42.407  29.920  29.461  1.00  0.00    -0.248 NA
ATOM     41  C   UNL A   1      40.495  31.172  29.936  1.00  0.00     0.031 C 
ATOM     42  C   UNL A   1      39.737  26.483  28.289  1.00  0.00     0.029 A 
ATOM     43  N   UNL A   1      41.859  27.064  28.666  1.00  0.00    -0.354 N 
ATOM     44  C   UNL A   1      42.777  31.207  29.831  1.00  0.00     0.074 A 
ATOM     45  C   UNL A   1      41.559  31.953  30.059  1.00  0.00     0.031 C 
ATOM     46  C   UNL A   1      40.494  25.415  28.003  1.00  0.00     0.029 A 
ATOM     47  C   UNL A   1      41.892  25.771  28.194  1.00  0.00     0.049 A 
ATOM     48  H   UNL A   1      42.667  27.565  28.925  1.00  0.00     0.167 HD
ATOM     49  C   UNL A   1      44.028  31.706  29.969  1.00  0.00     0.037 A 
ATOM     50  C   UNL A   1      42.940  24.974  27.921  1.00  0.00     0.037 A 
ATOM     51  C   UNL A   1      45.213  30.915  29.763  1.00  0.00     0.049 A 
ATOM     52  C   UNL A   1      44.315  25.535  28.139  1.00  0.00     0.074 A 
ATOM     53  C   UNL A   1      46.536  31.277  29.925  1.00  0.00     0.029 A 
ATOM     54  N   UNL A   1      45.207  29.585  29.354  1.00  0.00    -0.354 N 
ATOM     55  N   UNL A   1      44.652  26.743  28.525  1.00  0.00    -0.248 NA
ATOM     56  C   UNL A   1      45.446  24.638  27.885  1.00  0.00     0.031 C 
ATOM     57  C   UNL A   1      47.331  30.173  29.594  1.00  0.00     0.029 A 
ATOM     58  C   UNL A   1      46.503  29.113  29.252  1.00  0.00     0.049 A 
ATOM     59  H   UNL A   1      44.397  29.057  29.164  1.00  0.00     0.167 HD
ATOM     60  C   UNL A   1      46.038  26.757  28.559  1.00  0.00     0.074 A 
ATOM     61  C   UNL A   1      46.474  25.424  28.181  1.00  0.00     0.031 C 
ATOM     62  C   UNL A   1      46.879  27.776  28.863  1.00  0.00     0.037 A 
BRANCH  49  63
ATOM     63  C   UNL A   1      44.159  33.156  30.349  1.00  0.00     0.058 A 
ATOM     64  C   UNL A   1      44.186  34.173  29.382  1.00  0.00     0.135 A 
ATOM     65  C   UNL A   1      44.279  33.536  31.696  1.00  0.00     0.135 A 
ATOM     66  F   UNL A   1      44.095  33.869  28.078  1.00  0.00    -0.206 F 
ATOM     67  C   UNL A   1      44.370  35.508  29.731  1.00  0.00     0.059 A 
ATOM     68  C   UNL A   1      44.437  34.869  32.070  1.00  0.00     0.059 A 
ATOM     69  F   UNL A   1      44.262  32.607  32.665  1.00  0.00    -0.206 F 
ATOM     70  C   UNL A   1      44.504  35.846  31.078  1.00  0.00     0.060 A 
BRANCH  70  71
ATOM     71  S   UNL A   1      44.769  37.578  31.513  1.00  0.00     0.124 S 
ATOM     72  O   UNL A   1      43.717  38.235  30.745  1.00  0.00    -0.237 OA
ATOM     73  O   UNL A   1      44.583  37.571  32.961  1.00  0.00    -0.237 OA
ATOM     74  O   UNL A   1      46.133  37.837  31.062  1.00  0.00    -0.744 OA
ENDBRANCH  70  71
ENDBRANCH  49  63
BRANCH  50  75
ATOM     75  C   UNL A   1      42.715  23.589  27.430  1.00  0.00     0.058 A 
ATOM     76  C   UNL A   1      42.841  23.282  26.068  1.00  0.00     0.135 A 
ATOM     77  C   UNL A   1      42.440  22.530  28.313  1.00  0.00     0.135 A 
ATOM     78  F   UNL A   1      43.105  24.257  25.184  1.00  0.00    -0.206 F 
ATOM     79  C   UNL A   1      42.697  21.981  25.595  1.00  0.00     0.059 A 
ATOM     80  C   UNL A   1      42.313  21.218  27.866  1.00  0.00     0.059 A 
ATOM     81  F   UNL A   1      42.336  22.764  29.630  1.00  0.00    -0.206 F 
ATOM     82  C   UNL A   1      42.437  20.954  26.503  1.00  0.00     0.060 A 
BRANCH  82  83
ATOM     83  S   UNL A   1      42.323  19.258  25.889  1.00  0.00     0.124 S 
ATOM     84  O   UNL A   1      43.181  19.316  24.708  1.00  0.00    -0.237 OA
ATOM     85  O   UNL A   1      42.844  18.486  27.016  1.00  0.00    -0.237 OA
ATOM     86  O   UNL A   1      40.900  19.089  25.629  1.00  0.00    -0.744 OA
ENDBRANCH  82  83
ENDBRANCH  50  75
BRANCH  62  87
ATOM     87  C   UNL A   1      48.345  27.473  28.791  1.00  0.00     0.058 A 
ATOM     88  C   UNL A   1      49.088  27.766  27.637  1.00  0.00     0.135 A 
ATOM     89  C   UNL A   1      49.017  26.935  29.897  1.00  0.00     0.135 A 
ATOM     90  F   UNL A   1      48.480  28.271  26.551  1.00  0.00    -0.206 F 
ATOM     91  C   UNL A   1      50.454  27.525  27.580  1.00  0.00     0.059 A 
ATOM     92  C   UNL A   1      50.387  26.705  29.869  1.00  0.00     0.059 A 
ATOM     93  F   UNL A   1      48.344  26.644  31.022  1.00  0.00    -0.206 F 
ATOM     94  C   UNL A   1      51.095  26.997  28.703  1.00  0.00     0.060 A 
BRANCH  94  95
ATOM     95  S   UNL A   1      52.878  26.735  28.635  1.00  0.00     0.124 S 
ATOM     96  O   UNL A   1      52.988  25.754  27.559  1.00  0.00    -0.237 OA
ATOM     97  O   UNL A   1      53.381  28.071  28.329  1.00  0.00    -0.237 OA
ATOM     98  O   UNL A   1      53.198  26.242  29.971  1.00  0.00    -0.744 OA
ENDBRANCH  94  95
ENDBRANCH  62  87
ENDBRANCH  36  37
ENDBRANCH  28  31
ENDBRANCH  26  27
ENDBRANCH   1  26
TORSDOF 15
ENDMDL
MODEL 3
REMARK VINA RESULT:     -13.0      1.002      2.016
REMARK SMILES C[N@H+]1CCO[C@H](c2noc(-c3ccccc3C(=O)NCCCNC(=O)c3ccc(-c4c5nc(c(-c6c(F)cc(S(=O)(=O)[O-])cc6F)c6ccc([nH]6)c(-c6c(F)cc(S(=O)(=O)[O-])cc6F)c6nc(c(-c7c(F)cc(S(=O)(=O)[O-])cc7F)c7ccc4[nH]7)C=C6)C=C5)cc3)n2)C1
REMARK SMILES IDX 21 1 20 2 19 3 17 4 18 5 16 7 11 8 12 9 13 10 15 11 14 12
REMARK SMILES IDX 10 13 7 14 8 15 92 16 9 17 6 18 1 19 2 20 3 21 93 22 4 24
REMARK SMILES IDX 5 25 22 26 23 27 24 28 25 30 26 31 27 32 91 33 28 34 90 35
REMARK SMILES IDX 29 36 30 37 31 38 84 39 32 40 89 41 83 42 85 43 33 44 88 45
REMARK SMILES IDX 82 46 81 47 34 49 68 50 47 51 67 52 48 53 51 54 66 55 86 56
REMARK SMILES IDX 49 57 50 58 65 60 87 61 52 62 35 63 36 64 45 65 37 66 38 67
REMARK SMILES IDX 44 68 46 69 39 70 40 71 41 72 42 73 43 74 69 75 70 76 79 77
REMARK SMILES IDX 71 78 72 79 78 80 80 81 73 82 74 83 75 84 76 85 77 86 53 87
REMARK SMILES IDX 54 88 63 89 55 90 56 91 62 92 64 93 57 94 58 95 59 96 60 97
REMARK SMILES IDX 61 98
REMARK H PARENT 19 6 2 23 23 29 85 48 51 59
REMARK Flexibility Score: inf
ROOT
ATOM      1  C   UNL A   1      33.787  28.792  26.076  1.00  0.00     0.042 C 
ENDROOT
BRANCH   1   2
ATOM      2  C   UNL A   1      33.136  29.357  24.826  1.00  0.00     0.118 C 
BRANCH   2   3
ATOM      3  N   UNL A   1      33.416  28.626  23.603  1.00  0.00    -0.352 N 
ATOM      4  C   UNL A   1      33.158  27.307  23.304  1.00  0.00     0.252 C 
ATOM      5  O   UNL A   1      33.445  26.865  22.193  1.00  0.00    -0.269 OA
ATOM      6  H   UNL A   1      33.851  29.146  22.888  1.00  0.00     0.163 HD
BRANCH   4   7
ATOM      7  C   UNL A   1      32.650  26.370  24.338  1.00  0.00     0.052 A 
ATOM      8  C   UNL A   1      31.298  26.244  24.708  1.00  0.00     0.053 A 
ATOM      9  C   UNL A   1      30.972  25.388  25.776  1.00  0.00     0.015 A 
ATOM     10  C   UNL A   1      31.955  24.622  26.411  1.00  0.00     0.001 A 
ATOM     11  C   UNL A   1      33.625  25.565  24.953  1.00  0.00     0.014 A 
ATOM     12  C   UNL A   1      33.277  24.692  25.982  1.00  0.00     0.001 A 
BRANCH   8  13
ATOM     13  C   UNL A   1      30.242  26.946  23.999  1.00  0.00     0.258 A 
ATOM     14  C   UNL A   1      28.924  28.345  23.164  1.00  0.00     0.206 A 
ATOM     15  N   UNL A   1      28.122  27.309  23.454  1.00  0.00    -0.059 NA
ATOM     16  N   UNL A   1      30.255  28.129  23.431  1.00  0.00    -0.189 NA
ATOM     17  O   UNL A   1      28.999  26.376  24.019  1.00  0.00    -0.334 OA
BRANCH  14  18
ATOM     18  C   UNL A   1      28.416  29.668  22.676  1.00  0.00     0.245 C 
ATOM     19  C   UNL A   1      27.965  31.574  20.222  1.00  0.00     0.332 C 
ATOM     20  N   UNL A   1      29.065  31.645  21.184  1.00  0.00    -0.333 N 
ATOM     21  C   UNL A   1      28.721  32.494  22.346  1.00  0.00     0.290 C 
ATOM     22  C   UNL A   1      29.427  30.293  21.683  1.00  0.00     0.303 C 
ATOM     23  H   UNL A   1      29.857  32.054  20.688  1.00  0.00     0.348 HD
ATOM     24  C   UNL A   1      27.724  31.845  23.313  1.00  0.00     0.222 C 
ATOM     25  O   UNL A   1      28.204  30.579  23.787  1.00  0.00    -0.358 OA
ENDBRANCH  14  18
ENDBRANCH   8  13
ENDBRANCH   4   7
ENDBRANCH   2   3
ENDBRANCH   1   2
BRANCH   1  26
ATOM     26  C   UNL A   1      33.129  29.193  27.397  1.00  0.00     0.118 C 
BRANCH  26  27
ATOM     27  N   UNL A   1      33.536  30.504  27.893  1.00  0.00    -0.352 N 
ATOM     28  C   UNL A   1      34.654  30.978  28.532  1.00  0.00     0.251 C 
ATOM     29  H   UNL A   1      32.860  31.202  27.734  1.00  0.00     0.163 HD
ATOM     30  O   UNL A   1      34.608  32.094  29.052  1.00  0.00    -0.269 OA
BRANCH  28  31
ATOM     31  C   UNL A   1      35.911  30.219  28.674  1.00  0.00     0.039 A 
ATOM     32  C   UNL A   1      36.726  30.120  27.534  1.00  0.00     0.014 A 
ATOM     33  C   UNL A   1      36.313  29.600  29.853  1.00  0.00     0.014 A 
ATOM     34  C   UNL A   1      37.992  29.554  27.619  1.00  0.00     0.010 A 
ATOM     35  C   UNL A   1      37.618  29.146  29.975  1.00  0.00     0.010 A 
ATOM     36  C   UNL A   1      38.479  29.169  28.870  1.00  0.00    -0.014 A 
BRANCH  36  37
ATOM     37  C   UNL A   1      39.917  28.907  29.079  1.00  0.00     0.031 A 
ATOM     38  C   UNL A   1      40.820  30.020  29.507  1.00  0.00     0.074 A 
ATOM     39  C   UNL A   1      40.390  27.693  28.729  1.00  0.00     0.049 A 
ATOM     40  N   UNL A   1      42.123  30.062  29.523  1.00  0.00    -0.248 NA
ATOM     41  C   UNL A   1      40.168  31.273  29.924  1.00  0.00     0.031 C 
ATOM     42  C   UNL A   1      39.573  26.574  28.240  1.00  0.00     0.029 A 
ATOM     43  N   UNL A   1      41.666  27.197  28.702  1.00  0.00    -0.354 N 
ATOM     44  C   UNL A   1      42.452  31.355  29.910  1.00  0.00     0.074 A 
ATOM     45  C   UNL A   1      41.210  32.075  30.091  1.00  0.00     0.031 C 
ATOM     46  C   UNL A   1      40.362  25.523  27.982  1.00  0.00     0.029 A 
ATOM     47  C   UNL A   1      41.743  25.906  28.229  1.00  0.00     0.049 A 
ATOM     48  H   UNL A   1      42.452  27.714  28.993  1.00  0.00     0.167 HD
ATOM     49  C   UNL A   1      43.686  31.879  30.098  1.00  0.00     0.037 A 
ATOM     50  C   UNL A   1      42.818  25.132  27.996  1.00  0.00     0.037 A 
ATOM     51  C   UNL A   1      44.894  31.112  29.938  1.00  0.00     0.049 A 
ATOM     52  C   UNL A   1      44.171  25.719  28.269  1.00  0.00     0.074 A 
ATOM     53  C   UNL A   1      46.202  31.501  30.154  1.00  0.00     0.029 A 
ATOM     54  N   UNL A   1      44.931  29.784  29.527  1.00  0.00    -0.354 N 
ATOM     55  N   UNL A   1      44.468  26.934  28.670  1.00  0.00    -0.248 NA
ATOM     56  C   UNL A   1      45.329  24.846  28.059  1.00  0.00     0.031 C 
ATOM     57  C   UNL A   1      47.032  30.414  29.852  1.00  0.00     0.029 A 
ATOM     58  C   UNL A   1      46.240  29.338  29.475  1.00  0.00     0.049 A 
ATOM     59  H   UNL A   1      44.141  29.240  29.304  1.00  0.00     0.167 HD
ATOM     60  C   UNL A   1      45.851  26.975  28.760  1.00  0.00     0.074 A 
ATOM     61  C   UNL A   1      46.328  25.652  28.396  1.00  0.00     0.031 C 
ATOM     62  C   UNL A   1      46.659  28.010  29.099  1.00  0.00     0.037 A 
BRANCH  49  63
ATOM     63  C   UNL A   1      43.772  33.330  30.487  1.00  0.00     0.058 A 
ATOM     64  C   UNL A   1      43.852  34.348  29.524  1.00  0.00     0.135 A 
ATOM     65  C   UNL A   1      43.794  33.710  31.839  1.00  0.00     0.135 A 
ATOM     66  F   UNL A   1      43.854  34.043  28.216  1.00  0.00    -0.206 F 
ATOM     67  C   UNL A   1      43.995  35.685  29.884  1.00  0.00     0.059 A 
ATOM     68  C   UNL A   1      43.910  35.045  32.223  1.00  0.00     0.059 A 
ATOM     69  F   UNL A   1      43.723  32.781  32.804  1.00  0.00    -0.206 F 
ATOM     70  C   UNL A   1      44.032  36.023  31.237  1.00  0.00     0.060 A 
BRANCH  70  71
ATOM     71  S   UNL A   1      44.245  37.758  31.689  1.00  0.00     0.124 S 
ATOM     72  O   UNL A   1      45.694  37.844  31.838  1.00  0.00    -0.237 OA
ATOM     73  O   UNL A   1      43.686  38.456  30.536  1.00  0.00    -0.237 OA
ATOM     74  O   UNL A   1      43.478  37.884  32.925  1.00  0.00    -0.744 OA
ENDBRANCH  70  71
ENDBRANCH  49  63
BRANCH  50  75
ATOM     75  C   UNL A   1      42.640  23.744  27.494  1.00  0.00     0.058 A 
ATOM     76  C   UNL A   1      42.793  23.449  26.132  1.00  0.00     0.135 A 
ATOM     77  C   UNL A   1      42.386  22.672  28.366  1.00  0.00     0.135 A 
ATOM     78  F   UNL A   1      43.040  24.438  25.258  1.00  0.00    -0.206 F 
ATOM     79  C   UNL A   1      42.694  22.148  25.649  1.00  0.00     0.059 A 
ATOM     80  C   UNL A   1      42.303  21.359  27.910  1.00  0.00     0.059 A 
ATOM     81  F   UNL A   1      42.257  22.894  29.684  1.00  0.00    -0.206 F 
ATOM     82  C   UNL A   1      42.454  21.108  26.547  1.00  0.00     0.060 A 
BRANCH  82  83
ATOM     83  S   UNL A   1      42.398  19.412  25.921  1.00  0.00     0.124 S 
ATOM     84  O   UNL A   1      40.978  19.262  25.611  1.00  0.00    -0.237 OA
ATOM     85  O   UNL A   1      43.297  19.479  24.770  1.00  0.00    -0.237 OA
ATOM     86  O   UNL A   1      42.888  18.624  27.043  1.00  0.00    -0.744 OA
ENDBRANCH  82  83
ENDBRANCH  50  75
BRANCH  62  87
ATOM     87  C   UNL A   1      48.132  27.738  29.084  1.00  0.00     0.058 A 
ATOM     88  C   UNL A   1      48.786  27.237  30.219  1.00  0.00     0.135 A 
ATOM     89  C   UNL A   1      48.880  27.931  27.914  1.00  0.00     0.135 A 
ATOM     90  F   UNL A   1      48.109  27.050  31.363  1.00  0.00    -0.206 F 
ATOM     91  C   UNL A   1      50.143  26.945  30.197  1.00  0.00     0.059 A 
ATOM     92  C   UNL A   1      50.234  27.625  27.864  1.00  0.00     0.059 A 
ATOM     93  F   UNL A   1      48.291  28.404  26.804  1.00  0.00    -0.206 F 
ATOM     94  C   UNL A   1      50.858  27.140  29.013  1.00  0.00     0.060 A 
BRANCH  94  95
ATOM     95  S   UNL A   1      52.610  26.710  28.982  1.00  0.00     0.124 S 
ATOM     96  O   UNL A   1      53.234  28.029  28.957  1.00  0.00    -0.237 OA
ATOM     97  O   UNL A   1      52.770  25.955  30.221  1.00  0.00    -0.237 OA
ATOM     98  O   UNL A   1      52.743  25.927  27.756  1.00  0.00    -0.744 OA
ENDBRANCH  94  95
ENDBRANCH  62  87
ENDBRANCH  36  37
ENDBRANCH  28  31
ENDBRANCH  26  27
ENDBRANCH   1  26
TORSDOF 15
ENDMDL
