MODEL 1
REMARK VINA RESULT:      -9.8      0.000      0.000
REMARK SMILES CN(Cc1ccc(C(=O)NCCCNC(=O)c2ccc(-c3c4nc(c(-c5c(F)cc(S(=O)(=O)[O-])cc5F)c5ccc([nH]5)c(-c5c(F)cc(S(=O)(=O)[O-])cc5F)c5nc(c(-c6c(F)cc(S(=O)(=O)[O-])cc6F)c6ccc3[nH]6)C=C5)C=C4)cc2)cc1)c1ccccc1N
REMARK SMILES IDX 11 1 10 2 8 3 9 4 7 6 4 7 5 8 84 9 6 10 83 11 3 12 2 13 1 14
REMARK SMILES IDX 85 15 86 16 90 17 87 18 89 19 88 20 91 21 12 24 13 25 14 26
REMARK SMILES IDX 15 27 16 29 17 30 18 31 82 32 19 33 81 34 20 35 21 36 22 37
REMARK SMILES IDX 75 38 23 39 80 40 74 41 76 42 24 43 79 44 73 45 72 46 25 48
REMARK SMILES IDX 59 49 38 50 58 51 39 52 42 53 57 54 77 55 40 56 41 57 56 59
REMARK SMILES IDX 78 60 43 61 26 62 27 63 36 64 28 65 29 66 35 67 37 68 30 69
REMARK SMILES IDX 31 70 32 71 33 72 34 73 60 74 61 75 70 76 62 77 63 78 69 79
REMARK SMILES IDX 71 80 64 81 65 82 66 83 67 84 68 85 44 86 45 87 54 88 46 89
REMARK SMILES IDX 47 90 53 91 55 92 48 93 49 94 50 95 51 96 52 97
REMARK H PARENT 10 5 91 22 91 23 14 28 76 47 42 58
REMARK Flexibility Score: inf
ROOT
ATOM      1  C   UNL A   1      34.068  34.986  29.455  1.00  0.00     0.118 C 
ENDROOT
BRANCH   1   2
ATOM      2  N   UNL A   1      33.342  34.774  30.692  1.00  0.00    -0.352 N 
ATOM      3  C   UNL A   1      33.799  34.374  31.919  1.00  0.00     0.251 C 
ATOM      4  O   UNL A   1      33.039  34.394  32.885  1.00  0.00    -0.269 OA
ATOM      5  H   UNL A   1      32.373  34.944  30.642  1.00  0.00     0.163 HD
BRANCH   3   6
ATOM      6  C   UNL A   1      35.204  33.959  32.114  1.00  0.00     0.039 A 
ATOM      7  C   UNL A   1      37.821  33.177  32.761  1.00  0.00    -0.029 A 
ATOM      8  C   UNL A   1      37.351  34.454  33.108  1.00  0.00     0.006 A 
ATOM      9  C   UNL A   1      36.979  32.315  32.043  1.00  0.00     0.006 A 
ATOM     10  C   UNL A   1      36.044  34.835  32.805  1.00  0.00     0.014 A 
ATOM     11  C   UNL A   1      35.672  32.699  31.728  1.00  0.00     0.014 A 
BRANCH   7  12
ATOM     12  C   UNL A   1      39.175  32.710  33.260  1.00  0.00     0.151 C 
BRANCH  12  13
ATOM     13  N   UNL A   1      39.077  31.508  34.086  1.00  0.00    -0.369 N 
ATOM     14  C   UNL A   1      38.555  31.557  35.435  1.00  0.00     0.144 C 
BRANCH  13  15
ATOM     15  C   UNL A   1      39.682  30.330  33.651  1.00  0.00     0.060 A 
ATOM     16  C   UNL A   1      41.080  30.229  33.577  1.00  0.00     0.028 A 
ATOM     17  C   UNL A   1      38.909  29.209  33.270  1.00  0.00     0.055 A 
ATOM     18  C   UNL A   1      41.701  29.105  33.032  1.00  0.00     0.002 A 
ATOM     19  C   UNL A   1      39.540  28.088  32.714  1.00  0.00     0.027 A 
ATOM     20  C   UNL A   1      40.929  28.039  32.586  1.00  0.00     0.002 A 
BRANCH  17  21
ATOM     21  N   UNL A   1      37.513  29.269  33.301  1.00  0.00    -0.397 N 
ATOM     22  H   UNL A   1      37.038  29.961  32.785  1.00  0.00     0.156 HD
ATOM     23  H   UNL A   1      37.004  28.621  33.840  1.00  0.00     0.156 HD
ENDBRANCH  17  21
ENDBRANCH  13  15
ENDBRANCH  12  13
ENDBRANCH   7  12
ENDBRANCH   3   6
ENDBRANCH   1   2
BRANCH   1  24
ATOM     24  C   UNL A   1      33.629  34.009  28.370  1.00  0.00     0.042 C 
BRANCH  24  25
ATOM     25  C   UNL A   1      34.559  32.807  28.213  1.00  0.00     0.118 C 
BRANCH  25  26
ATOM     26  N   UNL A   1      33.825  31.556  28.104  1.00  0.00    -0.352 N 
ATOM     27  C   UNL A   1      34.291  30.268  28.015  1.00  0.00     0.251 C 
ATOM     28  H   UNL A   1      32.845  31.647  28.092  1.00  0.00     0.163 HD
ATOM     29  O   UNL A   1      33.512  29.369  27.705  1.00  0.00    -0.269 OA
BRANCH  27  30
ATOM     30  C   UNL A   1      35.713  29.957  28.281  1.00  0.00     0.039 A 
ATOM     31  C   UNL A   1      36.623  30.016  27.221  1.00  0.00     0.014 A 
ATOM     32  C   UNL A   1      36.144  29.556  29.549  1.00  0.00     0.014 A 
ATOM     33  C   UNL A   1      37.969  29.712  27.441  1.00  0.00     0.010 A 
ATOM     34  C   UNL A   1      37.497  29.318  29.783  1.00  0.00     0.010 A 
ATOM     35  C   UNL A   1      38.421  29.379  28.728  1.00  0.00    -0.014 A 
BRANCH  35  36
ATOM     36  C   UNL A   1      39.851  29.071  28.982  1.00  0.00     0.031 A 
ATOM     37  C   UNL A   1      40.760  30.125  29.556  1.00  0.00     0.074 A 
ATOM     38  C   UNL A   1      40.341  27.860  28.654  1.00  0.00     0.049 A 
ATOM     39  N   UNL A   1      42.045  30.068  29.796  1.00  0.00    -0.248 NA
ATOM     40  C   UNL A   1      40.149  31.427  29.876  1.00  0.00     0.031 C 
ATOM     41  C   UNL A   1      39.570  26.771  28.050  1.00  0.00     0.029 A 
ATOM     42  N   UNL A   1      41.606  27.343  28.773  1.00  0.00    -0.354 N 
ATOM     43  C   UNL A   1      42.399  31.322  30.279  1.00  0.00     0.074 A 
ATOM     44  C   UNL A   1      41.203  32.136  30.252  1.00  0.00     0.031 C 
ATOM     45  C   UNL A   1      40.372  25.710  27.871  1.00  0.00     0.029 A 
ATOM     46  C   UNL A   1      41.720  26.050  28.317  1.00  0.00     0.049 A 
ATOM     47  H   UNL A   1      42.362  27.850  29.148  1.00  0.00     0.167 HD
ATOM     48  C   UNL A   1      43.604  31.750  30.726  1.00  0.00     0.037 A 
ATOM     49  C   UNL A   1      42.789  25.234  28.264  1.00  0.00     0.037 A 
ATOM     50  C   UNL A   1      44.783  30.926  30.779  1.00  0.00     0.049 A 
ATOM     51  C   UNL A   1      44.112  25.725  28.785  1.00  0.00     0.074 A 
ATOM     52  C   UNL A   1      46.041  31.249  31.259  1.00  0.00     0.029 A 
ATOM     53  N   UNL A   1      44.849  29.612  30.338  1.00  0.00    -0.354 N 
ATOM     54  N   UNL A   1      44.416  26.898  29.286  1.00  0.00    -0.248 NA
ATOM     55  C   UNL A   1      45.234  24.777  28.746  1.00  0.00     0.031 C 
ATOM     56  C   UNL A   1      46.875  30.139  31.082  1.00  0.00     0.029 A 
ATOM     57  C   UNL A   1      46.127  29.112  30.528  1.00  0.00     0.049 A 
ATOM     58  H   UNL A   1      44.098  29.108  29.949  1.00  0.00     0.167 HD
ATOM     59  C   UNL A   1      45.757  26.822  29.646  1.00  0.00     0.074 A 
ATOM     60  C   UNL A   1      46.201  25.483  29.316  1.00  0.00     0.031 C 
ATOM     61  C   UNL A   1      46.549  27.773  30.201  1.00  0.00     0.037 A 
BRANCH  48  62
ATOM     62  C   UNL A   1      43.703  33.174  31.203  1.00  0.00     0.058 A 
ATOM     63  C   UNL A   1      43.457  33.521  32.542  1.00  0.00     0.135 A 
ATOM     64  C   UNL A   1      44.071  34.202  30.319  1.00  0.00     0.135 A 
ATOM     65  F   UNL A   1      43.086  32.580  33.426  1.00  0.00    -0.206 F 
ATOM     66  C   UNL A   1      43.541  34.838  32.981  1.00  0.00     0.059 A 
ATOM     67  C   UNL A   1      44.188  35.523  30.743  1.00  0.00     0.059 A 
ATOM     68  F   UNL A   1      44.319  33.928  29.028  1.00  0.00    -0.206 F 
ATOM     69  C   UNL A   1      43.905  35.833  32.072  1.00  0.00     0.060 A 
BRANCH  69  70
ATOM     70  S   UNL A   1      44.008  37.538  32.656  1.00  0.00     0.124 S 
ATOM     71  O   UNL A   1      42.978  37.554  33.690  1.00  0.00    -0.237 OA
ATOM     72  O   UNL A   1      45.385  37.625  33.133  1.00  0.00    -0.237 OA
ATOM     73  O   UNL A   1      43.712  38.324  31.462  1.00  0.00    -0.744 OA
ENDBRANCH  69  70
ENDBRANCH  48  62
BRANCH  49  74
ATOM     74  C   UNL A   1      42.643  23.856  27.726  1.00  0.00     0.058 A 
ATOM     75  C   UNL A   1      42.688  23.613  26.346  1.00  0.00     0.135 A 
ATOM     76  C   UNL A   1      42.474  22.754  28.579  1.00  0.00     0.135 A 
ATOM     77  F   UNL A   1      42.843  24.636  25.491  1.00  0.00    -0.206 F 
ATOM     78  C   UNL A   1      42.556  22.330  25.825  1.00  0.00     0.059 A 
ATOM     79  C   UNL A   1      42.362  21.458  28.085  1.00  0.00     0.059 A 
ATOM     80  F   UNL A   1      42.443  22.931  29.908  1.00  0.00    -0.206 F 
ATOM     81  C   UNL A   1      42.394  21.257  26.704  1.00  0.00     0.060 A 
BRANCH  81  82
ATOM     82  S   UNL A   1      42.276  19.589  26.024  1.00  0.00     0.124 S 
ATOM     83  O   UNL A   1      42.716  18.779  27.154  1.00  0.00    -0.237 OA
ATOM     84  O   UNL A   1      40.861  19.494  25.682  1.00  0.00    -0.237 OA
ATOM     85  O   UNL A   1      43.186  19.628  24.883  1.00  0.00    -0.744 OA
ENDBRANCH  81  82
ENDBRANCH  49  74
BRANCH  61  86
ATOM     86  C   UNL A   1      47.966  27.387  30.520  1.00  0.00     0.058 A 
ATOM     87  C   UNL A   1      49.032  27.738  29.678  1.00  0.00     0.135 A 
ATOM     88  C   UNL A   1      48.261  26.690  31.701  1.00  0.00     0.135 A 
ATOM     89  F   UNL A   1      48.801  28.400  28.533  1.00  0.00    -0.206 F 
ATOM     90  C   UNL A   1      50.343  27.387  29.985  1.00  0.00     0.059 A 
ATOM     91  C   UNL A   1      49.567  26.350  32.040  1.00  0.00     0.059 A 
ATOM     92  F   UNL A   1      47.277  26.340  32.546  1.00  0.00    -0.206 F 
ATOM     93  C   UNL A   1      50.600  26.690  31.167  1.00  0.00     0.060 A 
BRANCH  93  94
ATOM     94  S   UNL A   1      52.307  26.257  31.565  1.00  0.00     0.124 S 
ATOM     95  O   UNL A   1      52.119  25.251  32.604  1.00  0.00    -0.237 OA
ATOM     96  O   UNL A   1      52.813  25.764  30.287  1.00  0.00    -0.237 OA
ATOM     97  O   UNL A   1      52.881  27.523  32.013  1.00  0.00    -0.744 OA
ENDBRANCH  93  94
ENDBRANCH  61  86
ENDBRANCH  35  36
ENDBRANCH  27  30
ENDBRANCH  25  26
ENDBRANCH  24  25
ENDBRANCH   1  24
TORSDOF 17
ENDMDL
MODEL 2
REMARK VINA RESULT:      -9.6      3.636      6.244
REMARK SMILES CN(Cc1ccc(C(=O)NCCCNC(=O)c2ccc(-c3c4nc(c(-c5c(F)cc(S(=O)(=O)[O-])cc5F)c5ccc([nH]5)c(-c5c(F)cc(S(=O)(=O)[O-])cc5F)c5nc(c(-c6c(F)cc(S(=O)(=O)[O-])cc6F)c6ccc3[nH]6)C=C5)C=C4)cc2)cc1)c1ccccc1N
REMARK SMILES IDX 11 1 10 2 8 3 9 4 7 6 4 7 5 8 84 9 6 10 83 11 3 12 2 13 1 14
REMARK SMILES IDX 85 15 86 16 90 17 87 18 89 19 88 20 91 21 12 24 13 25 14 26
REMARK SMILES IDX 15 27 16 29 17 30 18 31 82 32 19 33 81 34 20 35 21 36 22 37
REMARK SMILES IDX 75 38 23 39 80 40 74 41 76 42 24 43 79 44 73 45 72 46 25 48
REMARK SMILES IDX 59 49 38 50 58 51 39 52 42 53 57 54 77 55 40 56 41 57 56 59
REMARK SMILES IDX 78 60 43 61 26 62 27 63 36 64 28 65 29 66 35 67 37 68 30 69
REMARK SMILES IDX 31 70 32 71 33 72 34 73 60 74 61 75 70 76 62 77 63 78 69 79
REMARK SMILES IDX 71 80 64 81 65 82 66 83 67 84 68 85 44 86 45 87 54 88 46 89
REMARK SMILES IDX 47 90 53 91 55 92 48 93 49 94 50 95 51 96 52 97
REMARK H PARENT 10 5 91 22 91 23 14 28 76 47 42 58
REMARK Flexibility Score: inf
ROOT
ATOM      1  C   UNL A   1      31.760  27.962  25.305  1.00  0.00     0.118 C 
ENDROOT
BRANCH   1   2
ATOM      2  N   UNL A   1      31.198  28.293  24.009  1.00  0.00    -0.352 N 
ATOM      3  C   UNL A   1      30.902  27.480  22.948  1.00  0.00     0.251 C 
ATOM      4  O   UNL A   1      30.292  27.939  21.985  1.00  0.00    -0.269 OA
ATOM      5  H   UNL A   1      30.999  29.248  23.872  1.00  0.00     0.163 HD
BRANCH   3   6
ATOM      6  C   UNL A   1      31.264  26.047  22.959  1.00  0.00     0.039 A 
ATOM      7  C   UNL A   1      32.154  23.392  23.159  1.00  0.00    -0.029 A 
ATOM      8  C   UNL A   1      32.970  24.378  22.578  1.00  0.00     0.006 A 
ATOM      9  C   UNL A   1      30.869  23.745  23.596  1.00  0.00     0.006 A 
ATOM     10  C   UNL A   1      32.536  25.700  22.497  1.00  0.00     0.014 A 
ATOM     11  C   UNL A   1      30.427  25.069  23.505  1.00  0.00     0.014 A 
BRANCH   7  12
ATOM     12  C   UNL A   1      32.711  22.004  23.410  1.00  0.00     0.151 C 
BRANCH  12  13
ATOM     13  N   UNL A   1      33.337  21.887  24.726  1.00  0.00    -0.369 N 
ATOM     14  C   UNL A   1      32.571  22.040  25.945  1.00  0.00     0.144 C 
BRANCH  13  15
ATOM     15  C   UNL A   1      34.726  21.831  24.819  1.00  0.00     0.060 A 
ATOM     16  C   UNL A   1      35.493  23.004  24.771  1.00  0.00     0.028 A 
ATOM     17  C   UNL A   1      35.400  20.595  24.959  1.00  0.00     0.055 A 
ATOM     18  C   UNL A   1      36.888  22.962  24.741  1.00  0.00     0.002 A 
ATOM     19  C   UNL A   1      36.800  20.561  24.917  1.00  0.00     0.027 A 
ATOM     20  C   UNL A   1      37.541  21.737  24.799  1.00  0.00     0.002 A 
BRANCH  17  21
ATOM     21  N   UNL A   1      34.681  19.397  24.984  1.00  0.00    -0.397 N 
ATOM     22  H   UNL A   1      33.705  19.405  24.856  1.00  0.00     0.156 HD
ATOM     23  H   UNL A   1      35.150  18.544  25.132  1.00  0.00     0.156 HD
ENDBRANCH  17  21
ENDBRANCH  13  15
ENDBRANCH  12  13
ENDBRANCH   7  12
ENDBRANCH   3   6
ENDBRANCH   1   2
BRANCH   1  24
ATOM     24  C   UNL A   1      33.283  27.917  25.263  1.00  0.00     0.042 C 
BRANCH  24  25
ATOM     25  C   UNL A   1      33.943  28.183  26.614  1.00  0.00     0.118 C 
BRANCH  25  26
ATOM     26  N   UNL A   1      33.695  29.534  27.091  1.00  0.00    -0.352 N 
ATOM     27  C   UNL A   1      34.468  30.343  27.886  1.00  0.00     0.251 C 
ATOM     28  H   UNL A   1      32.841  29.929  26.798  1.00  0.00     0.163 HD
ATOM     29  O   UNL A   1      33.977  31.366  28.357  1.00  0.00    -0.269 OA
BRANCH  27  30
ATOM     30  C   UNL A   1      35.874  29.992  28.183  1.00  0.00     0.039 A 
ATOM     31  C   UNL A   1      36.818  30.073  27.154  1.00  0.00     0.014 A 
ATOM     32  C   UNL A   1      36.257  29.532  29.446  1.00  0.00     0.014 A 
ATOM     33  C   UNL A   1      38.150  29.732  27.403  1.00  0.00     0.010 A 
ATOM     34  C   UNL A   1      37.598  29.256  29.711  1.00  0.00     0.010 A 
ATOM     35  C   UNL A   1      38.556  29.339  28.689  1.00  0.00    -0.014 A 
BRANCH  35  36
ATOM     36  C   UNL A   1      39.970  28.991  28.974  1.00  0.00     0.031 A 
ATOM     37  C   UNL A   1      40.890  30.013  29.586  1.00  0.00     0.074 A 
ATOM     38  C   UNL A   1      40.438  27.773  28.639  1.00  0.00     0.049 A 
ATOM     39  N   UNL A   1      42.167  29.919  29.858  1.00  0.00    -0.248 NA
ATOM     40  C   UNL A   1      40.304  31.324  29.912  1.00  0.00     0.031 C 
ATOM     41  C   UNL A   1      39.655  26.714  27.999  1.00  0.00     0.029 A 
ATOM     42  N   UNL A   1      41.686  27.222  28.781  1.00  0.00    -0.354 N 
ATOM     43  C   UNL A   1      42.539  31.157  30.370  1.00  0.00     0.074 A 
ATOM     44  C   UNL A   1      41.366  32.001  30.325  1.00  0.00     0.031 C 
ATOM     45  C   UNL A   1      40.435  25.635  27.823  1.00  0.00     0.029 A 
ATOM     46  C   UNL A   1      41.779  25.934  28.308  1.00  0.00     0.049 A 
ATOM     47  H   UNL A   1      42.445  27.704  29.183  1.00  0.00     0.167 HD
ATOM     48  C   UNL A   1      43.743  31.547  30.854  1.00  0.00     0.037 A 
ATOM     49  C   UNL A   1      42.828  25.092  28.270  1.00  0.00     0.037 A 
ATOM     50  C   UNL A   1      44.899  30.692  30.924  1.00  0.00     0.049 A 
ATOM     51  C   UNL A   1      44.149  25.540  28.832  1.00  0.00     0.074 A 
ATOM     52  C   UNL A   1      46.152  30.975  31.440  1.00  0.00     0.029 A 
ATOM     53  N   UNL A   1      44.944  29.383  30.464  1.00  0.00    -0.354 N 
ATOM     54  N   UNL A   1      44.470  26.698  29.358  1.00  0.00    -0.248 NA
ATOM     55  C   UNL A   1      45.248  24.566  28.805  1.00  0.00     0.031 C 
ATOM     56  C   UNL A   1      46.962  29.848  31.266  1.00  0.00     0.029 A 
ATOM     57  C   UNL A   1      46.203  28.849  30.678  1.00  0.00     0.049 A 
ATOM     58  H   UNL A   1      44.190  28.906  30.048  1.00  0.00     0.167 HD
ATOM     59  C   UNL A   1      45.798  26.582  29.750  1.00  0.00     0.074 A 
ATOM     60  C   UNL A   1      46.217  25.238  29.410  1.00  0.00     0.031 C 
ATOM     61  C   UNL A   1      46.599  27.505  30.340  1.00  0.00     0.037 A 
BRANCH  48  62
ATOM     62  C   UNL A   1      43.865  32.961  31.355  1.00  0.00     0.058 A 
ATOM     63  C   UNL A   1      43.624  33.288  32.699  1.00  0.00     0.135 A 
ATOM     64  C   UNL A   1      44.253  33.997  30.489  1.00  0.00     0.135 A 
ATOM     65  F   UNL A   1      43.235  32.339  33.567  1.00  0.00    -0.206 F 
ATOM     66  C   UNL A   1      43.729  34.596  33.162  1.00  0.00     0.059 A 
ATOM     67  C   UNL A   1      44.392  35.308  30.936  1.00  0.00     0.059 A 
ATOM     68  F   UNL A   1      44.498  33.741  29.195  1.00  0.00    -0.206 F 
ATOM     69  C   UNL A   1      44.112  35.600  32.270  1.00  0.00     0.060 A 
BRANCH  69  70
ATOM     70  S   UNL A   1      44.243  37.293  32.884  1.00  0.00     0.124 S 
ATOM     71  O   UNL A   1      45.546  37.263  33.541  1.00  0.00    -0.237 OA
ATOM     72  O   UNL A   1      44.170  38.080  31.657  1.00  0.00    -0.237 OA
ATOM     73  O   UNL A   1      43.094  37.420  33.775  1.00  0.00    -0.744 OA
ENDBRANCH  69  70
ENDBRANCH  48  62
BRANCH  49  74
ATOM     74  C   UNL A   1      42.661  23.726  27.707  1.00  0.00     0.058 A 
ATOM     75  C   UNL A   1      42.449  22.623  28.546  1.00  0.00     0.135 A 
ATOM     76  C   UNL A   1      42.693  23.498  26.322  1.00  0.00     0.135 A 
ATOM     77  F   UNL A   1      42.416  22.790  29.877  1.00  0.00    -0.206 F 
ATOM     78  C   UNL A   1      42.289  21.338  28.037  1.00  0.00     0.059 A 
ATOM     79  C   UNL A   1      42.513  22.227  25.787  1.00  0.00     0.059 A 
ATOM     80  F   UNL A   1      42.875  24.524  25.476  1.00  0.00    -0.206 F 
ATOM     81  C   UNL A   1      42.321  21.150  26.653  1.00  0.00     0.060 A 
BRANCH  81  82
ATOM     82  S   UNL A   1      42.060  19.489  25.997  1.00  0.00     0.124 S 
ATOM     83  O   UNL A   1      42.884  19.516  24.794  1.00  0.00    -0.237 OA
ATOM     84  O   UNL A   1      42.546  18.647  27.085  1.00  0.00    -0.237 OA
ATOM     85  O   UNL A   1      40.618  19.440  25.775  1.00  0.00    -0.744 OA
ENDBRANCH  81  82
ENDBRANCH  49  74
BRANCH  61  86
ATOM     86  C   UNL A   1      47.998  27.078  30.689  1.00  0.00     0.058 A 
ATOM     87  C   UNL A   1      49.071  27.280  29.808  1.00  0.00     0.135 A 
ATOM     88  C   UNL A   1      48.270  26.493  31.935  1.00  0.00     0.135 A 
ATOM     89  F   UNL A   1      48.861  27.829  28.600  1.00  0.00    -0.206 F 
ATOM     90  C   UNL A   1      50.365  26.892  30.140  1.00  0.00     0.059 A 
ATOM     91  C   UNL A   1      49.561  26.121  32.299  1.00  0.00     0.059 A 
ATOM     92  F   UNL A   1      47.280  26.289  32.818  1.00  0.00    -0.206 F 
ATOM     93  C   UNL A   1      50.599  26.310  31.388  1.00  0.00     0.060 A 
BRANCH  93  94
ATOM     94  S   UNL A   1      52.285  25.830  31.818  1.00  0.00     0.124 S 
ATOM     95  O   UNL A   1      52.987  26.067  30.562  1.00  0.00    -0.237 OA
ATOM     96  O   UNL A   1      52.606  26.747  32.908  1.00  0.00    -0.237 OA
ATOM     97  O   UNL A   1      52.148  24.428  32.208  1.00  0.00    -0.744 OA
ENDBRANCH  93  94
ENDBRANCH  61  86
ENDBRANCH  35  36
ENDBRANCH  27  30
ENDBRANCH  25  26
ENDBRANCH  24  25
ENDBRANCH   1  24
TORSDOF 17
ENDMDL
MODEL 3
REMARK VINA RESULT:      -9.5      4.428      9.968
REMARK SMILES CN(Cc1ccc(C(=O)NCCCNC(=O)c2ccc(-c3c4nc(c(-c5c(F)cc(S(=O)(=O)[O-])cc5F)c5ccc([nH]5)c(-c5c(F)cc(S(=O)(=O)[O-])cc5F)c5nc(c(-c6c(F)cc(S(=O)(=O)[O-])cc6F)c6ccc3[nH]6)C=C5)C=C4)cc2)cc1)c1ccccc1N
REMARK SMILES IDX 11 1 10 2 8 3 9 4 7 6 4 7 5 8 84 9 6 10 83 11 3 12 2 13 1 14
REMARK SMILES IDX 85 15 86 16 90 17 87 18 89 19 88 20 91 21 12 24 13 25 14 26
REMARK SMILES IDX 15 27 16 29 17 30 18 31 82 32 19 33 81 34 20 35 21 36 22 37
REMARK SMILES IDX 75 38 23 39 80 40 74 41 76 42 24 43 79 44 73 45 72 46 25 48
REMARK SMILES IDX 59 49 38 50 58 51 39 52 42 53 57 54 77 55 40 56 41 57 56 59
REMARK SMILES IDX 78 60 43 61 26 62 27 63 36 64 28 65 29 66 35 67 37 68 30 69
REMARK SMILES IDX 31 70 32 71 33 72 34 73 60 74 61 75 70 76 62 77 63 78 69 79
REMARK SMILES IDX 71 80 64 81 65 82 66 83 67 84 68 85 44 86 45 87 54 88 46 89
REMARK SMILES IDX 47 90 53 91 55 92 48 93 49 94 50 95 51 96 52 97
REMARK H PARENT 10 5 91 22 91 23 14 28 76 47 42 58
REMARK Flexibility Score: inf
ROOT
ATOM      1  C   UNL A   1      37.202  20.679  24.900  1.00  0.00     0.118 C 
ENDROOT
BRANCH   1   2
ATOM      2  N   UNL A   1      35.882  20.183  25.241  1.00  0.00    -0.352 N 
ATOM      3  C   UNL A   1      34.665  20.803  25.162  1.00  0.00     0.251 C 
ATOM      4  O   UNL A   1      33.640  20.155  25.364  1.00  0.00    -0.269 OA
ATOM      5  H   UNL A   1      35.859  19.258  25.580  1.00  0.00     0.163 HD
BRANCH   3   6
ATOM      6  C   UNL A   1      34.556  22.231  24.794  1.00  0.00     0.039 A 
ATOM      7  C   UNL A   1      34.080  24.890  24.034  1.00  0.00    -0.029 A 
ATOM      8  C   UNL A   1      34.021  23.855  23.086  1.00  0.00     0.006 A 
ATOM      9  C   UNL A   1      34.427  24.581  25.357  1.00  0.00     0.006 A 
ATOM     10  C   UNL A   1      34.237  22.531  23.468  1.00  0.00     0.014 A 
ATOM     11  C   UNL A   1      34.656  23.255  25.739  1.00  0.00     0.014 A 
BRANCH   7  12
ATOM     12  C   UNL A   1      33.660  26.294  23.644  1.00  0.00     0.151 C 
BRANCH  12  13
ATOM     13  N   UNL A   1      32.348  26.650  24.181  1.00  0.00    -0.369 N 
ATOM     14  C   UNL A   1      31.126  26.147  23.590  1.00  0.00     0.144 C 
BRANCH  13  15
ATOM     15  C   UNL A   1      32.254  27.649  25.149  1.00  0.00     0.060 A 
ATOM     16  C   UNL A   1      32.109  27.319  26.505  1.00  0.00     0.028 A 
ATOM     17  C   UNL A   1      32.299  29.017  24.793  1.00  0.00     0.055 A 
ATOM     18  C   UNL A   1      31.894  28.301  27.474  1.00  0.00     0.002 A 
ATOM     19  C   UNL A   1      32.072  29.995  25.770  1.00  0.00     0.027 A 
ATOM     20  C   UNL A   1      31.861  29.639  27.103  1.00  0.00     0.002 A 
BRANCH  17  21
ATOM     21  N   UNL A   1      32.416  29.395  23.453  1.00  0.00    -0.397 N 
ATOM     22  H   UNL A   1      33.286  29.687  23.098  1.00  0.00     0.156 HD
ATOM     23  H   UNL A   1      31.627  29.371  22.864  1.00  0.00     0.156 HD
ENDBRANCH  17  21
ENDBRANCH  13  15
ENDBRANCH  12  13
ENDBRANCH   7  12
ENDBRANCH   3   6
ENDBRANCH   1   2
BRANCH   1  24
ATOM     24  C   UNL A   1      38.281  19.636  25.166  1.00  0.00     0.042 C 
BRANCH  24  25
ATOM     25  C   UNL A   1      39.458  20.164  25.983  1.00  0.00     0.118 C 
BRANCH  25  26
ATOM     26  N   UNL A   1      40.554  19.210  26.048  1.00  0.00    -0.352 N 
ATOM     27  C   UNL A   1      41.909  19.428  26.088  1.00  0.00     0.251 C 
ATOM     28  H   UNL A   1      40.283  18.264  26.064  1.00  0.00     0.163 HD
ATOM     29  O   UNL A   1      42.673  18.482  25.915  1.00  0.00    -0.269 OA
BRANCH  27  30
ATOM     30  C   UNL A   1      42.451  20.783  26.331  1.00  0.00     0.039 A 
ATOM     31  C   UNL A   1      42.592  21.224  27.651  1.00  0.00     0.014 A 
ATOM     32  C   UNL A   1      42.768  21.639  25.272  1.00  0.00     0.014 A 
ATOM     33  C   UNL A   1      43.086  22.505  27.908  1.00  0.00     0.010 A 
ATOM     34  C   UNL A   1      43.324  22.891  25.530  1.00  0.00     0.010 A 
ATOM     35  C   UNL A   1      43.475  23.343  26.851  1.00  0.00    -0.014 A 
BRANCH  35  36
ATOM     36  C   UNL A   1      44.020  24.700  27.107  1.00  0.00     0.031 A 
ATOM     37  C   UNL A   1      43.104  25.809  27.550  1.00  0.00     0.074 A 
ATOM     38  C   UNL A   1      45.328  24.944  26.897  1.00  0.00     0.049 A 
ATOM     39  N   UNL A   1      43.378  27.070  27.770  1.00  0.00    -0.248 NA
ATOM     40  C   UNL A   1      41.686  25.462  27.745  1.00  0.00     0.031 C 
ATOM     41  C   UNL A   1      46.306  23.962  26.425  1.00  0.00     0.029 A 
ATOM     42  N   UNL A   1      46.059  26.095  27.045  1.00  0.00    -0.354 N 
ATOM     43  C   UNL A   1      42.170  27.668  28.113  1.00  0.00     0.074 A 
ATOM     44  C   UNL A   1      41.153  26.643  28.024  1.00  0.00     0.031 C 
ATOM     45  C   UNL A   1      47.512  24.547  26.342  1.00  0.00     0.029 A 
ATOM     46  C   UNL A   1      47.389  25.951  26.724  1.00  0.00     0.049 A 
ATOM     47  H   UNL A   1      45.668  26.946  27.350  1.00  0.00     0.167 HD
ATOM     48  C   UNL A   1      41.935  28.947  28.490  1.00  0.00     0.037 A 
ATOM     49  C   UNL A   1      48.392  26.848  26.735  1.00  0.00     0.037 A 
ATOM     50  C   UNL A   1      42.956  29.955  28.605  1.00  0.00     0.049 A 
ATOM     51  C   UNL A   1      48.110  28.257  27.177  1.00  0.00     0.074 A 
ATOM     52  C   UNL A   1      42.830  31.268  29.024  1.00  0.00     0.029 A 
ATOM     53  N   UNL A   1      44.296  29.760  28.302  1.00  0.00    -0.354 N 
ATOM     54  N   UNL A   1      46.971  28.792  27.547  1.00  0.00    -0.248 NA
ATOM     55  C   UNL A   1      49.250  29.183  27.214  1.00  0.00     0.031 C 
ATOM     56  C   UNL A   1      44.088  31.875  28.947  1.00  0.00     0.029 A 
ATOM     57  C   UNL A   1      45.006  30.930  28.518  1.00  0.00     0.049 A 
ATOM     58  H   UNL A   1      44.685  28.914  27.982  1.00  0.00     0.167 HD
ATOM     59  C   UNL A   1      47.261  30.109  27.886  1.00  0.00     0.074 A 
ATOM     60  C   UNL A   1      48.686  30.285  27.688  1.00  0.00     0.031 C 
ATOM     61  C   UNL A   1      46.426  31.084  28.324  1.00  0.00     0.037 A 
BRANCH  48  62
ATOM     62  C   UNL A   1      40.514  29.326  28.813  1.00  0.00     0.058 A 
ATOM     63  C   UNL A   1      39.552  29.502  27.805  1.00  0.00     0.135 A 
ATOM     64  C   UNL A   1      40.102  29.490  30.146  1.00  0.00     0.135 A 
ATOM     65  F   UNL A   1      39.896  29.372  26.513  1.00  0.00    -0.206 F 
ATOM     66  C   UNL A   1      38.241  29.859  28.103  1.00  0.00     0.059 A 
ATOM     67  C   UNL A   1      38.789  29.821  30.469  1.00  0.00     0.059 A 
ATOM     68  F   UNL A   1      40.979  29.332  31.150  1.00  0.00    -0.206 F 
ATOM     69  C   UNL A   1      37.870  30.020  29.439  1.00  0.00     0.060 A 
BRANCH  69  70
ATOM     70  S   UNL A   1      36.165  30.485  29.810  1.00  0.00     0.124 S 
ATOM     71  O   UNL A   1      36.227  31.937  29.681  1.00  0.00    -0.237 OA
ATOM     72  O   UNL A   1      35.415  29.788  28.770  1.00  0.00    -0.237 OA
ATOM     73  O   UNL A   1      35.965  29.983  31.166  1.00  0.00    -0.744 OA
ENDBRANCH  69  70
ENDBRANCH  48  62
BRANCH  49  74
ATOM     74  C   UNL A   1      49.765  26.429  26.347  1.00  0.00     0.058 A 
ATOM     75  C   UNL A   1      50.643  25.878  27.291  1.00  0.00     0.135 A 
ATOM     76  C   UNL A   1      50.219  26.554  25.025  1.00  0.00     0.135 A 
ATOM     77  F   UNL A   1      50.256  25.743  28.569  1.00  0.00    -0.206 F 
ATOM     78  C   UNL A   1      51.930  25.479  26.945  1.00  0.00     0.059 A 
ATOM     79  C   UNL A   1      51.493  26.141  24.648  1.00  0.00     0.059 A 
ATOM     80  F   UNL A   1      49.410  27.058  24.081  1.00  0.00    -0.206 F 
ATOM     81  C   UNL A   1      52.346  25.614  25.618  1.00  0.00     0.060 A 
BRANCH  81  82
ATOM     82  S   UNL A   1      53.998  25.045  25.166  1.00  0.00     0.124 S 
ATOM     83  O   UNL A   1      54.762  25.377  26.363  1.00  0.00    -0.237 OA
ATOM     84  O   UNL A   1      53.780  23.623  24.921  1.00  0.00    -0.237 OA
ATOM     85  O   UNL A   1      54.310  25.835  23.978  1.00  0.00    -0.744 OA
ENDBRANCH  81  82
ENDBRANCH  49  74
BRANCH  61  86
ATOM     86  C   UNL A   1      47.038  32.416  28.653  1.00  0.00     0.058 A 
ATOM     87  C   UNL A   1      47.482  32.723  29.948  1.00  0.00     0.135 A 
ATOM     88  C   UNL A   1      47.215  33.382  27.651  1.00  0.00     0.135 A 
ATOM     89  F   UNL A   1      47.329  31.836  30.944  1.00  0.00    -0.206 F 
ATOM     90  C   UNL A   1      48.057  33.955  30.244  1.00  0.00     0.059 A 
ATOM     91  C   UNL A   1      47.810  34.610  27.919  1.00  0.00     0.059 A 
ATOM     92  F   UNL A   1      46.817  33.133  26.392  1.00  0.00    -0.206 F 
ATOM     93  C   UNL A   1      48.215  34.893  29.223  1.00  0.00     0.060 A 
BRANCH  93  94
ATOM     94  S   UNL A   1      48.981  36.480  29.613  1.00  0.00     0.124 S 
ATOM     95  O   UNL A   1      49.365  36.954  28.288  1.00  0.00    -0.237 OA
ATOM     96  O   UNL A   1      47.891  37.207  30.257  1.00  0.00    -0.237 OA
ATOM     97  O   UNL A   1      50.087  36.114  30.495  1.00  0.00    -0.744 OA
ENDBRANCH  93  94
ENDBRANCH  61  86
ENDBRANCH  35  36
ENDBRANCH  27  30
ENDBRANCH  25  26
ENDBRANCH  24  25
ENDBRANCH   1  24
TORSDOF 17
ENDMDL
