MODEL 1
REMARK VINA RESULT:     -13.9      0.000      0.000
REMARK SMILES CC1=C(C)C[C@@H](C(=O)NCCCNC(=O)c2ccc(-c3c4nc(c(-c5c(F)cc(S(=O)(=O)[O-])cc5F)c5ccc([nH]5)c(-c5c(F)cc(S(=O)(=O)[O-])cc5F)c5nc(c(-c6c(F)cc(S(=O)(=O)[O-])cc6F)c6ccc3[nH]6)C=C5)C=C4)cc2)[C@@H](C(=O)N2CCN(c3cccc(C(F)(F)F)c3)CC2)C1
REMARK SMILES IDX 11 1 10 2 9 3 7 4 8 5 6 7 1 8 2 9 3 10 101 11 4 12 5 13
REMARK SMILES IDX 82 14 83 15 84 16 85 17 86 18 100 19 87 20 99 21 88 22 89 23
REMARK SMILES IDX 90 24 98 25 91 26 93 27 92 28 94 29 95 30 96 31 97 32 12 33
REMARK SMILES IDX 13 34 14 35 15 37 16 38 17 39 81 40 18 41 80 42 19 43 20 44
REMARK SMILES IDX 21 45 74 46 22 47 79 48 73 49 75 50 23 51 78 52 72 53 71 54
REMARK SMILES IDX 24 56 58 57 37 58 57 59 38 60 41 61 56 62 76 63 39 64 40 65
REMARK SMILES IDX 55 67 77 68 42 69 25 70 26 71 35 72 27 73 28 74 34 75 36 76
REMARK SMILES IDX 29 77 30 78 31 79 32 80 33 81 59 82 60 83 69 84 61 85 62 86
REMARK SMILES IDX 68 87 70 88 63 89 64 90 65 91 66 92 67 93 43 94 44 95 53 96
REMARK SMILES IDX 45 97 46 98 52 99 54 100 47 101 48 102 49 103 50 104 51 105
REMARK H PARENT 9 6 13 36 75 55 41 66
REMARK Flexibility Score: inf
ROOT
ATOM      1  C   UNL A   1      34.464  30.647  27.390  1.00  0.00     0.042 C 
ENDROOT
BRANCH   1   2
ATOM      2  C   UNL A   1      34.308  29.139  27.278  1.00  0.00     0.117 C 
BRANCH   2   3
ATOM      3  N   UNL A   1      32.984  28.669  27.632  1.00  0.00    -0.356 N 
ATOM      4  C   UNL A   1      31.960  28.188  26.896  1.00  0.00     0.224 C 
ATOM      5  O   UNL A   1      30.964  27.802  27.520  1.00  0.00    -0.275 OA
ATOM      6  H   UNL A   1      32.793  28.710  28.596  1.00  0.00     0.163 HD
BRANCH   4   7
ATOM      7  C   UNL A   1      31.968  28.084  25.375  1.00  0.00     0.095 C 
ATOM      8  C   UNL A   1      28.156  28.046  23.108  1.00  0.00     0.039 C 
ATOM      9  C   UNL A   1      29.542  28.172  23.701  1.00  0.00    -0.074 C 
ATOM     10  C   UNL A   1      30.167  29.333  23.977  1.00  0.00    -0.074 C 
ATOM     11  C   UNL A   1      30.147  26.826  24.026  1.00  0.00     0.045 C 
ATOM     12  C   UNL A   1      29.613  30.711  23.714  1.00  0.00     0.039 C 
ATOM     13  C   UNL A   1      31.512  29.359  24.656  1.00  0.00     0.045 C 
ATOM     14  C   UNL A   1      31.503  26.750  24.779  1.00  0.00     0.095 C 
BRANCH  14  15
ATOM     15  C   UNL A   1      31.471  25.538  25.740  1.00  0.00     0.226 C 
ATOM     16  O   UNL A   1      30.487  25.344  26.460  1.00  0.00    -0.275 OA
ATOM     17  N   UNL A   1      32.484  24.602  25.732  1.00  0.00    -0.339 N 
ATOM     18  C   UNL A   1      32.223  23.295  26.362  1.00  0.00     0.141 C 
ATOM     19  C   UNL A   1      33.835  24.709  25.168  1.00  0.00     0.141 C 
ATOM     20  C   UNL A   1      32.385  22.180  25.315  1.00  0.00     0.138 C 
ATOM     21  C   UNL A   1      34.188  23.545  24.219  1.00  0.00     0.138 C 
ATOM     22  N   UNL A   1      33.732  22.253  24.738  1.00  0.00    -0.368 N 
BRANCH  22  23
ATOM     23  C   UNL A   1      34.551  21.154  24.815  1.00  0.00     0.037 A 
ATOM     24  C   UNL A   1      35.931  21.309  24.988  1.00  0.00     0.026 A 
ATOM     25  C   UNL A   1      34.045  19.861  24.649  1.00  0.00     0.039 A 
ATOM     26  C   UNL A   1      36.787  20.209  25.000  1.00  0.00     0.003 A 
ATOM     27  C   UNL A   1      34.895  18.742  24.626  1.00  0.00     0.058 A 
ATOM     28  C   UNL A   1      36.272  18.929  24.813  1.00  0.00     0.013 A 
BRANCH  27  29
ATOM     29  C   UNL A   1      34.353  17.360  24.372  1.00  0.00     0.416 C 
ATOM     30  F   UNL A   1      34.397  17.015  23.055  1.00  0.00    -0.166 F 
ATOM     31  F   UNL A   1      35.061  16.398  25.029  1.00  0.00    -0.166 F 
ATOM     32  F   UNL A   1      33.057  17.194  24.759  1.00  0.00    -0.166 F 
ENDBRANCH  27  29
ENDBRANCH  22  23
ENDBRANCH  14  15
ENDBRANCH   4   7
ENDBRANCH   2   3
ENDBRANCH   1   2
BRANCH   1  33
ATOM     33  C   UNL A   1      35.728  31.081  28.119  1.00  0.00     0.118 C 
BRANCH  33  34
ATOM     34  N   UNL A   1      35.645  30.799  29.545  1.00  0.00    -0.352 N 
ATOM     35  C   UNL A   1      36.510  30.092  30.342  1.00  0.00     0.251 C 
ATOM     36  H   UNL A   1      34.855  31.168  30.003  1.00  0.00     0.163 HD
ATOM     37  O   UNL A   1      36.144  29.722  31.454  1.00  0.00    -0.269 OA
BRANCH  35  38
ATOM     38  C   UNL A   1      37.873  29.780  29.862  1.00  0.00     0.039 A 
ATOM     39  C   UNL A   1      38.857  29.438  30.791  1.00  0.00     0.014 A 
ATOM     40  C   UNL A   1      38.191  29.873  28.503  1.00  0.00     0.014 A 
ATOM     41  C   UNL A   1      40.153  29.154  30.354  1.00  0.00     0.010 A 
ATOM     42  C   UNL A   1      39.463  29.522  28.062  1.00  0.00     0.010 A 
ATOM     43  C   UNL A   1      40.461  29.179  28.985  1.00  0.00    -0.014 A 
BRANCH  43  44
ATOM     44  C   UNL A   1      41.834  28.895  28.502  1.00  0.00     0.031 A 
ATOM     45  C   UNL A   1      42.201  27.501  28.067  1.00  0.00     0.074 A 
ATOM     46  C   UNL A   1      42.760  29.874  28.501  1.00  0.00     0.049 A 
ATOM     47  N   UNL A   1      43.358  27.036  27.670  1.00  0.00    -0.248 NA
ATOM     48  C   UNL A   1      41.133  26.488  28.113  1.00  0.00     0.031 C 
ATOM     49  C   UNL A   1      42.536  31.250  28.947  1.00  0.00     0.029 A 
ATOM     50  N   UNL A   1      44.077  29.857  28.120  1.00  0.00    -0.354 N 
ATOM     51  C   UNL A   1      43.161  25.680  27.437  1.00  0.00     0.074 A 
ATOM     52  C   UNL A   1      41.789  25.385  27.783  1.00  0.00     0.031 C 
ATOM     53  C   UNL A   1      43.672  31.952  28.793  1.00  0.00     0.029 A 
ATOM     54  C   UNL A   1      44.708  31.070  28.265  1.00  0.00     0.049 A 
ATOM     55  H   UNL A   1      44.528  29.053  27.775  1.00  0.00     0.167 HD
ATOM     56  C   UNL A   1      44.038  24.768  26.954  1.00  0.00     0.037 A 
ATOM     57  C   UNL A   1      45.979  31.428  28.001  1.00  0.00     0.037 A 
ATOM     58  C   UNL A   1      45.391  25.076  26.574  1.00  0.00     0.049 A 
ATOM     59  C   UNL A   1      46.928  30.404  27.439  1.00  0.00     0.074 A 
ATOM     60  C   UNL A   1      46.342  24.238  26.018  1.00  0.00     0.029 A 
ATOM     61  N   UNL A   1      45.984  26.323  26.704  1.00  0.00    -0.354 N 
ATOM     62  N   UNL A   1      46.709  29.138  27.173  1.00  0.00    -0.248 NA
ATOM     63  C   UNL A   1      48.291  30.858  27.134  1.00  0.00     0.031 C 
ATOM     64  C   UNL A   1      47.519  24.974  25.837  1.00  0.00     0.029 A 
ATOM     65  C   UNL A   1      47.290  26.276  26.249  1.00  0.00     0.049 A 
ATOM     66  H   UNL A   1      45.540  27.124  27.068  1.00  0.00     0.167 HD
ATOM     67  C   UNL A   1      47.901  28.650  26.649  1.00  0.00     0.074 A 
ATOM     68  C   UNL A   1      48.832  29.760  26.625  1.00  0.00     0.031 C 
ATOM     69  C   UNL A   1      48.198  27.396  26.228  1.00  0.00     0.037 A 
BRANCH  56  70
ATOM     70  C   UNL A   1      43.552  23.354  26.799  1.00  0.00     0.058 A 
ATOM     71  C   UNL A   1      43.359  22.519  27.911  1.00  0.00     0.135 A 
ATOM     72  C   UNL A   1      43.258  22.832  25.529  1.00  0.00     0.135 A 
ATOM     73  F   UNL A   1      43.641  22.962  29.147  1.00  0.00    -0.206 F 
ATOM     74  C   UNL A   1      42.922  21.207  27.768  1.00  0.00     0.059 A 
ATOM     75  C   UNL A   1      42.795  21.530  25.365  1.00  0.00     0.059 A 
ATOM     76  F   UNL A   1      43.426  23.587  24.433  1.00  0.00    -0.206 F 
ATOM     77  C   UNL A   1      42.646  20.720  26.490  1.00  0.00     0.060 A 
BRANCH  77  78
ATOM     78  S   UNL A   1      42.078  19.015  26.319  1.00  0.00     0.124 S 
ATOM     79  O   UNL A   1      40.724  19.209  25.811  1.00  0.00    -0.237 OA
ATOM     80  O   UNL A   1      43.036  18.457  25.369  1.00  0.00    -0.237 OA
ATOM     81  O   UNL A   1      42.169  18.488  27.677  1.00  0.00    -0.744 OA
ENDBRANCH  77  78
ENDBRANCH  56  70
BRANCH  57  82
ATOM     82  C   UNL A   1      46.418  32.828  28.233  1.00  0.00     0.058 A 
ATOM     83  C   UNL A   1      46.972  33.212  29.462  1.00  0.00     0.135 A 
ATOM     84  C   UNL A   1      46.307  33.803  27.230  1.00  0.00     0.135 A 
ATOM     85  F   UNL A   1      47.093  32.316  30.452  1.00  0.00    -0.206 F 
ATOM     86  C   UNL A   1      47.391  34.518  29.696  1.00  0.00     0.059 A 
ATOM     87  C   UNL A   1      46.738  35.110  27.432  1.00  0.00     0.059 A 
ATOM     88  F   UNL A   1      45.798  33.480  26.031  1.00  0.00    -0.206 F 
ATOM     89  C   UNL A   1      47.270  35.461  28.674  1.00  0.00     0.060 A 
BRANCH  89  90
ATOM     90  S   UNL A   1      47.863  37.142  28.967  1.00  0.00     0.124 S 
ATOM     91  O   UNL A   1      47.148  37.495  30.188  1.00  0.00    -0.237 OA
ATOM     92  O   UNL A   1      49.303  36.943  29.105  1.00  0.00    -0.237 OA
ATOM     93  O   UNL A   1      47.451  37.856  27.763  1.00  0.00    -0.744 OA
ENDBRANCH  89  90
ENDBRANCH  57  82
BRANCH  69  94
ATOM     94  C   UNL A   1      49.576  27.164  25.680  1.00  0.00     0.058 A 
ATOM     95  C   UNL A   1      50.624  26.718  26.499  1.00  0.00     0.135 A 
ATOM     96  C   UNL A   1      49.838  27.343  24.313  1.00  0.00     0.135 A 
ATOM     97  F   UNL A   1      50.424  26.538  27.814  1.00  0.00    -0.206 F 
ATOM     98  C   UNL A   1      51.893  26.475  25.984  1.00  0.00     0.059 A 
ATOM     99  C   UNL A   1      51.094  27.085  23.772  1.00  0.00     0.059 A 
ATOM    100  F   UNL A   1      48.866  27.760  23.486  1.00  0.00    -0.206 F 
ATOM    101  C   UNL A   1      52.118  26.662  24.618  1.00  0.00     0.060 A 
BRANCH 101 102
ATOM    102  S   UNL A   1      53.759  26.312  23.953  1.00  0.00     0.124 S 
ATOM    103  O   UNL A   1      53.480  26.211  22.524  1.00  0.00    -0.237 OA
ATOM    104  O   UNL A   1      54.525  27.482  24.368  1.00  0.00    -0.237 OA
ATOM    105  O   UNL A   1      54.131  25.061  24.611  1.00  0.00    -0.744 OA
ENDBRANCH 101 102
ENDBRANCH  69  94
ENDBRANCH  43  44
ENDBRANCH  35  38
ENDBRANCH  33  34
ENDBRANCH   1  33
TORSDOF 16
ENDMDL
MODEL 2
REMARK VINA RESULT:     -13.8      6.854     11.990
REMARK SMILES CC1=C(C)C[C@@H](C(=O)NCCCNC(=O)c2ccc(-c3c4nc(c(-c5c(F)cc(S(=O)(=O)[O-])cc5F)c5ccc([nH]5)c(-c5c(F)cc(S(=O)(=O)[O-])cc5F)c5nc(c(-c6c(F)cc(S(=O)(=O)[O-])cc6F)c6ccc3[nH]6)C=C5)C=C4)cc2)[C@@H](C(=O)N2CCN(c3cccc(C(F)(F)F)c3)CC2)C1
REMARK SMILES IDX 11 1 10 2 9 3 7 4 8 5 6 7 1 8 2 9 3 10 101 11 4 12 5 13
REMARK SMILES IDX 82 14 83 15 84 16 85 17 86 18 100 19 87 20 99 21 88 22 89 23
REMARK SMILES IDX 90 24 98 25 91 26 93 27 92 28 94 29 95 30 96 31 97 32 12 33
REMARK SMILES IDX 13 34 14 35 15 37 16 38 17 39 81 40 18 41 80 42 19 43 20 44
REMARK SMILES IDX 21 45 74 46 22 47 79 48 73 49 75 50 23 51 78 52 72 53 71 54
REMARK SMILES IDX 24 56 58 57 37 58 57 59 38 60 41 61 56 62 76 63 39 64 40 65
REMARK SMILES IDX 55 67 77 68 42 69 25 70 26 71 35 72 27 73 28 74 34 75 36 76
REMARK SMILES IDX 29 77 30 78 31 79 32 80 33 81 59 82 60 83 69 84 61 85 62 86
REMARK SMILES IDX 68 87 70 88 63 89 64 90 65 91 66 92 67 93 43 94 44 95 53 96
REMARK SMILES IDX 45 97 46 98 52 99 54 100 47 101 48 102 49 103 50 104 51 105
REMARK H PARENT 9 6 13 36 75 55 41 66
REMARK Flexibility Score: inf
ROOT
ATOM      1  C   UNL A   1      39.077  22.536  26.486  1.00  0.00     0.042 C 
ENDROOT
BRANCH   1   2
ATOM      2  C   UNL A   1      37.991  23.486  26.005  1.00  0.00     0.117 C 
BRANCH   2   3
ATOM      3  N   UNL A   1      37.598  23.261  24.630  1.00  0.00    -0.356 N 
ATOM      4  C   UNL A   1      36.433  22.879  24.065  1.00  0.00     0.224 C 
ATOM      5  O   UNL A   1      36.404  22.843  22.828  1.00  0.00    -0.275 OA
ATOM      6  H   UNL A   1      38.320  23.417  23.980  1.00  0.00     0.163 HD
BRANCH   4   7
ATOM      7  C   UNL A   1      35.179  22.508  24.847  1.00  0.00     0.095 C 
ATOM      8  C   UNL A   1      32.155  19.787  23.081  1.00  0.00     0.039 C 
ATOM      9  C   UNL A   1      33.130  20.618  23.884  1.00  0.00    -0.074 C 
ATOM     10  C   UNL A   1      34.153  20.131  24.611  1.00  0.00    -0.074 C 
ATOM     11  C   UNL A   1      32.875  22.101  23.730  1.00  0.00     0.045 C 
ATOM     12  C   UNL A   1      34.489  18.671  24.782  1.00  0.00     0.039 C 
ATOM     13  C   UNL A   1      35.131  21.045  25.303  1.00  0.00     0.045 C 
ATOM     14  C   UNL A   1      33.861  23.122  24.357  1.00  0.00     0.095 C 
BRANCH  14  15
ATOM     15  C   UNL A   1      33.978  24.344  23.414  1.00  0.00     0.226 C 
ATOM     16  O   UNL A   1      34.394  24.198  22.261  1.00  0.00    -0.275 OA
ATOM     17  N   UNL A   1      33.523  25.585  23.805  1.00  0.00    -0.339 N 
ATOM     18  C   UNL A   1      33.296  26.600  22.760  1.00  0.00     0.141 C 
ATOM     19  C   UNL A   1      33.215  26.071  25.155  1.00  0.00     0.141 C 
ATOM     20  C   UNL A   1      31.821  27.033  22.777  1.00  0.00     0.138 C 
ATOM     21  C   UNL A   1      31.807  26.692  25.268  1.00  0.00     0.138 C 
ATOM     22  N   UNL A   1      31.482  27.535  24.114  1.00  0.00    -0.368 N 
BRANCH  22  23
ATOM     23  C   UNL A   1      30.992  28.811  24.242  1.00  0.00     0.037 A 
ATOM     24  C   UNL A   1      31.540  29.689  25.185  1.00  0.00     0.026 A 
ATOM     25  C   UNL A   1      29.894  29.244  23.494  1.00  0.00     0.039 A 
ATOM     26  C   UNL A   1      31.013  30.965  25.378  1.00  0.00     0.003 A 
ATOM     27  C   UNL A   1      29.327  30.514  23.696  1.00  0.00     0.058 A 
ATOM     28  C   UNL A   1      29.905  31.375  24.640  1.00  0.00     0.013 A 
BRANCH  27  29
ATOM     29  C   UNL A   1      28.098  30.946  22.940  1.00  0.00     0.416 C 
ATOM     30  F   UNL A   1      27.358  29.891  22.499  1.00  0.00    -0.166 F 
ATOM     31  F   UNL A   1      27.254  31.693  23.708  1.00  0.00    -0.166 F 
ATOM     32  F   UNL A   1      28.363  31.703  21.839  1.00  0.00    -0.166 F 
ENDBRANCH  27  29
ENDBRANCH  22  23
ENDBRANCH  14  15
ENDBRANCH   4   7
ENDBRANCH   2   3
ENDBRANCH   1   2
BRANCH   1  33
ATOM     33  C   UNL A   1      40.265  23.237  27.129  1.00  0.00     0.118 C 
BRANCH  33  34
ATOM     34  N   UNL A   1      41.112  23.876  26.132  1.00  0.00    -0.352 N 
ATOM     35  C   UNL A   1      41.493  25.190  26.030  1.00  0.00     0.251 C 
ATOM     36  H   UNL A   1      41.462  23.279  25.430  1.00  0.00     0.163 HD
ATOM     37  O   UNL A   1      41.978  25.600  24.980  1.00  0.00    -0.269 OA
BRANCH  35  38
ATOM     38  C   UNL A   1      41.321  26.103  27.180  1.00  0.00     0.039 A 
ATOM     39  C   UNL A   1      40.241  25.909  28.044  1.00  0.00     0.014 A 
ATOM     40  C   UNL A   1      42.195  27.176  27.377  1.00  0.00     0.014 A 
ATOM     41  C   UNL A   1      40.058  26.772  29.127  1.00  0.00     0.010 A 
ATOM     42  C   UNL A   1      42.052  27.993  28.495  1.00  0.00     0.010 A 
ATOM     43  C   UNL A   1      40.971  27.811  29.369  1.00  0.00    -0.014 A 
BRANCH  43  44
ATOM     44  C   UNL A   1      40.786  28.746  30.504  1.00  0.00     0.031 A 
ATOM     45  C   UNL A   1      41.645  28.610  31.733  1.00  0.00     0.074 A 
ATOM     46  C   UNL A   1      39.818  29.682  30.451  1.00  0.00     0.049 A 
ATOM     47  N   UNL A   1      41.601  29.289  32.851  1.00  0.00    -0.248 NA
ATOM     48  C   UNL A   1      42.669  27.553  31.715  1.00  0.00     0.031 C 
ATOM     49  C   UNL A   1      38.891  29.876  29.334  1.00  0.00     0.029 A 
ATOM     50  N   UNL A   1      39.448  30.638  31.361  1.00  0.00    -0.354 N 
ATOM     51  C   UNL A   1      42.574  28.730  33.671  1.00  0.00     0.074 A 
ATOM     52  C   UNL A   1      43.160  27.627  32.943  1.00  0.00     0.031 C 
ATOM     53  C   UNL A   1      38.073  30.904  29.617  1.00  0.00     0.029 A 
ATOM     54  C   UNL A   1      38.398  31.421  30.942  1.00  0.00     0.049 A 
ATOM     55  H   UNL A   1      39.892  30.753  32.232  1.00  0.00     0.167 HD
ATOM     56  C   UNL A   1      42.963  29.117  34.909  1.00  0.00     0.037 A 
ATOM     57  C   UNL A   1      37.772  32.441  31.560  1.00  0.00     0.037 A 
ATOM     58  C   UNL A   1      42.404  30.240  35.614  1.00  0.00     0.049 A 
ATOM     59  C   UNL A   1      38.240  32.872  32.923  1.00  0.00     0.074 A 
ATOM     60  C   UNL A   1      42.767  30.753  36.847  1.00  0.00     0.029 A 
ATOM     61  N   UNL A   1      41.366  31.030  35.143  1.00  0.00    -0.354 N 
ATOM     62  N   UNL A   1      39.199  32.366  33.661  1.00  0.00    -0.248 NA
ATOM     63  C   UNL A   1      37.546  34.013  33.534  1.00  0.00     0.031 C 
ATOM     64  C   UNL A   1      41.930  31.837  37.132  1.00  0.00     0.029 A 
ATOM     65  C   UNL A   1      41.068  32.020  36.063  1.00  0.00     0.049 A 
ATOM     66  H   UNL A   1      40.907  30.904  34.280  1.00  0.00     0.167 HD
ATOM     67  C   UNL A   1      39.239  33.142  34.815  1.00  0.00     0.074 A 
ATOM     68  C   UNL A   1      38.215  34.157  34.670  1.00  0.00     0.031 C 
ATOM     69  C   UNL A   1      40.049  33.025  35.896  1.00  0.00     0.037 A 
BRANCH  56  70
ATOM     70  C   UNL A   1      44.055  28.325  35.573  1.00  0.00     0.058 A 
ATOM     71  C   UNL A   1      45.409  28.645  35.388  1.00  0.00     0.135 A 
ATOM     72  C   UNL A   1      43.746  27.247  36.418  1.00  0.00     0.135 A 
ATOM     73  F   UNL A   1      45.760  29.655  34.576  1.00  0.00    -0.206 F 
ATOM     74  C   UNL A   1      46.421  27.905  35.991  1.00  0.00     0.059 A 
ATOM     75  C   UNL A   1      44.741  26.509  37.052  1.00  0.00     0.059 A 
ATOM     76  F   UNL A   1      42.468  26.898  36.629  1.00  0.00    -0.206 F 
ATOM     77  C   UNL A   1      46.077  26.836  36.819  1.00  0.00     0.060 A 
BRANCH  77  78
ATOM     78  S   UNL A   1      47.399  25.885  37.596  1.00  0.00     0.124 S 
ATOM     79  O   UNL A   1      46.858  24.531  37.534  1.00  0.00    -0.237 OA
ATOM     80  O   UNL A   1      48.537  26.152  36.722  1.00  0.00    -0.237 OA
ATOM     81  O   UNL A   1      47.493  26.462  38.933  1.00  0.00    -0.744 OA
ENDBRANCH  77  78
ENDBRANCH  56  70
BRANCH  57  82
ATOM     82  C   UNL A   1      36.658  33.148  30.877  1.00  0.00     0.058 A 
ATOM     83  C   UNL A   1      36.909  34.012  29.801  1.00  0.00     0.135 A 
ATOM     84  C   UNL A   1      35.325  32.963  31.272  1.00  0.00     0.135 A 
ATOM     85  F   UNL A   1      38.168  34.224  29.391  1.00  0.00    -0.206 F 
ATOM     86  C   UNL A   1      35.878  34.679  29.148  1.00  0.00     0.059 A 
ATOM     87  C   UNL A   1      34.275  33.602  30.621  1.00  0.00     0.059 A 
ATOM     88  F   UNL A   1      35.033  32.133  32.286  1.00  0.00    -0.206 F 
ATOM     89  C   UNL A   1      34.563  34.468  29.565  1.00  0.00     0.060 A 
BRANCH  89  90
ATOM     90  S   UNL A   1      33.225  35.298  28.679  1.00  0.00     0.124 S 
ATOM     91  O   UNL A   1      33.964  36.256  27.864  1.00  0.00    -0.237 OA
ATOM     92  O   UNL A   1      32.599  34.194  27.957  1.00  0.00    -0.237 OA
ATOM     93  O   UNL A   1      32.419  35.870  29.753  1.00  0.00    -0.744 OA
ENDBRANCH  89  90
ENDBRANCH  57  82
BRANCH  69  94
ATOM     94  C   UNL A   1      39.878  34.034  36.994  1.00  0.00     0.058 A 
ATOM     95  C   UNL A   1      40.451  35.311  36.911  1.00  0.00     0.135 A 
ATOM     96  C   UNL A   1      39.089  33.736  38.117  1.00  0.00     0.135 A 
ATOM     97  F   UNL A   1      41.218  35.640  35.860  1.00  0.00    -0.206 F 
ATOM     98  C   UNL A   1      40.266  36.255  37.916  1.00  0.00     0.059 A 
ATOM     99  C   UNL A   1      38.873  34.672  39.123  1.00  0.00     0.059 A 
ATOM    100  F   UNL A   1      38.511  32.531  38.238  1.00  0.00    -0.206 F 
ATOM    101  C   UNL A   1      39.475  35.925  39.018  1.00  0.00     0.060 A 
BRANCH 101 102
ATOM    102  S   UNL A   1      39.212  37.169  40.301  1.00  0.00     0.124 S 
ATOM    103  O   UNL A   1      38.420  36.424  41.273  1.00  0.00    -0.237 OA
ATOM    104  O   UNL A   1      40.575  37.494  40.710  1.00  0.00    -0.237 OA
ATOM    105  O   UNL A   1      38.504  38.236  39.597  1.00  0.00    -0.744 OA
ENDBRANCH 101 102
ENDBRANCH  69  94
ENDBRANCH  43  44
ENDBRANCH  35  38
ENDBRANCH  33  34
ENDBRANCH   1  33
TORSDOF 16
ENDMDL
MODEL 3
REMARK VINA RESULT:     -13.8      0.590      7.922
REMARK SMILES CC1=C(C)C[C@@H](C(=O)NCCCNC(=O)c2ccc(-c3c4nc(c(-c5c(F)cc(S(=O)(=O)[O-])cc5F)c5ccc([nH]5)c(-c5c(F)cc(S(=O)(=O)[O-])cc5F)c5nc(c(-c6c(F)cc(S(=O)(=O)[O-])cc6F)c6ccc3[nH]6)C=C5)C=C4)cc2)[C@@H](C(=O)N2CCN(c3cccc(C(F)(F)F)c3)CC2)C1
REMARK SMILES IDX 11 1 10 2 9 3 7 4 8 5 6 7 1 8 2 9 3 10 101 11 4 12 5 13
REMARK SMILES IDX 82 14 83 15 84 16 85 17 86 18 100 19 87 20 99 21 88 22 89 23
REMARK SMILES IDX 90 24 98 25 91 26 93 27 92 28 94 29 95 30 96 31 97 32 12 33
REMARK SMILES IDX 13 34 14 35 15 37 16 38 17 39 81 40 18 41 80 42 19 43 20 44
REMARK SMILES IDX 21 45 74 46 22 47 79 48 73 49 75 50 23 51 78 52 72 53 71 54
REMARK SMILES IDX 24 56 58 57 37 58 57 59 38 60 41 61 56 62 76 63 39 64 40 65
REMARK SMILES IDX 55 67 77 68 42 69 25 70 26 71 35 72 27 73 28 74 34 75 36 76
REMARK SMILES IDX 29 77 30 78 31 79 32 80 33 81 59 82 60 83 69 84 61 85 62 86
REMARK SMILES IDX 68 87 70 88 63 89 64 90 65 91 66 92 67 93 43 94 44 95 53 96
REMARK SMILES IDX 45 97 46 98 52 99 54 100 47 101 48 102 49 103 50 104 51 105
REMARK H PARENT 9 6 13 36 75 55 41 66
REMARK Flexibility Score: inf
ROOT
ATOM      1  C   UNL A   1      34.280  30.747  27.470  1.00  0.00     0.042 C 
ENDROOT
BRANCH   1   2
ATOM      2  C   UNL A   1      34.229  29.231  27.375  1.00  0.00     0.117 C 
BRANCH   2   3
ATOM      3  N   UNL A   1      32.932  28.676  27.705  1.00  0.00    -0.356 N 
ATOM      4  C   UNL A   1      31.945  28.152  26.949  1.00  0.00     0.224 C 
ATOM      5  O   UNL A   1      30.968  27.694  27.555  1.00  0.00    -0.275 OA
ATOM      6  H   UNL A   1      32.731  28.684  28.668  1.00  0.00     0.163 HD
BRANCH   4   7
ATOM      7  C   UNL A   1      31.972  28.083  25.426  1.00  0.00     0.095 C 
ATOM      8  C   UNL A   1      28.187  28.023  23.115  1.00  0.00     0.039 C 
ATOM      9  C   UNL A   1      29.563  28.163  23.727  1.00  0.00    -0.074 C 
ATOM     10  C   UNL A   1      30.163  29.329  24.036  1.00  0.00    -0.074 C 
ATOM     11  C   UNL A   1      30.191  26.821  24.028  1.00  0.00     0.045 C 
ATOM     12  C   UNL A   1      29.585  30.701  23.797  1.00  0.00     0.039 C 
ATOM     13  C   UNL A   1      31.500  29.365  24.731  1.00  0.00     0.045 C 
ATOM     14  C   UNL A   1      31.539  26.754  24.794  1.00  0.00     0.095 C 
BRANCH  14  15
ATOM     15  C   UNL A   1      31.521  25.520  25.727  1.00  0.00     0.226 C 
ATOM     16  O   UNL A   1      30.523  25.276  26.412  1.00  0.00    -0.275 OA
ATOM     17  N   UNL A   1      32.565  24.619  25.730  1.00  0.00    -0.339 N 
ATOM     18  C   UNL A   1      32.331  23.291  26.323  1.00  0.00     0.141 C 
ATOM     19  C   UNL A   1      33.928  24.786  25.211  1.00  0.00     0.141 C 
ATOM     20  C   UNL A   1      32.563  22.206  25.259  1.00  0.00     0.138 C 
ATOM     21  C   UNL A   1      34.351  23.656  24.249  1.00  0.00     0.138 C 
ATOM     22  N   UNL A   1      33.924  22.338  24.725  1.00  0.00    -0.368 N 
BRANCH  22  23
ATOM     23  C   UNL A   1      34.778  21.266  24.803  1.00  0.00     0.037 A 
ATOM     24  C   UNL A   1      36.157  21.466  24.932  1.00  0.00     0.026 A 
ATOM     25  C   UNL A   1      34.307  19.955  24.684  1.00  0.00     0.039 A 
ATOM     26  C   UNL A   1      37.046  20.393  24.945  1.00  0.00     0.003 A 
ATOM     27  C   UNL A   1      35.190  18.862  24.662  1.00  0.00     0.058 A 
ATOM     28  C   UNL A   1      36.565  19.094  24.804  1.00  0.00     0.013 A 
BRANCH  27  29
ATOM     29  C   UNL A   1      34.683  17.458  24.457  1.00  0.00     0.416 C 
ATOM     30  F   UNL A   1      35.474  16.524  25.056  1.00  0.00    -0.166 F 
ATOM     31  F   UNL A   1      33.437  17.276  24.980  1.00  0.00    -0.166 F 
ATOM     32  F   UNL A   1      34.592  17.088  23.149  1.00  0.00    -0.166 F 
ENDBRANCH  27  29
ENDBRANCH  22  23
ENDBRANCH  14  15
ENDBRANCH   4   7
ENDBRANCH   2   3
ENDBRANCH   1   2
BRANCH   1  33
ATOM     33  C   UNL A   1      35.546  31.279  28.128  1.00  0.00     0.118 C 
BRANCH  33  34
ATOM     34  N   UNL A   1      35.458  31.220  29.580  1.00  0.00    -0.352 N 
ATOM     35  C   UNL A   1      36.310  30.628  30.478  1.00  0.00     0.251 C 
ATOM     36  H   UNL A   1      34.676  31.671  29.974  1.00  0.00     0.163 HD
ATOM     37  O   UNL A   1      35.938  30.440  31.632  1.00  0.00    -0.269 OA
BRANCH  35  38
ATOM     38  C   UNL A   1      37.667  30.220  30.055  1.00  0.00     0.039 A 
ATOM     39  C   UNL A   1      38.613  29.898  31.030  1.00  0.00     0.014 A 
ATOM     40  C   UNL A   1      38.017  30.202  28.701  1.00  0.00     0.014 A 
ATOM     41  C   UNL A   1      39.903  29.524  30.646  1.00  0.00     0.010 A 
ATOM     42  C   UNL A   1      39.281  29.762  28.317  1.00  0.00     0.010 A 
ATOM     43  C   UNL A   1      40.241  29.439  29.286  1.00  0.00    -0.014 A 
BRANCH  43  44
ATOM     44  C   UNL A   1      41.609  29.058  28.858  1.00  0.00     0.031 A 
ATOM     45  C   UNL A   1      42.700  30.095  28.831  1.00  0.00     0.074 A 
ATOM     46  C   UNL A   1      41.857  27.799  28.449  1.00  0.00     0.049 A 
ATOM     47  N   UNL A   1      43.942  29.978  28.436  1.00  0.00    -0.248 NA
ATOM     48  C   UNL A   1      42.340  31.450  29.280  1.00  0.00     0.031 C 
ATOM     49  C   UNL A   1      40.869  26.720  28.384  1.00  0.00     0.029 A 
ATOM     50  N   UNL A   1      43.016  27.216  28.004  1.00  0.00    -0.354 N 
ATOM     51  C   UNL A   1      44.503  31.243  28.571  1.00  0.00     0.074 A 
ATOM     52  C   UNL A   1      43.455  32.124  29.039  1.00  0.00     0.031 C 
ATOM     53  C   UNL A   1      41.469  25.601  27.945  1.00  0.00     0.029 A 
ATOM     54  C   UNL A   1      42.873  25.889  27.674  1.00  0.00     0.049 A 
ATOM     55  H   UNL A   1      43.869  27.701  27.928  1.00  0.00     0.167 HD
ATOM     56  C   UNL A   1      45.781  31.631  28.351  1.00  0.00     0.037 A 
ATOM     57  C   UNL A   1      43.776  25.006  27.205  1.00  0.00     0.037 A 
ATOM     58  C   UNL A   1      46.829  30.742  27.924  1.00  0.00     0.049 A 
ATOM     59  C   UNL A   1      45.197  25.452  26.995  1.00  0.00     0.074 A 
ATOM     60  C   UNL A   1      48.170  31.021  27.728  1.00  0.00     0.029 A 
ATOM     61  N   UNL A   1      46.653  29.397  27.632  1.00  0.00    -0.354 N 
ATOM     62  N   UNL A   1      45.723  26.640  27.180  1.00  0.00    -0.248 NA
ATOM     63  C   UNL A   1      46.148  24.439  26.519  1.00  0.00     0.031 C 
ATOM     64  C   UNL A   1      48.801  29.849  27.293  1.00  0.00     0.029 A 
ATOM     65  C   UNL A   1      47.859  28.835  27.249  1.00  0.00     0.049 A 
ATOM     66  H   UNL A   1      45.796  28.914  27.688  1.00  0.00     0.167 HD
ATOM     67  C   UNL A   1      47.071  26.511  26.865  1.00  0.00     0.074 A 
ATOM     68  C   UNL A   1      47.281  25.128  26.488  1.00  0.00     0.031 C 
ATOM     69  C   UNL A   1      48.047  27.453  26.884  1.00  0.00     0.037 A 
BRANCH  56  70
ATOM     70  C   UNL A   1      46.117  33.078  28.582  1.00  0.00     0.058 A 
ATOM     71  C   UNL A   1      46.044  34.022  27.545  1.00  0.00     0.135 A 
ATOM     72  C   UNL A   1      46.496  33.531  29.855  1.00  0.00     0.135 A 
ATOM     73  F   UNL A   1      45.703  33.638  26.304  1.00  0.00    -0.206 F 
ATOM     74  C   UNL A   1      46.366  35.358  27.753  1.00  0.00     0.059 A 
ATOM     75  C   UNL A   1      46.799  34.869  30.092  1.00  0.00     0.059 A 
ATOM     76  F   UNL A   1      46.582  32.671  30.881  1.00  0.00    -0.206 F 
ATOM     77  C   UNL A   1      46.746  35.772  29.031  1.00  0.00     0.060 A 
BRANCH  77  78
ATOM     78  S   UNL A   1      47.161  37.510  29.288  1.00  0.00     0.124 S 
ATOM     79  O   UNL A   1      45.856  38.073  29.620  1.00  0.00    -0.237 OA
ATOM     80  O   UNL A   1      48.120  37.446  30.386  1.00  0.00    -0.237 OA
ATOM     81  O   UNL A   1      47.713  37.921  28.002  1.00  0.00    -0.744 OA
ENDBRANCH  77  78
ENDBRANCH  56  70
BRANCH  57  82
ATOM     82  C   UNL A   1      43.370  23.602  26.938  1.00  0.00     0.058 A 
ATOM     83  C   UNL A   1      43.327  22.658  27.974  1.00  0.00     0.135 A 
ATOM     84  C   UNL A   1      43.001  23.181  25.651  1.00  0.00     0.135 A 
ATOM     85  F   UNL A   1      43.675  23.014  29.219  1.00  0.00    -0.206 F 
ATOM     86  C   UNL A   1      42.945  21.341  27.743  1.00  0.00     0.059 A 
ATOM     87  C   UNL A   1      42.596  21.875  25.399  1.00  0.00     0.059 A 
ATOM     88  F   UNL A   1      43.011  24.052  24.630  1.00  0.00    -0.206 F 
ATOM     89  C   UNL A   1      42.581  20.958  26.451  1.00  0.00     0.060 A 
BRANCH  89  90
ATOM     90  S   UNL A   1      42.038  19.258  26.169  1.00  0.00     0.124 S 
ATOM     91  O   UNL A   1      42.885  18.863  25.049  1.00  0.00    -0.237 OA
ATOM     92  O   UNL A   1      42.334  18.622  27.449  1.00  0.00    -0.237 OA
ATOM     93  O   UNL A   1      40.618  19.408  25.867  1.00  0.00    -0.744 OA
ENDBRANCH  89  90
ENDBRANCH  57  82
BRANCH  69  94
ATOM     94  C   UNL A   1      49.433  27.013  26.512  1.00  0.00     0.058 A 
ATOM     95  C   UNL A   1      49.903  27.109  25.194  1.00  0.00     0.135 A 
ATOM     96  C   UNL A   1      50.316  26.538  27.494  1.00  0.00     0.135 A 
ATOM     97  F   UNL A   1      49.094  27.552  24.219  1.00  0.00    -0.206 F 
ATOM     98  C   UNL A   1      51.198  26.729  24.857  1.00  0.00     0.059 A 
ATOM     99  C   UNL A   1      51.622  26.173  27.184  1.00  0.00     0.059 A 
ATOM    100  F   UNL A   1      49.916  26.436  28.772  1.00  0.00    -0.206 F 
ATOM    101  C   UNL A   1      52.050  26.261  25.860  1.00  0.00     0.060 A 
BRANCH 101 102
ATOM    102  S   UNL A   1      53.739  25.803  25.419  1.00  0.00     0.124 S 
ATOM    103  O   UNL A   1      53.992  24.698  26.338  1.00  0.00    -0.237 OA
ATOM    104  O   UNL A   1      53.611  25.440  24.011  1.00  0.00    -0.237 OA
ATOM    105  O   UNL A   1      54.499  27.023  25.678  1.00  0.00    -0.744 OA
ENDBRANCH 101 102
ENDBRANCH  69  94
ENDBRANCH  43  44
ENDBRANCH  35  38
ENDBRANCH  33  34
ENDBRANCH   1  33
TORSDOF 16
ENDMDL
