MODEL 1
REMARK VINA RESULT:     -12.1      0.000      0.000
REMARK SMILES C[C@H]1C[NH+](CC[C@@H]2CCC[C@]2([NH3+])C(=O)NCCCNC(=O)c2ccc(-c3c4nc(c(-c5c(F)cc(S(=O)(=O)[O-])cc5F)c5ccc([nH]5)c(-c5c(F)cc(S(=O)(=O)[O-])cc5F)c5nc(c(-c6c(F)cc(S(=O)(=O)[O-])cc6F)c6ccc3[nH]6)C=C5)C=C4)cc2)C[C@H](C)O1
REMARK SMILES IDX 17 1 16 2 15 3 13 4 14 5 11 7 7 8 8 9 9 10 10 11 6 12 5 13
REMARK SMILES IDX 4 14 1 15 2 16 3 17 91 18 89 19 88 20 90 22 12 23 18 27
REMARK SMILES IDX 19 28 20 29 21 31 22 32 23 33 87 34 24 35 86 36 25 37 26 38
REMARK SMILES IDX 27 39 80 40 28 41 85 42 79 43 81 44 29 45 84 46 78 47 77 48
REMARK SMILES IDX 30 50 64 51 43 52 63 53 44 54 47 55 62 56 82 57 45 58 46 59
REMARK SMILES IDX 61 61 83 62 48 63 31 64 32 65 41 66 33 67 34 68 40 69 42 70
REMARK SMILES IDX 35 71 36 72 37 73 38 74 39 75 65 76 66 77 75 78 67 79 68 80
REMARK SMILES IDX 74 81 76 82 69 83 70 84 71 85 72 86 73 87 49 88 50 89 59 90
REMARK SMILES IDX 51 91 52 92 58 93 60 94 53 95 54 96 55 97 56 98 57 99
REMARK H PARENT 15 6 4 21 12 24 12 25 12 26 19 30 81 49 47 60
REMARK Flexibility Score: inf
ROOT
ATOM      1  C   UNL A   1      38.405  23.694  26.347  1.00  0.00     0.042 C 
ENDROOT
BRANCH   1   2
ATOM      2  C   UNL A   1      37.749  22.438  25.786  1.00  0.00     0.118 C 
BRANCH   2   3
ATOM      3  N   UNL A   1      37.417  22.572  24.377  1.00  0.00    -0.351 N 
ATOM      4  C   UNL A   1      36.323  23.038  23.719  1.00  0.00     0.281 C 
ATOM      5  O   UNL A   1      36.441  23.083  22.487  1.00  0.00    -0.268 OA
ATOM      6  H   UNL A   1      38.132  22.260  23.776  1.00  0.00     0.163 HD
BRANCH   4   7
ATOM      7  C   UNL A   1      34.986  23.482  24.420  1.00  0.00     0.177 C 
ATOM      8  C   UNL A   1      34.005  22.337  24.774  1.00  0.00     0.066 C 
ATOM      9  C   UNL A   1      33.528  21.866  23.393  1.00  0.00     0.011 C 
ATOM     10  C   UNL A   1      33.380  23.151  22.581  1.00  0.00     0.008 C 
ATOM     11  C   UNL A   1      34.120  24.238  23.374  1.00  0.00     0.079 C 
BRANCH   8  12
ATOM     12  C   UNL A   1      34.454  21.158  25.636  1.00  0.00     0.072 C 
BRANCH  12  13
ATOM     13  C   UNL A   1      33.370  20.152  26.066  1.00  0.00     0.262 C 
BRANCH  13  14
ATOM     14  N   UNL A   1      33.138  18.938  25.278  1.00  0.00    -0.331 N 
ATOM     15  C   UNL A   1      32.171  15.315  26.014  1.00  0.00     0.045 C 
ATOM     16  C   UNL A   1      32.374  16.572  25.173  1.00  0.00     0.170 C 
ATOM     17  C   UNL A   1      32.765  17.764  26.079  1.00  0.00     0.294 C 
ATOM     18  O   UNL A   1      33.392  16.265  24.200  1.00  0.00    -0.364 OA
ATOM     19  C   UNL A   1      33.805  17.410  23.436  1.00  0.00     0.170 C 
ATOM     20  C   UNL A   1      34.219  18.570  24.363  1.00  0.00     0.294 C 
ATOM     21  H   UNL A   1      32.338  19.216  24.708  1.00  0.00     0.348 HD
ATOM     22  C   UNL A   1      32.756  17.810  22.402  1.00  0.00     0.045 C 
ENDBRANCH  13  14
ENDBRANCH  12  13
ENDBRANCH   8  12
BRANCH   7  23
ATOM     23  N   UNL A   1      35.267  24.402  25.535  1.00  0.00    -0.345 N 
ATOM     24  H   UNL A   1      34.401  24.856  25.827  1.00  0.00     0.345 HD
ATOM     25  H   UNL A   1      35.937  25.108  25.233  1.00  0.00     0.345 HD
ATOM     26  H   UNL A   1      35.656  23.877  26.318  1.00  0.00     0.345 HD
ENDBRANCH   7  23
ENDBRANCH   4   7
ENDBRANCH   2   3
ENDBRANCH   1   2
BRANCH   1  27
ATOM     27  C   UNL A   1      39.814  23.481  26.877  1.00  0.00     0.118 C 
BRANCH  27  28
ATOM     28  N   UNL A   1      40.813  24.083  26.014  1.00  0.00    -0.352 N 
ATOM     29  C   UNL A   1      41.410  25.318  26.091  1.00  0.00     0.251 C 
ATOM     30  H   UNL A   1      41.107  23.522  25.259  1.00  0.00     0.163 HD
ATOM     31  O   UNL A   1      42.039  25.731  25.120  1.00  0.00    -0.269 OA
BRANCH  29  32
ATOM     32  C   UNL A   1      41.306  26.152  27.315  1.00  0.00     0.039 A 
ATOM     33  C   UNL A   1      40.312  25.844  28.251  1.00  0.00     0.014 A 
ATOM     34  C   UNL A   1      42.107  27.280  27.515  1.00  0.00     0.014 A 
ATOM     35  C   UNL A   1      40.127  26.657  29.373  1.00  0.00     0.010 A 
ATOM     36  C   UNL A   1      41.986  28.036  28.681  1.00  0.00     0.010 A 
ATOM     37  C   UNL A   1      40.962  27.763  29.599  1.00  0.00    -0.014 A 
BRANCH  37  38
ATOM     38  C   UNL A   1      40.710  28.694  30.731  1.00  0.00     0.031 A 
ATOM     39  C   UNL A   1      41.539  28.587  31.988  1.00  0.00     0.074 A 
ATOM     40  C   UNL A   1      39.737  29.621  30.644  1.00  0.00     0.049 A 
ATOM     41  N   UNL A   1      41.471  29.291  33.089  1.00  0.00    -0.248 NA
ATOM     42  C   UNL A   1      42.561  27.527  32.024  1.00  0.00     0.031 C 
ATOM     43  C   UNL A   1      38.831  29.794  29.506  1.00  0.00     0.029 A 
ATOM     44  N   UNL A   1      39.348  30.596  31.528  1.00  0.00    -0.354 N 
ATOM     45  C   UNL A   1      42.419  28.747  33.949  1.00  0.00     0.074 A 
ATOM     46  C   UNL A   1      43.008  27.617  33.267  1.00  0.00     0.031 C 
ATOM     47  C   UNL A   1      38.015  30.833  29.749  1.00  0.00     0.029 A 
ATOM     48  C   UNL A   1      38.323  31.385  31.065  1.00  0.00     0.049 A 
ATOM     49  H   UNL A   1      39.765  30.718  32.411  1.00  0.00     0.167 HD
ATOM     50  C   UNL A   1      42.791  29.166  35.182  1.00  0.00     0.037 A 
ATOM     51  C   UNL A   1      37.709  32.442  31.632  1.00  0.00     0.037 A 
ATOM     52  C   UNL A   1      42.240  30.322  35.838  1.00  0.00     0.049 A 
ATOM     53  C   UNL A   1      38.177  32.926  32.979  1.00  0.00     0.074 A 
ATOM     54  C   UNL A   1      42.581  30.863  37.065  1.00  0.00     0.029 A 
ATOM     55  N   UNL A   1      41.238  31.124  35.312  1.00  0.00    -0.354 N 
ATOM     56  N   UNL A   1      39.111  32.430  33.755  1.00  0.00    -0.248 NA
ATOM     57  C   UNL A   1      37.523  34.127  33.517  1.00  0.00     0.031 C 
ATOM     58  C   UNL A   1      41.770  31.981  37.291  1.00  0.00     0.029 A 
ATOM     59  C   UNL A   1      40.950  32.156  36.188  1.00  0.00     0.049 A 
ATOM     60  H   UNL A   1      40.797  30.981  34.443  1.00  0.00     0.167 HD
ATOM     61  C   UNL A   1      39.178  33.274  34.858  1.00  0.00     0.074 A 
ATOM     62  C   UNL A   1      38.196  34.318  34.643  1.00  0.00     0.031 C 
ATOM     63  C   UNL A   1      39.982  33.196  35.947  1.00  0.00     0.037 A 
BRANCH  50  64
ATOM     64  C   UNL A   1      43.857  28.376  35.892  1.00  0.00     0.058 A 
ATOM     65  C   UNL A   1      45.215  28.717  35.792  1.00  0.00     0.135 A 
ATOM     66  C   UNL A   1      43.517  27.273  36.692  1.00  0.00     0.135 A 
ATOM     67  F   UNL A   1      45.598  29.751  35.027  1.00  0.00    -0.206 F 
ATOM     68  C   UNL A   1      46.202  27.972  36.430  1.00  0.00     0.059 A 
ATOM     69  C   UNL A   1      44.485  26.530  37.363  1.00  0.00     0.059 A 
ATOM     70  F   UNL A   1      42.234  26.903  36.824  1.00  0.00    -0.206 F 
ATOM     71  C   UNL A   1      45.828  26.877  37.210  1.00  0.00     0.060 A 
BRANCH  71  72
ATOM     72  S   UNL A   1      47.119  25.915  38.026  1.00  0.00     0.124 S 
ATOM     73  O   UNL A   1      48.320  26.640  37.623  1.00  0.00    -0.237 OA
ATOM     74  O   UNL A   1      46.754  26.028  39.434  1.00  0.00    -0.237 OA
ATOM     75  O   UNL A   1      46.966  24.583  37.448  1.00  0.00    -0.744 OA
ENDBRANCH  71  72
ENDBRANCH  50  64
BRANCH  51  76
ATOM     76  C   UNL A   1      36.622  33.148  30.904  1.00  0.00     0.058 A 
ATOM     77  C   UNL A   1      35.279  32.973  31.268  1.00  0.00     0.135 A 
ATOM     78  C   UNL A   1      36.904  34.021  29.842  1.00  0.00     0.135 A 
ATOM     79  F   UNL A   1      34.960  32.145  32.274  1.00  0.00    -0.206 F 
ATOM     80  C   UNL A   1      34.250  33.622  30.594  1.00  0.00     0.059 A 
ATOM     81  C   UNL A   1      35.894  34.700  29.168  1.00  0.00     0.059 A 
ATOM     82  F   UNL A   1      38.174  34.238  29.468  1.00  0.00    -0.206 F 
ATOM     83  C   UNL A   1      34.569  34.486  29.545  1.00  0.00     0.060 A 
BRANCH  83  84
ATOM     84  S   UNL A   1      33.230  35.365  28.707  1.00  0.00     0.124 S 
ATOM     85  O   UNL A   1      33.972  36.315  27.886  1.00  0.00    -0.237 OA
ATOM     86  O   UNL A   1      32.557  34.287  27.987  1.00  0.00    -0.237 OA
ATOM     87  O   UNL A   1      32.468  35.941  29.811  1.00  0.00    -0.744 OA
ENDBRANCH  83  84
ENDBRANCH  51  76
BRANCH  63  88
ATOM     88  C   UNL A   1      39.869  34.294  36.966  1.00  0.00     0.058 A 
ATOM     89  C   UNL A   1      40.582  35.497  36.840  1.00  0.00     0.135 A 
ATOM     90  C   UNL A   1      39.008  34.152  38.066  1.00  0.00     0.135 A 
ATOM     91  F   UNL A   1      41.420  35.681  35.807  1.00  0.00    -0.206 F 
ATOM     92  C   UNL A   1      40.467  36.510  37.786  1.00  0.00     0.059 A 
ATOM     93  C   UNL A   1      38.860  35.162  39.010  1.00  0.00     0.059 A 
ATOM     94  F   UNL A   1      38.295  33.026  38.225  1.00  0.00    -0.206 F 
ATOM     95  C   UNL A   1      39.605  36.331  38.871  1.00  0.00     0.060 A 
BRANCH  95  96
ATOM     96  S   UNL A   1      39.451  37.657  40.086  1.00  0.00     0.124 S 
ATOM     97  O   UNL A   1      38.359  38.443  39.524  1.00  0.00    -0.237 OA
ATOM     98  O   UNL A   1      39.143  36.927  41.312  1.00  0.00    -0.237 OA
ATOM     99  O   UNL A   1      40.764  38.295  40.059  1.00  0.00    -0.744 OA
ENDBRANCH  95  96
ENDBRANCH  63  88
ENDBRANCH  37  38
ENDBRANCH  29  32
ENDBRANCH  27  28
ENDBRANCH   1  27
TORSDOF 17
ENDMDL
MODEL 2
REMARK VINA RESULT:     -11.8      1.468      3.552
REMARK SMILES C[C@H]1C[NH+](CC[C@@H]2CCC[C@]2([NH3+])C(=O)NCCCNC(=O)c2ccc(-c3c4nc(c(-c5c(F)cc(S(=O)(=O)[O-])cc5F)c5ccc([nH]5)c(-c5c(F)cc(S(=O)(=O)[O-])cc5F)c5nc(c(-c6c(F)cc(S(=O)(=O)[O-])cc6F)c6ccc3[nH]6)C=C5)C=C4)cc2)C[C@H](C)O1
REMARK SMILES IDX 17 1 16 2 15 3 13 4 14 5 11 7 7 8 8 9 9 10 10 11 6 12 5 13
REMARK SMILES IDX 4 14 1 15 2 16 3 17 91 18 89 19 88 20 90 22 12 23 18 27
REMARK SMILES IDX 19 28 20 29 21 31 22 32 23 33 87 34 24 35 86 36 25 37 26 38
REMARK SMILES IDX 27 39 80 40 28 41 85 42 79 43 81 44 29 45 84 46 78 47 77 48
REMARK SMILES IDX 30 50 64 51 43 52 63 53 44 54 47 55 62 56 82 57 45 58 46 59
REMARK SMILES IDX 61 61 83 62 48 63 31 64 32 65 41 66 33 67 34 68 40 69 42 70
REMARK SMILES IDX 35 71 36 72 37 73 38 74 39 75 65 76 66 77 75 78 67 79 68 80
REMARK SMILES IDX 74 81 76 82 69 83 70 84 71 85 72 86 73 87 49 88 50 89 59 90
REMARK SMILES IDX 51 91 52 92 58 93 60 94 53 95 54 96 55 97 56 98 57 99
REMARK H PARENT 15 6 4 21 12 24 12 25 12 26 19 30 81 49 47 60
REMARK Flexibility Score: inf
ROOT
ATOM      1  C   UNL A   1      38.061  22.980  26.090  1.00  0.00     0.042 C 
ENDROOT
BRANCH   1   2
ATOM      2  C   UNL A   1      36.678  23.542  25.780  1.00  0.00     0.118 C 
BRANCH   2   3
ATOM      3  N   UNL A   1      35.653  22.994  26.652  1.00  0.00    -0.351 N 
ATOM      4  C   UNL A   1      34.795  21.946  26.535  1.00  0.00     0.281 C 
ATOM      5  O   UNL A   1      34.112  21.721  27.543  1.00  0.00    -0.268 OA
ATOM      6  H   UNL A   1      35.560  23.482  27.502  1.00  0.00     0.163 HD
BRANCH   4   7
ATOM      7  C   UNL A   1      34.634  21.068  25.238  1.00  0.00     0.177 C 
ATOM      8  C   UNL A   1      34.021  21.792  24.014  1.00  0.00     0.066 C 
ATOM      9  C   UNL A   1      32.568  22.021  24.454  1.00  0.00     0.011 C 
ATOM     10  C   UNL A   1      32.192  20.747  25.209  1.00  0.00     0.008 C 
ATOM     11  C   UNL A   1      33.515  20.022  25.498  1.00  0.00     0.079 C 
BRANCH   8  12
ATOM     12  C   UNL A   1      34.642  23.076  23.469  1.00  0.00     0.072 C 
BRANCH  12  13
ATOM     13  C   UNL A   1      33.704  24.049  22.730  1.00  0.00     0.262 C 
BRANCH  13  14
ATOM     14  N   UNL A   1      33.605  25.447  23.161  1.00  0.00    -0.331 N 
ATOM     15  C   UNL A   1      32.776  27.278  26.411  1.00  0.00     0.045 C 
ATOM     16  C   UNL A   1      33.327  27.101  24.999  1.00  0.00     0.170 C 
ATOM     17  C   UNL A   1      33.248  25.615  24.577  1.00  0.00     0.294 C 
ATOM     18  O   UNL A   1      32.553  27.959  24.137  1.00  0.00    -0.364 OA
ATOM     19  C   UNL A   1      32.855  27.778  22.744  1.00  0.00     0.170 C 
ATOM     20  C   UNL A   1      32.737  26.294  22.343  1.00  0.00     0.294 C 
ATOM     21  H   UNL A   1      34.563  25.770  23.023  1.00  0.00     0.348 HD
ATOM     22  C   UNL A   1      34.198  28.398  22.369  1.00  0.00     0.045 C 
ENDBRANCH  13  14
ENDBRANCH  12  13
ENDBRANCH   8  12
BRANCH   7  23
ATOM     23  N   UNL A   1      35.882  20.343  24.946  1.00  0.00    -0.345 N 
ATOM     24  H   UNL A   1      36.377  20.153  25.818  1.00  0.00     0.345 HD
ATOM     25  H   UNL A   1      36.471  20.910  24.337  1.00  0.00     0.345 HD
ATOM     26  H   UNL A   1      35.662  19.462  24.482  1.00  0.00     0.345 HD
ENDBRANCH   7  23
ENDBRANCH   4   7
ENDBRANCH   2   3
ENDBRANCH   1   2
BRANCH   1  27
ATOM     27  C   UNL A   1      38.973  23.937  26.839  1.00  0.00     0.118 C 
BRANCH  27  28
ATOM     28  N   UNL A   1      40.059  24.415  26.003  1.00  0.00    -0.352 N 
ATOM     29  C   UNL A   1      40.804  25.565  26.105  1.00  0.00     0.251 C 
ATOM     30  H   UNL A   1      40.296  23.828  25.248  1.00  0.00     0.163 HD
ATOM     31  O   UNL A   1      41.501  25.903  25.151  1.00  0.00    -0.269 OA
BRANCH  29  32
ATOM     32  C   UNL A   1      40.779  26.396  27.336  1.00  0.00     0.039 A 
ATOM     33  C   UNL A   1      39.890  26.048  28.359  1.00  0.00     0.014 A 
ATOM     34  C   UNL A   1      41.548  27.556  27.463  1.00  0.00     0.014 A 
ATOM     35  C   UNL A   1      39.776  26.854  29.495  1.00  0.00     0.010 A 
ATOM     36  C   UNL A   1      41.504  28.308  28.637  1.00  0.00     0.010 A 
ATOM     37  C   UNL A   1      40.583  27.994  29.646  1.00  0.00    -0.014 A 
BRANCH  37  38
ATOM     38  C   UNL A   1      40.398  28.915  30.798  1.00  0.00     0.031 A 
ATOM     39  C   UNL A   1      41.286  28.783  32.012  1.00  0.00     0.074 A 
ATOM     40  C   UNL A   1      39.434  29.856  30.769  1.00  0.00     0.049 A 
ATOM     41  N   UNL A   1      41.280  29.476  33.122  1.00  0.00    -0.248 NA
ATOM     42  C   UNL A   1      42.295  27.711  31.987  1.00  0.00     0.031 C 
ATOM     43  C   UNL A   1      38.476  30.053  29.678  1.00  0.00     0.029 A 
ATOM     44  N   UNL A   1      39.102  30.825  31.681  1.00  0.00    -0.354 N 
ATOM     45  C   UNL A   1      42.263  28.910  33.929  1.00  0.00     0.074 A 
ATOM     46  C   UNL A   1      42.803  27.781  33.207  1.00  0.00     0.031 C 
ATOM     47  C   UNL A   1      37.687  31.099  29.972  1.00  0.00     0.029 A 
ATOM     48  C   UNL A   1      38.065  31.633  31.277  1.00  0.00     0.049 A 
ATOM     49  H   UNL A   1      39.563  30.932  32.544  1.00  0.00     0.167 HD
ATOM     50  C   UNL A   1      42.700  29.311  35.147  1.00  0.00     0.037 A 
ATOM     51  C   UNL A   1      37.494  32.691  31.885  1.00  0.00     0.037 A 
ATOM     52  C   UNL A   1      42.196  30.466  35.842  1.00  0.00     0.049 A 
ATOM     53  C   UNL A   1      38.034  33.153  33.212  1.00  0.00     0.074 A 
ATOM     54  C   UNL A   1      42.604  30.989  37.056  1.00  0.00     0.029 A 
ATOM     55  N   UNL A   1      41.181  31.287  35.373  1.00  0.00    -0.354 N 
ATOM     56  N   UNL A   1      38.997  32.636  33.936  1.00  0.00    -0.248 NA
ATOM     57  C   UNL A   1      37.422  34.356  33.795  1.00  0.00     0.031 C 
ATOM     58  C   UNL A   1      41.820  32.115  37.333  1.00  0.00     0.029 A 
ATOM     59  C   UNL A   1      40.949  32.313  36.273  1.00  0.00     0.049 A 
ATOM     60  H   UNL A   1      40.696  31.159  34.525  1.00  0.00     0.167 HD
ATOM     61  C   UNL A   1      39.130  33.468  35.043  1.00  0.00     0.074 A 
ATOM     62  C   UNL A   1      38.152  34.526  34.888  1.00  0.00     0.031 C 
ATOM     63  C   UNL A   1      39.985  33.367  36.091  1.00  0.00     0.037 A 
BRANCH  50  64
ATOM     64  C   UNL A   1      43.788  28.500  35.796  1.00  0.00     0.058 A 
ATOM     65  C   UNL A   1      45.146  28.790  35.588  1.00  0.00     0.135 A 
ATOM     66  C   UNL A   1      43.472  27.427  36.645  1.00  0.00     0.135 A 
ATOM     67  F   UNL A   1      45.505  29.794  34.773  1.00  0.00    -0.206 F 
ATOM     68  C   UNL A   1      46.152  28.025  36.170  1.00  0.00     0.059 A 
ATOM     69  C   UNL A   1      44.462  26.664  37.260  1.00  0.00     0.059 A 
ATOM     70  F   UNL A   1      42.191  27.104  36.879  1.00  0.00    -0.206 F 
ATOM     71  C   UNL A   1      45.801  26.960  37.000  1.00  0.00     0.060 A 
BRANCH  71  72
ATOM     72  S   UNL A   1      47.116  25.972  37.743  1.00  0.00     0.124 S 
ATOM     73  O   UNL A   1      46.601  25.773  39.095  1.00  0.00    -0.237 OA
ATOM     74  O   UNL A   1      47.138  24.787  36.893  1.00  0.00    -0.237 OA
ATOM     75  O   UNL A   1      48.289  26.836  37.639  1.00  0.00    -0.744 OA
ENDBRANCH  71  72
ENDBRANCH  50  64
BRANCH  51  76
ATOM     76  C   UNL A   1      36.383  33.419  31.218  1.00  0.00     0.058 A 
ATOM     77  C   UNL A   1      36.615  34.199  30.076  1.00  0.00     0.135 A 
ATOM     78  C   UNL A   1      35.067  33.338  31.699  1.00  0.00     0.135 A 
ATOM     79  F   UNL A   1      37.857  34.311  29.582  1.00  0.00    -0.206 F 
ATOM     80  C   UNL A   1      35.586  34.890  29.443  1.00  0.00     0.059 A 
ATOM     81  C   UNL A   1      34.018  34.000  31.069  1.00  0.00     0.059 A 
ATOM     82  F   UNL A   1      34.789  32.588  32.777  1.00  0.00    -0.206 F 
ATOM     83  C   UNL A   1      34.290  34.782  29.948  1.00  0.00     0.060 A 
BRANCH  83  84
ATOM     84  S   UNL A   1      32.951  35.641  29.090  1.00  0.00     0.124 S 
ATOM     85  O   UNL A   1      32.398  34.574  28.266  1.00  0.00    -0.237 OA
ATOM     86  O   UNL A   1      32.114  36.091  30.200  1.00  0.00    -0.237 OA
ATOM     87  O   UNL A   1      33.645  36.705  28.370  1.00  0.00    -0.744 OA
ENDBRANCH  83  84
ENDBRANCH  51  76
BRANCH  63  88
ATOM     88  C   UNL A   1      39.936  34.455  37.127  1.00  0.00     0.058 A 
ATOM     89  C   UNL A   1      39.084  34.380  38.239  1.00  0.00     0.135 A 
ATOM     90  C   UNL A   1      40.781  35.571  37.020  1.00  0.00     0.135 A 
ATOM     91  F   UNL A   1      38.254  33.333  38.385  1.00  0.00    -0.206 F 
ATOM     92  C   UNL A   1      39.049  35.389  39.195  1.00  0.00     0.059 A 
ATOM     93  C   UNL A   1      40.780  36.579  37.977  1.00  0.00     0.059 A 
ATOM     94  F   UNL A   1      41.624  35.684  35.981  1.00  0.00    -0.206 F 
ATOM     95  C   UNL A   1      39.899  36.488  39.053  1.00  0.00     0.060 A 
BRANCH  95  96
ATOM     96  S   UNL A   1      39.858  37.786  40.307  1.00  0.00     0.124 S 
ATOM     97  O   UNL A   1      40.970  38.632  39.888  1.00  0.00    -0.237 OA
ATOM     98  O   UNL A   1      38.525  38.355  40.128  1.00  0.00    -0.237 OA
ATOM     99  O   UNL A   1      40.058  37.057  41.555  1.00  0.00    -0.744 OA
ENDBRANCH  95  96
ENDBRANCH  63  88
ENDBRANCH  37  38
ENDBRANCH  29  32
ENDBRANCH  27  28
ENDBRANCH   1  27
TORSDOF 17
ENDMDL
MODEL 3
REMARK VINA RESULT:     -11.8      2.777      8.899
REMARK SMILES C[C@H]1C[NH+](CC[C@@H]2CCC[C@]2([NH3+])C(=O)NCCCNC(=O)c2ccc(-c3c4nc(c(-c5c(F)cc(S(=O)(=O)[O-])cc5F)c5ccc([nH]5)c(-c5c(F)cc(S(=O)(=O)[O-])cc5F)c5nc(c(-c6c(F)cc(S(=O)(=O)[O-])cc6F)c6ccc3[nH]6)C=C5)C=C4)cc2)C[C@H](C)O1
REMARK SMILES IDX 17 1 16 2 15 3 13 4 14 5 11 7 7 8 8 9 9 10 10 11 6 12 5 13
REMARK SMILES IDX 4 14 1 15 2 16 3 17 91 18 89 19 88 20 90 22 12 23 18 27
REMARK SMILES IDX 19 28 20 29 21 31 22 32 23 33 87 34 24 35 86 36 25 37 26 38
REMARK SMILES IDX 27 39 80 40 28 41 85 42 79 43 81 44 29 45 84 46 78 47 77 48
REMARK SMILES IDX 30 50 64 51 43 52 63 53 44 54 47 55 62 56 82 57 45 58 46 59
REMARK SMILES IDX 61 61 83 62 48 63 31 64 32 65 41 66 33 67 34 68 40 69 42 70
REMARK SMILES IDX 35 71 36 72 37 73 38 74 39 75 65 76 66 77 75 78 67 79 68 80
REMARK SMILES IDX 74 81 76 82 69 83 70 84 71 85 72 86 73 87 49 88 50 89 59 90
REMARK SMILES IDX 51 91 52 92 58 93 60 94 53 95 54 96 55 97 56 98 57 99
REMARK H PARENT 15 6 4 21 12 24 12 25 12 26 19 30 81 49 47 60
REMARK Flexibility Score: inf
ROOT
ATOM      1  C   UNL A   1      31.637  32.473  26.542  1.00  0.00     0.042 C 
ENDROOT
BRANCH   1   2
ATOM      2  C   UNL A   1      31.445  30.961  26.518  1.00  0.00     0.118 C 
BRANCH   2   3
ATOM      3  N   UNL A   1      32.681  30.245  26.787  1.00  0.00    -0.351 N 
ATOM      4  C   UNL A   1      33.093  28.974  26.538  1.00  0.00     0.281 C 
ATOM      5  O   UNL A   1      34.273  28.744  26.836  1.00  0.00    -0.268 OA
ATOM      6  H   UNL A   1      33.360  30.794  27.242  1.00  0.00     0.163 HD
BRANCH   4   7
ATOM      7  C   UNL A   1      32.177  27.844  25.937  1.00  0.00     0.177 C 
ATOM      8  C   UNL A   1      32.911  26.756  25.115  1.00  0.00     0.066 C 
ATOM      9  C   UNL A   1      33.365  27.527  23.868  1.00  0.00     0.011 C 
ATOM     10  C   UNL A   1      32.200  28.463  23.553  1.00  0.00     0.008 C 
ATOM     11  C   UNL A   1      31.314  28.471  24.806  1.00  0.00     0.079 C 
BRANCH   8  12
ATOM     12  C   UNL A   1      34.063  25.958  25.722  1.00  0.00     0.072 C 
BRANCH  12  13
ATOM     13  C   UNL A   1      33.776  24.495  26.108  1.00  0.00     0.262 C 
BRANCH  13  14
ATOM     14  N   UNL A   1      34.444  23.401  25.396  1.00  0.00    -0.331 N 
ATOM     15  C   UNL A   1      33.794  19.679  24.825  1.00  0.00     0.045 C 
ATOM     16  C   UNL A   1      34.414  21.051  24.578  1.00  0.00     0.170 C 
ATOM     17  C   UNL A   1      33.746  22.110  25.486  1.00  0.00     0.294 C 
ATOM     18  O   UNL A   1      35.828  20.924  24.830  1.00  0.00    -0.364 OA
ATOM     19  C   UNL A   1      36.522  22.182  24.791  1.00  0.00     0.170 C 
ATOM     20  C   UNL A   1      35.855  23.207  25.729  1.00  0.00     0.294 C 
ATOM     21  H   UNL A   1      34.401  23.732  24.431  1.00  0.00     0.348 HD
ATOM     22  C   UNL A   1      36.692  22.692  23.363  1.00  0.00     0.045 C 
ENDBRANCH  13  14
ENDBRANCH  12  13
ENDBRANCH   8  12
BRANCH   7  23
ATOM     23  N   UNL A   1      31.268  27.311  26.966  1.00  0.00    -0.345 N 
ATOM     24  H   UNL A   1      30.633  26.635  26.542  1.00  0.00     0.345 HD
ATOM     25  H   UNL A   1      30.730  28.075  27.374  1.00  0.00     0.345 HD
ATOM     26  H   UNL A   1      31.814  26.853  27.696  1.00  0.00     0.345 HD
ENDBRANCH   7  23
ENDBRANCH   4   7
ENDBRANCH   2   3
ENDBRANCH   1   2
BRANCH   1  27
ATOM     27  C   UNL A   1      32.724  32.953  27.490  1.00  0.00     0.118 C 
BRANCH  27  28
ATOM     28  N   UNL A   1      32.562  34.353  27.834  1.00  0.00    -0.352 N 
ATOM     29  C   UNL A   1      33.130  35.076  28.854  1.00  0.00     0.251 C 
ATOM     30  H   UNL A   1      31.954  34.860  27.248  1.00  0.00     0.163 HD
ATOM     31  O   UNL A   1      32.665  36.182  29.123  1.00  0.00    -0.269 OA
BRANCH  29  32
ATOM     32  C   UNL A   1      34.281  34.549  29.630  1.00  0.00     0.039 A 
ATOM     33  C   UNL A   1      35.553  34.588  29.047  1.00  0.00     0.014 A 
ATOM     34  C   UNL A   1      34.119  33.939  30.877  1.00  0.00     0.014 A 
ATOM     35  C   UNL A   1      36.647  34.024  29.710  1.00  0.00     0.010 A 
ATOM     36  C   UNL A   1      35.225  33.461  31.580  1.00  0.00     0.010 A 
ATOM     37  C   UNL A   1      36.494  33.454  30.984  1.00  0.00    -0.014 A 
BRANCH  37  38
ATOM     38  C   UNL A   1      37.626  32.759  31.652  1.00  0.00     0.031 A 
ATOM     39  C   UNL A   1      38.114  33.244  32.996  1.00  0.00     0.074 A 
ATOM     40  C   UNL A   1      38.225  31.709  31.058  1.00  0.00     0.049 A 
ATOM     41  N   UNL A   1      39.090  32.787  33.737  1.00  0.00    -0.248 NA
ATOM     42  C   UNL A   1      37.433  34.418  33.568  1.00  0.00     0.031 C 
ATOM     43  C   UNL A   1      37.883  31.175  29.737  1.00  0.00     0.029 A 
ATOM     44  N   UNL A   1      39.246  30.900  31.489  1.00  0.00    -0.354 N 
ATOM     45  C   UNL A   1      39.153  33.628  34.844  1.00  0.00     0.074 A 
ATOM     46  C   UNL A   1      38.157  34.657  34.650  1.00  0.00     0.031 C 
ATOM     47  C   UNL A   1      38.659  30.109  29.482  1.00  0.00     0.029 A 
ATOM     48  C   UNL A   1      39.567  29.896  30.606  1.00  0.00     0.049 A 
ATOM     49  H   UNL A   1      39.707  31.028  32.350  1.00  0.00     0.167 HD
ATOM     50  C   UNL A   1      39.944  33.536  35.940  1.00  0.00     0.037 A 
ATOM     51  C   UNL A   1      40.480  28.910  30.699  1.00  0.00     0.037 A 
ATOM     52  C   UNL A   1      40.899  32.481  36.156  1.00  0.00     0.049 A 
ATOM     53  C   UNL A   1      41.309  28.793  31.950  1.00  0.00     0.074 A 
ATOM     54  C   UNL A   1      41.714  32.266  37.252  1.00  0.00     0.029 A 
ATOM     55  N   UNL A   1      41.156  31.455  35.259  1.00  0.00    -0.354 N 
ATOM     56  N   UNL A   1      41.318  29.567  33.008  1.00  0.00    -0.248 NA
ATOM     57  C   UNL A   1      42.236  27.655  32.028  1.00  0.00     0.031 C 
ATOM     58  C   UNL A   1      42.481  31.120  37.010  1.00  0.00     0.029 A 
ATOM     59  C   UNL A   1      42.116  30.603  35.777  1.00  0.00     0.049 A 
ATOM     60  H   UNL A   1      40.719  31.347  34.382  1.00  0.00     0.167 HD
ATOM     61  C   UNL A   1      42.226  28.994  33.892  1.00  0.00     0.074 A 
ATOM     62  C   UNL A   1      42.740  27.802  33.245  1.00  0.00     0.031 C 
ATOM     63  C   UNL A   1      42.599  29.412  35.127  1.00  0.00     0.037 A 
BRANCH  50  64
ATOM     64  C   UNL A   1      39.796  34.598  36.995  1.00  0.00     0.058 A 
ATOM     65  C   UNL A   1      38.953  34.422  38.104  1.00  0.00     0.135 A 
ATOM     66  C   UNL A   1      40.514  35.802  36.906  1.00  0.00     0.135 A 
ATOM     67  F   UNL A   1      38.230  33.298  38.231  1.00  0.00    -0.206 F 
ATOM     68  C   UNL A   1      38.798  35.414  39.067  1.00  0.00     0.059 A 
ATOM     69  C   UNL A   1      40.396  36.797  37.872  1.00  0.00     0.059 A 
ATOM     70  F   UNL A   1      41.335  36.024  35.867  1.00  0.00    -0.206 F 
ATOM     71  C   UNL A   1      39.520  36.601  38.940  1.00  0.00     0.060 A 
BRANCH  71  72
ATOM     72  S   UNL A   1      39.305  37.882  40.193  1.00  0.00     0.124 S 
ATOM     73  O   UNL A   1      40.615  38.527  40.177  1.00  0.00    -0.237 OA
ATOM     74  O   UNL A   1      38.204  38.672  39.651  1.00  0.00    -0.237 OA
ATOM     75  O   UNL A   1      38.992  37.125  41.402  1.00  0.00    -0.744 OA
ENDBRANCH  71  72
ENDBRANCH  50  64
BRANCH  51  76
ATOM     76  C   UNL A   1      40.619  27.922  29.596  1.00  0.00     0.058 A 
ATOM     77  C   UNL A   1      41.643  28.043  28.645  1.00  0.00     0.135 A 
ATOM     78  C   UNL A   1      39.745  26.831  29.480  1.00  0.00     0.135 A 
ATOM     79  F   UNL A   1      42.501  29.072  28.712  1.00  0.00    -0.206 F 
ATOM     80  C   UNL A   1      41.784  27.131  27.605  1.00  0.00     0.059 A 
ATOM     81  C   UNL A   1      39.880  25.892  28.463  1.00  0.00     0.059 A 
ATOM     82  F   UNL A   1      38.761  26.659  30.377  1.00  0.00    -0.206 F 
ATOM     83  C   UNL A   1      40.897  26.056  27.524  1.00  0.00     0.060 A 
BRANCH  83  84
ATOM     84  S   UNL A   1      41.118  24.846  26.200  1.00  0.00     0.124 S 
ATOM     85  O   UNL A   1      42.211  24.035  26.723  1.00  0.00    -0.237 OA
ATOM     86  O   UNL A   1      39.809  24.201  26.151  1.00  0.00    -0.237 OA
ATOM     87  O   UNL A   1      41.442  25.675  25.042  1.00  0.00    -0.744 OA
ENDBRANCH  83  84
ENDBRANCH  51  76
BRANCH  63  88
ATOM     88  C   UNL A   1      43.573  28.551  35.880  1.00  0.00     0.058 A 
ATOM     89  C   UNL A   1      43.147  27.483  36.685  1.00  0.00     0.135 A 
ATOM     90  C   UNL A   1      44.953  28.778  35.766  1.00  0.00     0.135 A 
ATOM     91  F   UNL A   1      41.836  27.226  36.830  1.00  0.00    -0.206 F 
ATOM     92  C   UNL A   1      44.056  26.688  37.375  1.00  0.00     0.059 A 
ATOM     93  C   UNL A   1      45.880  27.980  36.427  1.00  0.00     0.059 A 
ATOM     94  F   UNL A   1      45.413  29.779  34.998  1.00  0.00    -0.206 F 
ATOM     95  C   UNL A   1      45.422  26.948  37.243  1.00  0.00     0.060 A 
BRANCH  95  96
ATOM     96  S   UNL A   1      46.595  25.901  38.131  1.00  0.00     0.124 S 
ATOM     97  O   UNL A   1      46.563  26.492  39.464  1.00  0.00    -0.237 OA
ATOM     98  O   UNL A   1      45.992  24.577  38.008  1.00  0.00    -0.237 OA
ATOM     99  O   UNL A   1      47.840  26.086  37.391  1.00  0.00    -0.744 OA
ENDBRANCH  95  96
ENDBRANCH  63  88
ENDBRANCH  37  38
ENDBRANCH  29  32
ENDBRANCH  27  28
ENDBRANCH   1  27
TORSDOF 17
ENDMDL
