MODEL 1
REMARK VINA RESULT:     -11.4      0.000      0.000
REMARK SMILES Cc1nc(CCNc2nccc(-c3cc(C(=O)NCCCNC(=O)c4ccc(-c5c6nc(c(-c7c(F)cc(S(=O)(=O)[O-])cc7F)c7ccc([nH]7)c(-c7c(F)cc(S(=O)(=O)[O-])cc7F)c7nc(c(-c8c(F)cc(S(=O)(=O)[O-])cc8F)c8ccc5[nH]8)C=C7)C=C6)cc4)ccn3)n2)cc(=O)[nH]1
REMARK SMILES IDX 19 1 18 2 16 3 17 4 15 6 13 7 14 8 93 9 92 10 91 11 12 12
REMARK SMILES IDX 8 13 9 14 94 15 10 16 11 17 7 18 6 20 5 21 4 22 1 23 2 24
REMARK SMILES IDX 3 25 98 26 96 27 95 29 97 30 20 31 21 32 22 33 23 34 24 36
REMARK SMILES IDX 25 37 26 38 90 39 27 40 89 41 28 42 29 43 30 44 83 45 31 46
REMARK SMILES IDX 88 47 82 48 84 49 32 50 87 51 81 52 80 53 33 55 67 56 46 57
REMARK SMILES IDX 66 58 47 59 50 60 65 61 85 62 48 63 49 64 64 66 86 67 51 68
REMARK SMILES IDX 34 69 35 70 44 71 36 72 37 73 43 74 45 75 38 76 39 77 40 78
REMARK SMILES IDX 41 79 42 80 68 81 69 82 78 83 70 84 71 85 77 86 79 87 72 88
REMARK SMILES IDX 73 89 74 90 75 91 76 92 52 93 53 94 62 95 54 96 55 97 61 98
REMARK SMILES IDX 63 99 56 100 57 101 58 102 59 103 60 104
REMARK H PARENT 18 5 7 19 98 28 22 35 84 54 50 65
REMARK Flexibility Score: inf
ROOT
ATOM      1  C   UNL A   1      41.047  20.994  26.193  1.00  0.00     0.118 C 
ENDROOT
BRANCH   1   2
ATOM      2  N   UNL A   1      41.456  19.608  26.043  1.00  0.00    -0.352 N 
ATOM      3  C   UNL A   1      42.652  19.017  25.726  1.00  0.00     0.251 C 
ATOM      4  O   UNL A   1      42.705  17.787  25.741  1.00  0.00    -0.269 OA
ATOM      5  H   UNL A   1      40.729  18.963  26.202  1.00  0.00     0.163 HD
BRANCH   3   6
ATOM      6  C   UNL A   1      43.893  19.783  25.442  1.00  0.00     0.043 A 
ATOM      7  C   UNL A   1      45.319  21.702  25.576  1.00  0.00     0.090 A 
ATOM      8  C   UNL A   1      44.065  21.128  25.744  1.00  0.00     0.044 A 
ATOM      9  N   UNL A   1      46.362  21.026  25.033  1.00  0.00    -0.255 NA
ATOM     10  C   UNL A   1      46.140  19.759  24.634  1.00  0.00     0.112 A 
ATOM     11  C   UNL A   1      44.945  19.096  24.833  1.00  0.00     0.034 A 
BRANCH   7  12
ATOM     12  C   UNL A   1      45.591  23.050  26.079  1.00  0.00     0.094 A 
ATOM     13  C   UNL A   1      45.681  24.456  27.876  1.00  0.00     0.223 A 
ATOM     14  N   UNL A   1      45.959  25.521  27.112  1.00  0.00    -0.222 NA
ATOM     15  N   UNL A   1      45.524  23.216  27.414  1.00  0.00    -0.211 NA
ATOM     16  C   UNL A   1      46.101  25.306  25.795  1.00  0.00     0.117 A 
ATOM     17  C   UNL A   1      45.911  24.081  25.214  1.00  0.00     0.051 A 
BRANCH  13  18
ATOM     18  N   UNL A   1      45.498  24.714  29.206  1.00  0.00    -0.354 N 
ATOM     19  H   UNL A   1      46.268  24.950  29.771  1.00  0.00     0.163 HD
BRANCH  18  20
ATOM     20  C   UNL A   1      44.168  24.641  29.786  1.00  0.00     0.122 C 
BRANCH  20  21
ATOM     21  C   UNL A   1      44.055  23.449  30.754  1.00  0.00     0.077 C 
BRANCH  21  22
ATOM     22  C   UNL A   1      44.511  23.786  32.161  1.00  0.00     0.050 A 
ATOM     23  C   UNL A   1      47.134  25.909  33.638  1.00  0.00     0.087 C 
ATOM     24  C   UNL A   1      45.997  24.951  33.440  1.00  0.00     0.105 A 
ATOM     25  N   UNL A   1      45.614  24.604  32.254  1.00  0.00    -0.240 NA
ATOM     26  N   UNL A   1      45.429  24.476  34.587  1.00  0.00    -0.311 N 
ATOM     27  C   UNL A   1      44.376  23.615  34.564  1.00  0.00     0.251 A 
ATOM     28  H   UNL A   1      45.790  24.766  35.456  1.00  0.00     0.171 HD
ATOM     29  C   UNL A   1      43.837  23.331  33.230  1.00  0.00     0.095 A 
ATOM     30  O   UNL A   1      43.924  23.081  35.568  1.00  0.00    -0.270 OA
ENDBRANCH  21  22
ENDBRANCH  20  21
ENDBRANCH  18  20
ENDBRANCH  13  18
ENDBRANCH   7  12
ENDBRANCH   3   6
ENDBRANCH   1   2
BRANCH   1  31
ATOM     31  C   UNL A   1      40.878  21.365  27.666  1.00  0.00     0.042 C 
BRANCH  31  32
ATOM     32  C   UNL A   1      41.329  22.789  27.977  1.00  0.00     0.118 C 
BRANCH  32  33
ATOM     33  N   UNL A   1      41.850  23.458  26.794  1.00  0.00    -0.352 N 
ATOM     34  C   UNL A   1      41.926  24.796  26.497  1.00  0.00     0.251 C 
ATOM     35  H   UNL A   1      42.202  22.858  26.097  1.00  0.00     0.163 HD
ATOM     36  O   UNL A   1      42.162  25.138  25.342  1.00  0.00    -0.269 OA
BRANCH  34  37
ATOM     37  C   UNL A   1      41.724  25.814  27.550  1.00  0.00     0.039 A 
ATOM     38  C   UNL A   1      40.508  25.840  28.238  1.00  0.00     0.014 A 
ATOM     39  C   UNL A   1      42.704  26.772  27.827  1.00  0.00     0.014 A 
ATOM     40  C   UNL A   1      40.296  26.793  29.236  1.00  0.00     0.010 A 
ATOM     41  C   UNL A   1      42.521  27.671  28.873  1.00  0.00     0.010 A 
ATOM     42  C   UNL A   1      41.313  27.697  29.583  1.00  0.00    -0.014 A 
BRANCH  42  43
ATOM     43  C   UNL A   1      41.130  28.675  30.686  1.00  0.00     0.031 A 
ATOM     44  C   UNL A   1      41.978  28.584  31.927  1.00  0.00     0.074 A 
ATOM     45  C   UNL A   1      40.156  29.602  30.596  1.00  0.00     0.049 A 
ATOM     46  N   UNL A   1      41.918  29.297  33.022  1.00  0.00    -0.248 NA
ATOM     47  C   UNL A   1      43.013  27.538  31.950  1.00  0.00     0.031 C 
ATOM     48  C   UNL A   1      39.240  29.757  29.462  1.00  0.00     0.029 A 
ATOM     49  N   UNL A   1      39.764  30.580  31.473  1.00  0.00    -0.354 N 
ATOM     50  C   UNL A   1      42.893  28.779  33.867  1.00  0.00     0.074 A 
ATOM     51  C   UNL A   1      43.494  27.657  33.179  1.00  0.00     0.031 C 
ATOM     52  C   UNL A   1      38.409  30.783  29.704  1.00  0.00     0.029 A 
ATOM     53  C   UNL A   1      38.701  31.331  31.025  1.00  0.00     0.049 A 
ATOM     54  H   UNL A   1      40.201  30.731  32.342  1.00  0.00     0.167 HD
ATOM     55  C   UNL A   1      43.267  29.213  35.094  1.00  0.00     0.037 A 
ATOM     56  C   UNL A   1      38.032  32.339  31.615  1.00  0.00     0.037 A 
ATOM     57  C   UNL A   1      42.676  30.345  35.761  1.00  0.00     0.049 A 
ATOM     58  C   UNL A   1      38.461  32.799  32.982  1.00  0.00     0.074 A 
ATOM     59  C   UNL A   1      43.020  30.902  36.980  1.00  0.00     0.029 A 
ATOM     60  N   UNL A   1      41.615  31.090  35.266  1.00  0.00    -0.354 N 
ATOM     61  N   UNL A   1      39.429  32.339  33.740  1.00  0.00    -0.248 NA
ATOM     62  C   UNL A   1      37.716  33.919  33.571  1.00  0.00     0.031 C 
ATOM     63  C   UNL A   1      42.135  31.952  37.247  1.00  0.00     0.029 A 
ATOM     64  C   UNL A   1      41.277  32.088  36.168  1.00  0.00     0.049 A 
ATOM     65  H   UNL A   1      41.168  30.934  34.403  1.00  0.00     0.167 HD
ATOM     66  C   UNL A   1      39.426  33.130  34.883  1.00  0.00     0.074 A 
ATOM     67  C   UNL A   1      38.370  34.106  34.710  1.00  0.00     0.031 C 
ATOM     68  C   UNL A   1      40.226  33.058  35.975  1.00  0.00     0.037 A 
BRANCH  55  69
ATOM     69  C   UNL A   1      44.369  28.465  35.797  1.00  0.00     0.058 A 
ATOM     70  C   UNL A   1      45.715  28.848  35.678  1.00  0.00     0.135 A 
ATOM     71  C   UNL A   1      44.074  27.373  36.629  1.00  0.00     0.135 A 
ATOM     72  F   UNL A   1      46.058  29.876  34.884  1.00  0.00    -0.206 F 
ATOM     73  C   UNL A   1      46.730  28.159  36.333  1.00  0.00     0.059 A 
ATOM     74  C   UNL A   1      45.070  26.688  37.319  1.00  0.00     0.059 A 
ATOM     75  F   UNL A   1      42.804  26.962  36.781  1.00  0.00    -0.206 F 
ATOM     76  C   UNL A   1      46.398  27.079  37.152  1.00  0.00     0.060 A 
BRANCH  76  77
ATOM     77  S   UNL A   1      47.727  26.200  37.999  1.00  0.00     0.124 S 
ATOM     78  O   UNL A   1      48.438  27.300  38.643  1.00  0.00    -0.237 OA
ATOM     79  O   UNL A   1      46.992  25.311  38.894  1.00  0.00    -0.237 OA
ATOM     80  O   UNL A   1      48.445  25.539  36.913  1.00  0.00    -0.744 OA
ENDBRANCH  76  77
ENDBRANCH  55  69
BRANCH  56  81
ATOM     81  C   UNL A   1      36.899  32.994  30.906  1.00  0.00     0.058 A 
ATOM     82  C   UNL A   1      37.130  33.906  29.866  1.00  0.00     0.135 A 
ATOM     83  C   UNL A   1      35.565  32.711  31.243  1.00  0.00     0.135 A 
ATOM     84  F   UNL A   1      38.386  34.214  29.510  1.00  0.00    -0.206 F 
ATOM     85  C   UNL A   1      36.081  34.528  29.196  1.00  0.00     0.059 A 
ATOM     86  C   UNL A   1      34.500  33.299  30.569  1.00  0.00     0.059 A 
ATOM     87  F   UNL A   1      35.290  31.831  32.219  1.00  0.00    -0.206 F 
ATOM     88  C   UNL A   1      34.768  34.215  29.552  1.00  0.00     0.060 A 
BRANCH  88  89
ATOM     89  S   UNL A   1      33.416  34.994  28.644  1.00  0.00     0.124 S 
ATOM     90  O   UNL A   1      34.107  36.081  27.961  1.00  0.00    -0.237 OA
ATOM     91  O   UNL A   1      32.948  33.901  27.797  1.00  0.00    -0.237 OA
ATOM     92  O   UNL A   1      32.491  35.397  29.700  1.00  0.00    -0.744 OA
ENDBRANCH  88  89
ENDBRANCH  56  81
BRANCH  68  93
ATOM     93  C   UNL A   1      40.018  34.083  37.057  1.00  0.00     0.058 A 
ATOM     94  C   UNL A   1      40.637  35.343  37.011  1.00  0.00     0.135 A 
ATOM     95  C   UNL A   1      39.146  33.820  38.125  1.00  0.00     0.135 A 
ATOM     96  F   UNL A   1      41.485  35.644  36.015  1.00  0.00    -0.206 F 
ATOM     97  C   UNL A   1      40.417  36.296  38.000  1.00  0.00     0.059 A 
ATOM     98  C   UNL A   1      38.887  34.769  39.109  1.00  0.00     0.059 A 
ATOM     99  F   UNL A   1      38.521  32.635  38.212  1.00  0.00    -0.206 F 
ATOM    100  C   UNL A   1      39.537  36.000  39.043  1.00  0.00     0.060 A 
BRANCH 100 101
ATOM    101  S   UNL A   1      39.233  37.259  40.301  1.00  0.00     0.124 S 
ATOM    102  O   UNL A   1      38.458  38.243  39.550  1.00  0.00    -0.237 OA
ATOM    103  O   UNL A   1      38.495  36.513  41.316  1.00  0.00    -0.237 OA
ATOM    104  O   UNL A   1      40.574  37.681  40.692  1.00  0.00    -0.744 OA
ENDBRANCH 100 101
ENDBRANCH  68  93
ENDBRANCH  42  43
ENDBRANCH  34  37
ENDBRANCH  32  33
ENDBRANCH  31  32
ENDBRANCH   1  31
TORSDOF 18
ENDMDL
MODEL 2
REMARK VINA RESULT:     -11.3      1.199      2.168
REMARK SMILES Cc1nc(CCNc2nccc(-c3cc(C(=O)NCCCNC(=O)c4ccc(-c5c6nc(c(-c7c(F)cc(S(=O)(=O)[O-])cc7F)c7ccc([nH]7)c(-c7c(F)cc(S(=O)(=O)[O-])cc7F)c7nc(c(-c8c(F)cc(S(=O)(=O)[O-])cc8F)c8ccc5[nH]8)C=C7)C=C6)cc4)ccn3)n2)cc(=O)[nH]1
REMARK SMILES IDX 19 1 18 2 16 3 17 4 15 6 13 7 14 8 93 9 92 10 91 11 12 12
REMARK SMILES IDX 8 13 9 14 94 15 10 16 11 17 7 18 6 20 5 21 4 22 1 23 2 24
REMARK SMILES IDX 3 25 98 26 96 27 95 29 97 30 20 31 21 32 22 33 23 34 24 36
REMARK SMILES IDX 25 37 26 38 90 39 27 40 89 41 28 42 29 43 30 44 83 45 31 46
REMARK SMILES IDX 88 47 82 48 84 49 32 50 87 51 81 52 80 53 33 55 67 56 46 57
REMARK SMILES IDX 66 58 47 59 50 60 65 61 85 62 48 63 49 64 64 66 86 67 51 68
REMARK SMILES IDX 34 69 35 70 44 71 36 72 37 73 43 74 45 75 38 76 39 77 40 78
REMARK SMILES IDX 41 79 42 80 68 81 69 82 78 83 70 84 71 85 77 86 79 87 72 88
REMARK SMILES IDX 73 89 74 90 75 91 76 92 52 93 53 94 62 95 54 96 55 97 61 98
REMARK SMILES IDX 63 99 56 100 57 101 58 102 59 103 60 104
REMARK H PARENT 18 5 7 19 98 28 22 35 84 54 50 65
REMARK Flexibility Score: inf
ROOT
ATOM      1  C   UNL A   1      41.088  20.991  26.145  1.00  0.00     0.118 C 
ENDROOT
BRANCH   1   2
ATOM      2  N   UNL A   1      41.465  19.589  26.077  1.00  0.00    -0.352 N 
ATOM      3  C   UNL A   1      42.641  18.952  25.776  1.00  0.00     0.251 C 
ATOM      4  O   UNL A   1      42.668  17.725  25.869  1.00  0.00    -0.269 OA
ATOM      5  H   UNL A   1      40.727  18.972  26.289  1.00  0.00     0.163 HD
BRANCH   3   6
ATOM      6  C   UNL A   1      43.893  19.670  25.421  1.00  0.00     0.043 A 
ATOM      7  C   UNL A   1      45.216  21.626  25.024  1.00  0.00     0.090 A 
ATOM      8  C   UNL A   1      43.969  21.039  25.198  1.00  0.00     0.044 A 
ATOM      9  N   UNL A   1      46.360  20.900  24.967  1.00  0.00    -0.255 NA
ATOM     10  C   UNL A   1      46.252  19.560  25.065  1.00  0.00     0.112 A 
ATOM     11  C   UNL A   1      45.059  18.909  25.310  1.00  0.00     0.034 A 
BRANCH   7  12
ATOM     12  C   UNL A   1      45.353  23.083  24.997  1.00  0.00     0.094 A 
ATOM     13  C   UNL A   1      46.742  24.892  25.111  1.00  0.00     0.223 A 
ATOM     14  N   UNL A   1      45.723  25.760  25.071  1.00  0.00    -0.222 NA
ATOM     15  N   UNL A   1      46.609  23.567  25.044  1.00  0.00    -0.211 NA
ATOM     16  C   UNL A   1      44.490  25.247  24.941  1.00  0.00     0.117 A 
ATOM     17  C   UNL A   1      44.240  23.901  24.914  1.00  0.00     0.051 A 
BRANCH  13  18
ATOM     18  N   UNL A   1      47.981  25.442  25.289  1.00  0.00    -0.354 N 
ATOM     19  H   UNL A   1      48.622  25.462  24.543  1.00  0.00     0.163 HD
BRANCH  18  20
ATOM     20  C   UNL A   1      48.351  26.000  26.579  1.00  0.00     0.122 C 
BRANCH  20  21
ATOM     21  C   UNL A   1      48.303  24.923  27.678  1.00  0.00     0.077 C 
BRANCH  21  22
ATOM     22  C   UNL A   1      47.220  25.180  28.709  1.00  0.00     0.050 A 
ATOM     23  C   UNL A   1      43.716  24.134  29.160  1.00  0.00     0.087 C 
ATOM     24  C   UNL A   1      45.061  24.779  29.324  1.00  0.00     0.105 A 
ATOM     25  N   UNL A   1      45.991  24.621  28.439  1.00  0.00    -0.240 NA
ATOM     26  N   UNL A   1      45.208  25.541  30.448  1.00  0.00    -0.311 N 
ATOM     27  C   UNL A   1      46.377  26.172  30.741  1.00  0.00     0.251 A 
ATOM     28  H   UNL A   1      44.446  25.636  31.064  1.00  0.00     0.171 HD
ATOM     29  C   UNL A   1      47.485  25.879  29.824  1.00  0.00     0.095 A 
ATOM     30  O   UNL A   1      46.502  26.954  31.673  1.00  0.00    -0.270 OA
ENDBRANCH  21  22
ENDBRANCH  20  21
ENDBRANCH  18  20
ENDBRANCH  13  18
ENDBRANCH   7  12
ENDBRANCH   3   6
ENDBRANCH   1   2
BRANCH   1  31
ATOM     31  C   UNL A   1      40.931  21.451  27.594  1.00  0.00     0.042 C 
BRANCH  31  32
ATOM     32  C   UNL A   1      40.523  22.917  27.712  1.00  0.00     0.118 C 
BRANCH  32  33
ATOM     33  N   UNL A   1      40.915  23.680  26.535  1.00  0.00    -0.352 N 
ATOM     34  C   UNL A   1      40.959  25.037  26.338  1.00  0.00     0.251 C 
ATOM     35  H   UNL A   1      41.192  23.139  25.761  1.00  0.00     0.163 HD
ATOM     36  O   UNL A   1      41.070  25.470  25.194  1.00  0.00    -0.269 OA
BRANCH  34  37
ATOM     37  C   UNL A   1      40.869  25.969  27.482  1.00  0.00     0.039 A 
ATOM     38  C   UNL A   1      41.855  26.949  27.632  1.00  0.00     0.014 A 
ATOM     39  C   UNL A   1      39.851  25.852  28.432  1.00  0.00     0.014 A 
ATOM     40  C   UNL A   1      41.789  27.840  28.705  1.00  0.00     0.010 A 
ATOM     41  C   UNL A   1      39.745  26.788  29.457  1.00  0.00     0.010 A 
ATOM     42  C   UNL A   1      40.717  27.786  29.609  1.00  0.00    -0.014 A 
BRANCH  42  43
ATOM     43  C   UNL A   1      40.595  28.766  30.719  1.00  0.00     0.031 A 
ATOM     44  C   UNL A   1      41.457  28.633  31.945  1.00  0.00     0.074 A 
ATOM     45  C   UNL A   1      39.662  29.736  30.647  1.00  0.00     0.049 A 
ATOM     46  N   UNL A   1      41.446  29.342  33.044  1.00  0.00    -0.248 NA
ATOM     47  C   UNL A   1      42.445  27.541  31.949  1.00  0.00     0.031 C 
ATOM     48  C   UNL A   1      38.736  29.937  29.529  1.00  0.00     0.029 A 
ATOM     49  N   UNL A   1      39.327  30.727  31.534  1.00  0.00    -0.354 N 
ATOM     50  C   UNL A   1      42.410  28.778  33.872  1.00  0.00     0.074 A 
ATOM     51  C   UNL A   1      42.949  27.633  33.170  1.00  0.00     0.031 C 
ATOM     52  C   UNL A   1      37.956  30.997  29.787  1.00  0.00     0.029 A 
ATOM     53  C   UNL A   1      38.293  31.526  31.106  1.00  0.00     0.049 A 
ATOM     54  H   UNL A   1      39.785  30.855  32.396  1.00  0.00     0.167 HD
ATOM     55  C   UNL A   1      42.822  29.189  35.095  1.00  0.00     0.037 A 
ATOM     56  C   UNL A   1      37.678  32.561  31.710  1.00  0.00     0.037 A 
ATOM     57  C   UNL A   1      42.293  30.344  35.774  1.00  0.00     0.049 A 
ATOM     58  C   UNL A   1      38.149  32.995  33.072  1.00  0.00     0.074 A 
ATOM     59  C   UNL A   1      42.680  30.879  36.990  1.00  0.00     0.029 A 
ATOM     60  N   UNL A   1      41.258  31.138  35.300  1.00  0.00    -0.354 N 
ATOM     61  N   UNL A   1      39.106  32.489  33.813  1.00  0.00    -0.248 NA
ATOM     62  C   UNL A   1      37.463  34.145  33.677  1.00  0.00     0.031 C 
ATOM     63  C   UNL A   1      41.847  31.966  37.275  1.00  0.00     0.029 A 
ATOM     64  C   UNL A   1      40.979  32.145  36.210  1.00  0.00     0.049 A 
ATOM     65  H   UNL A   1      40.792  31.005  34.443  1.00  0.00     0.167 HD
ATOM     66  C   UNL A   1      39.156  33.274  34.958  1.00  0.00     0.074 A 
ATOM     67  C   UNL A   1      38.142  34.298  34.806  1.00  0.00     0.031 C 
ATOM     68  C   UNL A   1      39.969  33.162  36.038  1.00  0.00     0.037 A 
BRANCH  55  69
ATOM     69  C   UNL A   1      43.901  28.390  35.777  1.00  0.00     0.058 A 
ATOM     70  C   UNL A   1      45.263  28.638  35.545  1.00  0.00     0.135 A 
ATOM     71  C   UNL A   1      43.570  27.387  36.703  1.00  0.00     0.135 A 
ATOM     72  F   UNL A   1      45.639  29.575  34.658  1.00  0.00    -0.206 F 
ATOM     73  C   UNL A   1      46.257  27.902  36.181  1.00  0.00     0.059 A 
ATOM     74  C   UNL A   1      44.548  26.659  37.375  1.00  0.00     0.059 A 
ATOM     75  F   UNL A   1      42.282  27.107  36.965  1.00  0.00    -0.206 F 
ATOM     76  C   UNL A   1      45.889  26.913  37.095  1.00  0.00     0.060 A 
BRANCH  76  77
ATOM     77  S   UNL A   1      47.192  25.972  37.917  1.00  0.00     0.124 S 
ATOM     78  O   UNL A   1      46.432  24.870  38.498  1.00  0.00    -0.237 OA
ATOM     79  O   UNL A   1      48.069  25.619  36.804  1.00  0.00    -0.237 OA
ATOM     80  O   UNL A   1      47.750  26.924  38.873  1.00  0.00    -0.744 OA
ENDBRANCH  76  77
ENDBRANCH  55  69
BRANCH  56  81
ATOM     81  C   UNL A   1      36.564  33.269  31.021  1.00  0.00     0.058 A 
ATOM     82  C   UNL A   1      36.812  34.106  29.924  1.00  0.00     0.135 A 
ATOM     83  C   UNL A   1      35.232  33.111  31.435  1.00  0.00     0.135 A 
ATOM     84  F   UNL A   1      38.068  34.294  29.493  1.00  0.00    -0.206 F 
ATOM     85  C   UNL A   1      35.781  34.777  29.272  1.00  0.00     0.059 A 
ATOM     86  C   UNL A   1      34.182  33.748  30.782  1.00  0.00     0.059 A 
ATOM     87  F   UNL A   1      34.939  32.305  32.469  1.00  0.00    -0.206 F 
ATOM     88  C   UNL A   1      34.468  34.588  29.707  1.00  0.00     0.060 A 
BRANCH  88  89
ATOM     89  S   UNL A   1      33.136  35.427  28.823  1.00  0.00     0.124 S 
ATOM     90  O   UNL A   1      33.876  36.398  28.027  1.00  0.00    -0.237 OA
ATOM     91  O   UNL A   1      32.521  34.329  28.083  1.00  0.00    -0.237 OA
ATOM     92  O   UNL A   1      32.318  35.982  29.898  1.00  0.00    -0.744 OA
ENDBRANCH  88  89
ENDBRANCH  56  81
BRANCH  68  93
ATOM     93  C   UNL A   1      39.825  34.191  37.126  1.00  0.00     0.058 A 
ATOM     94  C   UNL A   1      38.978  33.989  38.228  1.00  0.00     0.135 A 
ATOM     95  C   UNL A   1      40.585  35.371  37.091  1.00  0.00     0.135 A 
ATOM     96  F   UNL A   1      38.225  32.881  38.308  1.00  0.00    -0.206 F 
ATOM     97  C   UNL A   1      38.873  34.933  39.244  1.00  0.00     0.059 A 
ATOM     98  C   UNL A   1      40.519  36.314  38.111  1.00  0.00     0.059 A 
ATOM     99  F   UNL A   1      41.418  35.609  36.064  1.00  0.00    -0.206 F 
ATOM    100  C   UNL A   1      39.650  36.091  39.178  1.00  0.00     0.060 A 
BRANCH 100 101
ATOM    101  S   UNL A   1      39.531  37.291  40.521  1.00  0.00     0.124 S 
ATOM    102  O   UNL A   1      38.782  36.538  41.522  1.00  0.00    -0.237 OA
ATOM    103  O   UNL A   1      40.933  37.545  40.838  1.00  0.00    -0.237 OA
ATOM    104  O   UNL A   1      38.819  38.412  39.915  1.00  0.00    -0.744 OA
ENDBRANCH 100 101
ENDBRANCH  68  93
ENDBRANCH  42  43
ENDBRANCH  34  37
ENDBRANCH  32  33
ENDBRANCH  31  32
ENDBRANCH   1  31
TORSDOF 18
ENDMDL
MODEL 3
REMARK VINA RESULT:     -11.3      4.980     11.635
REMARK SMILES Cc1nc(CCNc2nccc(-c3cc(C(=O)NCCCNC(=O)c4ccc(-c5c6nc(c(-c7c(F)cc(S(=O)(=O)[O-])cc7F)c7ccc([nH]7)c(-c7c(F)cc(S(=O)(=O)[O-])cc7F)c7nc(c(-c8c(F)cc(S(=O)(=O)[O-])cc8F)c8ccc5[nH]8)C=C7)C=C6)cc4)ccn3)n2)cc(=O)[nH]1
REMARK SMILES IDX 19 1 18 2 16 3 17 4 15 6 13 7 14 8 93 9 92 10 91 11 12 12
REMARK SMILES IDX 8 13 9 14 94 15 10 16 11 17 7 18 6 20 5 21 4 22 1 23 2 24
REMARK SMILES IDX 3 25 98 26 96 27 95 29 97 30 20 31 21 32 22 33 23 34 24 36
REMARK SMILES IDX 25 37 26 38 90 39 27 40 89 41 28 42 29 43 30 44 83 45 31 46
REMARK SMILES IDX 88 47 82 48 84 49 32 50 87 51 81 52 80 53 33 55 67 56 46 57
REMARK SMILES IDX 66 58 47 59 50 60 65 61 85 62 48 63 49 64 64 66 86 67 51 68
REMARK SMILES IDX 34 69 35 70 44 71 36 72 37 73 43 74 45 75 38 76 39 77 40 78
REMARK SMILES IDX 41 79 42 80 68 81 69 82 78 83 70 84 71 85 77 86 79 87 72 88
REMARK SMILES IDX 73 89 74 90 75 91 76 92 52 93 53 94 62 95 54 96 55 97 61 98
REMARK SMILES IDX 63 99 56 100 57 101 58 102 59 103 60 104
REMARK H PARENT 18 5 7 19 98 28 22 35 84 54 50 65
REMARK Flexibility Score: inf
ROOT
ATOM      1  C   UNL A   1      37.453  22.547  25.487  1.00  0.00     0.118 C 
ENDROOT
BRANCH   1   2
ATOM      2  N   UNL A   1      36.343  21.871  26.138  1.00  0.00    -0.352 N 
ATOM      3  C   UNL A   1      34.982  22.006  26.041  1.00  0.00     0.251 C 
ATOM      4  O   UNL A   1      34.282  21.226  26.687  1.00  0.00    -0.269 OA
ATOM      5  H   UNL A   1      36.625  21.177  26.777  1.00  0.00     0.163 HD
BRANCH   3   6
ATOM      6  C   UNL A   1      34.319  22.988  25.144  1.00  0.00     0.043 A 
ATOM      7  C   UNL A   1      33.427  25.140  24.591  1.00  0.00     0.090 A 
ATOM      8  C   UNL A   1      33.894  24.247  25.547  1.00  0.00     0.044 A 
ATOM      9  N   UNL A   1      33.277  24.797  23.287  1.00  0.00    -0.255 NA
ATOM     10  C   UNL A   1      33.581  23.531  22.939  1.00  0.00     0.112 A 
ATOM     11  C   UNL A   1      34.117  22.608  23.816  1.00  0.00     0.034 A 
BRANCH   7  12
ATOM     12  C   UNL A   1      33.171  26.538  24.942  1.00  0.00     0.094 A 
ATOM     13  C   UNL A   1      31.892  28.403  24.626  1.00  0.00     0.223 A 
ATOM     14  N   UNL A   1      32.665  29.149  25.427  1.00  0.00    -0.222 NA
ATOM     15  N   UNL A   1      32.085  27.106  24.385  1.00  0.00    -0.211 NA
ATOM     16  C   UNL A   1      33.691  28.531  26.032  1.00  0.00     0.117 A 
ATOM     17  C   UNL A   1      34.005  27.217  25.813  1.00  0.00     0.051 A 
BRANCH  13  18
ATOM     18  N   UNL A   1      30.883  29.070  23.989  1.00  0.00    -0.354 N 
ATOM     19  H   UNL A   1      30.722  30.021  24.185  1.00  0.00     0.163 HD
BRANCH  18  20
ATOM     20  C   UNL A   1      30.049  28.377  23.022  1.00  0.00     0.122 C 
BRANCH  20  21
ATOM     21  C   UNL A   1      28.607  28.916  23.053  1.00  0.00     0.077 C 
BRANCH  21  22
ATOM     22  C   UNL A   1      28.474  30.283  22.410  1.00  0.00     0.050 A 
ATOM     23  C   UNL A   1      29.240  33.746  23.407  1.00  0.00     0.087 C 
ATOM     24  C   UNL A   1      28.782  32.529  22.659  1.00  0.00     0.105 A 
ATOM     25  N   UNL A   1      28.836  31.354  23.196  1.00  0.00    -0.240 NA
ATOM     26  N   UNL A   1      28.301  32.765  21.403  1.00  0.00    -0.311 N 
ATOM     27  C   UNL A   1      27.868  31.758  20.598  1.00  0.00     0.251 A 
ATOM     28  H   UNL A   1      28.267  33.691  21.070  1.00  0.00     0.171 HD
ATOM     29  C   UNL A   1      28.063  30.407  21.137  1.00  0.00     0.095 A 
ATOM     30  O   UNL A   1      27.323  31.947  19.519  1.00  0.00    -0.270 OA
ENDBRANCH  21  22
ENDBRANCH  20  21
ENDBRANCH  18  20
ENDBRANCH  13  18
ENDBRANCH   7  12
ENDBRANCH   3   6
ENDBRANCH   1   2
BRANCH   1  31
ATOM     31  C   UNL A   1      37.878  23.789  26.268  1.00  0.00     0.042 C 
BRANCH  31  32
ATOM     32  C   UNL A   1      39.281  23.670  26.858  1.00  0.00     0.118 C 
BRANCH  32  33
ATOM     33  N   UNL A   1      40.284  24.256  25.982  1.00  0.00    -0.352 N 
ATOM     34  C   UNL A   1      40.911  25.475  26.049  1.00  0.00     0.251 C 
ATOM     35  H   UNL A   1      40.555  23.691  25.222  1.00  0.00     0.163 HD
ATOM     36  O   UNL A   1      41.533  25.880  25.070  1.00  0.00    -0.269 OA
BRANCH  34  37
ATOM     37  C   UNL A   1      40.839  26.293  27.277  1.00  0.00     0.039 A 
ATOM     38  C   UNL A   1      41.720  27.369  27.423  1.00  0.00     0.014 A 
ATOM     39  C   UNL A   1      39.946  25.978  28.305  1.00  0.00     0.014 A 
ATOM     40  C   UNL A   1      41.669  28.156  28.575  1.00  0.00     0.010 A 
ATOM     41  C   UNL A   1      39.845  26.808  29.417  1.00  0.00     0.010 A 
ATOM     42  C   UNL A   1      40.710  27.900  29.568  1.00  0.00    -0.014 A 
BRANCH  42  43
ATOM     43  C   UNL A   1      40.597  28.766  30.771  1.00  0.00     0.031 A 
ATOM     44  C   UNL A   1      39.572  29.867  30.817  1.00  0.00     0.074 A 
ATOM     45  C   UNL A   1      41.462  28.600  31.790  1.00  0.00     0.049 A 
ATOM     46  N   UNL A   1      39.369  30.768  31.743  1.00  0.00    -0.248 NA
ATOM     47  C   UNL A   1      38.671  29.987  29.659  1.00  0.00     0.031 C 
ATOM     48  C   UNL A   1      42.529  27.597  31.839  1.00  0.00     0.029 A 
ATOM     49  N   UNL A   1      41.592  29.276  32.977  1.00  0.00    -0.354 N 
ATOM     50  C   UNL A   1      38.333  31.568  31.276  1.00  0.00     0.074 A 
ATOM     51  C   UNL A   1      37.984  31.079  29.960  1.00  0.00     0.031 C 
ATOM     52  C   UNL A   1      43.188  27.709  33.002  1.00  0.00     0.029 A 
ATOM     53  C   UNL A   1      42.622  28.818  33.764  1.00  0.00     0.049 A 
ATOM     54  H   UNL A   1      41.003  30.020  33.239  1.00  0.00     0.167 HD
ATOM     55  C   UNL A   1      37.715  32.602  31.897  1.00  0.00     0.037 A 
ATOM     56  C   UNL A   1      43.067  29.248  34.960  1.00  0.00     0.037 A 
ATOM     57  C   UNL A   1      38.057  33.067  33.216  1.00  0.00     0.049 A 
ATOM     58  C   UNL A   1      42.370  30.403  35.627  1.00  0.00     0.074 A 
ATOM     59  C   UNL A   1      37.456  34.068  33.958  1.00  0.00     0.029 A 
ATOM     60  N   UNL A   1      39.094  32.565  33.989  1.00  0.00    -0.354 N 
ATOM     61  N   UNL A   1      41.348  31.107  35.198  1.00  0.00    -0.248 NA
ATOM     62  C   UNL A   1      42.877  30.817  36.941  1.00  0.00     0.031 C 
ATOM     63  C   UNL A   1      38.161  34.207  35.158  1.00  0.00     0.029 A 
ATOM     64  C   UNL A   1      39.165  33.252  35.191  1.00  0.00     0.049 A 
ATOM     65  H   UNL A   1      39.692  31.829  33.723  1.00  0.00     0.167 HD
ATOM     66  C   UNL A   1      41.074  32.029  36.201  1.00  0.00     0.074 A 
ATOM     67  C   UNL A   1      42.027  31.783  37.264  1.00  0.00     0.031 C 
ATOM     68  C   UNL A   1      40.118  32.989  36.242  1.00  0.00     0.037 A 
BRANCH  55  69
ATOM     69  C   UNL A   1      36.603  33.299  31.158  1.00  0.00     0.058 A 
ATOM     70  C   UNL A   1      36.857  34.132  30.056  1.00  0.00     0.135 A 
ATOM     71  C   UNL A   1      35.263  33.104  31.532  1.00  0.00     0.135 A 
ATOM     72  F   UNL A   1      38.119  34.366  29.661  1.00  0.00    -0.206 F 
ATOM     73  C   UNL A   1      35.827  34.769  29.371  1.00  0.00     0.059 A 
ATOM     74  C   UNL A   1      34.215  33.707  30.843  1.00  0.00     0.059 A 
ATOM     75  F   UNL A   1      34.961  32.318  32.579  1.00  0.00    -0.206 F 
ATOM     76  C   UNL A   1      34.508  34.551  29.773  1.00  0.00     0.060 A 
BRANCH  76  77
ATOM     77  S   UNL A   1      33.185  35.382  28.869  1.00  0.00     0.124 S 
ATOM     78  O   UNL A   1      32.399  35.948  29.962  1.00  0.00    -0.237 OA
ATOM     79  O   UNL A   1      33.920  36.344  28.054  1.00  0.00    -0.237 OA
ATOM     80  O   UNL A   1      32.543  34.298  28.131  1.00  0.00    -0.744 OA
ENDBRANCH  76  77
ENDBRANCH  55  69
BRANCH  56  81
ATOM     81  C   UNL A   1      44.221  28.570  35.612  1.00  0.00     0.058 A 
ATOM     82  C   UNL A   1      44.023  27.495  36.491  1.00  0.00     0.135 A 
ATOM     83  C   UNL A   1      45.543  28.971  35.357  1.00  0.00     0.135 A 
ATOM     84  F   UNL A   1      42.779  27.078  36.771  1.00  0.00    -0.206 F 
ATOM     85  C   UNL A   1      45.091  26.853  37.109  1.00  0.00     0.059 A 
ATOM     86  C   UNL A   1      46.628  28.326  35.941  1.00  0.00     0.059 A 
ATOM     87  F   UNL A   1      45.788  29.982  34.509  1.00  0.00    -0.206 F 
ATOM     88  C   UNL A   1      46.392  27.274  36.825  1.00  0.00     0.060 A 
BRANCH  88  89
ATOM     89  S   UNL A   1      47.771  26.402  37.598  1.00  0.00     0.124 S 
ATOM     90  O   UNL A   1      47.603  26.769  38.999  1.00  0.00    -0.237 OA
ATOM     91  O   UNL A   1      47.481  25.012  37.261  1.00  0.00    -0.237 OA
ATOM     92  O   UNL A   1      48.941  26.968  36.932  1.00  0.00    -0.744 OA
ENDBRANCH  88  89
ENDBRANCH  56  81
BRANCH  68  93
ATOM     93  C   UNL A   1      40.027  33.826  37.489  1.00  0.00     0.058 A 
ATOM     94  C   UNL A   1      39.205  33.461  38.568  1.00  0.00     0.135 A 
ATOM     95  C   UNL A   1      40.814  34.980  37.627  1.00  0.00     0.135 A 
ATOM     96  F   UNL A   1      38.428  32.370  38.486  1.00  0.00    -0.206 F 
ATOM     97  C   UNL A   1      39.150  34.225  39.729  1.00  0.00     0.059 A 
ATOM     98  C   UNL A   1      40.798  35.743  38.790  1.00  0.00     0.059 A 
ATOM     99  F   UNL A   1      41.625  35.369  36.629  1.00  0.00    -0.206 F 
ATOM    100  C   UNL A   1      39.953  35.363  39.832  1.00  0.00     0.060 A 
BRANCH 100 101
ATOM    101  S   UNL A   1      39.898  36.325  41.358  1.00  0.00     0.124 S 
ATOM    102  O   UNL A   1      41.222  36.939  41.366  1.00  0.00    -0.237 OA
ATOM    103  O   UNL A   1      38.780  37.232  41.114  1.00  0.00    -0.237 OA
ATOM    104  O   UNL A   1      39.666  35.318  42.388  1.00  0.00    -0.744 OA
ENDBRANCH 100 101
ENDBRANCH  68  93
ENDBRANCH  42  43
ENDBRANCH  34  37
ENDBRANCH  32  33
ENDBRANCH  31  32
ENDBRANCH   1  31
TORSDOF 18
ENDMDL
