MODEL 1
REMARK VINA RESULT:     -11.4      0.000      0.000
REMARK SMILES CCN1C(=O)/C(=C/c2ccccc2O[C@H](C)C(=O)NCCCNC(=O)c2ccc(-c3c4nc(c(-c5c(F)cc(S(=O)(=O)[O-])cc5F)c5ccc([nH]5)c(-c5c(F)cc(S(=O)(=O)[O-])cc5F)c5nc(c(-c6c(F)cc(S(=O)(=O)[O-])cc6F)c6ccc3[nH]6)C=C5)C=C4)cc2)S/C1=[NH+]\c1ccc(C)cc1O
REMARK SMILES IDX 20 1 19 2 17 3 18 4 15 6 16 7 14 8 13 9 8 10 9 11 10 12
REMARK SMILES IDX 12 13 11 14 7 15 3 16 4 17 93 18 5 19 6 20 92 21 94 22 2 24
REMARK SMILES IDX 1 25 95 26 96 27 101 28 97 29 100 30 98 31 99 32 102 33
REMARK SMILES IDX 21 35 22 36 23 37 24 38 25 40 26 41 27 42 91 43 28 44 90 45
REMARK SMILES IDX 29 46 30 47 31 48 84 49 32 50 89 51 83 52 85 53 33 54 88 55
REMARK SMILES IDX 82 56 81 57 34 59 68 60 47 61 67 62 48 63 51 64 66 65 86 66
REMARK SMILES IDX 49 67 50 68 65 70 87 71 52 72 35 73 36 74 45 75 37 76 38 77
REMARK SMILES IDX 44 78 46 79 39 80 40 81 41 82 42 83 43 84 69 85 70 86 79 87
REMARK SMILES IDX 71 88 72 89 78 90 80 91 73 92 74 93 75 94 76 95 77 96 53 97
REMARK SMILES IDX 54 98 63 99 55 100 56 101 62 102 64 103 57 104 58 105 59 106
REMARK SMILES IDX 60 107 61 108
REMARK H PARENT 19 5 94 23 102 34 23 39 85 58 51 69
REMARK Flexibility Score: inf
ROOT
ATOM      1  C   UNL A   1      44.650  39.575  30.081  1.00  0.00     0.118 C 
ENDROOT
BRANCH   1   2
ATOM      2  N   UNL A   1      43.281  40.009  29.901  1.00  0.00    -0.353 N 
ATOM      3  C   UNL A   1      42.552  40.230  28.775  1.00  0.00     0.260 C 
ATOM      4  O   UNL A   1      41.375  40.573  28.946  1.00  0.00    -0.271 OA
ATOM      5  H   UNL A   1      42.792  40.172  30.739  1.00  0.00     0.163 HD
BRANCH   3   6
ATOM      6  C   UNL A   1      43.118  40.111  27.335  1.00  0.00     0.258 C 
ATOM      7  C   UNL A   1      42.632  38.823  26.676  1.00  0.00     0.064 C 
BRANCH   6   8
ATOM      8  O   UNL A   1      43.277  41.259  26.529  1.00  0.00    -0.480 OA
BRANCH   8   9
ATOM      9  C   UNL A   1      44.143  42.300  26.667  1.00  0.00     0.127 A 
ATOM     10  C   UNL A   1      44.170  43.194  25.571  1.00  0.00     0.018 A 
ATOM     11  C   UNL A   1      45.152  44.196  25.514  1.00  0.00     0.012 A 
ATOM     12  C   UNL A   1      46.064  44.352  26.554  1.00  0.00     0.001 A 
ATOM     13  C   UNL A   1      45.032  42.499  27.720  1.00  0.00     0.047 A 
ATOM     14  C   UNL A   1      45.988  43.520  27.665  1.00  0.00     0.004 A 
BRANCH  10  15
ATOM     15  C   UNL A   1      43.238  43.100  24.428  1.00  0.00     0.036 C 
ATOM     16  N   UNL A   1      43.199  43.014  20.803  1.00  0.00    -0.186 N 
ATOM     17  C   UNL A   1      42.574  43.003  22.042  1.00  0.00     0.348 C 
ATOM     18  C   UNL A   1      44.566  43.155  20.820  1.00  0.00     0.324 C 
ATOM     19  O   UNL A   1      41.378  42.828  22.239  1.00  0.00    -0.240 OA
ATOM     20  C   UNL A   1      43.569  43.186  23.130  1.00  0.00     0.110 C 
ATOM     21  S   UNL A   1      45.123  43.432  22.451  1.00  0.00     0.007 SA
ATOM     22  N   UNL A   1      45.310  43.061  19.766  1.00  0.00    -0.231 N 
ATOM     23  H   UNL A   1      44.903  42.795  18.910  1.00  0.00     0.313 HD
BRANCH  16  24
ATOM     24  C   UNL A   1      42.349  42.826  19.628  1.00  0.00     0.244 C 
ATOM     25  C   UNL A   1      41.741  44.047  18.960  1.00  0.00     0.055 C 
ENDBRANCH  16  24
BRANCH  22  26
ATOM     26  C   UNL A   1      46.693  43.331  19.817  1.00  0.00     0.167 A 
ATOM     27  C   UNL A   1      47.159  44.521  19.253  1.00  0.00     0.056 A 
ATOM     28  C   UNL A   1      47.634  42.444  20.357  1.00  0.00     0.162 A 
ATOM     29  C   UNL A   1      48.520  44.843  19.280  1.00  0.00     0.008 A 
ATOM     30  C   UNL A   1      48.989  42.767  20.416  1.00  0.00     0.054 A 
ATOM     31  C   UNL A   1      49.441  43.978  19.883  1.00  0.00    -0.047 A 
ATOM     32  C   UNL A   1      50.898  44.334  19.914  1.00  0.00     0.044 C 
BRANCH  28  33
ATOM     33  O   UNL A   1      47.260  41.221  20.848  1.00  0.00    -0.504 OA
ATOM     34  H   UNL A   1      46.596  41.164  21.506  1.00  0.00     0.293 HD
ENDBRANCH  28  33
ENDBRANCH  22  26
ENDBRANCH  10  15
ENDBRANCH   8   9
ENDBRANCH   6   8
ENDBRANCH   3   6
ENDBRANCH   1   2
BRANCH   1  35
ATOM     35  C   UNL A   1      44.833  38.102  29.729  1.00  0.00     0.042 C 
BRANCH  35  36
ATOM     36  C   UNL A   1      45.734  37.891  28.520  1.00  0.00     0.118 C 
BRANCH  36  37
ATOM     37  N   UNL A   1      47.138  37.829  28.912  1.00  0.00    -0.352 N 
ATOM     38  C   UNL A   1      47.917  36.753  29.256  1.00  0.00     0.251 C 
ATOM     39  H   UNL A   1      47.600  38.698  28.933  1.00  0.00     0.163 HD
ATOM     40  O   UNL A   1      49.002  36.952  29.797  1.00  0.00    -0.269 OA
BRANCH  38  41
ATOM     41  C   UNL A   1      47.465  35.370  28.987  1.00  0.00     0.039 A 
ATOM     42  C   UNL A   1      47.325  34.486  30.061  1.00  0.00     0.014 A 
ATOM     43  C   UNL A   1      47.232  34.923  27.684  1.00  0.00     0.014 A 
ATOM     44  C   UNL A   1      46.910  33.172  29.832  1.00  0.00     0.010 A 
ATOM     45  C   UNL A   1      46.736  33.641  27.465  1.00  0.00     0.010 A 
ATOM     46  C   UNL A   1      46.585  32.747  28.535  1.00  0.00    -0.014 A 
BRANCH  46  47
ATOM     47  C   UNL A   1      46.112  31.366  28.268  1.00  0.00     0.031 A 
ATOM     48  C   UNL A   1      44.670  31.004  28.509  1.00  0.00     0.074 A 
ATOM     49  C   UNL A   1      46.993  30.425  27.874  1.00  0.00     0.049 A 
ATOM     50  N   UNL A   1      44.084  29.838  28.422  1.00  0.00    -0.248 NA
ATOM     51  C   UNL A   1      43.775  32.093  28.935  1.00  0.00     0.031 C 
ATOM     52  C   UNL A   1      48.424  30.645  27.654  1.00  0.00     0.029 A 
ATOM     53  N   UNL A   1      46.818  29.092  27.602  1.00  0.00    -0.354 N 
ATOM     54  C   UNL A   1      42.763  30.048  28.800  1.00  0.00     0.074 A 
ATOM     55  C   UNL A   1      42.646  31.441  29.169  1.00  0.00     0.031 C 
ATOM     56  C   UNL A   1      48.992  29.494  27.261  1.00  0.00     0.029 A 
ATOM     57  C   UNL A   1      47.977  28.446  27.239  1.00  0.00     0.049 A 
ATOM     58  H   UNL A   1      45.946  28.640  27.660  1.00  0.00     0.167 HD
ATOM     59  C   UNL A   1      41.736  29.166  28.814  1.00  0.00     0.037 A 
ATOM     60  C   UNL A   1      48.197  27.154  26.931  1.00  0.00     0.037 A 
ATOM     61  C   UNL A   1      41.856  27.789  28.411  1.00  0.00     0.049 A 
ATOM     62  C   UNL A   1      47.039  26.193  26.945  1.00  0.00     0.074 A 
ATOM     63  C   UNL A   1      40.866  26.827  28.326  1.00  0.00     0.029 A 
ATOM     64  N   UNL A   1      43.041  27.180  28.023  1.00  0.00    -0.354 N 
ATOM     65  N   UNL A   1      45.783  26.423  27.246  1.00  0.00    -0.248 NA
ATOM     66  C   UNL A   1      47.325  24.801  26.574  1.00  0.00     0.031 C 
ATOM     67  C   UNL A   1      41.459  25.624  27.927  1.00  0.00     0.029 A 
ATOM     68  C   UNL A   1      42.811  25.849  27.717  1.00  0.00     0.049 A 
ATOM     69  H   UNL A   1      43.917  27.627  27.974  1.00  0.00     0.167 HD
ATOM     70  C   UNL A   1      45.124  25.211  27.077  1.00  0.00     0.074 A 
ATOM     71  C   UNL A   1      46.118  24.255  26.635  1.00  0.00     0.031 C 
ATOM     72  C   UNL A   1      43.814  24.914  27.272  1.00  0.00     0.037 A 
BRANCH  59  73
ATOM     73  C   UNL A   1      40.391  29.664  29.272  1.00  0.00     0.058 A 
ATOM     74  C   UNL A   1      39.340  29.886  28.367  1.00  0.00     0.135 A 
ATOM     75  C   UNL A   1      40.139  29.893  30.634  1.00  0.00     0.135 A 
ATOM     76  F   UNL A   1      39.529  29.698  27.051  1.00  0.00    -0.206 F 
ATOM     77  C   UNL A   1      38.098  30.346  28.793  1.00  0.00     0.059 A 
ATOM     78  C   UNL A   1      38.895  30.324  31.086  1.00  0.00     0.059 A 
ATOM     79  F   UNL A   1      41.107  29.697  31.543  1.00  0.00    -0.206 F 
ATOM     80  C   UNL A   1      37.885  30.563  30.155  1.00  0.00     0.060 A 
BRANCH  80  81
ATOM     81  S   UNL A   1      36.266  31.156  30.690  1.00  0.00     0.124 S 
ATOM     82  O   UNL A   1      36.572  32.532  31.072  1.00  0.00    -0.237 OA
ATOM     83  O   UNL A   1      35.461  30.999  29.482  1.00  0.00    -0.237 OA
ATOM     84  O   UNL A   1      35.922  30.261  31.790  1.00  0.00    -0.744 OA
ENDBRANCH  80  81
ENDBRANCH  59  73
BRANCH  60  85
ATOM     85  C   UNL A   1      49.565  26.700  26.563  1.00  0.00     0.058 A 
ATOM     86  C   UNL A   1      50.448  26.210  27.536  1.00  0.00     0.135 A 
ATOM     87  C   UNL A   1      50.010  26.728  25.231  1.00  0.00     0.135 A 
ATOM     88  F   UNL A   1      50.070  26.167  28.823  1.00  0.00    -0.206 F 
ATOM     89  C   UNL A   1      51.729  25.780  27.208  1.00  0.00     0.059 A 
ATOM     90  C   UNL A   1      51.277  26.280  24.874  1.00  0.00     0.059 A 
ATOM     91  F   UNL A   1      49.196  27.170  24.260  1.00  0.00    -0.206 F 
ATOM     92  C   UNL A   1      52.135  25.817  25.872  1.00  0.00     0.060 A 
BRANCH  92  93
ATOM     93  S   UNL A   1      53.782  25.211  25.450  1.00  0.00     0.124 S 
ATOM     94  O   UNL A   1      54.316  24.871  26.764  1.00  0.00    -0.237 OA
ATOM     95  O   UNL A   1      53.479  24.085  24.572  1.00  0.00    -0.237 OA
ATOM     96  O   UNL A   1      54.402  26.358  24.794  1.00  0.00    -0.744 OA
ENDBRANCH  92  93
ENDBRANCH  60  85
BRANCH  72  97
ATOM     97  C   UNL A   1      43.375  23.507  26.981  1.00  0.00     0.058 A 
ATOM     98  C   UNL A   1      43.232  23.038  25.666  1.00  0.00     0.135 A 
ATOM     99  C   UNL A   1      43.148  22.602  28.031  1.00  0.00     0.135 A 
ATOM    100  F   UNL A   1      43.432  23.864  24.628  1.00  0.00    -0.206 F 
ATOM    101  C   UNL A   1      42.860  21.724  25.401  1.00  0.00     0.059 A 
ATOM    102  C   UNL A   1      42.801  21.276  27.789  1.00  0.00     0.059 A 
ATOM    103  F   UNL A   1      43.281  22.999  29.306  1.00  0.00    -0.206 F 
ATOM    104  C   UNL A   1      42.649  20.850  26.471  1.00  0.00     0.060 A 
BRANCH 104 105
ATOM    105  S   UNL A   1      42.202  19.138  26.113  1.00  0.00     0.124 S 
ATOM    106  O   UNL A   1      43.024  18.859  24.941  1.00  0.00    -0.237 OA
ATOM    107  O   UNL A   1      42.594  18.450  27.340  1.00  0.00    -0.237 OA
ATOM    108  O   UNL A   1      40.764  19.205  25.873  1.00  0.00    -0.744 OA
ENDBRANCH 104 105
ENDBRANCH  72  97
ENDBRANCH  46  47
ENDBRANCH  38  41
ENDBRANCH  36  37
ENDBRANCH  35  36
ENDBRANCH   1  35
TORSDOF 19
ENDMDL
MODEL 2
REMARK VINA RESULT:     -11.0      8.896     15.414
REMARK SMILES CCN1C(=O)/C(=C/c2ccccc2O[C@H](C)C(=O)NCCCNC(=O)c2ccc(-c3c4nc(c(-c5c(F)cc(S(=O)(=O)[O-])cc5F)c5ccc([nH]5)c(-c5c(F)cc(S(=O)(=O)[O-])cc5F)c5nc(c(-c6c(F)cc(S(=O)(=O)[O-])cc6F)c6ccc3[nH]6)C=C5)C=C4)cc2)S/C1=[NH+]\c1ccc(C)cc1O
REMARK SMILES IDX 20 1 19 2 17 3 18 4 15 6 16 7 14 8 13 9 8 10 9 11 10 12
REMARK SMILES IDX 12 13 11 14 7 15 3 16 4 17 93 18 5 19 6 20 92 21 94 22 2 24
REMARK SMILES IDX 1 25 95 26 96 27 101 28 97 29 100 30 98 31 99 32 102 33
REMARK SMILES IDX 21 35 22 36 23 37 24 38 25 40 26 41 27 42 91 43 28 44 90 45
REMARK SMILES IDX 29 46 30 47 31 48 84 49 32 50 89 51 83 52 85 53 33 54 88 55
REMARK SMILES IDX 82 56 81 57 34 59 68 60 47 61 67 62 48 63 51 64 66 65 86 66
REMARK SMILES IDX 49 67 50 68 65 70 87 71 52 72 35 73 36 74 45 75 37 76 38 77
REMARK SMILES IDX 44 78 46 79 39 80 40 81 41 82 42 83 43 84 69 85 70 86 79 87
REMARK SMILES IDX 71 88 72 89 78 90 80 91 73 92 74 93 75 94 76 95 77 96 53 97
REMARK SMILES IDX 54 98 63 99 55 100 56 101 62 102 64 103 57 104 58 105 59 106
REMARK SMILES IDX 60 107 61 108
REMARK H PARENT 19 5 94 23 102 34 23 39 85 58 51 69
REMARK Flexibility Score: inf
ROOT
ATOM      1  C   UNL A   1      45.963  23.363  26.608  1.00  0.00     0.118 C 
ENDROOT
BRANCH   1   2
ATOM      2  N   UNL A   1      46.689  24.428  25.949  1.00  0.00    -0.353 N 
ATOM      3  C   UNL A   1      47.771  25.151  26.341  1.00  0.00     0.260 C 
ATOM      4  O   UNL A   1      48.190  25.988  25.530  1.00  0.00    -0.271 OA
ATOM      5  H   UNL A   1      46.339  24.670  25.062  1.00  0.00     0.163 HD
BRANCH   3   6
ATOM      6  C   UNL A   1      48.459  25.006  27.723  1.00  0.00     0.258 C 
ATOM      7  C   UNL A   1      49.968  25.203  27.591  1.00  0.00     0.064 C 
BRANCH   6   8
ATOM      8  O   UNL A   1      47.822  25.469  28.895  1.00  0.00    -0.480 OA
BRANCH   8   9
ATOM      9  C   UNL A   1      47.567  26.744  29.295  1.00  0.00     0.127 A 
ATOM     10  C   UNL A   1      48.203  27.123  30.502  1.00  0.00     0.018 A 
ATOM     11  C   UNL A   1      47.869  28.342  31.112  1.00  0.00     0.012 A 
ATOM     12  C   UNL A   1      46.959  29.208  30.511  1.00  0.00     0.001 A 
ATOM     13  C   UNL A   1      46.695  27.641  28.684  1.00  0.00     0.047 A 
ATOM     14  C   UNL A   1      46.392  28.867  29.289  1.00  0.00     0.004 A 
BRANCH  10  15
ATOM     15  C   UNL A   1      49.181  26.265  31.203  1.00  0.00     0.036 C 
ATOM     16  N   UNL A   1      49.391  23.750  33.807  1.00  0.00    -0.186 N 
ATOM     17  C   UNL A   1      49.953  24.569  32.838  1.00  0.00     0.348 C 
ATOM     18  C   UNL A   1      48.038  23.888  34.000  1.00  0.00     0.324 C 
ATOM     19  O   UNL A   1      51.123  24.554  32.478  1.00  0.00    -0.240 OA
ATOM     20  C   UNL A   1      48.920  25.456  32.241  1.00  0.00     0.110 C 
ATOM     21  S   UNL A   1      47.421  25.204  33.032  1.00  0.00     0.007 SA
ATOM     22  N   UNL A   1      47.341  23.119  34.772  1.00  0.00    -0.231 N 
ATOM     23  H   UNL A   1      47.771  22.337  35.189  1.00  0.00     0.313 HD
BRANCH  16  24
ATOM     24  C   UNL A   1      50.283  22.803  34.474  1.00  0.00     0.244 C 
ATOM     25  C   UNL A   1      50.479  21.425  33.864  1.00  0.00     0.055 C 
ENDBRANCH  16  24
BRANCH  22  26
ATOM     26  C   UNL A   1      45.979  23.375  35.028  1.00  0.00     0.167 A 
ATOM     27  C   UNL A   1      45.059  23.175  33.995  1.00  0.00     0.056 A 
ATOM     28  C   UNL A   1      45.501  23.870  36.249  1.00  0.00     0.162 A 
ATOM     29  C   UNL A   1      43.694  23.408  34.195  1.00  0.00     0.008 A 
ATOM     30  C   UNL A   1      44.141  24.078  36.469  1.00  0.00     0.054 A 
ATOM     31  C   UNL A   1      43.223  23.838  35.441  1.00  0.00    -0.047 A 
ATOM     32  C   UNL A   1      41.757  24.078  35.649  1.00  0.00     0.044 C 
BRANCH  28  33
ATOM     33  O   UNL A   1      46.355  24.173  37.277  1.00  0.00    -0.504 OA
ATOM     34  H   UNL A   1      47.272  24.267  37.111  1.00  0.00     0.293 HD
ENDBRANCH  28  33
ENDBRANCH  22  26
ENDBRANCH  10  15
ENDBRANCH   8   9
ENDBRANCH   6   8
ENDBRANCH   3   6
ENDBRANCH   1   2
BRANCH   1  35
ATOM     35  C   UNL A   1      44.949  23.902  27.612  1.00  0.00     0.042 C 
BRANCH  35  36
ATOM     36  C   UNL A   1      43.520  23.481  27.294  1.00  0.00     0.118 C 
BRANCH  36  37
ATOM     37  N   UNL A   1      43.002  24.205  26.137  1.00  0.00    -0.352 N 
ATOM     38  C   UNL A   1      42.202  25.318  26.072  1.00  0.00     0.251 C 
ATOM     39  H   UNL A   1      43.270  23.836  25.265  1.00  0.00     0.163 HD
ATOM     40  O   UNL A   1      41.676  25.611  25.001  1.00  0.00    -0.269 OA
BRANCH  38  41
ATOM     41  C   UNL A   1      41.966  26.155  27.268  1.00  0.00     0.039 A 
ATOM     42  C   UNL A   1      42.796  27.258  27.494  1.00  0.00     0.014 A 
ATOM     43  C   UNL A   1      40.974  25.831  28.197  1.00  0.00     0.014 A 
ATOM     44  C   UNL A   1      42.600  28.058  28.622  1.00  0.00     0.010 A 
ATOM     45  C   UNL A   1      40.724  26.677  29.274  1.00  0.00     0.010 A 
ATOM     46  C   UNL A   1      41.545  27.790  29.507  1.00  0.00    -0.014 A 
BRANCH  46  47
ATOM     47  C   UNL A   1      41.296  28.642  30.696  1.00  0.00     0.031 A 
ATOM     48  C   UNL A   1      40.165  29.637  30.686  1.00  0.00     0.074 A 
ATOM     49  C   UNL A   1      42.127  28.566  31.754  1.00  0.00     0.049 A 
ATOM     50  N   UNL A   1      39.841  30.529  31.586  1.00  0.00    -0.248 NA
ATOM     51  C   UNL A   1      39.304  29.651  29.492  1.00  0.00     0.031 C 
ATOM     52  C   UNL A   1      43.285  27.676  31.859  1.00  0.00     0.029 A 
ATOM     53  N   UNL A   1      42.134  29.259  32.938  1.00  0.00    -0.354 N 
ATOM     54  C   UNL A   1      38.756  31.221  31.060  1.00  0.00     0.074 A 
ATOM     55  C   UNL A   1      38.511  30.682  29.741  1.00  0.00     0.031 C 
ATOM     56  C   UNL A   1      43.877  27.861  33.050  1.00  0.00     0.029 A 
ATOM     57  C   UNL A   1      43.168  28.908  33.776  1.00  0.00     0.049 A 
ATOM     58  H   UNL A   1      41.464  29.941  33.168  1.00  0.00     0.167 HD
ATOM     59  C   UNL A   1      38.016  32.199  31.635  1.00  0.00     0.037 A 
ATOM     60  C   UNL A   1      43.509  29.384  34.989  1.00  0.00     0.037 A 
ATOM     61  C   UNL A   1      38.248  32.703  32.963  1.00  0.00     0.049 A 
ATOM     62  C   UNL A   1      42.667  30.465  35.612  1.00  0.00     0.074 A 
ATOM     63  C   UNL A   1      37.519  33.646  33.666  1.00  0.00     0.029 A 
ATOM     64  N   UNL A   1      39.287  32.303  33.791  1.00  0.00    -0.354 N 
ATOM     65  N   UNL A   1      41.607  31.065  35.125  1.00  0.00    -0.248 NA
ATOM     66  C   UNL A   1      43.063  30.930  36.947  1.00  0.00     0.031 C 
ATOM     67  C   UNL A   1      38.142  33.848  34.902  1.00  0.00     0.029 A 
ATOM     68  C   UNL A   1      39.232  32.995  34.989  1.00  0.00     0.049 A 
ATOM     69  H   UNL A   1      39.965  31.628  33.560  1.00  0.00     0.167 HD
ATOM     70  C   UNL A   1      41.195  31.961  36.105  1.00  0.00     0.074 A 
ATOM     71  C   UNL A   1      42.111  31.813  37.216  1.00  0.00     0.031 C 
ATOM     72  C   UNL A   1      40.152  32.829  36.086  1.00  0.00     0.037 A 
BRANCH  59  73
ATOM     73  C   UNL A   1      36.882  32.782  30.834  1.00  0.00     0.058 A 
ATOM     74  C   UNL A   1      35.551  32.393  31.052  1.00  0.00     0.135 A 
ATOM     75  C   UNL A   1      37.125  33.762  29.859  1.00  0.00     0.135 A 
ATOM     76  F   UNL A   1      35.261  31.448  31.961  1.00  0.00    -0.206 F 
ATOM     77  C   UNL A   1      34.504  32.933  30.311  1.00  0.00     0.059 A 
ATOM     78  C   UNL A   1      36.091  34.338  29.127  1.00  0.00     0.059 A 
ATOM     79  F   UNL A   1      38.379  34.172  29.610  1.00  0.00    -0.206 F 
ATOM     80  C   UNL A   1      34.785  33.905  29.349  1.00  0.00     0.060 A 
BRANCH  80  81
ATOM     81  S   UNL A   1      33.414  34.598  28.400  1.00  0.00     0.124 S 
ATOM     82  O   UNL A   1      32.528  35.060  29.464  1.00  0.00    -0.237 OA
ATOM     83  O   UNL A   1      34.070  35.645  27.623  1.00  0.00    -0.237 OA
ATOM     84  O   UNL A   1      32.927  33.460  27.627  1.00  0.00    -0.744 OA
ENDBRANCH  80  81
ENDBRANCH  59  73
BRANCH  60  85
ATOM     85  C   UNL A   1      44.689  28.826  35.702  1.00  0.00     0.058 A 
ATOM     86  C   UNL A   1      45.983  29.291  35.428  1.00  0.00     0.135 A 
ATOM     87  C   UNL A   1      44.547  27.831  36.682  1.00  0.00     0.135 A 
ATOM     88  F   UNL A   1      46.171  30.239  34.496  1.00  0.00    -0.206 F 
ATOM     89  C   UNL A   1      47.097  28.781  36.087  1.00  0.00     0.059 A 
ATOM     90  C   UNL A   1      45.642  27.323  37.373  1.00  0.00     0.059 A 
ATOM     91  F   UNL A   1      43.327  27.365  36.995  1.00  0.00    -0.206 F 
ATOM     92  C   UNL A   1      46.915  27.797  37.061  1.00  0.00     0.060 A 
BRANCH  92  93
ATOM     93  S   UNL A   1      48.363  27.177  37.944  1.00  0.00     0.124 S 
ATOM     94  O   UNL A   1      47.749  26.294  38.930  1.00  0.00    -0.237 OA
ATOM     95  O   UNL A   1      49.115  26.521  36.878  1.00  0.00    -0.237 OA
ATOM     96  O   UNL A   1      48.974  28.390  38.477  1.00  0.00    -0.744 OA
ENDBRANCH  92  93
ENDBRANCH  60  85
BRANCH  72  97
ATOM     97  C   UNL A   1      39.929  33.666  37.315  1.00  0.00     0.058 A 
ATOM     98  C   UNL A   1      40.646  34.852  37.537  1.00  0.00     0.135 A 
ATOM     99  C   UNL A   1      38.947  33.305  38.252  1.00  0.00     0.135 A 
ATOM    100  F   UNL A   1      41.599  35.238  36.675  1.00  0.00    -0.206 F 
ATOM    101  C   UNL A   1      40.411  35.641  38.658  1.00  0.00     0.059 A 
ATOM    102  C   UNL A   1      38.677  34.093  39.366  1.00  0.00     0.059 A 
ATOM    103  F   UNL A   1      38.228  32.184  38.080  1.00  0.00    -0.206 F 
ATOM    104  C   UNL A   1      39.422  35.254  39.565  1.00  0.00     0.060 A 
BRANCH 104 105
ATOM    105  S   UNL A   1      39.101  36.307  40.996  1.00  0.00     0.124 S 
ATOM    106  O   UNL A   1      38.174  35.484  41.764  1.00  0.00    -0.237 OA
ATOM    107  O   UNL A   1      40.433  36.466  41.572  1.00  0.00    -0.237 OA
ATOM    108  O   UNL A   1      38.532  37.516  40.408  1.00  0.00    -0.744 OA
ENDBRANCH 104 105
ENDBRANCH  72  97
ENDBRANCH  46  47
ENDBRANCH  38  41
ENDBRANCH  36  37
ENDBRANCH  35  36
ENDBRANCH   1  35
TORSDOF 19
ENDMDL
MODEL 3
REMARK VINA RESULT:     -11.0      9.421     18.381
REMARK SMILES CCN1C(=O)/C(=C/c2ccccc2O[C@H](C)C(=O)NCCCNC(=O)c2ccc(-c3c4nc(c(-c5c(F)cc(S(=O)(=O)[O-])cc5F)c5ccc([nH]5)c(-c5c(F)cc(S(=O)(=O)[O-])cc5F)c5nc(c(-c6c(F)cc(S(=O)(=O)[O-])cc6F)c6ccc3[nH]6)C=C5)C=C4)cc2)S/C1=[NH+]\c1ccc(C)cc1O
REMARK SMILES IDX 20 1 19 2 17 3 18 4 15 6 16 7 14 8 13 9 8 10 9 11 10 12
REMARK SMILES IDX 12 13 11 14 7 15 3 16 4 17 93 18 5 19 6 20 92 21 94 22 2 24
REMARK SMILES IDX 1 25 95 26 96 27 101 28 97 29 100 30 98 31 99 32 102 33
REMARK SMILES IDX 21 35 22 36 23 37 24 38 25 40 26 41 27 42 91 43 28 44 90 45
REMARK SMILES IDX 29 46 30 47 31 48 84 49 32 50 89 51 83 52 85 53 33 54 88 55
REMARK SMILES IDX 82 56 81 57 34 59 68 60 47 61 67 62 48 63 51 64 66 65 86 66
REMARK SMILES IDX 49 67 50 68 65 70 87 71 52 72 35 73 36 74 45 75 37 76 38 77
REMARK SMILES IDX 44 78 46 79 39 80 40 81 41 82 42 83 43 84 69 85 70 86 79 87
REMARK SMILES IDX 71 88 72 89 78 90 80 91 73 92 74 93 75 94 76 95 77 96 53 97
REMARK SMILES IDX 54 98 63 99 55 100 56 101 62 102 64 103 57 104 58 105 59 106
REMARK SMILES IDX 60 107 61 108
REMARK H PARENT 19 5 94 23 102 34 23 39 85 58 51 69
REMARK Flexibility Score: inf
ROOT
ATOM      1  C   UNL A   1      50.121  24.242  36.910  1.00  0.00     0.118 C 
ENDROOT
BRANCH   1   2
ATOM      2  N   UNL A   1      51.217  25.114  36.545  1.00  0.00    -0.353 N 
ATOM      3  C   UNL A   1      52.546  24.870  36.404  1.00  0.00     0.260 C 
ATOM      4  O   UNL A   1      53.242  25.830  36.045  1.00  0.00    -0.271 OA
ATOM      5  H   UNL A   1      50.953  26.045  36.367  1.00  0.00     0.163 HD
BRANCH   3   6
ATOM      6  C   UNL A   1      53.216  23.502  36.698  1.00  0.00     0.258 C 
ATOM      7  C   UNL A   1      54.021  23.569  37.993  1.00  0.00     0.064 C 
BRANCH   6   8
ATOM      8  O   UNL A   1      52.555  22.296  36.379  1.00  0.00    -0.480 OA
BRANCH   8   9
ATOM      9  C   UNL A   1      52.621  21.546  35.245  1.00  0.00     0.127 A 
ATOM     10  C   UNL A   1      52.413  20.160  35.441  1.00  0.00     0.018 A 
ATOM     11  C   UNL A   1      52.641  19.266  34.384  1.00  0.00     0.012 A 
ATOM     12  C   UNL A   1      53.017  19.736  33.128  1.00  0.00     0.001 A 
ATOM     13  C   UNL A   1      52.952  22.004  33.972  1.00  0.00     0.047 A 
ATOM     14  C   UNL A   1      53.148  21.104  32.919  1.00  0.00     0.004 A 
BRANCH  10  15
ATOM     15  C   UNL A   1      52.012  19.579  36.739  1.00  0.00     0.036 C 
ATOM     16  N   UNL A   1      49.094  19.046  38.826  1.00  0.00    -0.186 N 
ATOM     17  C   UNL A   1      50.453  18.947  38.560  1.00  0.00     0.348 C 
ATOM     18  C   UNL A   1      48.342  19.699  37.880  1.00  0.00     0.324 C 
ATOM     19  O   UNL A   1      51.276  18.354  39.246  1.00  0.00    -0.240 OA
ATOM     20  C   UNL A   1      50.785  19.626  37.280  1.00  0.00     0.110 C 
ATOM     21  S   UNL A   1      49.377  20.363  36.640  1.00  0.00     0.007 SA
ATOM     22  N   UNL A   1      47.051  19.770  37.913  1.00  0.00    -0.231 N 
ATOM     23  H   UNL A   1      46.558  19.267  38.601  1.00  0.00     0.313 HD
BRANCH  16  24
ATOM     24  C   UNL A   1      48.609  18.406  40.048  1.00  0.00     0.244 C 
ATOM     25  C   UNL A   1      48.767  19.136  41.371  1.00  0.00     0.055 C 
ENDBRANCH  16  24
BRANCH  22  26
ATOM     26  C   UNL A   1      46.334  20.552  36.985  1.00  0.00     0.167 A 
ATOM     27  C   UNL A   1      46.064  21.884  37.307  1.00  0.00     0.056 A 
ATOM     28  C   UNL A   1      45.831  20.050  35.776  1.00  0.00     0.162 A 
ATOM     29  C   UNL A   1      45.360  22.708  36.421  1.00  0.00     0.008 A 
ATOM     30  C   UNL A   1      45.155  20.868  34.873  1.00  0.00     0.054 A 
ATOM     31  C   UNL A   1      44.922  22.211  35.187  1.00  0.00    -0.047 A 
ATOM     32  C   UNL A   1      44.175  23.102  34.240  1.00  0.00     0.044 C 
BRANCH  28  33
ATOM     33  O   UNL A   1      45.982  18.731  35.436  1.00  0.00    -0.504 OA
ATOM     34  H   UNL A   1      45.696  18.061  36.024  1.00  0.00     0.293 HD
ENDBRANCH  28  33
ENDBRANCH  22  26
ENDBRANCH  10  15
ENDBRANCH   8   9
ENDBRANCH   6   8
ENDBRANCH   3   6
ENDBRANCH   1   2
BRANCH   1  35
ATOM     35  C   UNL A   1      49.061  24.169  35.816  1.00  0.00     0.042 C 
BRANCH  35  36
ATOM     36  C   UNL A   1      47.917  25.150  36.033  1.00  0.00     0.118 C 
BRANCH  36  37
ATOM     37  N   UNL A   1      47.875  25.615  37.415  1.00  0.00    -0.352 N 
ATOM     38  C   UNL A   1      47.183  26.656  37.981  1.00  0.00     0.251 C 
ATOM     39  H   UNL A   1      48.431  25.098  38.042  1.00  0.00     0.163 HD
ATOM     40  O   UNL A   1      47.489  27.029  39.111  1.00  0.00    -0.269 OA
BRANCH  38  41
ATOM     41  C   UNL A   1      46.089  27.329  37.247  1.00  0.00     0.039 A 
ATOM     42  C   UNL A   1      44.790  26.825  37.364  1.00  0.00     0.014 A 
ATOM     43  C   UNL A   1      46.340  28.414  36.404  1.00  0.00     0.014 A 
ATOM     44  C   UNL A   1      43.741  27.436  36.673  1.00  0.00     0.010 A 
ATOM     45  C   UNL A   1      45.283  29.075  35.785  1.00  0.00     0.010 A 
ATOM     46  C   UNL A   1      43.975  28.583  35.899  1.00  0.00    -0.014 A 
BRANCH  46  47
ATOM     47  C   UNL A   1      42.873  29.269  35.180  1.00  0.00     0.031 A 
ATOM     48  C   UNL A   1      42.487  28.824  33.794  1.00  0.00     0.074 A 
ATOM     49  C   UNL A   1      42.268  30.331  35.747  1.00  0.00     0.049 A 
ATOM     50  N   UNL A   1      41.617  29.348  32.970  1.00  0.00    -0.248 NA
ATOM     51  C   UNL A   1      43.195  27.654  33.250  1.00  0.00     0.031 C 
ATOM     52  C   UNL A   1      42.590  30.884  37.065  1.00  0.00     0.029 A 
ATOM     53  N   UNL A   1      41.266  31.145  35.283  1.00  0.00    -0.354 N 
ATOM     54  C   UNL A   1      41.688  28.587  31.809  1.00  0.00     0.074 A 
ATOM     55  C   UNL A   1      42.723  27.599  32.014  1.00  0.00     0.031 C 
ATOM     56  C   UNL A   1      41.787  31.932  37.311  1.00  0.00     0.029 A 
ATOM     57  C   UNL A   1      40.922  32.150  36.157  1.00  0.00     0.049 A 
ATOM     58  H   UNL A   1      40.833  31.021  34.407  1.00  0.00     0.167 HD
ATOM     59  C   UNL A   1      40.941  28.687  30.683  1.00  0.00     0.037 A 
ATOM     60  C   UNL A   1      40.018  33.141  36.036  1.00  0.00     0.037 A 
ATOM     61  C   UNL A   1      39.888  29.652  30.503  1.00  0.00     0.049 A 
ATOM     62  C   UNL A   1      39.193  33.227  34.781  1.00  0.00     0.074 A 
ATOM     63  C   UNL A   1      39.027  29.798  29.430  1.00  0.00     0.029 A 
ATOM     64  N   UNL A   1      39.551  30.636  31.423  1.00  0.00    -0.354 N 
ATOM     65  N   UNL A   1      39.232  32.460  33.717  1.00  0.00    -0.248 NA
ATOM     66  C   UNL A   1      38.200  34.307  34.709  1.00  0.00     0.031 C 
ATOM     67  C   UNL A   1      38.198  30.896  29.681  1.00  0.00     0.029 A 
ATOM     68  C   UNL A   1      38.510  31.405  30.932  1.00  0.00     0.049 A 
ATOM     69  H   UNL A   1      39.989  30.768  32.294  1.00  0.00     0.167 HD
ATOM     70  C   UNL A   1      38.252  32.950  32.860  1.00  0.00     0.074 A 
ATOM     71  C   UNL A   1      37.630  34.069  33.536  1.00  0.00     0.031 C 
ATOM     72  C   UNL A   1      37.900  32.513  31.624  1.00  0.00     0.037 A 
BRANCH  59  73
ATOM     73  C   UNL A   1      41.229  27.723  29.563  1.00  0.00     0.058 A 
ATOM     74  C   UNL A   1      42.383  27.836  28.772  1.00  0.00     0.135 A 
ATOM     75  C   UNL A   1      40.357  26.655  29.296  1.00  0.00     0.135 A 
ATOM     76  F   UNL A   1      43.245  28.846  28.972  1.00  0.00    -0.206 F 
ATOM     77  C   UNL A   1      42.648  26.944  27.737  1.00  0.00     0.059 A 
ATOM     78  C   UNL A   1      40.616  25.734  28.286  1.00  0.00     0.059 A 
ATOM     79  F   UNL A   1      39.238  26.499  30.022  1.00  0.00    -0.206 F 
ATOM     80  C   UNL A   1      41.756  25.896  27.502  1.00  0.00     0.060 A 
BRANCH  80  81
ATOM     81  S   UNL A   1      42.117  24.746  26.157  1.00  0.00     0.124 S 
ATOM     82  O   UNL A   1      41.880  25.585  24.986  1.00  0.00    -0.237 OA
ATOM     83  O   UNL A   1      43.510  24.394  26.412  1.00  0.00    -0.237 OA
ATOM     84  O   UNL A   1      41.153  23.669  26.364  1.00  0.00    -0.744 OA
ENDBRANCH  80  81
ENDBRANCH  59  73
BRANCH  60  85
ATOM     85  C   UNL A   1      39.831  34.116  37.144  1.00  0.00     0.058 A 
ATOM     86  C   UNL A   1      38.919  33.864  38.179  1.00  0.00     0.135 A 
ATOM     87  C   UNL A   1      40.571  35.307  37.200  1.00  0.00     0.135 A 
ATOM     88  F   UNL A   1      38.184  32.741  38.167  1.00  0.00    -0.206 F 
ATOM     89  C   UNL A   1      38.734  34.764  39.223  1.00  0.00     0.059 A 
ATOM     90  C   UNL A   1      40.423  36.211  38.247  1.00  0.00     0.059 A 
ATOM     91  F   UNL A   1      41.471  35.586  36.244  1.00  0.00    -0.206 F 
ATOM     92  C   UNL A   1      39.493  35.936  39.249  1.00  0.00     0.060 A 
BRANCH  92  93
ATOM     93  S   UNL A   1      39.280  37.075  40.634  1.00  0.00     0.124 S 
ATOM     94  O   UNL A   1      38.250  37.972  40.121  1.00  0.00    -0.237 OA
ATOM     95  O   UNL A   1      38.869  36.176  41.709  1.00  0.00    -0.237 OA
ATOM     96  O   UNL A   1      40.607  37.661  40.792  1.00  0.00    -0.744 OA
ENDBRANCH  92  93
ENDBRANCH  60  85
BRANCH  72  97
ATOM     97  C   UNL A   1      36.773  33.229  30.935  1.00  0.00     0.058 A 
ATOM     98  C   UNL A   1      37.000  34.084  29.846  1.00  0.00     0.135 A 
ATOM     99  C   UNL A   1      35.444  33.014  31.335  1.00  0.00     0.135 A 
ATOM    100  F   UNL A   1      38.252  34.328  29.428  1.00  0.00    -0.206 F 
ATOM    101  C   UNL A   1      35.950  34.717  29.189  1.00  0.00     0.059 A 
ATOM    102  C   UNL A   1      34.377  33.614  30.676  1.00  0.00     0.059 A 
ATOM    103  F   UNL A   1      35.172  32.197  32.366  1.00  0.00    -0.206 F 
ATOM    104  C   UNL A   1      34.641  34.473  29.611  1.00  0.00     0.060 A 
BRANCH 104 105
ATOM    105  S   UNL A   1      33.285  35.271  28.726  1.00  0.00     0.124 S 
ATOM    106  O   UNL A   1      32.718  34.150  27.985  1.00  0.00    -0.237 OA
ATOM    107  O   UNL A   1      32.464  35.791  29.815  1.00  0.00    -0.237 OA
ATOM    108  O   UNL A   1      33.956  36.285  27.917  1.00  0.00    -0.744 OA
ENDBRANCH 104 105
ENDBRANCH  72  97
ENDBRANCH  46  47
ENDBRANCH  38  41
ENDBRANCH  36  37
ENDBRANCH  35  36
ENDBRANCH   1  35
TORSDOF 19
ENDMDL
