MODEL 1
REMARK VINA RESULT:     -13.1      0.000      0.000
REMARK SMILES O=C(Cn1cnnn1)Nc1cccc(F)c1C(=O)NCCCNC(=O)c1ccc(-c2c3nc(c(-c4c(F)cc(S(=O)(=O)[O-])cc4F)c4ccc([nH]4)c(-c4c(F)cc(S(=O)(=O)[O-])cc4F)c4nc(c(-c5c(F)cc(S(=O)(=O)[O-])cc5F)c5ccc2[nH]5)C=C4)C=C3)cc1
REMARK SMILES IDX 21 1 20 2 19 3 17 4 18 5 16 7 10 8 11 9 12 10 14 11 13 12
REMARK SMILES IDX 15 13 9 14 1 15 2 16 3 18 4 19 5 20 8 21 6 22 7 23 22 24
REMARK SMILES IDX 23 25 24 26 25 28 26 29 27 30 91 31 28 32 90 33 29 34 30 35
REMARK SMILES IDX 31 36 84 37 32 38 89 39 83 40 85 41 33 42 88 43 82 44 81 45
REMARK SMILES IDX 34 47 68 48 47 49 67 50 48 51 51 52 66 53 86 54 49 55 50 56
REMARK SMILES IDX 65 58 87 59 52 60 35 61 36 62 45 63 37 64 38 65 44 66 46 67
REMARK SMILES IDX 39 68 40 69 41 70 42 71 43 72 69 73 70 74 79 75 71 76 72 77
REMARK SMILES IDX 78 78 80 79 73 80 74 81 75 82 76 83 77 84 53 85 54 86 63 87
REMARK SMILES IDX 55 88 56 89 62 90 64 91 57 92 58 93 59 94 60 95 61 96
REMARK H PARENT 19 6 9 17 23 27 85 46 51 57
REMARK Flexibility Score: inf
ROOT
ATOM      1  C   UNL A   1      37.801  22.818  25.345  1.00  0.00     0.042 C 
ENDROOT
BRANCH   1   2
ATOM      2  C   UNL A   1      37.124  21.461  25.586  1.00  0.00     0.118 C 
BRANCH   2   3
ATOM      3  N   UNL A   1      36.000  21.578  26.502  1.00  0.00    -0.352 N 
ATOM      4  C   UNL A   1      34.681  21.907  26.328  1.00  0.00     0.256 C 
ATOM      5  O   UNL A   1      33.970  21.888  27.341  1.00  0.00    -0.269 OA
ATOM      6  H   UNL A   1      36.234  21.379  27.438  1.00  0.00     0.163 HD
BRANCH   4   7
ATOM      7  C   UNL A   1      34.016  22.211  25.022  1.00  0.00     0.099 A 
ATOM      8  C   UNL A   1      33.109  21.257  24.482  1.00  0.00     0.057 A 
ATOM      9  C   UNL A   1      32.431  21.539  23.284  1.00  0.00     0.027 A 
ATOM     10  C   UNL A   1      32.663  22.720  22.587  1.00  0.00     0.005 A 
ATOM     11  C   UNL A   1      34.203  23.399  24.308  1.00  0.00     0.138 A 
ATOM     12  C   UNL A   1      33.561  23.643  23.095  1.00  0.00     0.040 A 
ATOM     13  F   UNL A   1      34.965  24.396  24.758  1.00  0.00    -0.206 F 
BRANCH   8  14
ATOM     14  N   UNL A   1      32.860  20.042  25.177  1.00  0.00    -0.324 N 
ATOM     15  O   UNL A   1      33.242  18.479  23.511  1.00  0.00    -0.273 OA
ATOM     16  C   UNL A   1      32.902  18.759  24.659  1.00  0.00     0.246 C 
ATOM     17  H   UNL A   1      32.632  20.121  26.131  1.00  0.00     0.170 HD
BRANCH  16  18
ATOM     18  C   UNL A   1      32.410  17.677  25.594  1.00  0.00     0.248 C 
BRANCH  18  19
ATOM     19  N   UNL A   1      33.119  16.435  25.440  1.00  0.00    -0.223 N 
ATOM     20  C   UNL A   1      34.457  16.231  25.319  1.00  0.00     0.246 A 
ATOM     21  N   UNL A   1      32.482  15.255  25.511  1.00  0.00    -0.045 NA
ATOM     22  N   UNL A   1      34.674  14.937  25.289  1.00  0.00    -0.117 NA
ATOM     23  N   UNL A   1      33.440  14.343  25.416  1.00  0.00    -0.024 NA
ENDBRANCH  18  19
ENDBRANCH  16  18
ENDBRANCH   8  14
ENDBRANCH   4   7
ENDBRANCH   2   3
ENDBRANCH   1   2
BRANCH   1  24
ATOM     24  C   UNL A   1      38.787  23.188  26.434  1.00  0.00     0.118 C 
BRANCH  24  25
ATOM     25  N   UNL A   1      40.091  22.538  26.254  1.00  0.00    -0.352 N 
ATOM     26  C   UNL A   1      41.333  23.137  26.106  1.00  0.00     0.251 C 
ATOM     27  H   UNL A   1      40.082  21.554  26.236  1.00  0.00     0.163 HD
ATOM     28  O   UNL A   1      42.265  22.535  25.603  1.00  0.00    -0.269 OA
BRANCH  26  29
ATOM     29  C   UNL A   1      41.490  24.523  26.587  1.00  0.00     0.039 A 
ATOM     30  C   UNL A   1      41.085  25.631  25.838  1.00  0.00     0.014 A 
ATOM     31  C   UNL A   1      41.997  24.674  27.870  1.00  0.00     0.014 A 
ATOM     32  C   UNL A   1      41.125  26.887  26.440  1.00  0.00     0.010 A 
ATOM     33  C   UNL A   1      41.807  25.853  28.526  1.00  0.00     0.010 A 
ATOM     34  C   UNL A   1      41.468  26.983  27.799  1.00  0.00    -0.014 A 
BRANCH  34  35
ATOM     35  C   UNL A   1      41.366  28.229  28.546  1.00  0.00     0.031 A 
ATOM     36  C   UNL A   1      42.494  29.164  28.293  1.00  0.00     0.074 A 
ATOM     37  C   UNL A   1      40.227  28.596  29.180  1.00  0.00     0.049 A 
ATOM     38  N   UNL A   1      43.448  29.489  29.101  1.00  0.00    -0.248 NA
ATOM     39  C   UNL A   1      42.700  29.646  26.915  1.00  0.00     0.031 C 
ATOM     40  C   UNL A   1      38.938  27.889  29.229  1.00  0.00     0.029 A 
ATOM     41  N   UNL A   1      39.947  29.744  29.850  1.00  0.00    -0.354 N 
ATOM     42  C   UNL A   1      44.209  30.433  28.419  1.00  0.00     0.074 A 
ATOM     43  C   UNL A   1      43.859  30.298  27.032  1.00  0.00     0.031 C 
ATOM     44  C   UNL A   1      37.971  28.718  29.680  1.00  0.00     0.029 A 
ATOM     45  C   UNL A   1      38.595  29.945  30.134  1.00  0.00     0.049 A 
ATOM     46  H   UNL A   1      40.645  30.385  30.117  1.00  0.00     0.167 HD
ATOM     47  C   UNL A   1      44.831  31.443  29.091  1.00  0.00     0.037 A 
ATOM     48  C   UNL A   1      38.036  31.040  30.711  1.00  0.00     0.037 A 
ATOM     49  C   UNL A   1      44.908  31.143  30.502  1.00  0.00     0.049 A 
ATOM     50  C   UNL A   1      39.136  31.736  31.427  1.00  0.00     0.074 A 
ATOM     51  C   UNL A   1      45.473  30.130  31.251  1.00  0.00     0.029 A 
ATOM     52  N   UNL A   1      43.980  31.741  31.321  1.00  0.00    -0.354 N 
ATOM     53  N   UNL A   1      39.784  31.217  32.437  1.00  0.00    -0.248 NA
ATOM     54  C   UNL A   1      39.838  32.786  30.708  1.00  0.00     0.031 C 
ATOM     55  C   UNL A   1      44.531  29.868  32.290  1.00  0.00     0.029 A 
ATOM     56  C   UNL A   1      43.486  30.788  32.174  1.00  0.00     0.049 A 
ATOM     57  H   UNL A   1      43.716  32.689  31.298  1.00  0.00     0.167 HD
ATOM     58  C   UNL A   1      41.112  31.562  32.225  1.00  0.00     0.074 A 
ATOM     59  C   UNL A   1      41.070  32.590  31.184  1.00  0.00     0.031 C 
ATOM     60  C   UNL A   1      42.132  30.784  32.696  1.00  0.00     0.037 A 
BRANCH  47  61
ATOM     61  C   UNL A   1      44.994  32.851  28.555  1.00  0.00     0.058 A 
ATOM     62  C   UNL A   1      43.947  33.796  28.460  1.00  0.00     0.135 A 
ATOM     63  C   UNL A   1      46.293  33.377  28.389  1.00  0.00     0.135 A 
ATOM     64  F   UNL A   1      42.665  33.483  28.676  1.00  0.00    -0.206 F 
ATOM     65  C   UNL A   1      44.166  35.148  28.232  1.00  0.00     0.059 A 
ATOM     66  C   UNL A   1      46.539  34.741  28.214  1.00  0.00     0.059 A 
ATOM     67  F   UNL A   1      47.369  32.576  28.469  1.00  0.00    -0.206 F 
ATOM     68  C   UNL A   1      45.465  35.619  28.143  1.00  0.00     0.060 A 
BRANCH  68  69
ATOM     69  S   UNL A   1      45.700  37.399  28.024  1.00  0.00     0.124 S 
ATOM     70  O   UNL A   1      44.570  37.893  28.805  1.00  0.00    -0.237 OA
ATOM     71  O   UNL A   1      47.015  37.569  28.632  1.00  0.00    -0.237 OA
ATOM     72  O   UNL A   1      45.632  37.651  26.589  1.00  0.00    -0.744 OA
ENDBRANCH  68  69
ENDBRANCH  47  61
BRANCH  48  73
ATOM     73  C   UNL A   1      36.749  31.708  30.364  1.00  0.00     0.058 A 
ATOM     74  C   UNL A   1      36.503  32.191  29.062  1.00  0.00     0.135 A 
ATOM     75  C   UNL A   1      35.854  32.146  31.360  1.00  0.00     0.135 A 
ATOM     76  F   UNL A   1      37.322  31.880  28.046  1.00  0.00    -0.206 F 
ATOM     77  C   UNL A   1      35.468  33.082  28.772  1.00  0.00     0.059 A 
ATOM     78  C   UNL A   1      34.808  33.043  31.094  1.00  0.00     0.059 A 
ATOM     79  F   UNL A   1      36.025  31.757  32.633  1.00  0.00    -0.206 F 
ATOM     80  C   UNL A   1      34.639  33.526  29.798  1.00  0.00     0.060 A 
BRANCH  80  81
ATOM     81  S   UNL A   1      33.406  34.792  29.406  1.00  0.00     0.124 S 
ATOM     82  O   UNL A   1      32.796  35.031  30.710  1.00  0.00    -0.237 OA
ATOM     83  O   UNL A   1      34.236  35.878  28.894  1.00  0.00    -0.237 OA
ATOM     84  O   UNL A   1      32.548  34.144  28.421  1.00  0.00    -0.744 OA
ENDBRANCH  80  81
ENDBRANCH  48  73
BRANCH  60  85
ATOM     85  C   UNL A   1      41.810  29.687  33.689  1.00  0.00     0.058 A 
ATOM     86  C   UNL A   1      41.938  29.984  35.054  1.00  0.00     0.135 A 
ATOM     87  C   UNL A   1      41.588  28.338  33.350  1.00  0.00     0.135 A 
ATOM     88  F   UNL A   1      42.196  31.242  35.445  1.00  0.00    -0.206 F 
ATOM     89  C   UNL A   1      41.883  28.997  36.033  1.00  0.00     0.059 A 
ATOM     90  C   UNL A   1      41.499  27.333  34.319  1.00  0.00     0.059 A 
ATOM     91  F   UNL A   1      41.529  27.952  32.069  1.00  0.00    -0.206 F 
ATOM     92  C   UNL A   1      41.671  27.671  35.659  1.00  0.00     0.060 A 
BRANCH  92  93
ATOM     93  S   UNL A   1      41.676  26.411  36.953  1.00  0.00     0.124 S 
ATOM     94  O   UNL A   1      42.908  26.720  37.673  1.00  0.00    -0.237 OA
ATOM     95  O   UNL A   1      40.438  26.701  37.673  1.00  0.00    -0.237 OA
ATOM     96  O   UNL A   1      41.685  25.151  36.216  1.00  0.00    -0.744 OA
ENDBRANCH  92  93
ENDBRANCH  60  85
ENDBRANCH  34  35
ENDBRANCH  26  29
ENDBRANCH  24  25
ENDBRANCH   1  24
TORSDOF 16
ENDMDL
MODEL 2
REMARK VINA RESULT:     -12.8      4.346      7.178
REMARK SMILES O=C(Cn1cnnn1)Nc1cccc(F)c1C(=O)NCCCNC(=O)c1ccc(-c2c3nc(c(-c4c(F)cc(S(=O)(=O)[O-])cc4F)c4ccc([nH]4)c(-c4c(F)cc(S(=O)(=O)[O-])cc4F)c4nc(c(-c5c(F)cc(S(=O)(=O)[O-])cc5F)c5ccc2[nH]5)C=C4)C=C3)cc1
REMARK SMILES IDX 21 1 20 2 19 3 17 4 18 5 16 7 10 8 11 9 12 10 14 11 13 12
REMARK SMILES IDX 15 13 9 14 1 15 2 16 3 18 4 19 5 20 8 21 6 22 7 23 22 24
REMARK SMILES IDX 23 25 24 26 25 28 26 29 27 30 91 31 28 32 90 33 29 34 30 35
REMARK SMILES IDX 31 36 84 37 32 38 89 39 83 40 85 41 33 42 88 43 82 44 81 45
REMARK SMILES IDX 34 47 68 48 47 49 67 50 48 51 51 52 66 53 86 54 49 55 50 56
REMARK SMILES IDX 65 58 87 59 52 60 35 61 36 62 45 63 37 64 38 65 44 66 46 67
REMARK SMILES IDX 39 68 40 69 41 70 42 71 43 72 69 73 70 74 79 75 71 76 72 77
REMARK SMILES IDX 78 78 80 79 73 80 74 81 75 82 76 83 77 84 53 85 54 86 63 87
REMARK SMILES IDX 55 88 56 89 62 90 64 91 57 92 58 93 59 94 60 95 61 96
REMARK H PARENT 19 6 9 17 23 27 85 46 51 57
REMARK Flexibility Score: inf
ROOT
ATOM      1  C   UNL A   1      44.687  22.641  25.252  1.00  0.00     0.042 C 
ENDROOT
BRANCH   1   2
ATOM      2  C   UNL A   1      44.912  22.859  26.756  1.00  0.00     0.118 C 
BRANCH   2   3
ATOM      3  N   UNL A   1      46.162  23.558  27.015  1.00  0.00    -0.352 N 
ATOM      4  C   UNL A   1      46.556  24.445  27.982  1.00  0.00     0.256 C 
ATOM      5  O   UNL A   1      47.727  24.840  27.925  1.00  0.00    -0.269 OA
ATOM      6  H   UNL A   1      46.869  23.351  26.362  1.00  0.00     0.163 HD
BRANCH   4   7
ATOM      7  C   UNL A   1      45.724  24.914  29.135  1.00  0.00     0.099 A 
ATOM      8  C   UNL A   1      45.608  26.313  29.366  1.00  0.00     0.057 A 
ATOM      9  C   UNL A   1      44.793  26.784  30.409  1.00  0.00     0.027 A 
ATOM     10  C   UNL A   1      44.126  25.903  31.254  1.00  0.00     0.005 A 
ATOM     11  C   UNL A   1      45.016  24.060  29.987  1.00  0.00     0.138 A 
ATOM     12  C   UNL A   1      44.251  24.539  31.049  1.00  0.00     0.040 A 
ATOM     13  F   UNL A   1      44.985  22.738  29.816  1.00  0.00    -0.206 F 
BRANCH   8  14
ATOM     14  N   UNL A   1      46.285  27.231  28.516  1.00  0.00    -0.324 N 
ATOM     15  O   UNL A   1      44.837  27.332  26.710  1.00  0.00    -0.273 OA
ATOM     16  C   UNL A   1      45.893  27.649  27.257  1.00  0.00     0.246 C 
ATOM     17  H   UNL A   1      47.125  27.611  28.862  1.00  0.00     0.170 HD
BRANCH  16  18
ATOM     18  C   UNL A   1      46.910  28.490  26.518  1.00  0.00     0.248 C 
BRANCH  18  19
ATOM     19  N   UNL A   1      47.195  27.998  25.196  1.00  0.00    -0.223 N 
ATOM     20  C   UNL A   1      47.687  26.786  24.830  1.00  0.00     0.246 A 
ATOM     21  N   UNL A   1      46.877  28.712  24.104  1.00  0.00    -0.045 NA
ATOM     22  N   UNL A   1      47.708  26.731  23.518  1.00  0.00    -0.117 NA
ATOM     23  N   UNL A   1      47.196  27.930  23.081  1.00  0.00    -0.024 NA
ENDBRANCH  18  19
ENDBRANCH  16  18
ENDBRANCH   8  14
ENDBRANCH   4   7
ENDBRANCH   2   3
ENDBRANCH   1   2
BRANCH   1  24
ATOM     24  C   UNL A   1      43.513  23.432  24.711  1.00  0.00     0.118 C 
BRANCH  24  25
ATOM     25  N   UNL A   1      42.221  22.857  25.104  1.00  0.00    -0.352 N 
ATOM     26  C   UNL A   1      41.359  23.289  26.100  1.00  0.00     0.251 C 
ATOM     27  H   UNL A   1      41.930  22.066  24.595  1.00  0.00     0.163 HD
ATOM     28  O   UNL A   1      40.522  22.541  26.575  1.00  0.00    -0.269 OA
BRANCH  26  29
ATOM     29  C   UNL A   1      41.482  24.686  26.558  1.00  0.00     0.039 A 
ATOM     30  C   UNL A   1      40.965  25.764  25.835  1.00  0.00     0.014 A 
ATOM     31  C   UNL A   1      42.077  24.876  27.797  1.00  0.00     0.014 A 
ATOM     32  C   UNL A   1      40.987  27.027  26.423  1.00  0.00     0.010 A 
ATOM     33  C   UNL A   1      41.878  26.052  28.458  1.00  0.00     0.010 A 
ATOM     34  C   UNL A   1      41.428  27.155  27.751  1.00  0.00    -0.014 A 
BRANCH  34  35
ATOM     35  C   UNL A   1      41.320  28.403  28.494  1.00  0.00     0.031 A 
ATOM     36  C   UNL A   1      42.430  29.354  28.218  1.00  0.00     0.074 A 
ATOM     37  C   UNL A   1      40.188  28.755  29.147  1.00  0.00     0.049 A 
ATOM     38  N   UNL A   1      43.393  29.697  29.007  1.00  0.00    -0.248 NA
ATOM     39  C   UNL A   1      42.604  29.833  26.834  1.00  0.00     0.031 C 
ATOM     40  C   UNL A   1      38.911  28.029  29.222  1.00  0.00     0.029 A 
ATOM     41  N   UNL A   1      39.902  29.901  29.818  1.00  0.00    -0.354 N 
ATOM     42  C   UNL A   1      44.128  30.649  28.308  1.00  0.00     0.074 A 
ATOM     43  C   UNL A   1      43.755  30.503  26.927  1.00  0.00     0.031 C 
ATOM     44  C   UNL A   1      37.940  28.845  29.688  1.00  0.00     0.029 A 
ATOM     45  C   UNL A   1      38.554  30.083  30.125  1.00  0.00     0.049 A 
ATOM     46  H   UNL A   1      40.595  30.555  30.069  1.00  0.00     0.167 HD
ATOM     47  C   UNL A   1      44.746  31.670  28.964  1.00  0.00     0.037 A 
ATOM     48  C   UNL A   1      37.988  31.172  30.708  1.00  0.00     0.037 A 
ATOM     49  C   UNL A   1      44.853  31.378  30.374  1.00  0.00     0.049 A 
ATOM     50  C   UNL A   1      39.090  31.887  31.401  1.00  0.00     0.074 A 
ATOM     51  C   UNL A   1      45.447  30.377  31.117  1.00  0.00     0.029 A 
ATOM     52  N   UNL A   1      43.931  31.966  31.208  1.00  0.00    -0.354 N 
ATOM     53  N   UNL A   1      39.764  31.383  32.401  1.00  0.00    -0.248 NA
ATOM     54  C   UNL A   1      39.763  32.945  30.665  1.00  0.00     0.031 C 
ATOM     55  C   UNL A   1      44.528  30.106  32.174  1.00  0.00     0.029 A 
ATOM     56  C   UNL A   1      43.466  31.008  32.074  1.00  0.00     0.049 A 
ATOM     57  H   UNL A   1      43.651  32.910  31.186  1.00  0.00     0.167 HD
ATOM     58  C   UNL A   1      41.082  31.747  32.164  1.00  0.00     0.074 A 
ATOM     59  C   UNL A   1      41.006  32.770  31.120  1.00  0.00     0.031 C 
ATOM     60  C   UNL A   1      42.123  30.986  32.620  1.00  0.00     0.037 A 
BRANCH  47  61
ATOM     61  C   UNL A   1      44.877  33.079  28.419  1.00  0.00     0.058 A 
ATOM     62  C   UNL A   1      43.816  34.008  28.343  1.00  0.00     0.135 A 
ATOM     63  C   UNL A   1      46.166  33.622  28.224  1.00  0.00     0.135 A 
ATOM     64  F   UNL A   1      42.543  33.679  28.587  1.00  0.00    -0.206 F 
ATOM     65  C   UNL A   1      44.011  35.363  28.105  1.00  0.00     0.059 A 
ATOM     66  C   UNL A   1      46.389  34.989  28.039  1.00  0.00     0.059 A 
ATOM     67  F   UNL A   1      47.254  32.837  28.284  1.00  0.00    -0.206 F 
ATOM     68  C   UNL A   1      45.301  35.852  27.987  1.00  0.00     0.060 A 
BRANCH  68  69
ATOM     69  S   UNL A   1      45.508  37.635  27.857  1.00  0.00     0.124 S 
ATOM     70  O   UNL A   1      46.564  37.731  26.854  1.00  0.00    -0.237 OA
ATOM     71  O   UNL A   1      44.180  38.058  27.425  1.00  0.00    -0.237 OA
ATOM     72  O   UNL A   1      45.885  38.029  29.209  1.00  0.00    -0.744 OA
ENDBRANCH  68  69
ENDBRANCH  47  61
BRANCH  48  73
ATOM     73  C   UNL A   1      36.685  31.819  30.381  1.00  0.00     0.058 A 
ATOM     74  C   UNL A   1      36.375  32.215  29.064  1.00  0.00     0.135 A 
ATOM     75  C   UNL A   1      35.841  32.325  31.389  1.00  0.00     0.135 A 
ATOM     76  F   UNL A   1      37.142  31.836  28.032  1.00  0.00    -0.206 F 
ATOM     77  C   UNL A   1      35.325  33.088  28.767  1.00  0.00     0.059 A 
ATOM     78  C   UNL A   1      34.782  33.205  31.116  1.00  0.00     0.059 A 
ATOM     79  F   UNL A   1      36.075  32.022  32.675  1.00  0.00    -0.206 F 
ATOM     80  C   UNL A   1      34.548  33.601  29.801  1.00  0.00     0.060 A 
BRANCH  80  81
ATOM     81  S   UNL A   1      33.297  34.842  29.388  1.00  0.00     0.124 S 
ATOM     82  O   UNL A   1      32.493  34.139  28.393  1.00  0.00    -0.237 OA
ATOM     83  O   UNL A   1      32.647  35.061  30.677  1.00  0.00    -0.237 OA
ATOM     84  O   UNL A   1      34.079  35.965  28.883  1.00  0.00    -0.744 OA
ENDBRANCH  80  81
ENDBRANCH  48  73
BRANCH  60  85
ATOM     85  C   UNL A   1      41.835  29.890  33.623  1.00  0.00     0.058 A 
ATOM     86  C   UNL A   1      42.059  30.169  34.978  1.00  0.00     0.135 A 
ATOM     87  C   UNL A   1      41.553  28.551  33.288  1.00  0.00     0.135 A 
ATOM     88  F   UNL A   1      42.378  31.416  35.363  1.00  0.00    -0.206 F 
ATOM     89  C   UNL A   1      42.041  29.174  35.951  1.00  0.00     0.059 A 
ATOM     90  C   UNL A   1      41.500  27.538  34.253  1.00  0.00     0.059 A 
ATOM     91  F   UNL A   1      41.400  28.179  32.011  1.00  0.00    -0.206 F 
ATOM     92  C   UNL A   1      41.768  27.858  35.581  1.00  0.00     0.060 A 
BRANCH  92  93
ATOM     93  S   UNL A   1      41.821  26.586  36.862  1.00  0.00     0.124 S 
ATOM     94  O   UNL A   1      40.544  26.786  37.541  1.00  0.00    -0.237 OA
ATOM     95  O   UNL A   1      41.929  25.360  36.076  1.00  0.00    -0.237 OA
ATOM     96  O   UNL A   1      43.003  26.927  37.647  1.00  0.00    -0.744 OA
ENDBRANCH  92  93
ENDBRANCH  60  85
ENDBRANCH  34  35
ENDBRANCH  26  29
ENDBRANCH  24  25
ENDBRANCH   1  24
TORSDOF 16
ENDMDL
MODEL 3
REMARK VINA RESULT:     -12.8      1.896      2.782
REMARK SMILES O=C(Cn1cnnn1)Nc1cccc(F)c1C(=O)NCCCNC(=O)c1ccc(-c2c3nc(c(-c4c(F)cc(S(=O)(=O)[O-])cc4F)c4ccc([nH]4)c(-c4c(F)cc(S(=O)(=O)[O-])cc4F)c4nc(c(-c5c(F)cc(S(=O)(=O)[O-])cc5F)c5ccc2[nH]5)C=C4)C=C3)cc1
REMARK SMILES IDX 21 1 20 2 19 3 17 4 18 5 16 7 10 8 11 9 12 10 14 11 13 12
REMARK SMILES IDX 15 13 9 14 1 15 2 16 3 18 4 19 5 20 8 21 6 22 7 23 22 24
REMARK SMILES IDX 23 25 24 26 25 28 26 29 27 30 91 31 28 32 90 33 29 34 30 35
REMARK SMILES IDX 31 36 84 37 32 38 89 39 83 40 85 41 33 42 88 43 82 44 81 45
REMARK SMILES IDX 34 47 68 48 47 49 67 50 48 51 51 52 66 53 86 54 49 55 50 56
REMARK SMILES IDX 65 58 87 59 52 60 35 61 36 62 45 63 37 64 38 65 44 66 46 67
REMARK SMILES IDX 39 68 40 69 41 70 42 71 43 72 69 73 70 74 79 75 71 76 72 77
REMARK SMILES IDX 78 78 80 79 73 80 74 81 75 82 76 83 77 84 53 85 54 86 63 87
REMARK SMILES IDX 55 88 56 89 62 90 64 91 57 92 58 93 59 94 60 95 61 96
REMARK H PARENT 19 6 9 17 23 27 85 46 51 57
REMARK Flexibility Score: inf
ROOT
ATOM      1  C   UNL A   1      37.221  22.787  24.460  1.00  0.00     0.042 C 
ENDROOT
BRANCH   1   2
ATOM      2  C   UNL A   1      36.486  21.439  24.429  1.00  0.00     0.118 C 
BRANCH   2   3
ATOM      3  N   UNL A   1      35.462  21.362  25.460  1.00  0.00    -0.352 N 
ATOM      4  C   UNL A   1      34.335  20.597  25.604  1.00  0.00     0.256 C 
ATOM      5  O   UNL A   1      33.680  20.770  26.639  1.00  0.00    -0.269 OA
ATOM      6  H   UNL A   1      35.610  21.987  26.206  1.00  0.00     0.163 HD
BRANCH   4   7
ATOM      7  C   UNL A   1      33.872  19.528  24.663  1.00  0.00     0.099 A 
ATOM      8  C   UNL A   1      32.674  19.742  23.927  1.00  0.00     0.057 A 
ATOM      9  C   UNL A   1      32.243  18.779  22.999  1.00  0.00     0.027 A 
ATOM     10  C   UNL A   1      32.945  17.592  22.816  1.00  0.00     0.005 A 
ATOM     11  C   UNL A   1      34.566  18.337  24.432  1.00  0.00     0.138 A 
ATOM     12  C   UNL A   1      34.101  17.367  23.545  1.00  0.00     0.040 A 
ATOM     13  F   UNL A   1      35.740  18.066  25.003  1.00  0.00    -0.206 F 
BRANCH   8  14
ATOM     14  N   UNL A   1      31.938  20.947  24.101  1.00  0.00    -0.324 N 
ATOM     15  O   UNL A   1      32.786  22.251  22.385  1.00  0.00    -0.273 OA
ATOM     16  C   UNL A   1      32.058  22.113  23.366  1.00  0.00     0.246 C 
ATOM     17  H   UNL A   1      31.270  20.952  24.824  1.00  0.00     0.170 HD
BRANCH  16  18
ATOM     18  C   UNL A   1      31.272  23.289  23.903  1.00  0.00     0.248 C 
BRANCH  18  19
ATOM     19  N   UNL A   1      31.276  23.360  25.340  1.00  0.00    -0.223 N 
ATOM     20  C   UNL A   1      32.078  24.099  26.151  1.00  0.00     0.246 A 
ATOM     21  N   UNL A   1      30.344  22.729  26.072  1.00  0.00    -0.045 NA
ATOM     22  N   UNL A   1      31.679  23.927  27.390  1.00  0.00    -0.117 NA
ATOM     23  N   UNL A   1      30.598  23.079  27.325  1.00  0.00    -0.024 NA
ENDBRANCH  18  19
ENDBRANCH  16  18
ENDBRANCH   8  14
ENDBRANCH   4   7
ENDBRANCH   2   3
ENDBRANCH   1   2
BRANCH   1  24
ATOM     24  C   UNL A   1      37.623  23.208  25.860  1.00  0.00     0.118 C 
BRANCH  24  25
ATOM     25  N   UNL A   1      38.708  22.383  26.403  1.00  0.00    -0.352 N 
ATOM     26  C   UNL A   1      39.965  22.790  26.824  1.00  0.00     0.251 C 
ATOM     27  H   UNL A   1      38.519  21.419  26.478  1.00  0.00     0.163 HD
ATOM     28  O   UNL A   1      40.889  21.999  26.901  1.00  0.00    -0.269 OA
BRANCH  26  29
ATOM     29  C   UNL A   1      40.143  24.209  27.184  1.00  0.00     0.039 A 
ATOM     30  C   UNL A   1      39.166  25.177  26.939  1.00  0.00     0.014 A 
ATOM     31  C   UNL A   1      41.314  24.530  27.858  1.00  0.00     0.014 A 
ATOM     32  C   UNL A   1      39.356  26.456  27.459  1.00  0.00     0.010 A 
ATOM     33  C   UNL A   1      41.379  25.696  28.561  1.00  0.00     0.010 A 
ATOM     34  C   UNL A   1      40.461  26.699  28.291  1.00  0.00    -0.014 A 
BRANCH  34  35
ATOM     35  C   UNL A   1      40.639  27.952  29.012  1.00  0.00     0.031 A 
ATOM     36  C   UNL A   1      41.815  28.737  28.552  1.00  0.00     0.074 A 
ATOM     37  C   UNL A   1      39.676  28.461  29.816  1.00  0.00     0.049 A 
ATOM     38  N   UNL A   1      42.923  28.945  29.183  1.00  0.00    -0.248 NA
ATOM     39  C   UNL A   1      41.845  29.182  27.147  1.00  0.00     0.031 C 
ATOM     40  C   UNL A   1      38.336  27.921  30.095  1.00  0.00     0.029 A 
ATOM     41  N   UNL A   1      39.654  29.639  30.493  1.00  0.00    -0.354 N 
ATOM     42  C   UNL A   1      43.669  29.782  28.360  1.00  0.00     0.074 A 
ATOM     43  C   UNL A   1      43.079  29.685  27.053  1.00  0.00     0.031 C 
ATOM     44  C   UNL A   1      37.567  28.868  30.678  1.00  0.00     0.029 A 
ATOM     45  C   UNL A   1      38.404  30.009  30.990  1.00  0.00     0.049 A 
ATOM     46  H   UNL A   1      40.459  30.189  30.623  1.00  0.00     0.167 HD
ATOM     47  C   UNL A   1      44.513  30.709  28.893  1.00  0.00     0.037 A 
ATOM     48  C   UNL A   1      38.087  31.168  31.623  1.00  0.00     0.037 A 
ATOM     49  C   UNL A   1      44.788  30.410  30.280  1.00  0.00     0.049 A 
ATOM     50  C   UNL A   1      39.367  31.725  32.129  1.00  0.00     0.074 A 
ATOM     51  C   UNL A   1      45.342  29.339  30.951  1.00  0.00     0.029 A 
ATOM     52  N   UNL A   1      44.090  31.124  31.225  1.00  0.00    -0.354 N 
ATOM     53  N   UNL A   1      40.107  31.135  33.031  1.00  0.00    -0.248 NA
ATOM     54  C   UNL A   1      40.063  32.675  31.276  1.00  0.00     0.031 C 
ATOM     55  C   UNL A   1      44.562  29.202  32.138  1.00  0.00     0.029 A 
ATOM     56  C   UNL A   1      43.632  30.245  32.173  1.00  0.00     0.049 A 
ATOM     57  H   UNL A   1      43.943  32.098  31.221  1.00  0.00     0.167 HD
ATOM     58  C   UNL A   1      41.413  31.310  32.594  1.00  0.00     0.074 A 
ATOM     59  C   UNL A   1      41.324  32.330  31.548  1.00  0.00     0.031 C 
ATOM     60  C   UNL A   1      42.394  30.413  32.911  1.00  0.00     0.037 A 
BRANCH  47  61
ATOM     61  C   UNL A   1      44.755  32.084  28.301  1.00  0.00     0.058 A 
ATOM     62  C   UNL A   1      43.861  33.172  28.416  1.00  0.00     0.135 A 
ATOM     63  C   UNL A   1      46.048  32.415  27.841  1.00  0.00     0.135 A 
ATOM     64  F   UNL A   1      42.627  33.048  28.916  1.00  0.00    -0.206 F 
ATOM     65  C   UNL A   1      44.217  34.480  28.113  1.00  0.00     0.059 A 
ATOM     66  C   UNL A   1      46.443  33.730  27.584  1.00  0.00     0.059 A 
ATOM     67  F   UNL A   1      46.988  31.466  27.702  1.00  0.00    -0.206 F 
ATOM     68  C   UNL A   1      45.519  34.757  27.730  1.00  0.00     0.060 A 
BRANCH  68  69
ATOM     69  S   UNL A   1      45.975  36.485  27.520  1.00  0.00     0.124 S 
ATOM     70  O   UNL A   1      44.716  37.156  27.824  1.00  0.00    -0.237 OA
ATOM     71  O   UNL A   1      47.034  36.637  28.512  1.00  0.00    -0.237 OA
ATOM     72  O   UNL A   1      46.405  36.551  26.127  1.00  0.00    -0.744 OA
ENDBRANCH  68  69
ENDBRANCH  47  61
BRANCH  48  73
ATOM     73  C   UNL A   1      36.851  31.990  31.475  1.00  0.00     0.058 A 
ATOM     74  C   UNL A   1      36.637  32.790  30.334  1.00  0.00     0.135 A 
ATOM     75  C   UNL A   1      35.996  32.237  32.567  1.00  0.00     0.135 A 
ATOM     76  F   UNL A   1      37.426  32.677  29.256  1.00  0.00    -0.206 F 
ATOM     77  C   UNL A   1      35.669  33.796  30.290  1.00  0.00     0.059 A 
ATOM     78  C   UNL A   1      35.018  33.243  32.548  1.00  0.00     0.059 A 
ATOM     79  F   UNL A   1      36.143  31.540  33.705  1.00  0.00    -0.206 F 
ATOM     80  C   UNL A   1      34.880  34.036  31.411  1.00  0.00     0.060 A 
BRANCH  80  81
ATOM     81  S   UNL A   1      33.743  35.443  31.363  1.00  0.00     0.124 S 
ATOM     82  O   UNL A   1      34.461  36.438  32.153  1.00  0.00    -0.237 OA
ATOM     83  O   UNL A   1      33.660  35.721  29.932  1.00  0.00    -0.237 OA
ATOM     84  O   UNL A   1      32.523  34.921  31.969  1.00  0.00    -0.744 OA
ENDBRANCH  80  81
ENDBRANCH  48  73
BRANCH  60  85
ATOM     85  C   UNL A   1      42.110  29.371  33.971  1.00  0.00     0.058 A 
ATOM     86  C   UNL A   1      42.621  29.593  35.258  1.00  0.00     0.135 A 
ATOM     87  C   UNL A   1      41.550  28.103  33.721  1.00  0.00     0.135 A 
ATOM     88  F   UNL A   1      43.211  30.764  35.553  1.00  0.00    -0.206 F 
ATOM     89  C   UNL A   1      42.610  28.606  36.239  1.00  0.00     0.059 A 
ATOM     90  C   UNL A   1      41.501  27.104  34.700  1.00  0.00     0.059 A 
ATOM     91  F   UNL A   1      41.108  27.777  32.500  1.00  0.00    -0.206 F 
ATOM     92  C   UNL A   1      42.055  27.360  35.951  1.00  0.00     0.060 A 
BRANCH  92  93
ATOM     93  S   UNL A   1      42.122  26.084  37.228  1.00  0.00     0.124 S 
ATOM     94  O   UNL A   1      42.575  24.921  36.470  1.00  0.00    -0.237 OA
ATOM     95  O   UNL A   1      43.092  26.637  38.168  1.00  0.00    -0.237 OA
ATOM     96  O   UNL A   1      40.751  26.008  37.721  1.00  0.00    -0.744 OA
ENDBRANCH  92  93
ENDBRANCH  60  85
ENDBRANCH  34  35
ENDBRANCH  26  29
ENDBRANCH  24  25
ENDBRANCH   1  24
TORSDOF 16
ENDMDL
