MODEL 1
REMARK VINA RESULT:     -12.1      0.000      0.000
REMARK SMILES COc1ccc(C(=O)NCCCNC(=O)c2ccc(-c3c4nc(c(-c5c(F)cc(S(=O)(=O)[O-])cc5F)c5ccc([nH]5)c(-c5c(F)cc(S(=O)(=O)[O-])cc5F)c5nc(c(-c6c(F)cc(S(=O)(=O)[O-])cc6F)c6ccc3[nH]6)C=C5)C=C4)cc2)cc1S(=O)(=O)N(C)Cc1cccc(F)c1
REMARK SMILES IDX 10 1 9 2 7 3 8 4 6 6 3 7 4 8 83 9 5 10 82 11 2 12 1 13 84 14
REMARK SMILES IDX 85 15 86 16 87 17 88 18 89 19 90 20 91 21 96 22 92 23 94 24
REMARK SMILES IDX 93 25 95 26 11 27 12 28 13 29 14 30 15 32 16 33 17 34 81 35
REMARK SMILES IDX 18 36 80 37 19 38 20 39 21 40 74 41 22 42 79 43 73 44 75 45
REMARK SMILES IDX 23 46 78 47 72 48 71 49 24 51 58 52 37 53 57 54 38 55 41 56
REMARK SMILES IDX 56 57 76 58 39 59 40 60 55 62 77 63 42 64 25 65 26 66 35 67
REMARK SMILES IDX 27 68 28 69 34 70 36 71 29 72 30 73 31 74 32 75 33 76 59 77
REMARK SMILES IDX 60 78 69 79 61 80 62 81 68 82 70 83 63 84 64 85 65 86 66 87
REMARK SMILES IDX 67 88 43 89 44 90 53 91 45 92 46 93 52 94 54 95 47 96 48 97
REMARK SMILES IDX 49 98 50 99 51 100
REMARK H PARENT 9 5 13 31 75 50 41 61
REMARK Flexibility Score: inf
ROOT
ATOM      1  C   UNL A   1      37.466  22.572  25.840  1.00  0.00     0.118 C 
ENDROOT
BRANCH   1   2
ATOM      2  N   UNL A   1      37.421  22.604  24.383  1.00  0.00    -0.352 N 
ATOM      3  C   UNL A   1      36.403  22.830  23.490  1.00  0.00     0.251 C 
ATOM      4  O   UNL A   1      36.686  22.921  22.296  1.00  0.00    -0.269 OA
ATOM      5  H   UNL A   1      38.292  22.431  23.956  1.00  0.00     0.163 HD
BRANCH   3   6
ATOM      6  C   UNL A   1      34.985  23.020  23.904  1.00  0.00     0.041 A 
ATOM      7  C   UNL A   1      32.256  23.254  24.598  1.00  0.00     0.138 A 
ATOM      8  C   UNL A   1      32.932  22.040  24.765  1.00  0.00     0.049 A 
ATOM      9  C   UNL A   1      32.964  24.365  24.155  1.00  0.00     0.125 A 
ATOM     10  C   UNL A   1      34.280  21.919  24.403  1.00  0.00     0.018 A 
ATOM     11  C   UNL A   1      34.335  24.248  23.855  1.00  0.00     0.039 A 
BRANCH   7  12
ATOM     12  O   UNL A   1      30.953  23.298  24.993  1.00  0.00    -0.495 OA
ATOM     13  C   UNL A   1      30.819  22.992  26.380  1.00  0.00     0.278 C 
ENDBRANCH   7  12
BRANCH   9  14
ATOM     14  S   UNL A   1      32.284  25.971  23.843  1.00  0.00     0.246 S 
ATOM     15  O   UNL A   1      33.205  26.604  22.929  1.00  0.00    -0.207 OA
ATOM     16  O   UNL A   1      30.908  25.732  23.447  1.00  0.00    -0.207 OA
BRANCH  14  17
ATOM     17  N   UNL A   1      32.248  26.894  25.257  1.00  0.00    -0.196 NA
ATOM     18  C   UNL A   1      31.261  26.627  26.312  1.00  0.00     0.125 C 
BRANCH  17  19
ATOM     19  C   UNL A   1      33.594  27.282  25.766  1.00  0.00     0.137 C 
BRANCH  19  20
ATOM     20  C   UNL A   1      33.781  28.632  26.440  1.00  0.00    -0.030 A 
ATOM     21  C   UNL A   1      34.907  28.997  27.196  1.00  0.00     0.005 A 
ATOM     22  C   UNL A   1      32.748  29.578  26.325  1.00  0.00     0.044 A 
ATOM     23  C   UNL A   1      35.008  30.252  27.807  1.00  0.00     0.003 A 
ATOM     24  C   UNL A   1      32.853  30.826  26.940  1.00  0.00     0.123 A 
ATOM     25  C   UNL A   1      33.974  31.171  27.680  1.00  0.00     0.039 A 
ATOM     26  F   UNL A   1      31.848  31.702  26.815  1.00  0.00    -0.207 F 
ENDBRANCH  19  20
ENDBRANCH  17  19
ENDBRANCH  14  17
ENDBRANCH   9  14
ENDBRANCH   3   6
ENDBRANCH   1   2
BRANCH   1  27
ATOM     27  C   UNL A   1      38.157  23.812  26.414  1.00  0.00     0.042 C 
BRANCH  27  28
ATOM     28  C   UNL A   1      39.581  23.548  26.903  1.00  0.00     0.118 C 
BRANCH  28  29
ATOM     29  N   UNL A   1      40.579  24.136  26.019  1.00  0.00    -0.352 N 
ATOM     30  C   UNL A   1      41.195  25.361  26.066  1.00  0.00     0.251 C 
ATOM     31  H   UNL A   1      40.856  23.563  25.268  1.00  0.00     0.163 HD
ATOM     32  O   UNL A   1      41.863  25.728  25.102  1.00  0.00    -0.269 OA
BRANCH  30  33
ATOM     33  C   UNL A   1      41.064  26.244  27.248  1.00  0.00     0.039 A 
ATOM     34  C   UNL A   1      41.908  27.357  27.345  1.00  0.00     0.014 A 
ATOM     35  C   UNL A   1      40.171  25.958  28.284  1.00  0.00     0.014 A 
ATOM     36  C   UNL A   1      41.823  28.205  28.453  1.00  0.00     0.010 A 
ATOM     37  C   UNL A   1      40.049  26.835  29.364  1.00  0.00     0.010 A 
ATOM     38  C   UNL A   1      40.874  27.966  29.460  1.00  0.00    -0.014 A 
BRANCH  38  39
ATOM     39  C   UNL A   1      40.725  28.901  30.605  1.00  0.00     0.031 A 
ATOM     40  C   UNL A   1      41.599  28.767  31.824  1.00  0.00     0.074 A 
ATOM     41  C   UNL A   1      39.761  29.844  30.566  1.00  0.00     0.049 A 
ATOM     42  N   UNL A   1      41.579  29.460  32.934  1.00  0.00    -0.248 NA
ATOM     43  C   UNL A   1      42.614  27.701  31.801  1.00  0.00     0.031 C 
ATOM     44  C   UNL A   1      38.822  30.046  29.461  1.00  0.00     0.029 A 
ATOM     45  N   UNL A   1      39.405  30.802  31.481  1.00  0.00    -0.354 N 
ATOM     46  C   UNL A   1      42.561  28.906  33.747  1.00  0.00     0.074 A 
ATOM     47  C   UNL A   1      43.135  27.796  33.017  1.00  0.00     0.031 C 
ATOM     48  C   UNL A   1      38.012  31.075  29.753  1.00  0.00     0.029 A 
ATOM     49  C   UNL A   1      38.349  31.585  31.079  1.00  0.00     0.049 A 
ATOM     50  H   UNL A   1      39.862  30.918  32.346  1.00  0.00     0.167 HD
ATOM     51  C   UNL A   1      42.959  29.299  34.982  1.00  0.00     0.037 A 
ATOM     52  C   UNL A   1      37.719  32.596  31.707  1.00  0.00     0.037 A 
ATOM     53  C   UNL A   1      42.407  30.426  35.689  1.00  0.00     0.049 A 
ATOM     54  C   UNL A   1      38.188  33.018  33.074  1.00  0.00     0.074 A 
ATOM     55  C   UNL A   1      42.795  30.948  36.913  1.00  0.00     0.029 A 
ATOM     56  N   UNL A   1      41.350  31.204  35.242  1.00  0.00    -0.354 N 
ATOM     57  N   UNL A   1      39.164  32.525  33.798  1.00  0.00    -0.248 NA
ATOM     58  C   UNL A   1      37.473  34.134  33.706  1.00  0.00     0.031 C 
ATOM     59  C   UNL A   1      41.947  32.017  37.222  1.00  0.00     0.029 A 
ATOM     60  C   UNL A   1      41.058  32.187  36.174  1.00  0.00     0.049 A 
ATOM     61  H   UNL A   1      40.877  31.076  34.388  1.00  0.00     0.167 HD
ATOM     62  C   UNL A   1      39.195  33.286  34.961  1.00  0.00     0.074 A 
ATOM     63  C   UNL A   1      38.149  34.282  34.836  1.00  0.00     0.031 C 
ATOM     64  C   UNL A   1      40.015  33.173  36.034  1.00  0.00     0.037 A 
BRANCH  51  65
ATOM     65  C   UNL A   1      44.050  28.508  35.651  1.00  0.00     0.058 A 
ATOM     66  C   UNL A   1      45.406  28.822  35.469  1.00  0.00     0.135 A 
ATOM     67  C   UNL A   1      43.734  27.458  36.528  1.00  0.00     0.135 A 
ATOM     68  F   UNL A   1      45.765  29.808  34.632  1.00  0.00    -0.206 F 
ATOM     69  C   UNL A   1      46.411  28.109  36.115  1.00  0.00     0.059 A 
ATOM     70  C   UNL A   1      44.722  26.747  37.204  1.00  0.00     0.059 A 
ATOM     71  F   UNL A   1      42.453  27.116  36.740  1.00  0.00    -0.206 F 
ATOM     72  C   UNL A   1      46.059  27.072  36.981  1.00  0.00     0.060 A 
BRANCH  72  73
ATOM     73  S   UNL A   1      47.374  26.166  37.823  1.00  0.00     0.124 S 
ATOM     74  O   UNL A   1      46.931  26.236  39.213  1.00  0.00    -0.237 OA
ATOM     75  O   UNL A   1      47.295  24.849  37.200  1.00  0.00    -0.237 OA
ATOM     76  O   UNL A   1      48.574  26.935  37.509  1.00  0.00    -0.744 OA
ENDBRANCH  72  73
ENDBRANCH  51  65
BRANCH  52  77
ATOM     77  C   UNL A   1      36.588  33.296  31.044  1.00  0.00     0.058 A 
ATOM     78  C   UNL A   1      36.814  34.178  29.977  1.00  0.00     0.135 A 
ATOM     79  C   UNL A   1      35.263  33.100  31.461  1.00  0.00     0.135 A 
ATOM     80  F   UNL A   1      38.065  34.402  29.546  1.00  0.00    -0.206 F 
ATOM     81  C   UNL A   1      35.769  34.856  29.359  1.00  0.00     0.059 A 
ATOM     82  C   UNL A   1      34.199  33.749  30.844  1.00  0.00     0.059 A 
ATOM     83  F   UNL A   1      34.992  32.254  32.467  1.00  0.00    -0.206 F 
ATOM     84  C   UNL A   1      34.463  34.636  29.801  1.00  0.00     0.060 A 
BRANCH  84  85
ATOM     85  S   UNL A   1      33.108  35.494  28.971  1.00  0.00     0.124 S 
ATOM     86  O   UNL A   1      32.351  36.010  30.104  1.00  0.00    -0.237 OA
ATOM     87  O   UNL A   1      33.816  36.488  28.169  1.00  0.00    -0.237 OA
ATOM     88  O   UNL A   1      32.460  34.432  28.207  1.00  0.00    -0.744 OA
ENDBRANCH  84  85
ENDBRANCH  52  77
BRANCH  64  89
ATOM     89  C   UNL A   1      39.832  34.166  37.147  1.00  0.00     0.058 A 
ATOM     90  C   UNL A   1      40.445  35.428  37.115  1.00  0.00     0.135 A 
ATOM     91  C   UNL A   1      39.006  33.865  38.241  1.00  0.00     0.135 A 
ATOM     92  F   UNL A   1      41.251  35.762  36.094  1.00  0.00    -0.206 F 
ATOM     93  C   UNL A   1      40.267  36.349  38.142  1.00  0.00     0.059 A 
ATOM     94  C   UNL A   1      38.793  34.780  39.267  1.00  0.00     0.059 A 
ATOM     95  F   UNL A   1      38.388  32.676  38.315  1.00  0.00    -0.206 F 
ATOM     96  C   UNL A   1      39.440  36.014  39.216  1.00  0.00     0.060 A 
BRANCH  96  97
ATOM     97  S   UNL A   1      39.196  37.224  40.533  1.00  0.00     0.124 S 
ATOM     98  O   UNL A   1      38.200  38.109  39.939  1.00  0.00    -0.237 OA
ATOM     99  O   UNL A   1      38.728  36.394  41.640  1.00  0.00    -0.237 OA
ATOM    100  O   UNL A   1      40.525  37.803  40.711  1.00  0.00    -0.744 OA
ENDBRANCH  96  97
ENDBRANCH  64  89
ENDBRANCH  38  39
ENDBRANCH  30  33
ENDBRANCH  28  29
ENDBRANCH  27  28
ENDBRANCH   1  27
TORSDOF 18
ENDMDL
MODEL 2
REMARK VINA RESULT:     -12.0      2.179      4.044
REMARK SMILES COc1ccc(C(=O)NCCCNC(=O)c2ccc(-c3c4nc(c(-c5c(F)cc(S(=O)(=O)[O-])cc5F)c5ccc([nH]5)c(-c5c(F)cc(S(=O)(=O)[O-])cc5F)c5nc(c(-c6c(F)cc(S(=O)(=O)[O-])cc6F)c6ccc3[nH]6)C=C5)C=C4)cc2)cc1S(=O)(=O)N(C)Cc1cccc(F)c1
REMARK SMILES IDX 10 1 9 2 7 3 8 4 6 6 3 7 4 8 83 9 5 10 82 11 2 12 1 13 84 14
REMARK SMILES IDX 85 15 86 16 87 17 88 18 89 19 90 20 91 21 96 22 92 23 94 24
REMARK SMILES IDX 93 25 95 26 11 27 12 28 13 29 14 30 15 32 16 33 17 34 81 35
REMARK SMILES IDX 18 36 80 37 19 38 20 39 21 40 74 41 22 42 79 43 73 44 75 45
REMARK SMILES IDX 23 46 78 47 72 48 71 49 24 51 58 52 37 53 57 54 38 55 41 56
REMARK SMILES IDX 56 57 76 58 39 59 40 60 55 62 77 63 42 64 25 65 26 66 35 67
REMARK SMILES IDX 27 68 28 69 34 70 36 71 29 72 30 73 31 74 32 75 33 76 59 77
REMARK SMILES IDX 60 78 69 79 61 80 62 81 68 82 70 83 63 84 64 85 65 86 66 87
REMARK SMILES IDX 67 88 43 89 44 90 53 91 45 92 46 93 52 94 54 95 47 96 48 97
REMARK SMILES IDX 49 98 50 99 51 100
REMARK H PARENT 9 5 13 31 75 50 41 61
REMARK Flexibility Score: inf
ROOT
ATOM      1  C   UNL A   1      39.420  22.624  26.335  1.00  0.00     0.118 C 
ENDROOT
BRANCH   1   2
ATOM      2  N   UNL A   1      39.093  21.292  25.842  1.00  0.00    -0.352 N 
ATOM      3  C   UNL A   1      38.015  20.795  25.152  1.00  0.00     0.251 C 
ATOM      4  O   UNL A   1      38.066  19.632  24.751  1.00  0.00    -0.269 OA
ATOM      5  H   UNL A   1      39.781  20.616  26.041  1.00  0.00     0.163 HD
BRANCH   3   6
ATOM      6  C   UNL A   1      36.812  21.611  24.825  1.00  0.00     0.041 A 
ATOM      7  C   UNL A   1      34.627  23.287  24.195  1.00  0.00     0.138 A 
ATOM      8  C   UNL A   1      35.755  23.245  23.367  1.00  0.00     0.049 A 
ATOM      9  C   UNL A   1      34.564  22.435  25.292  1.00  0.00     0.125 A 
ATOM     10  C   UNL A   1      36.847  22.429  23.690  1.00  0.00     0.018 A 
ATOM     11  C   UNL A   1      35.640  21.572  25.572  1.00  0.00     0.039 A 
BRANCH   7  12
ATOM     12  O   UNL A   1      33.599  24.089  23.802  1.00  0.00    -0.495 OA
ATOM     13  C   UNL A   1      34.069  25.368  23.377  1.00  0.00     0.278 C 
ENDBRANCH   7  12
BRANCH   9  14
ATOM     14  S   UNL A   1      33.246  22.366  26.475  1.00  0.00     0.246 S 
ATOM     15  O   UNL A   1      33.699  21.450  27.495  1.00  0.00    -0.207 OA
ATOM     16  O   UNL A   1      32.960  23.749  26.809  1.00  0.00    -0.207 OA
BRANCH  14  17
ATOM     17  N   UNL A   1      31.850  21.715  25.783  1.00  0.00    -0.196 NA
ATOM     18  C   UNL A   1      30.530  22.309  26.038  1.00  0.00     0.125 C 
BRANCH  17  19
ATOM     19  C   UNL A   1      32.035  21.217  24.391  1.00  0.00     0.137 C 
BRANCH  19  20
ATOM     20  C   UNL A   1      32.364  19.751  24.156  1.00  0.00    -0.030 A 
ATOM     21  C   UNL A   1      32.383  19.129  22.897  1.00  0.00     0.005 A 
ATOM     22  C   UNL A   1      32.644  18.948  25.276  1.00  0.00     0.044 A 
ATOM     23  C   UNL A   1      32.676  17.769  22.753  1.00  0.00     0.003 A 
ATOM     24  C   UNL A   1      32.932  17.592  25.125  1.00  0.00     0.123 A 
ATOM     25  C   UNL A   1      32.950  16.995  23.873  1.00  0.00     0.039 A 
ATOM     26  F   UNL A   1      33.189  16.854  26.213  1.00  0.00    -0.207 F 
ENDBRANCH  19  20
ENDBRANCH  17  19
ENDBRANCH  14  17
ENDBRANCH   9  14
ENDBRANCH   3   6
ENDBRANCH   1   2
BRANCH   1  27
ATOM     27  C   UNL A   1      40.320  22.567  27.572  1.00  0.00     0.042 C 
BRANCH  27  28
ATOM     28  C   UNL A   1      41.730  23.105  27.328  1.00  0.00     0.118 C 
BRANCH  28  29
ATOM     29  N   UNL A   1      41.790  23.967  26.155  1.00  0.00    -0.352 N 
ATOM     30  C   UNL A   1      41.544  25.311  26.028  1.00  0.00     0.251 C 
ATOM     31  H   UNL A   1      42.048  23.514  25.321  1.00  0.00     0.163 HD
ATOM     32  O   UNL A   1      41.462  25.796  24.902  1.00  0.00    -0.269 OA
BRANCH  30  33
ATOM     33  C   UNL A   1      41.369  26.177  27.217  1.00  0.00     0.039 A 
ATOM     34  C   UNL A   1      42.378  27.098  27.525  1.00  0.00     0.014 A 
ATOM     35  C   UNL A   1      40.263  26.053  28.061  1.00  0.00     0.014 A 
ATOM     36  C   UNL A   1      42.254  27.922  28.646  1.00  0.00     0.010 A 
ATOM     37  C   UNL A   1      40.114  26.914  29.151  1.00  0.00     0.010 A 
ATOM     38  C   UNL A   1      41.108  27.856  29.455  1.00  0.00    -0.014 A 
BRANCH  38  39
ATOM     39  C   UNL A   1      40.933  28.778  30.607  1.00  0.00     0.031 A 
ATOM     40  C   UNL A   1      41.789  28.640  31.837  1.00  0.00     0.074 A 
ATOM     41  C   UNL A   1      39.961  29.712  30.563  1.00  0.00     0.049 A 
ATOM     42  N   UNL A   1      41.745  29.321  32.954  1.00  0.00    -0.248 NA
ATOM     43  C   UNL A   1      42.815  27.584  31.820  1.00  0.00     0.031 C 
ATOM     44  C   UNL A   1      39.037  29.917  29.445  1.00  0.00     0.029 A 
ATOM     45  N   UNL A   1      39.582  30.658  31.482  1.00  0.00    -0.354 N 
ATOM     46  C   UNL A   1      42.721  28.768  33.777  1.00  0.00     0.074 A 
ATOM     47  C   UNL A   1      43.316  27.670  33.044  1.00  0.00     0.031 C 
ATOM     48  C   UNL A   1      38.213  30.935  29.736  1.00  0.00     0.029 A 
ATOM     49  C   UNL A   1      38.525  31.434  31.071  1.00  0.00     0.049 A 
ATOM     50  H   UNL A   1      40.025  30.769  32.355  1.00  0.00     0.167 HD
ATOM     51  C   UNL A   1      43.096  29.151  35.022  1.00  0.00     0.037 A 
ATOM     52  C   UNL A   1      37.875  32.433  31.700  1.00  0.00     0.037 A 
ATOM     53  C   UNL A   1      42.523  30.266  35.732  1.00  0.00     0.049 A 
ATOM     54  C   UNL A   1      38.319  32.845  33.078  1.00  0.00     0.074 A 
ATOM     55  C   UNL A   1      42.887  30.779  36.966  1.00  0.00     0.029 A 
ATOM     56  N   UNL A   1      41.465  31.038  35.276  1.00  0.00    -0.354 N 
ATOM     57  N   UNL A   1      39.289  32.354  33.813  1.00  0.00    -0.248 NA
ATOM     58  C   UNL A   1      37.584  33.948  33.711  1.00  0.00     0.031 C 
ATOM     59  C   UNL A   1      42.024  31.837  37.273  1.00  0.00     0.029 A 
ATOM     60  C   UNL A   1      41.150  32.009  36.213  1.00  0.00     0.049 A 
ATOM     61  H   UNL A   1      41.007  30.915  34.414  1.00  0.00     0.167 HD
ATOM     62  C   UNL A   1      39.295  33.103  34.983  1.00  0.00     0.074 A 
ATOM     63  C   UNL A   1      38.242  34.090  34.853  1.00  0.00     0.031 C 
ATOM     64  C   UNL A   1      40.100  32.986  36.068  1.00  0.00     0.037 A 
BRANCH  51  65
ATOM     65  C   UNL A   1      44.184  28.364  35.699  1.00  0.00     0.058 A 
ATOM     66  C   UNL A   1      43.894  27.278  36.539  1.00  0.00     0.135 A 
ATOM     67  C   UNL A   1      45.536  28.665  35.462  1.00  0.00     0.135 A 
ATOM     68  F   UNL A   1      42.620  26.954  36.810  1.00  0.00    -0.206 F 
ATOM     69  C   UNL A   1      44.904  26.532  37.138  1.00  0.00     0.059 A 
ATOM     70  C   UNL A   1      46.563  27.917  36.032  1.00  0.00     0.059 A 
ATOM     71  F   UNL A   1      45.870  29.693  34.666  1.00  0.00    -0.206 F 
ATOM     72  C   UNL A   1      46.236  26.859  36.879  1.00  0.00     0.060 A 
BRANCH  72  73
ATOM     73  S   UNL A   1      47.535  25.872  37.652  1.00  0.00     0.124 S 
ATOM     74  O   UNL A   1      47.453  24.632  36.886  1.00  0.00    -0.237 OA
ATOM     75  O   UNL A   1      48.726  26.683  37.417  1.00  0.00    -0.237 OA
ATOM     76  O   UNL A   1      47.109  25.777  39.044  1.00  0.00    -0.744 OA
ENDBRANCH  72  73
ENDBRANCH  51  65
BRANCH  52  77
ATOM     77  C   UNL A   1      36.748  33.129  31.027  1.00  0.00     0.058 A 
ATOM     78  C   UNL A   1      36.987  34.138  30.082  1.00  0.00     0.135 A 
ATOM     79  C   UNL A   1      35.414  32.803  31.313  1.00  0.00     0.135 A 
ATOM     80  F   UNL A   1      38.246  34.489  29.780  1.00  0.00    -0.206 F 
ATOM     81  C   UNL A   1      35.944  34.813  29.458  1.00  0.00     0.059 A 
ATOM     82  C   UNL A   1      34.354  33.448  30.685  1.00  0.00     0.059 A 
ATOM     83  F   UNL A   1      35.132  31.834  32.198  1.00  0.00    -0.206 F 
ATOM     84  C   UNL A   1      34.628  34.462  29.768  1.00  0.00     0.060 A 
BRANCH  84  85
ATOM     85  S   UNL A   1      33.278  35.319  28.929  1.00  0.00     0.124 S 
ATOM     86  O   UNL A   1      34.003  36.317  28.152  1.00  0.00    -0.237 OA
ATOM     87  O   UNL A   1      32.655  34.243  28.164  1.00  0.00    -0.237 OA
ATOM     88  O   UNL A   1      32.475  35.837  30.033  1.00  0.00    -0.744 OA
ENDBRANCH  84  85
ENDBRANCH  52  77
BRANCH  64  89
ATOM     89  C   UNL A   1      39.890  33.966  37.188  1.00  0.00     0.058 A 
ATOM     90  C   UNL A   1      40.541  35.210  37.209  1.00  0.00     0.135 A 
ATOM     91  C   UNL A   1      39.001  33.673  38.233  1.00  0.00     0.135 A 
ATOM     92  F   UNL A   1      41.407  35.535  36.235  1.00  0.00    -0.206 F 
ATOM     93  C   UNL A   1      40.339  36.118  38.242  1.00  0.00     0.059 A 
ATOM     94  C   UNL A   1      38.764  34.577  39.264  1.00  0.00     0.059 A 
ATOM     95  F   UNL A   1      38.345  32.502  38.255  1.00  0.00    -0.206 F 
ATOM     96  C   UNL A   1      39.449  35.792  39.267  1.00  0.00     0.060 A 
BRANCH  96  97
ATOM     97  S   UNL A   1      39.176  36.987  40.592  1.00  0.00     0.124 S 
ATOM     98  O   UNL A   1      40.525  37.498  40.809  1.00  0.00    -0.237 OA
ATOM     99  O   UNL A   1      38.233  37.921  39.984  1.00  0.00    -0.237 OA
ATOM    100  O   UNL A   1      38.631  36.173  41.676  1.00  0.00    -0.744 OA
ENDBRANCH  96  97
ENDBRANCH  64  89
ENDBRANCH  38  39
ENDBRANCH  30  33
ENDBRANCH  28  29
ENDBRANCH  27  28
ENDBRANCH   1  27
TORSDOF 18
ENDMDL
MODEL 3
REMARK VINA RESULT:     -11.8      1.604      2.569
REMARK SMILES COc1ccc(C(=O)NCCCNC(=O)c2ccc(-c3c4nc(c(-c5c(F)cc(S(=O)(=O)[O-])cc5F)c5ccc([nH]5)c(-c5c(F)cc(S(=O)(=O)[O-])cc5F)c5nc(c(-c6c(F)cc(S(=O)(=O)[O-])cc6F)c6ccc3[nH]6)C=C5)C=C4)cc2)cc1S(=O)(=O)N(C)Cc1cccc(F)c1
REMARK SMILES IDX 10 1 9 2 7 3 8 4 6 6 3 7 4 8 83 9 5 10 82 11 2 12 1 13 84 14
REMARK SMILES IDX 85 15 86 16 87 17 88 18 89 19 90 20 91 21 96 22 92 23 94 24
REMARK SMILES IDX 93 25 95 26 11 27 12 28 13 29 14 30 15 32 16 33 17 34 81 35
REMARK SMILES IDX 18 36 80 37 19 38 20 39 21 40 74 41 22 42 79 43 73 44 75 45
REMARK SMILES IDX 23 46 78 47 72 48 71 49 24 51 58 52 37 53 57 54 38 55 41 56
REMARK SMILES IDX 56 57 76 58 39 59 40 60 55 62 77 63 42 64 25 65 26 66 35 67
REMARK SMILES IDX 27 68 28 69 34 70 36 71 29 72 30 73 31 74 32 75 33 76 59 77
REMARK SMILES IDX 60 78 69 79 61 80 62 81 68 82 70 83 63 84 64 85 65 86 66 87
REMARK SMILES IDX 67 88 43 89 44 90 53 91 45 92 46 93 52 94 54 95 47 96 48 97
REMARK SMILES IDX 49 98 50 99 51 100
REMARK H PARENT 9 5 13 31 75 50 41 61
REMARK Flexibility Score: inf
ROOT
ATOM      1  C   UNL A   1      36.949  22.698  25.614  1.00  0.00     0.118 C 
ENDROOT
BRANCH   1   2
ATOM      2  N   UNL A   1      35.927  22.274  26.563  1.00  0.00    -0.352 N 
ATOM      3  C   UNL A   1      34.556  22.354  26.549  1.00  0.00     0.251 C 
ATOM      4  O   UNL A   1      33.931  21.791  27.448  1.00  0.00    -0.269 OA
ATOM      5  H   UNL A   1      36.291  21.846  27.372  1.00  0.00     0.163 HD
BRANCH   3   6
ATOM      6  C   UNL A   1      33.792  23.045  25.474  1.00  0.00     0.041 A 
ATOM      7  C   UNL A   1      32.482  24.389  23.361  1.00  0.00     0.138 A 
ATOM      8  C   UNL A   1      33.378  23.347  23.096  1.00  0.00     0.049 A 
ATOM      9  C   UNL A   1      32.188  24.705  24.682  1.00  0.00     0.125 A 
ATOM     10  C   UNL A   1      34.042  22.694  24.142  1.00  0.00     0.018 A 
ATOM     11  C   UNL A   1      32.812  23.999  25.728  1.00  0.00     0.039 A 
BRANCH   7  12
ATOM     12  O   UNL A   1      31.861  24.959  22.292  1.00  0.00    -0.495 OA
ATOM     13  C   UNL A   1      32.805  25.501  21.368  1.00  0.00     0.278 C 
ENDBRANCH   7  12
BRANCH   9  14
ATOM     14  S   UNL A   1      31.116  26.010  25.221  1.00  0.00     0.246 S 
ATOM     15  O   UNL A   1      29.803  25.645  24.745  1.00  0.00    -0.207 OA
ATOM     16  O   UNL A   1      31.367  26.146  26.644  1.00  0.00    -0.207 OA
BRANCH  14  17
ATOM     17  N   UNL A   1      31.538  27.474  24.493  1.00  0.00    -0.196 NA
ATOM     18  C   UNL A   1      32.936  27.927  24.456  1.00  0.00     0.125 C 
BRANCH  17  19
ATOM     19  C   UNL A   1      30.763  27.787  23.259  1.00  0.00     0.137 C 
BRANCH  19  20
ATOM     20  C   UNL A   1      29.663  28.837  23.310  1.00  0.00    -0.030 A 
ATOM     21  C   UNL A   1      28.328  28.612  22.937  1.00  0.00     0.005 A 
ATOM     22  C   UNL A   1      30.005  30.133  23.734  1.00  0.00     0.044 A 
ATOM     23  C   UNL A   1      27.368  29.629  22.991  1.00  0.00     0.003 A 
ATOM     24  C   UNL A   1      29.045  31.144  23.780  1.00  0.00     0.123 A 
ATOM     25  C   UNL A   1      27.729  30.903  23.412  1.00  0.00     0.039 A 
ATOM     26  F   UNL A   1      29.405  32.369  24.183  1.00  0.00    -0.207 F 
ENDBRANCH  19  20
ENDBRANCH  17  19
ENDBRANCH  14  17
ENDBRANCH   9  14
ENDBRANCH   3   6
ENDBRANCH   1   2
BRANCH   1  27
ATOM     27  C   UNL A   1      38.355  22.600  26.212  1.00  0.00     0.042 C 
BRANCH  27  28
ATOM     28  C   UNL A   1      38.934  23.949  26.638  1.00  0.00     0.118 C 
BRANCH  28  29
ATOM     29  N   UNL A   1      40.218  24.216  26.001  1.00  0.00    -0.352 N 
ATOM     30  C   UNL A   1      41.126  25.220  26.223  1.00  0.00     0.251 C 
ATOM     31  H   UNL A   1      40.474  23.574  25.301  1.00  0.00     0.163 HD
ATOM     32  O   UNL A   1      42.055  25.366  25.432  1.00  0.00    -0.269 OA
BRANCH  30  33
ATOM     33  C   UNL A   1      41.003  26.127  27.387  1.00  0.00     0.039 A 
ATOM     34  C   UNL A   1      41.832  27.253  27.446  1.00  0.00     0.014 A 
ATOM     35  C   UNL A   1      40.132  25.853  28.444  1.00  0.00     0.014 A 
ATOM     36  C   UNL A   1      41.754  28.124  28.536  1.00  0.00     0.010 A 
ATOM     37  C   UNL A   1      40.015  26.751  29.507  1.00  0.00     0.010 A 
ATOM     38  C   UNL A   1      40.826  27.895  29.564  1.00  0.00    -0.014 A 
BRANCH  38  39
ATOM     39  C   UNL A   1      40.683  28.853  30.691  1.00  0.00     0.031 A 
ATOM     40  C   UNL A   1      41.546  28.729  31.918  1.00  0.00     0.074 A 
ATOM     41  C   UNL A   1      39.734  29.810  30.627  1.00  0.00     0.049 A 
ATOM     42  N   UNL A   1      41.529  29.442  33.015  1.00  0.00    -0.248 NA
ATOM     43  C   UNL A   1      42.545  27.648  31.922  1.00  0.00     0.031 C 
ATOM     44  C   UNL A   1      38.805  30.005  29.511  1.00  0.00     0.029 A 
ATOM     45  N   UNL A   1      39.386  30.790  31.522  1.00  0.00    -0.354 N 
ATOM     46  C   UNL A   1      42.497  28.889  33.845  1.00  0.00     0.074 A 
ATOM     47  C   UNL A   1      43.059  27.757  33.140  1.00  0.00     0.031 C 
ATOM     48  C   UNL A   1      38.009  31.052  29.779  1.00  0.00     0.029 A 
ATOM     49  C   UNL A   1      38.345  31.581  31.097  1.00  0.00     0.049 A 
ATOM     50  H   UNL A   1      39.839  30.915  32.388  1.00  0.00     0.167 HD
ATOM     51  C   UNL A   1      42.893  29.298  35.075  1.00  0.00     0.037 A 
ATOM     52  C   UNL A   1      37.726  32.613  31.703  1.00  0.00     0.037 A 
ATOM     53  C   UNL A   1      42.353  30.446  35.758  1.00  0.00     0.049 A 
ATOM     54  C   UNL A   1      38.191  33.052  33.065  1.00  0.00     0.074 A 
ATOM     55  C   UNL A   1      42.740  30.985  36.974  1.00  0.00     0.029 A 
ATOM     56  N   UNL A   1      41.310  31.232  35.289  1.00  0.00    -0.354 N 
ATOM     57  N   UNL A   1      39.155  32.559  33.805  1.00  0.00    -0.248 NA
ATOM     58  C   UNL A   1      37.489  34.191  33.671  1.00  0.00     0.031 C 
ATOM     59  C   UNL A   1      41.906  32.072  37.258  1.00  0.00     0.029 A 
ATOM     60  C   UNL A   1      41.027  32.236  36.200  1.00  0.00     0.049 A 
ATOM     61  H   UNL A   1      40.842  31.096  34.434  1.00  0.00     0.167 HD
ATOM     62  C   UNL A   1      39.189  33.341  34.954  1.00  0.00     0.074 A 
ATOM     63  C   UNL A   1      38.159  34.349  34.803  1.00  0.00     0.031 C 
ATOM     64  C   UNL A   1      40.000  33.235  36.035  1.00  0.00     0.037 A 
BRANCH  51  65
ATOM     65  C   UNL A   1      43.967  28.504  35.767  1.00  0.00     0.058 A 
ATOM     66  C   UNL A   1      43.659  27.415  36.597  1.00  0.00     0.135 A 
ATOM     67  C   UNL A   1      45.323  28.801  35.553  1.00  0.00     0.135 A 
ATOM     68  F   UNL A   1      42.380  27.094  36.846  1.00  0.00    -0.206 F 
ATOM     69  C   UNL A   1      44.657  26.662  37.209  1.00  0.00     0.059 A 
ATOM     70  C   UNL A   1      46.338  28.046  36.135  1.00  0.00     0.059 A 
ATOM     71  F   UNL A   1      45.674  29.832  34.767  1.00  0.00    -0.206 F 
ATOM     72  C   UNL A   1      45.994  26.986  36.972  1.00  0.00     0.060 A 
BRANCH  72  73
ATOM     73  S   UNL A   1      47.277  25.991  37.761  1.00  0.00     0.124 S 
ATOM     74  O   UNL A   1      48.489  26.651  37.288  1.00  0.00    -0.237 OA
ATOM     75  O   UNL A   1      46.977  26.161  39.180  1.00  0.00    -0.237 OA
ATOM     76  O   UNL A   1      47.045  24.652  37.231  1.00  0.00    -0.744 OA
ENDBRANCH  72  73
ENDBRANCH  51  65
BRANCH  52  77
ATOM     77  C   UNL A   1      36.610  33.317  31.018  1.00  0.00     0.058 A 
ATOM     78  C   UNL A   1      35.287  33.170  31.463  1.00  0.00     0.135 A 
ATOM     79  C   UNL A   1      36.840  34.146  29.911  1.00  0.00     0.135 A 
ATOM     80  F   UNL A   1      35.017  32.383  32.515  1.00  0.00    -0.206 F 
ATOM     81  C   UNL A   1      34.229  33.805  30.822  1.00  0.00     0.059 A 
ATOM     82  C   UNL A   1      35.801  34.809  29.267  1.00  0.00     0.059 A 
ATOM     83  F   UNL A   1      38.089  34.332  29.457  1.00  0.00    -0.206 F 
ATOM     84  C   UNL A   1      34.496  34.622  29.721  1.00  0.00     0.060 A 
BRANCH  84  85
ATOM     85  S   UNL A   1      33.121  35.471  28.915  1.00  0.00     0.124 S 
ATOM     86  O   UNL A   1      32.525  34.391  28.139  1.00  0.00    -0.237 OA
ATOM     87  O   UNL A   1      32.340  35.947  30.053  1.00  0.00    -0.237 OA
ATOM     88  O   UNL A   1      33.784  36.516  28.140  1.00  0.00    -0.744 OA
ENDBRANCH  84  85
ENDBRANCH  52  77
BRANCH  64  89
ATOM     89  C   UNL A   1      39.824  34.251  37.128  1.00  0.00     0.058 A 
ATOM     90  C   UNL A   1      40.411  35.524  37.050  1.00  0.00     0.135 A 
ATOM     91  C   UNL A   1      39.031  33.961  38.249  1.00  0.00     0.135 A 
ATOM     92  F   UNL A   1      41.185  35.848  36.002  1.00  0.00    -0.206 F 
ATOM     93  C   UNL A   1      40.239  36.465  38.059  1.00  0.00     0.059 A 
ATOM     94  C   UNL A   1      38.825  34.896  39.258  1.00  0.00     0.059 A 
ATOM     95  F   UNL A   1      38.439  32.762  38.366  1.00  0.00    -0.206 F 
ATOM     96  C   UNL A   1      39.445  36.142  39.161  1.00  0.00     0.060 A 
BRANCH  96  97
ATOM     97  S   UNL A   1      39.210  37.378  40.455  1.00  0.00     0.124 S 
ATOM     98  O   UNL A   1      38.258  38.285  39.824  1.00  0.00    -0.237 OA
ATOM     99  O   UNL A   1      38.689  36.581  41.562  1.00  0.00    -0.237 OA
ATOM    100  O   UNL A   1      40.553  37.917  40.657  1.00  0.00    -0.744 OA
ENDBRANCH  96  97
ENDBRANCH  64  89
ENDBRANCH  38  39
ENDBRANCH  30  33
ENDBRANCH  28  29
ENDBRANCH  27  28
ENDBRANCH   1  27
TORSDOF 18
ENDMDL
