MODEL 1
REMARK VINA RESULT:     -10.4      0.000      0.000
REMARK SMILES COc1cnc(SCC(=O)NCCCNC(=O)c2ccc(-c3c4nc(c(-c5c(F)cc(S(=O)(=O)[O-])cc5F)c5ccc([nH]5)c(-c5c(F)cc(S(=O)(=O)[O-])cc5F)c5nc(c(-c6c(F)cc(S(=O)(=O)[O-])cc6F)c6ccc3[nH]6)C=C5)C=C4)cc2)[nH]c1=O
REMARK SMILES IDX 13 1 12 2 11 3 9 4 10 5 8 7 7 8 6 9 3 10 4 11 85 12 5 13
REMARK SMILES IDX 84 14 86 15 2 17 1 18 14 19 15 20 16 21 17 23 18 24 19 25
REMARK SMILES IDX 83 26 20 27 82 28 21 29 22 30 23 31 76 32 24 33 81 34 75 35
REMARK SMILES IDX 77 36 25 37 80 38 74 39 73 40 26 42 60 43 39 44 59 45 40 46
REMARK SMILES IDX 43 47 58 48 78 49 41 50 42 51 57 53 79 54 44 55 27 56 28 57
REMARK SMILES IDX 37 58 29 59 30 60 36 61 38 62 31 63 32 64 33 65 34 66 35 67
REMARK SMILES IDX 61 68 62 69 71 70 63 71 64 72 70 73 72 74 65 75 66 76 67 77
REMARK SMILES IDX 68 78 69 79 45 80 46 81 55 82 47 83 48 84 54 85 56 86 49 87
REMARK SMILES IDX 50 88 51 89 52 90 53 91
REMARK H PARENT 11 6 84 16 15 22 77 41 43 52
REMARK Flexibility Score: inf
ROOT
ATOM      1  C   UNL A   1      34.754  33.552  28.016  1.00  0.00     0.042 C 
ENDROOT
BRANCH   1   2
ATOM      2  C   UNL A   1      35.375  34.807  28.621  1.00  0.00     0.117 C 
BRANCH   2   3
ATOM      3  N   UNL A   1      34.592  35.993  28.332  1.00  0.00    -0.355 N 
ATOM      4  C   UNL A   1      33.448  36.457  28.913  1.00  0.00     0.230 C 
ATOM      5  O   UNL A   1      33.025  37.551  28.530  1.00  0.00    -0.274 OA
ATOM      6  H   UNL A   1      34.941  36.553  27.600  1.00  0.00     0.163 HD
BRANCH   4   7
ATOM      7  C   UNL A   1      32.805  35.724  30.076  1.00  0.00     0.178 C 
BRANCH   7   8
ATOM      8  S   UNL A   1      33.112  36.452  31.705  1.00  0.00    -0.078 SA
BRANCH   8   9
ATOM      9  C   UNL A   1      34.031  35.214  32.491  1.00  0.00     0.168 A 
ATOM     10  C   UNL A   1      35.719  33.411  33.669  1.00  0.00     0.202 A 
ATOM     11  C   UNL A   1      34.390  33.259  33.562  1.00  0.00     0.166 A 
ATOM     12  C   UNL A   1      36.274  34.681  33.105  1.00  0.00     0.293 A 
ATOM     13  N   UNL A   1      33.512  34.157  33.009  1.00  0.00    -0.229 NA
ATOM     14  N   UNL A   1      35.358  35.500  32.510  1.00  0.00    -0.298 N 
ATOM     15  O   UNL A   1      37.457  34.998  33.164  1.00  0.00    -0.265 OA
ATOM     16  H   UNL A   1      35.672  36.328  32.079  1.00  0.00     0.172 HD
BRANCH  10  17
ATOM     17  O   UNL A   1      36.487  32.404  34.226  1.00  0.00    -0.490 OA
ATOM     18  C   UNL A   1      37.323  32.803  35.305  1.00  0.00     0.278 C 
ENDBRANCH  10  17
ENDBRANCH   8   9
ENDBRANCH   7   8
ENDBRANCH   4   7
ENDBRANCH   2   3
ENDBRANCH   1   2
BRANCH   1  19
ATOM     19  C   UNL A   1      34.495  32.437  29.024  1.00  0.00     0.118 C 
BRANCH  19  20
ATOM     20  N   UNL A   1      33.889  31.260  28.417  1.00  0.00    -0.352 N 
ATOM     21  C   UNL A   1      34.468  30.095  27.976  1.00  0.00     0.251 C 
ATOM     22  H   UNL A   1      32.912  31.306  28.307  1.00  0.00     0.163 HD
ATOM     23  O   UNL A   1      33.794  29.299  27.329  1.00  0.00    -0.269 OA
BRANCH  21  24
ATOM     24  C   UNL A   1      35.893  29.802  28.258  1.00  0.00     0.039 A 
ATOM     25  C   UNL A   1      36.245  29.324  29.524  1.00  0.00     0.014 A 
ATOM     26  C   UNL A   1      36.885  30.030  27.301  1.00  0.00     0.014 A 
ATOM     27  C   UNL A   1      37.581  29.031  29.811  1.00  0.00     0.010 A 
ATOM     28  C   UNL A   1      38.203  29.656  27.560  1.00  0.00     0.010 A 
ATOM     29  C   UNL A   1      38.569  29.170  28.824  1.00  0.00    -0.014 A 
BRANCH  29  30
ATOM     30  C   UNL A   1      39.995  28.849  29.105  1.00  0.00     0.031 A 
ATOM     31  C   UNL A   1      40.886  29.880  29.747  1.00  0.00     0.074 A 
ATOM     32  C   UNL A   1      40.501  27.654  28.741  1.00  0.00     0.049 A 
ATOM     33  N   UNL A   1      42.166  29.817  30.015  1.00  0.00    -0.248 NA
ATOM     34  C   UNL A   1      40.265  31.165  30.109  1.00  0.00     0.031 C 
ATOM     35  C   UNL A   1      39.753  26.585  28.073  1.00  0.00     0.029 A 
ATOM     36  N   UNL A   1      41.766  27.138  28.873  1.00  0.00    -0.354 N 
ATOM     37  C   UNL A   1      42.501  31.051  30.562  1.00  0.00     0.074 A 
ATOM     38  C   UNL A   1      41.307  31.865  30.529  1.00  0.00     0.031 C 
ATOM     39  C   UNL A   1      40.566  25.536  27.877  1.00  0.00     0.029 A 
ATOM     40  C   UNL A   1      41.901  25.867  28.364  1.00  0.00     0.049 A 
ATOM     41  H   UNL A   1      42.508  27.632  29.291  1.00  0.00     0.167 HD
ATOM     42  C   UNL A   1      43.689  31.462  31.067  1.00  0.00     0.037 A 
ATOM     43  C   UNL A   1      42.980  25.062  28.293  1.00  0.00     0.037 A 
ATOM     44  C   UNL A   1      44.870  30.639  31.118  1.00  0.00     0.049 A 
ATOM     45  C   UNL A   1      44.290  25.539  28.862  1.00  0.00     0.074 A 
ATOM     46  C   UNL A   1      46.111  30.944  31.652  1.00  0.00     0.029 A 
ATOM     47  N   UNL A   1      44.959  29.347  30.618  1.00  0.00    -0.354 N 
ATOM     48  N   UNL A   1      44.576  26.691  29.422  1.00  0.00    -0.248 NA
ATOM     49  C   UNL A   1      45.420  24.603  28.804  1.00  0.00     0.031 C 
ATOM     50  C   UNL A   1      46.961  29.857  31.430  1.00  0.00     0.029 A 
ATOM     51  C   UNL A   1      46.235  28.848  30.817  1.00  0.00     0.049 A 
ATOM     52  H   UNL A   1      44.223  28.858  30.185  1.00  0.00     0.167 HD
ATOM     53  C   UNL A   1      45.906  26.600  29.822  1.00  0.00     0.074 A 
ATOM     54  C   UNL A   1      46.364  25.280  29.442  1.00  0.00     0.031 C 
ATOM     55  C   UNL A   1      46.675  27.524  30.451  1.00  0.00     0.037 A 
BRANCH  42  56
ATOM     56  C   UNL A   1      43.771  32.865  31.610  1.00  0.00     0.058 A 
ATOM     57  C   UNL A   1      43.619  33.139  32.979  1.00  0.00     0.135 A 
ATOM     58  C   UNL A   1      44.036  33.948  30.754  1.00  0.00     0.135 A 
ATOM     59  F   UNL A   1      43.348  32.148  33.843  1.00  0.00    -0.206 F 
ATOM     60  C   UNL A   1      43.692  34.437  33.475  1.00  0.00     0.059 A 
ATOM     61  C   UNL A   1      44.148  35.250  31.234  1.00  0.00     0.059 A 
ATOM     62  F   UNL A   1      44.192  33.746  29.437  1.00  0.00    -0.206 F 
ATOM     63  C   UNL A   1      43.958  35.486  32.594  1.00  0.00     0.060 A 
BRANCH  63  64
ATOM     64  S   UNL A   1      44.056  37.162  33.257  1.00  0.00     0.124 S 
ATOM     65  O   UNL A   1      42.749  37.301  33.890  1.00  0.00    -0.237 OA
ATOM     66  O   UNL A   1      45.194  37.072  34.165  1.00  0.00    -0.237 OA
ATOM     67  O   UNL A   1      44.268  37.986  32.070  1.00  0.00    -0.744 OA
ENDBRANCH  63  64
ENDBRANCH  42  56
BRANCH  43  68
ATOM     68  C   UNL A   1      42.860  23.707  27.688  1.00  0.00     0.058 A 
ATOM     69  C   UNL A   1      42.558  22.585  28.474  1.00  0.00     0.135 A 
ATOM     70  C   UNL A   1      43.042  23.506  26.310  1.00  0.00     0.135 A 
ATOM     71  F   UNL A   1      42.381  22.724  29.797  1.00  0.00    -0.206 F 
ATOM     72  C   UNL A   1      42.463  21.311  27.924  1.00  0.00     0.059 A 
ATOM     73  C   UNL A   1      42.922  22.246  25.732  1.00  0.00     0.059 A 
ATOM     74  F   UNL A   1      43.315  24.547  25.508  1.00  0.00    -0.206 F 
ATOM     75  C   UNL A   1      42.644  21.152  26.550  1.00  0.00     0.060 A 
BRANCH  75  76
ATOM     76  S   UNL A   1      42.473  19.500  25.840  1.00  0.00     0.124 S 
ATOM     77  O   UNL A   1      43.419  19.557  24.731  1.00  0.00    -0.237 OA
ATOM     78  O   UNL A   1      42.853  18.646  26.961  1.00  0.00    -0.237 OA
ATOM     79  O   UNL A   1      41.064  19.440  25.465  1.00  0.00    -0.744 OA
ENDBRANCH  75  76
ENDBRANCH  43  68
BRANCH  55  80
ATOM     80  C   UNL A   1      48.073  27.119  30.835  1.00  0.00     0.058 A 
ATOM     81  C   UNL A   1      49.158  27.248  29.956  1.00  0.00     0.135 A 
ATOM     82  C   UNL A   1      48.332  26.626  32.125  1.00  0.00     0.135 A 
ATOM     83  F   UNL A   1      48.969  27.712  28.710  1.00  0.00    -0.206 F 
ATOM     84  C   UNL A   1      50.445  26.867  30.327  1.00  0.00     0.059 A 
ATOM     85  C   UNL A   1      49.614  26.271  32.530  1.00  0.00     0.059 A 
ATOM     86  F   UNL A   1      47.333  26.495  33.013  1.00  0.00    -0.206 F 
ATOM     87  C   UNL A   1      50.662  26.378  31.617  1.00  0.00     0.060 A 
BRANCH  87  88
ATOM     88  S   UNL A   1      52.336  25.899  32.093  1.00  0.00     0.124 S 
ATOM     89  O   UNL A   1      52.435  26.467  33.433  1.00  0.00    -0.237 OA
ATOM     90  O   UNL A   1      52.274  24.442  32.026  1.00  0.00    -0.237 OA
ATOM     91  O   UNL A   1      53.173  26.532  31.079  1.00  0.00    -0.744 OA
ENDBRANCH  87  88
ENDBRANCH  55  80
ENDBRANCH  29  30
ENDBRANCH  21  24
ENDBRANCH  19  20
ENDBRANCH   1  19
TORSDOF 16
ENDMDL
MODEL 2
REMARK VINA RESULT:     -10.4      0.698      8.593
REMARK SMILES COc1cnc(SCC(=O)NCCCNC(=O)c2ccc(-c3c4nc(c(-c5c(F)cc(S(=O)(=O)[O-])cc5F)c5ccc([nH]5)c(-c5c(F)cc(S(=O)(=O)[O-])cc5F)c5nc(c(-c6c(F)cc(S(=O)(=O)[O-])cc6F)c6ccc3[nH]6)C=C5)C=C4)cc2)[nH]c1=O
REMARK SMILES IDX 13 1 12 2 11 3 9 4 10 5 8 7 7 8 6 9 3 10 4 11 85 12 5 13
REMARK SMILES IDX 84 14 86 15 2 17 1 18 14 19 15 20 16 21 17 23 18 24 19 25
REMARK SMILES IDX 83 26 20 27 82 28 21 29 22 30 23 31 76 32 24 33 81 34 75 35
REMARK SMILES IDX 77 36 25 37 80 38 74 39 73 40 26 42 60 43 39 44 59 45 40 46
REMARK SMILES IDX 43 47 58 48 78 49 41 50 42 51 57 53 79 54 44 55 27 56 28 57
REMARK SMILES IDX 37 58 29 59 30 60 36 61 38 62 31 63 32 64 33 65 34 66 35 67
REMARK SMILES IDX 61 68 62 69 71 70 63 71 64 72 70 73 72 74 65 75 66 76 67 77
REMARK SMILES IDX 68 78 69 79 45 80 46 81 55 82 47 83 48 84 54 85 56 86 49 87
REMARK SMILES IDX 50 88 51 89 52 90 53 91
REMARK H PARENT 11 6 84 16 15 22 77 41 43 52
REMARK Flexibility Score: inf
ROOT
ATOM      1  C   UNL A   1      34.211  33.365  28.209  1.00  0.00     0.042 C 
ENDROOT
BRANCH   1   2
ATOM      2  C   UNL A   1      35.055  34.579  28.583  1.00  0.00     0.117 C 
BRANCH   2   3
ATOM      3  N   UNL A   1      34.377  35.825  28.281  1.00  0.00    -0.355 N 
ATOM      4  C   UNL A   1      33.340  36.440  28.920  1.00  0.00     0.230 C 
ATOM      5  O   UNL A   1      33.001  37.551  28.502  1.00  0.00    -0.274 OA
ATOM      6  H   UNL A   1      34.719  36.303  27.491  1.00  0.00     0.163 HD
BRANCH   4   7
ATOM      7  C   UNL A   1      32.724  35.845  30.173  1.00  0.00     0.178 C 
BRANCH   7   8
ATOM      8  S   UNL A   1      33.426  36.445  31.730  1.00  0.00    -0.078 SA
BRANCH   8   9
ATOM      9  C   UNL A   1      34.341  35.078  32.270  1.00  0.00     0.168 A 
ATOM     10  C   UNL A   1      36.004  33.102  33.174  1.00  0.00     0.202 A 
ATOM     11  C   UNL A   1      34.768  32.902  32.691  1.00  0.00     0.166 A 
ATOM     12  C   UNL A   1      36.459  34.527  33.219  1.00  0.00     0.293 A 
ATOM     13  N   UNL A   1      33.897  33.872  32.262  1.00  0.00    -0.229 NA
ATOM     14  N   UNL A   1      35.573  35.436  32.716  1.00  0.00    -0.298 N 
ATOM     15  O   UNL A   1      37.538  34.888  33.675  1.00  0.00    -0.265 OA
ATOM     16  H   UNL A   1      35.837  36.383  32.676  1.00  0.00     0.172 HD
BRANCH  10  17
ATOM     17  O   UNL A   1      36.786  32.022  33.542  1.00  0.00    -0.490 OA
ATOM     18  C   UNL A   1      36.656  30.869  32.720  1.00  0.00     0.278 C 
ENDBRANCH  10  17
ENDBRANCH   8   9
ENDBRANCH   7   8
ENDBRANCH   4   7
ENDBRANCH   2   3
ENDBRANCH   1   2
BRANCH   1  19
ATOM     19  C   UNL A   1      34.542  32.106  29.004  1.00  0.00     0.118 C 
BRANCH  19  20
ATOM     20  N   UNL A   1      34.006  30.897  28.394  1.00  0.00    -0.352 N 
ATOM     21  C   UNL A   1      34.656  29.781  27.926  1.00  0.00     0.251 C 
ATOM     22  H   UNL A   1      33.026  30.877  28.303  1.00  0.00     0.163 HD
ATOM     23  O   UNL A   1      34.025  28.948  27.281  1.00  0.00    -0.269 OA
BRANCH  21  24
ATOM     24  C   UNL A   1      36.103  29.584  28.176  1.00  0.00     0.039 A 
ATOM     25  C   UNL A   1      36.510  29.079  29.415  1.00  0.00     0.014 A 
ATOM     26  C   UNL A   1      37.060  29.927  27.218  1.00  0.00     0.014 A 
ATOM     27  C   UNL A   1      37.869  28.876  29.672  1.00  0.00     0.010 A 
ATOM     28  C   UNL A   1      38.405  29.642  27.442  1.00  0.00     0.010 A 
ATOM     29  C   UNL A   1      38.828  29.131  28.679  1.00  0.00    -0.014 A 
BRANCH  29  30
ATOM     30  C   UNL A   1      40.277  28.906  28.927  1.00  0.00     0.031 A 
ATOM     31  C   UNL A   1      40.904  27.580  28.584  1.00  0.00     0.074 A 
ATOM     32  C   UNL A   1      41.019  29.872  29.505  1.00  0.00     0.049 A 
ATOM     33  N   UNL A   1      42.130  27.167  28.781  1.00  0.00    -0.248 NA
ATOM     34  C   UNL A   1      40.029  26.571  27.963  1.00  0.00     0.031 C 
ATOM     35  C   UNL A   1      40.522  31.185  29.925  1.00  0.00     0.029 A 
ATOM     36  N   UNL A   1      42.348  29.898  29.849  1.00  0.00    -0.354 N 
ATOM     37  C   UNL A   1      42.169  25.855  28.323  1.00  0.00     0.074 A 
ATOM     38  C   UNL A   1      40.828  25.518  27.897  1.00  0.00     0.031 C 
ATOM     39  C   UNL A   1      41.536  31.894  30.446  1.00  0.00     0.029 A 
ATOM     40  C   UNL A   1      42.745  31.076  30.437  1.00  0.00     0.049 A 
ATOM     41  H   UNL A   1      42.959  29.143  29.690  1.00  0.00     0.167 HD
ATOM     42  C   UNL A   1      43.227  25.013  28.242  1.00  0.00     0.037 A 
ATOM     43  C   UNL A   1      43.946  31.454  30.920  1.00  0.00     0.037 A 
ATOM     44  C   UNL A   1      44.565  25.362  28.647  1.00  0.00     0.049 A 
ATOM     45  C   UNL A   1      45.109  30.503  30.817  1.00  0.00     0.074 A 
ATOM     46  C   UNL A   1      45.717  24.599  28.563  1.00  0.00     0.029 A 
ATOM     47  N   UNL A   1      44.931  26.575  29.212  1.00  0.00    -0.354 N 
ATOM     48  N   UNL A   1      45.138  29.283  30.334  1.00  0.00    -0.248 NA
ATOM     49  C   UNL A   1      46.405  30.982  31.313  1.00  0.00     0.031 C 
ATOM     50  C   UNL A   1      46.768  25.331  29.122  1.00  0.00     0.029 A 
ATOM     51  C   UNL A   1      46.288  26.576  29.495  1.00  0.00     0.049 A 
ATOM     52  H   UNL A   1      44.319  27.325  29.387  1.00  0.00     0.167 HD
ATOM     53  C   UNL A   1      46.463  28.868  30.427  1.00  0.00     0.074 A 
ATOM     54  C   UNL A   1      47.203  29.968  31.009  1.00  0.00     0.031 C 
ATOM     55  C   UNL A   1      47.017  27.685  30.058  1.00  0.00     0.037 A 
BRANCH  42  56
ATOM     56  C   UNL A   1      42.983  23.633  27.690  1.00  0.00     0.058 A 
ATOM     57  C   UNL A   1      42.518  22.583  28.500  1.00  0.00     0.135 A 
ATOM     58  C   UNL A   1      43.186  23.362  26.326  1.00  0.00     0.135 A 
ATOM     59  F   UNL A   1      42.322  22.778  29.814  1.00  0.00    -0.206 F 
ATOM     60  C   UNL A   1      42.297  21.310  27.987  1.00  0.00     0.059 A 
ATOM     61  C   UNL A   1      42.937  22.105  25.784  1.00  0.00     0.059 A 
ATOM     62  F   UNL A   1      43.627  24.326  25.505  1.00  0.00    -0.206 F 
ATOM     63  C   UNL A   1      42.508  21.080  26.626  1.00  0.00     0.060 A 
BRANCH  63  64
ATOM     64  S   UNL A   1      42.210  19.422  25.977  1.00  0.00     0.124 S 
ATOM     65  O   UNL A   1      42.686  18.589  27.077  1.00  0.00    -0.237 OA
ATOM     66  O   UNL A   1      40.767  19.426  25.765  1.00  0.00    -0.237 OA
ATOM     67  O   UNL A   1      43.019  19.381  24.763  1.00  0.00    -0.744 OA
ENDBRANCH  63  64
ENDBRANCH  42  56
BRANCH  43  68
ATOM     68  C   UNL A   1      44.118  32.807  31.514  1.00  0.00     0.058 A 
ATOM     69  C   UNL A   1      44.396  33.922  30.709  1.00  0.00     0.135 A 
ATOM     70  C   UNL A   1      44.006  33.015  32.898  1.00  0.00     0.135 A 
ATOM     71  F   UNL A   1      44.519  33.776  29.382  1.00  0.00    -0.206 F 
ATOM     72  C   UNL A   1      44.578  35.189  31.254  1.00  0.00     0.059 A 
ATOM     73  C   UNL A   1      44.155  34.277  33.463  1.00  0.00     0.059 A 
ATOM     74  F   UNL A   1      43.724  31.986  33.713  1.00  0.00    -0.206 F 
ATOM     75  C   UNL A   1      44.453  35.357  32.633  1.00  0.00     0.060 A 
BRANCH  75  76
ATOM     76  S   UNL A   1      44.648  37.015  33.324  1.00  0.00     0.124 S 
ATOM     77  O   UNL A   1      44.567  37.844  32.127  1.00  0.00    -0.237 OA
ATOM     78  O   UNL A   1      43.514  37.099  34.239  1.00  0.00    -0.237 OA
ATOM     79  O   UNL A   1      45.958  36.959  33.966  1.00  0.00    -0.744 OA
ENDBRANCH  75  76
ENDBRANCH  43  68
BRANCH  55  80
ATOM     80  C   UNL A   1      48.508  27.541  30.205  1.00  0.00     0.058 A 
ATOM     81  C   UNL A   1      49.099  27.011  31.362  1.00  0.00     0.135 A 
ATOM     82  C   UNL A   1      49.358  27.909  29.148  1.00  0.00     0.135 A 
ATOM     83  F   UNL A   1      48.336  26.645  32.404  1.00  0.00    -0.206 F 
ATOM     84  C   UNL A   1      50.480  26.886  31.482  1.00  0.00     0.059 A 
ATOM     85  C   UNL A   1      50.738  27.761  29.231  1.00  0.00     0.059 A 
ATOM     86  F   UNL A   1      48.846  28.409  28.012  1.00  0.00    -0.206 F 
ATOM     87  C   UNL A   1      51.291  27.265  30.410  1.00  0.00     0.060 A 
BRANCH  87  88
ATOM     88  S   UNL A   1      53.081  27.087  30.571  1.00  0.00     0.124 S 
ATOM     89  O   UNL A   1      53.436  26.515  29.277  1.00  0.00    -0.237 OA
ATOM     90  O   UNL A   1      53.512  28.463  30.794  1.00  0.00    -0.237 OA
ATOM     91  O   UNL A   1      53.233  26.195  31.716  1.00  0.00    -0.744 OA
ENDBRANCH  87  88
ENDBRANCH  55  80
ENDBRANCH  29  30
ENDBRANCH  21  24
ENDBRANCH  19  20
ENDBRANCH   1  19
TORSDOF 16
ENDMDL
MODEL 3
REMARK VINA RESULT:     -10.3      1.597      2.811
REMARK SMILES COc1cnc(SCC(=O)NCCCNC(=O)c2ccc(-c3c4nc(c(-c5c(F)cc(S(=O)(=O)[O-])cc5F)c5ccc([nH]5)c(-c5c(F)cc(S(=O)(=O)[O-])cc5F)c5nc(c(-c6c(F)cc(S(=O)(=O)[O-])cc6F)c6ccc3[nH]6)C=C5)C=C4)cc2)[nH]c1=O
REMARK SMILES IDX 13 1 12 2 11 3 9 4 10 5 8 7 7 8 6 9 3 10 4 11 85 12 5 13
REMARK SMILES IDX 84 14 86 15 2 17 1 18 14 19 15 20 16 21 17 23 18 24 19 25
REMARK SMILES IDX 83 26 20 27 82 28 21 29 22 30 23 31 76 32 24 33 81 34 75 35
REMARK SMILES IDX 77 36 25 37 80 38 74 39 73 40 26 42 60 43 39 44 59 45 40 46
REMARK SMILES IDX 43 47 58 48 78 49 41 50 42 51 57 53 79 54 44 55 27 56 28 57
REMARK SMILES IDX 37 58 29 59 30 60 36 61 38 62 31 63 32 64 33 65 34 66 35 67
REMARK SMILES IDX 61 68 62 69 71 70 63 71 64 72 70 73 72 74 65 75 66 76 67 77
REMARK SMILES IDX 68 78 69 79 45 80 46 81 55 82 47 83 48 84 54 85 56 86 49 87
REMARK SMILES IDX 50 88 51 89 52 90 53 91
REMARK H PARENT 11 6 84 16 15 22 77 41 43 52
REMARK Flexibility Score: inf
ROOT
ATOM      1  C   UNL A   1      34.739  32.617  30.434  1.00  0.00     0.042 C 
ENDROOT
BRANCH   1   2
ATOM      2  C   UNL A   1      34.748  33.998  31.082  1.00  0.00     0.117 C 
BRANCH   2   3
ATOM      3  N   UNL A   1      36.094  34.443  31.391  1.00  0.00    -0.355 N 
ATOM      4  C   UNL A   1      36.865  34.218  32.494  1.00  0.00     0.230 C 
ATOM      5  O   UNL A   1      38.022  34.647  32.469  1.00  0.00    -0.274 OA
ATOM      6  H   UNL A   1      36.518  34.996  30.695  1.00  0.00     0.163 HD
BRANCH   4   7
ATOM      7  C   UNL A   1      36.365  33.357  33.640  1.00  0.00     0.178 C 
BRANCH   7   8
ATOM      8  S   UNL A   1      37.596  32.990  34.916  1.00  0.00    -0.078 SA
BRANCH   8   9
ATOM      9  C   UNL A   1      38.445  31.647  34.231  1.00  0.00     0.168 A 
ATOM     10  C   UNL A   1      39.533  29.383  33.148  1.00  0.00     0.202 A 
ATOM     11  C   UNL A   1      40.227  30.481  33.483  1.00  0.00     0.166 A 
ATOM     12  C   UNL A   1      38.058  29.451  33.384  1.00  0.00     0.293 A 
ATOM     13  N   UNL A   1      39.708  31.644  33.996  1.00  0.00    -0.229 NA
ATOM     14  N   UNL A   1      37.614  30.607  33.958  1.00  0.00    -0.298 N 
ATOM     15  O   UNL A   1      37.273  28.555  33.089  1.00  0.00    -0.265 OA
ATOM     16  H   UNL A   1      36.659  30.690  34.181  1.00  0.00     0.172 HD
BRANCH  10  17
ATOM     17  O   UNL A   1      40.195  28.266  32.668  1.00  0.00    -0.490 OA
ATOM     18  C   UNL A   1      41.591  28.225  32.937  1.00  0.00     0.278 C 
ENDBRANCH  10  17
ENDBRANCH   8   9
ENDBRANCH   7   8
ENDBRANCH   4   7
ENDBRANCH   2   3
ENDBRANCH   1   2
BRANCH   1  19
ATOM     19  C   UNL A   1      34.642  32.643  28.912  1.00  0.00     0.118 C 
BRANCH  19  20
ATOM     20  N   UNL A   1      33.955  31.478  28.372  1.00  0.00    -0.352 N 
ATOM     21  C   UNL A   1      34.456  30.261  27.978  1.00  0.00     0.251 C 
ATOM     22  H   UNL A   1      32.981  31.578  28.274  1.00  0.00     0.163 HD
ATOM     23  O   UNL A   1      33.723  29.478  27.380  1.00  0.00    -0.269 OA
BRANCH  21  24
ATOM     24  C   UNL A   1      35.865  29.895  28.252  1.00  0.00     0.039 A 
ATOM     25  C   UNL A   1      36.812  30.054  27.236  1.00  0.00     0.014 A 
ATOM     26  C   UNL A   1      36.252  29.364  29.485  1.00  0.00     0.014 A 
ATOM     27  C   UNL A   1      38.150  29.724  27.473  1.00  0.00     0.010 A 
ATOM     28  C   UNL A   1      37.599  29.119  29.748  1.00  0.00     0.010 A 
ATOM     29  C   UNL A   1      38.561  29.278  28.739  1.00  0.00    -0.014 A 
BRANCH  29  30
ATOM     30  C   UNL A   1      39.982  28.937  29.015  1.00  0.00     0.031 A 
ATOM     31  C   UNL A   1      40.901  29.969  29.616  1.00  0.00     0.074 A 
ATOM     32  C   UNL A   1      40.461  27.722  28.682  1.00  0.00     0.049 A 
ATOM     33  N   UNL A   1      42.182  29.888  29.873  1.00  0.00    -0.248 NA
ATOM     34  C   UNL A   1      40.309  31.277  29.946  1.00  0.00     0.031 C 
ATOM     35  C   UNL A   1      39.684  26.649  28.054  1.00  0.00     0.029 A 
ATOM     36  N   UNL A   1      41.717  27.184  28.816  1.00  0.00    -0.354 N 
ATOM     37  C   UNL A   1      42.548  31.131  30.379  1.00  0.00     0.074 A 
ATOM     38  C   UNL A   1      41.370  31.968  30.334  1.00  0.00     0.031 C 
ATOM     39  C   UNL A   1      40.474  25.578  27.881  1.00  0.00     0.029 A 
ATOM     40  C   UNL A   1      41.821  25.896  28.344  1.00  0.00     0.049 A 
ATOM     41  H   UNL A   1      42.472  27.676  29.211  1.00  0.00     0.167 HD
ATOM     42  C   UNL A   1      43.749  31.533  30.860  1.00  0.00     0.037 A 
ATOM     43  C   UNL A   1      42.883  25.068  28.287  1.00  0.00     0.037 A 
ATOM     44  C   UNL A   1      44.914  30.688  30.923  1.00  0.00     0.049 A 
ATOM     45  C   UNL A   1      44.208  25.535  28.828  1.00  0.00     0.074 A 
ATOM     46  C   UNL A   1      46.166  30.983  31.435  1.00  0.00     0.029 A 
ATOM     47  N   UNL A   1      44.971  29.380  30.461  1.00  0.00    -0.354 N 
ATOM     48  N   UNL A   1      44.523  26.698  29.350  1.00  0.00    -0.248 NA
ATOM     49  C   UNL A   1      45.319  24.576  28.787  1.00  0.00     0.031 C 
ATOM     50  C   UNL A   1      46.992  29.873  31.237  1.00  0.00     0.029 A 
ATOM     51  C   UNL A   1      46.240  28.862  30.662  1.00  0.00     0.049 A 
ATOM     52  H   UNL A   1      44.221  28.893  30.051  1.00  0.00     0.167 HD
ATOM     53  C   UNL A   1      45.855  26.592  29.739  1.00  0.00     0.074 A 
ATOM     54  C   UNL A   1      46.283  25.252  29.394  1.00  0.00     0.031 C 
ATOM     55  C   UNL A   1      46.649  27.519  30.331  1.00  0.00     0.037 A 
BRANCH  42  56
ATOM     56  C   UNL A   1      43.864  32.950  31.359  1.00  0.00     0.058 A 
ATOM     57  C   UNL A   1      43.609  33.286  32.699  1.00  0.00     0.135 A 
ATOM     58  C   UNL A   1      44.267  33.981  30.494  1.00  0.00     0.135 A 
ATOM     59  F   UNL A   1      43.205  32.345  33.567  1.00  0.00    -0.206 F 
ATOM     60  C   UNL A   1      43.713  34.596  33.154  1.00  0.00     0.059 A 
ATOM     61  C   UNL A   1      44.413  35.293  30.937  1.00  0.00     0.059 A 
ATOM     62  F   UNL A   1      44.527  33.719  29.204  1.00  0.00    -0.206 F 
ATOM     63  C   UNL A   1      44.117  35.593  32.265  1.00  0.00     0.060 A 
BRANCH  63  64
ATOM     64  S   UNL A   1      44.254  37.286  32.876  1.00  0.00     0.124 S 
ATOM     65  O   UNL A   1      43.016  37.422  33.637  1.00  0.00    -0.237 OA
ATOM     66  O   UNL A   1      45.480  37.234  33.665  1.00  0.00    -0.237 OA
ATOM     67  O   UNL A   1      44.330  38.083  31.656  1.00  0.00    -0.744 OA
ENDBRANCH  63  64
ENDBRANCH  42  56
BRANCH  43  68
ATOM     68  C   UNL A   1      42.730  23.698  27.724  1.00  0.00     0.058 A 
ATOM     69  C   UNL A   1      42.838  23.465  26.344  1.00  0.00     0.135 A 
ATOM     70  C   UNL A   1      42.477  22.594  28.553  1.00  0.00     0.135 A 
ATOM     71  F   UNL A   1      43.073  24.488  25.509  1.00  0.00    -0.206 F 
ATOM     72  C   UNL A   1      42.678  22.194  25.804  1.00  0.00     0.059 A 
ATOM     73  C   UNL A   1      42.343  21.308  28.039  1.00  0.00     0.059 A 
ATOM     74  F   UNL A   1      42.382  22.757  29.882  1.00  0.00    -0.206 F 
ATOM     75  C   UNL A   1      42.433  21.120  26.660  1.00  0.00     0.060 A 
BRANCH  75  76
ATOM     76  S   UNL A   1      42.272  19.466  25.951  1.00  0.00     0.124 S 
ATOM     77  O   UNL A   1      43.126  19.567  24.773  1.00  0.00    -0.237 OA
ATOM     78  O   UNL A   1      42.769  18.621  27.032  1.00  0.00    -0.237 OA
ATOM     79  O   UNL A   1      40.841  19.354  25.685  1.00  0.00    -0.744 OA
ENDBRANCH  75  76
ENDBRANCH  43  68
BRANCH  55  80
ATOM     80  C   UNL A   1      48.043  27.097  30.713  1.00  0.00     0.058 A 
ATOM     81  C   UNL A   1      48.324  26.450  31.926  1.00  0.00     0.135 A 
ATOM     82  C   UNL A   1      49.111  27.316  29.827  1.00  0.00     0.135 A 
ATOM     83  F   UNL A   1      47.342  26.217  32.812  1.00  0.00    -0.206 F 
ATOM     84  C   UNL A   1      49.619  26.068  32.264  1.00  0.00     0.059 A 
ATOM     85  C   UNL A   1      50.408  26.913  30.128  1.00  0.00     0.059 A 
ATOM     86  F   UNL A   1      48.898  27.918  28.646  1.00  0.00    -0.206 F 
ATOM     87  C   UNL A   1      50.655  26.305  31.358  1.00  0.00     0.060 A 
BRANCH  87  88
ATOM     88  S   UNL A   1      52.329  25.795  31.800  1.00  0.00     0.124 S 
ATOM     89  O   UNL A   1      52.639  26.718  32.887  1.00  0.00    -0.237 OA
ATOM     90  O   UNL A   1      52.138  24.402  32.189  1.00  0.00    -0.237 OA
ATOM     91  O   UNL A   1      53.084  25.999  30.568  1.00  0.00    -0.744 OA
ENDBRANCH  87  88
ENDBRANCH  55  80
ENDBRANCH  29  30
ENDBRANCH  21  24
ENDBRANCH  19  20
ENDBRANCH   1  19
TORSDOF 16
ENDMDL
