MODEL 1
REMARK VINA RESULT:     -12.4      0.000      0.000
REMARK SMILES CCc1nc(N2CC[N@H+](CC=C(C)C)[C@H](C(=O)NCCCNC(=O)c3ccc(-c4c5nc(c(-c6c(F)cc(S(=O)(=O)[O-])cc6F)c6ccc([nH]6)c(-c6c(F)cc(S(=O)(=O)[O-])cc6F)c6nc(c(-c7c(F)cc(S(=O)(=O)[O-])cc7F)c7ccc4[nH]7)C=C6)C=C5)cc3)C2)no1
REMARK SMILES IDX 20 1 19 2 18 3 16 4 17 5 15 7 6 8 7 9 91 10 8 11 9 12 5 14
REMARK SMILES IDX 3 15 4 16 93 17 92 18 2 19 1 20 10 21 11 22 12 23 13 24
REMARK SMILES IDX 14 25 21 26 22 27 23 28 24 30 25 31 26 32 90 33 27 34 89 35
REMARK SMILES IDX 28 36 29 37 30 38 83 39 31 40 88 41 82 42 84 43 32 44 87 45
REMARK SMILES IDX 81 46 80 47 33 49 67 50 46 51 66 52 47 53 50 54 65 55 85 56
REMARK SMILES IDX 48 57 49 58 64 60 86 61 51 62 34 63 35 64 44 65 36 66 37 67
REMARK SMILES IDX 43 68 45 69 38 70 39 71 40 72 41 73 42 74 68 75 69 76 78 77
REMARK SMILES IDX 70 78 71 79 77 80 79 81 72 82 73 83 74 84 75 85 76 86 52 87
REMARK SMILES IDX 53 88 62 89 54 90 55 91 61 92 63 93 56 94 57 95 58 96 59 97
REMARK SMILES IDX 60 98
REMARK H PARENT 18 6 9 13 22 29 84 48 50 59
REMARK Flexibility Score: inf
ROOT
ATOM      1  C   UNL A   1      34.687  29.321  27.309  1.00  0.00     0.042 C 
ENDROOT
BRANCH   1   2
ATOM      2  C   UNL A   1      33.369  29.609  26.599  1.00  0.00     0.118 C 
BRANCH   2   3
ATOM      3  N   UNL A   1      33.502  29.602  25.152  1.00  0.00    -0.351 N 
ATOM      4  C   UNL A   1      33.026  28.839  24.134  1.00  0.00     0.280 C 
ATOM      5  O   UNL A   1      33.308  29.281  23.009  1.00  0.00    -0.268 OA
ATOM      6  H   UNL A   1      34.081  30.329  24.828  1.00  0.00     0.163 HD
BRANCH   4   7
ATOM      7  C   UNL A   1      32.166  27.548  24.272  1.00  0.00     0.294 C 
ATOM      8  N   UNL A   1      31.778  25.127  23.686  1.00  0.00    -0.326 N 
ATOM      9  C   UNL A   1      30.350  25.358  23.517  1.00  0.00     0.181 C 
ATOM     10  C   UNL A   1      32.670  26.285  23.565  1.00  0.00     0.195 C 
ATOM     11  C   UNL A   1      29.907  26.620  24.291  1.00  0.00     0.284 C 
ATOM     12  N   UNL A   1      30.711  27.836  24.080  1.00  0.00    -0.318 N 
ATOM     13  H   UNL A   1      30.492  28.509  24.814  1.00  0.00     0.349 HD
BRANCH   8  14
ATOM     14  C   UNL A   1      32.295  23.881  23.582  1.00  0.00     0.266 A 
ATOM     15  C   UNL A   1      32.610  21.898  24.181  1.00  0.00     0.227 A 
ATOM     16  N   UNL A   1      32.135  23.028  24.642  1.00  0.00    -0.176 NA
ATOM     17  O   UNL A   1      33.129  22.007  22.928  1.00  0.00    -0.337 OA
ATOM     18  N   UNL A   1      32.907  23.324  22.527  1.00  0.00    -0.038 NA
BRANCH  15  19
ATOM     19  C   UNL A   1      32.560  20.550  24.790  1.00  0.00     0.097 C 
ATOM     20  C   UNL A   1      32.457  19.475  23.716  1.00  0.00     0.014 C 
ENDBRANCH  15  19
ENDBRANCH   8  14
BRANCH  12  21
ATOM     21  C   UNL A   1      30.319  28.617  22.906  1.00  0.00     0.291 C 
BRANCH  21  22
ATOM     22  C   UNL A   1      29.586  29.900  23.171  1.00  0.00     0.032 C 
ATOM     23  C   UNL A   1      28.250  30.062  23.259  1.00  0.00    -0.075 C 
ATOM     24  C   UNL A   1      27.651  31.425  23.474  1.00  0.00     0.039 C 
ATOM     25  C   UNL A   1      27.265  28.937  23.104  1.00  0.00     0.039 C 
ENDBRANCH  21  22
ENDBRANCH  12  21
ENDBRANCH   4   7
ENDBRANCH   2   3
ENDBRANCH   1   2
BRANCH   1  26
ATOM     26  C   UNL A   1      35.388  30.579  27.815  1.00  0.00     0.118 C 
BRANCH  26  27
ATOM     27  N   UNL A   1      35.373  30.668  29.271  1.00  0.00    -0.352 N 
ATOM     28  C   UNL A   1      36.296  30.263  30.201  1.00  0.00     0.251 C 
ATOM     29  H   UNL A   1      34.565  31.087  29.648  1.00  0.00     0.163 HD
ATOM     30  O   UNL A   1      35.967  30.212  31.384  1.00  0.00    -0.269 OA
BRANCH  28  31
ATOM     31  C   UNL A   1      37.670  29.894  29.797  1.00  0.00     0.039 A 
ATOM     32  C   UNL A   1      38.560  29.436  30.775  1.00  0.00     0.014 A 
ATOM     33  C   UNL A   1      38.104  30.054  28.480  1.00  0.00     0.014 A 
ATOM     34  C   UNL A   1      39.866  29.092  30.418  1.00  0.00     0.010 A 
ATOM     35  C   UNL A   1      39.379  29.635  28.111  1.00  0.00     0.010 A 
ATOM     36  C   UNL A   1      40.277  29.163  29.078  1.00  0.00    -0.014 A 
BRANCH  36  37
ATOM     37  C   UNL A   1      41.647  28.761  28.669  1.00  0.00     0.031 A 
ATOM     38  C   UNL A   1      42.757  29.776  28.647  1.00  0.00     0.074 A 
ATOM     39  C   UNL A   1      41.873  27.499  28.257  1.00  0.00     0.049 A 
ATOM     40  N   UNL A   1      44.004  29.630  28.273  1.00  0.00    -0.248 NA
ATOM     41  C   UNL A   1      42.416  31.141  29.075  1.00  0.00     0.031 C 
ATOM     42  C   UNL A   1      40.865  26.438  28.194  1.00  0.00     0.029 A 
ATOM     43  N   UNL A   1      43.021  26.895  27.814  1.00  0.00    -0.354 N 
ATOM     44  C   UNL A   1      44.586  30.886  28.400  1.00  0.00     0.074 A 
ATOM     45  C   UNL A   1      43.544  31.791  28.833  1.00  0.00     0.031 C 
ATOM     46  C   UNL A   1      41.448  25.304  27.776  1.00  0.00     0.029 A 
ATOM     47  C   UNL A   1      42.859  25.565  27.507  1.00  0.00     0.049 A 
ATOM     48  H   UNL A   1      43.879  27.368  27.724  1.00  0.00     0.167 HD
ATOM     49  C   UNL A   1      45.877  31.248  28.197  1.00  0.00     0.037 A 
ATOM     50  C   UNL A   1      43.750  24.657  27.064  1.00  0.00     0.037 A 
ATOM     51  C   UNL A   1      46.912  30.334  27.789  1.00  0.00     0.049 A 
ATOM     52  C   UNL A   1      45.176  25.079  26.844  1.00  0.00     0.074 A 
ATOM     53  C   UNL A   1      48.262  30.582  27.615  1.00  0.00     0.029 A 
ATOM     54  N   UNL A   1      46.709  28.995  27.486  1.00  0.00    -0.354 N 
ATOM     55  N   UNL A   1      45.726  26.257  27.025  1.00  0.00    -0.248 NA
ATOM     56  C   UNL A   1      46.103  24.048  26.361  1.00  0.00     0.031 C 
ATOM     57  C   UNL A   1      48.869  29.401  27.169  1.00  0.00     0.029 A 
ATOM     58  C   UNL A   1      47.905  28.407  27.107  1.00  0.00     0.049 A 
ATOM     59  H   UNL A   1      45.843  28.531  27.534  1.00  0.00     0.167 HD
ATOM     60  C   UNL A   1      47.068  26.102  26.705  1.00  0.00     0.074 A 
ATOM     61  C   UNL A   1      47.249  24.714  26.325  1.00  0.00     0.031 C 
ATOM     62  C   UNL A   1      48.065  27.024  26.727  1.00  0.00     0.037 A 
BRANCH  49  63
ATOM     63  C   UNL A   1      46.225  32.698  28.407  1.00  0.00     0.058 A 
ATOM     64  C   UNL A   1      46.605  33.191  29.667  1.00  0.00     0.135 A 
ATOM     65  C   UNL A   1      46.153  33.612  27.343  1.00  0.00     0.135 A 
ATOM     66  F   UNL A   1      46.678  32.364  30.723  1.00  0.00    -0.206 F 
ATOM     67  C   UNL A   1      46.845  34.545  29.877  1.00  0.00     0.059 A 
ATOM     68  C   UNL A   1      46.418  34.966  27.524  1.00  0.00     0.059 A 
ATOM     69  F   UNL A   1      45.801  33.196  26.117  1.00  0.00    -0.206 F 
ATOM     70  C   UNL A   1      46.737  35.427  28.802  1.00  0.00     0.060 A 
BRANCH  70  71
ATOM     71  S   UNL A   1      47.001  37.189  29.097  1.00  0.00     0.124 S 
ATOM     72  O   UNL A   1      47.887  37.157  30.256  1.00  0.00    -0.237 OA
ATOM     73  O   UNL A   1      47.611  37.631  27.847  1.00  0.00    -0.237 OA
ATOM     74  O   UNL A   1      45.656  37.696  29.348  1.00  0.00    -0.744 OA
ENDBRANCH  70  71
ENDBRANCH  49  63
BRANCH  50  75
ATOM     75  C   UNL A   1      43.325  23.247  26.861  1.00  0.00     0.058 A 
ATOM     76  C   UNL A   1      43.254  22.705  25.570  1.00  0.00     0.135 A 
ATOM     77  C   UNL A   1      43.031  22.405  27.944  1.00  0.00     0.135 A 
ATOM     78  F   UNL A   1      43.522  23.475  24.505  1.00  0.00    -0.206 F 
ATOM     79  C   UNL A   1      42.905  21.377  25.357  1.00  0.00     0.059 A 
ATOM     80  C   UNL A   1      42.699  21.066  27.757  1.00  0.00     0.059 A 
ATOM     81  F   UNL A   1      43.102  22.873  29.200  1.00  0.00    -0.206 F 
ATOM     82  C   UNL A   1      42.636  20.562  26.458  1.00  0.00     0.060 A 
BRANCH  82  83
ATOM     83  S   UNL A   1      42.260  18.820  26.171  1.00  0.00     0.124 S 
ATOM     84  O   UNL A   1      42.517  18.242  27.485  1.00  0.00    -0.237 OA
ATOM     85  O   UNL A   1      40.861  18.872  25.758  1.00  0.00    -0.237 OA
ATOM     86  O   UNL A   1      43.201  18.443  25.120  1.00  0.00    -0.744 OA
ENDBRANCH  82  83
ENDBRANCH  50  75
BRANCH  62  87
ATOM     87  C   UNL A   1      49.442  26.552  26.356  1.00  0.00     0.058 A 
ATOM     88  C   UNL A   1      49.947  26.702  25.055  1.00  0.00     0.135 A 
ATOM     89  C   UNL A   1      50.279  25.972  27.323  1.00  0.00     0.135 A 
ATOM     90  F   UNL A   1      49.184  27.244  24.092  1.00  0.00    -0.206 F 
ATOM     91  C   UNL A   1      51.225  26.268  24.718  1.00  0.00     0.059 A 
ATOM     92  C   UNL A   1      51.570  25.555  27.014  1.00  0.00     0.059 A 
ATOM     93  F   UNL A   1      49.847  25.815  28.584  1.00  0.00    -0.206 F 
ATOM     94  C   UNL A   1      52.028  25.694  25.705  1.00  0.00     0.060 A 
BRANCH  94  95
ATOM     95  S   UNL A   1      53.694  25.154  25.263  1.00  0.00     0.124 S 
ATOM     96  O   UNL A   1      53.823  25.684  23.909  1.00  0.00    -0.237 OA
ATOM     97  O   UNL A   1      54.515  25.804  26.279  1.00  0.00    -0.237 OA
ATOM     98  O   UNL A   1      53.616  23.700  25.363  1.00  0.00    -0.744 OA
ENDBRANCH  94  95
ENDBRANCH  62  87
ENDBRANCH  36  37
ENDBRANCH  28  31
ENDBRANCH  26  27
ENDBRANCH   1  26
TORSDOF 17
ENDMDL
MODEL 2
REMARK VINA RESULT:     -12.4      6.529     12.300
REMARK SMILES CCc1nc(N2CC[N@H+](CC=C(C)C)[C@H](C(=O)NCCCNC(=O)c3ccc(-c4c5nc(c(-c6c(F)cc(S(=O)(=O)[O-])cc6F)c6ccc([nH]6)c(-c6c(F)cc(S(=O)(=O)[O-])cc6F)c6nc(c(-c7c(F)cc(S(=O)(=O)[O-])cc7F)c7ccc4[nH]7)C=C6)C=C5)cc3)C2)no1
REMARK SMILES IDX 20 1 19 2 18 3 16 4 17 5 15 7 6 8 7 9 91 10 8 11 9 12 5 14
REMARK SMILES IDX 3 15 4 16 93 17 92 18 2 19 1 20 10 21 11 22 12 23 13 24
REMARK SMILES IDX 14 25 21 26 22 27 23 28 24 30 25 31 26 32 90 33 27 34 89 35
REMARK SMILES IDX 28 36 29 37 30 38 83 39 31 40 88 41 82 42 84 43 32 44 87 45
REMARK SMILES IDX 81 46 80 47 33 49 67 50 46 51 66 52 47 53 50 54 65 55 85 56
REMARK SMILES IDX 48 57 49 58 64 60 86 61 51 62 34 63 35 64 44 65 36 66 37 67
REMARK SMILES IDX 43 68 45 69 38 70 39 71 40 72 41 73 42 74 68 75 69 76 78 77
REMARK SMILES IDX 70 78 71 79 77 80 79 81 72 82 73 83 74 84 75 85 76 86 52 87
REMARK SMILES IDX 53 88 62 89 54 90 55 91 61 92 63 93 56 94 57 95 58 96 59 97
REMARK SMILES IDX 60 98
REMARK H PARENT 18 6 9 13 22 29 84 48 50 59
REMARK Flexibility Score: inf
ROOT
ATOM      1  C   UNL A   1      37.847  23.647  25.766  1.00  0.00     0.042 C 
ENDROOT
BRANCH   1   2
ATOM      2  C   UNL A   1      37.234  22.272  25.526  1.00  0.00     0.118 C 
BRANCH   2   3
ATOM      3  N   UNL A   1      36.156  21.973  26.455  1.00  0.00    -0.351 N 
ATOM      4  C   UNL A   1      34.799  21.982  26.407  1.00  0.00     0.280 C 
ATOM      5  O   UNL A   1      34.264  21.524  27.429  1.00  0.00    -0.268 OA
ATOM      6  H   UNL A   1      36.493  21.695  27.338  1.00  0.00     0.163 HD
BRANCH   4   7
ATOM      7  C   UNL A   1      33.920  22.461  25.214  1.00  0.00     0.294 C 
ATOM      8  N   UNL A   1      31.941  23.773  24.366  1.00  0.00    -0.326 N 
ATOM      9  C   UNL A   1      31.582  22.705  23.443  1.00  0.00     0.181 C 
ATOM     10  C   UNL A   1      32.763  23.416  25.527  1.00  0.00     0.195 C 
ATOM     11  C   UNL A   1      32.806  21.811  23.140  1.00  0.00     0.284 C 
ATOM     12  N   UNL A   1      33.569  21.327  24.303  1.00  0.00    -0.318 N 
ATOM     13  H   UNL A   1      34.472  20.977  23.983  1.00  0.00     0.349 HD
BRANCH   8  14
ATOM     14  C   UNL A   1      31.259  24.941  24.373  1.00  0.00     0.266 A 
ATOM     15  C   UNL A   1      30.576  26.748  23.563  1.00  0.00     0.227 A 
ATOM     16  N   UNL A   1      31.461  25.811  23.335  1.00  0.00    -0.176 NA
ATOM     17  O   UNL A   1      29.885  26.562  24.721  1.00  0.00    -0.337 OA
ATOM     18  N   UNL A   1      30.334  25.353  25.252  1.00  0.00    -0.038 NA
BRANCH  15  19
ATOM     19  C   UNL A   1      30.179  27.883  22.701  1.00  0.00     0.097 C 
ATOM     20  C   UNL A   1      28.771  28.354  23.042  1.00  0.00     0.014 C 
ENDBRANCH  15  19
ENDBRANCH   8  14
BRANCH  12  21
ATOM     21  C   UNL A   1      33.033  20.108  24.907  1.00  0.00     0.291 C 
BRANCH  21  22
ATOM     22  C   UNL A   1      33.735  18.826  24.563  1.00  0.00     0.032 C 
ATOM     23  C   UNL A   1      33.423  17.979  23.562  1.00  0.00    -0.075 C 
ATOM     24  C   UNL A   1      34.185  16.696  23.370  1.00  0.00     0.039 C 
ATOM     25  C   UNL A   1      32.287  18.207  22.604  1.00  0.00     0.039 C 
ENDBRANCH  21  22
ENDBRANCH  12  21
ENDBRANCH   4   7
ENDBRANCH   2   3
ENDBRANCH   1   2
BRANCH   1  26
ATOM     26  C   UNL A   1      39.007  23.625  26.759  1.00  0.00     0.118 C 
BRANCH  26  27
ATOM     27  N   UNL A   1      40.286  23.900  26.115  1.00  0.00    -0.352 N 
ATOM     28  C   UNL A   1      41.152  24.954  26.260  1.00  0.00     0.251 C 
ATOM     29  H   UNL A   1      40.575  23.216  25.469  1.00  0.00     0.163 HD
ATOM     30  O   UNL A   1      42.051  25.103  25.436  1.00  0.00    -0.269 OA
BRANCH  28  31
ATOM     31  C   UNL A   1      41.016  25.900  27.388  1.00  0.00     0.039 A 
ATOM     32  C   UNL A   1      41.905  26.976  27.476  1.00  0.00     0.014 A 
ATOM     33  C   UNL A   1      40.062  25.701  28.387  1.00  0.00     0.014 A 
ATOM     34  C   UNL A   1      41.802  27.877  28.540  1.00  0.00     0.010 A 
ATOM     35  C   UNL A   1      39.908  26.642  29.401  1.00  0.00     0.010 A 
ATOM     36  C   UNL A   1      40.785  27.732  29.496  1.00  0.00    -0.014 A 
BRANCH  36  37
ATOM     37  C   UNL A   1      40.629  28.701  30.609  1.00  0.00     0.031 A 
ATOM     38  C   UNL A   1      41.515  28.609  31.821  1.00  0.00     0.074 A 
ATOM     39  C   UNL A   1      39.648  29.622  30.555  1.00  0.00     0.049 A 
ATOM     40  N   UNL A   1      41.499  29.329  32.915  1.00  0.00    -0.248 NA
ATOM     41  C   UNL A   1      42.535  27.548  31.817  1.00  0.00     0.031 C 
ATOM     42  C   UNL A   1      38.698  29.781  29.451  1.00  0.00     0.029 A 
ATOM     43  N   UNL A   1      39.286  30.597  31.448  1.00  0.00    -0.354 N 
ATOM     44  C   UNL A   1      42.489  28.796  33.734  1.00  0.00     0.074 A 
ATOM     45  C   UNL A   1      43.047  27.660  33.033  1.00  0.00     0.031 C 
ATOM     46  C   UNL A   1      37.889  30.818  29.715  1.00  0.00     0.029 A 
ATOM     47  C   UNL A   1      38.235  31.373  31.019  1.00  0.00     0.049 A 
ATOM     48  H   UNL A   1      39.735  30.729  32.314  1.00  0.00     0.167 HD
ATOM     49  C   UNL A   1      42.910  29.228  34.948  1.00  0.00     0.037 A 
ATOM     50  C   UNL A   1      37.625  32.418  31.610  1.00  0.00     0.037 A 
ATOM     51  C   UNL A   1      42.363  30.374  35.626  1.00  0.00     0.049 A 
ATOM     52  C   UNL A   1      38.106  32.881  32.957  1.00  0.00     0.074 A 
ATOM     53  C   UNL A   1      42.757  30.935  36.828  1.00  0.00     0.029 A 
ATOM     54  N   UNL A   1      41.299  31.134  35.161  1.00  0.00    -0.354 N 
ATOM     55  N   UNL A   1      39.082  32.404  33.693  1.00  0.00    -0.248 NA
ATOM     56  C   UNL A   1      37.403  34.024  33.554  1.00  0.00     0.031 C 
ATOM     57  C   UNL A   1      41.905  32.010  37.108  1.00  0.00     0.029 A 
ATOM     58  C   UNL A   1      41.008  32.147  36.061  1.00  0.00     0.049 A 
ATOM     59  H   UNL A   1      40.821  30.977  34.315  1.00  0.00     0.167 HD
ATOM     60  C   UNL A   1      39.130  33.206  34.826  1.00  0.00     0.074 A 
ATOM     61  C   UNL A   1      38.088  34.203  34.675  1.00  0.00     0.031 C 
ATOM     62  C   UNL A   1      39.964  33.128  35.895  1.00  0.00     0.037 A 
BRANCH  49  63
ATOM     63  C   UNL A   1      44.008  28.442  35.613  1.00  0.00     0.058 A 
ATOM     64  C   UNL A   1      45.364  28.696  35.345  1.00  0.00     0.135 A 
ATOM     65  C   UNL A   1      43.704  27.405  36.510  1.00  0.00     0.135 A 
ATOM     66  F   UNL A   1      45.713  29.667  34.486  1.00  0.00    -0.206 F 
ATOM     67  C   UNL A   1      46.374  27.914  35.897  1.00  0.00     0.059 A 
ATOM     68  C   UNL A   1      44.700  26.630  37.096  1.00  0.00     0.059 A 
ATOM     69  F   UNL A   1      42.426  27.122  36.807  1.00  0.00    -0.206 F 
ATOM     70  C   UNL A   1      46.031  26.875  36.762  1.00  0.00     0.060 A 
BRANCH  70  71
ATOM     71  S   UNL A   1      47.347  25.835  37.431  1.00  0.00     0.124 S 
ATOM     72  O   UNL A   1      46.623  25.065  38.437  1.00  0.00    -0.237 OA
ATOM     73  O   UNL A   1      47.786  25.087  36.257  1.00  0.00    -0.237 OA
ATOM     74  O   UNL A   1      48.310  26.801  37.952  1.00  0.00    -0.744 OA
ENDBRANCH  70  71
ENDBRANCH  49  63
BRANCH  50  75
ATOM     75  C   UNL A   1      36.533  33.131  30.897  1.00  0.00     0.058 A 
ATOM     76  C   UNL A   1      35.199  32.975  31.301  1.00  0.00     0.135 A 
ATOM     77  C   UNL A   1      36.799  34.014  29.840  1.00  0.00     0.135 A 
ATOM     78  F   UNL A   1      34.897  32.138  32.305  1.00  0.00    -0.206 F 
ATOM     79  C   UNL A   1      34.165  33.666  30.681  1.00  0.00     0.059 A 
ATOM     80  C   UNL A   1      35.783  34.734  29.217  1.00  0.00     0.059 A 
ATOM     81  F   UNL A   1      38.062  34.210  29.428  1.00  0.00    -0.206 F 
ATOM     82  C   UNL A   1      34.468  34.550  29.644  1.00  0.00     0.060 A 
BRANCH  82  83
ATOM     83  S   UNL A   1      33.125  35.500  28.900  1.00  0.00     0.124 S 
ATOM     84  O   UNL A   1      32.439  36.014  30.080  1.00  0.00    -0.237 OA
ATOM     85  O   UNL A   1      33.850  36.485  28.103  1.00  0.00    -0.237 OA
ATOM     86  O   UNL A   1      32.393  34.500  28.129  1.00  0.00    -0.744 OA
ENDBRANCH  82  83
ENDBRANCH  50  75
BRANCH  62  87
ATOM     87  C   UNL A   1      39.798  34.166  36.968  1.00  0.00     0.058 A 
ATOM     88  C   UNL A   1      40.363  35.445  36.850  1.00  0.00     0.135 A 
ATOM     89  C   UNL A   1      39.037  33.887  38.115  1.00  0.00     0.135 A 
ATOM     90  F   UNL A   1      41.107  35.759  35.777  1.00  0.00    -0.206 F 
ATOM     91  C   UNL A   1      40.203  36.405  37.844  1.00  0.00     0.059 A 
ATOM     92  C   UNL A   1      38.842  34.841  39.109  1.00  0.00     0.059 A 
ATOM     93  F   UNL A   1      38.466  32.683  38.271  1.00  0.00    -0.206 F 
ATOM     94  C   UNL A   1      39.441  36.092  38.972  1.00  0.00     0.060 A 
BRANCH  94  95
ATOM     95  S   UNL A   1      39.220  37.351  40.247  1.00  0.00     0.124 S 
ATOM     96  O   UNL A   1      38.431  38.351  39.535  1.00  0.00    -0.237 OA
ATOM     97  O   UNL A   1      38.517  36.617  41.295  1.00  0.00    -0.237 OA
ATOM     98  O   UNL A   1      40.586  37.745  40.574  1.00  0.00    -0.744 OA
ENDBRANCH  94  95
ENDBRANCH  62  87
ENDBRANCH  36  37
ENDBRANCH  28  31
ENDBRANCH  26  27
ENDBRANCH   1  26
TORSDOF 17
ENDMDL
MODEL 3
REMARK VINA RESULT:     -12.3      2.515      8.811
REMARK SMILES CCc1nc(N2CC[N@H+](CC=C(C)C)[C@H](C(=O)NCCCNC(=O)c3ccc(-c4c5nc(c(-c6c(F)cc(S(=O)(=O)[O-])cc6F)c6ccc([nH]6)c(-c6c(F)cc(S(=O)(=O)[O-])cc6F)c6nc(c(-c7c(F)cc(S(=O)(=O)[O-])cc7F)c7ccc4[nH]7)C=C6)C=C5)cc3)C2)no1
REMARK SMILES IDX 20 1 19 2 18 3 16 4 17 5 15 7 6 8 7 9 91 10 8 11 9 12 5 14
REMARK SMILES IDX 3 15 4 16 93 17 92 18 2 19 1 20 10 21 11 22 12 23 13 24
REMARK SMILES IDX 14 25 21 26 22 27 23 28 24 30 25 31 26 32 90 33 27 34 89 35
REMARK SMILES IDX 28 36 29 37 30 38 83 39 31 40 88 41 82 42 84 43 32 44 87 45
REMARK SMILES IDX 81 46 80 47 33 49 67 50 46 51 66 52 47 53 50 54 65 55 85 56
REMARK SMILES IDX 48 57 49 58 64 60 86 61 51 62 34 63 35 64 44 65 36 66 37 67
REMARK SMILES IDX 43 68 45 69 38 70 39 71 40 72 41 73 42 74 68 75 69 76 78 77
REMARK SMILES IDX 70 78 71 79 77 80 79 81 72 82 73 83 74 84 75 85 76 86 52 87
REMARK SMILES IDX 53 88 62 89 54 90 55 91 61 92 63 93 56 94 57 95 58 96 59 97
REMARK SMILES IDX 60 98
REMARK H PARENT 18 6 9 13 22 29 84 48 50 59
REMARK Flexibility Score: inf
ROOT
ATOM      1  C   UNL A   1      37.939  19.855  25.001  1.00  0.00     0.042 C 
ENDROOT
BRANCH   1   2
ATOM      2  C   UNL A   1      36.840  20.883  24.758  1.00  0.00     0.118 C 
BRANCH   2   3
ATOM      3  N   UNL A   1      36.001  21.088  25.928  1.00  0.00    -0.351 N 
ATOM      4  C   UNL A   1      34.764  21.599  26.160  1.00  0.00     0.280 C 
ATOM      5  O   UNL A   1      34.385  21.463  27.334  1.00  0.00    -0.268 OA
ATOM      6  H   UNL A   1      36.436  20.782  26.755  1.00  0.00     0.163 HD
BRANCH   4   7
ATOM      7  C   UNL A   1      33.828  22.268  25.110  1.00  0.00     0.294 C 
ATOM      8  N   UNL A   1      31.915  23.825  24.588  1.00  0.00    -0.326 N 
ATOM      9  C   UNL A   1      31.368  22.888  23.617  1.00  0.00     0.181 C 
ATOM     10  C   UNL A   1      32.804  23.286  25.623  1.00  0.00     0.195 C 
ATOM     11  C   UNL A   1      32.465  21.923  23.113  1.00  0.00     0.284 C 
ATOM     12  N   UNL A   1      33.284  21.262  24.144  1.00  0.00    -0.318 N 
ATOM     13  H   UNL A   1      34.115  20.866  23.704  1.00  0.00     0.349 HD
BRANCH   8  14
ATOM     14  C   UNL A   1      31.353  25.042  24.768  1.00  0.00     0.266 A 
ATOM     15  C   UNL A   1      31.246  26.992  25.527  1.00  0.00     0.227 A 
ATOM     16  N   UNL A   1      31.918  25.881  25.693  1.00  0.00    -0.176 NA
ATOM     17  O   UNL A   1      30.244  26.881  24.614  1.00  0.00    -0.337 OA
ATOM     18  N   UNL A   1      30.326  25.586  24.102  1.00  0.00    -0.038 NA
BRANCH  15  19
ATOM     19  C   UNL A   1      31.498  28.327  26.113  1.00  0.00     0.097 C 
ATOM     20  C   UNL A   1      31.711  28.226  27.618  1.00  0.00     0.014 C 
ENDBRANCH  15  19
ENDBRANCH   8  14
BRANCH  12  21
ATOM     21  C   UNL A   1      32.691  20.043  24.691  1.00  0.00     0.291 C 
BRANCH  21  22
ATOM     22  C   UNL A   1      33.443  18.766  24.448  1.00  0.00     0.032 C 
ATOM     23  C   UNL A   1      33.286  17.923  23.408  1.00  0.00    -0.075 C 
ATOM     24  C   UNL A   1      34.075  16.645  23.325  1.00  0.00     0.039 C 
ATOM     25  C   UNL A   1      32.302  18.151  22.294  1.00  0.00     0.039 C 
ENDBRANCH  21  22
ENDBRANCH  12  21
ENDBRANCH   4   7
ENDBRANCH   2   3
ENDBRANCH   1   2
BRANCH   1  26
ATOM     26  C   UNL A   1      39.137  20.420  25.760  1.00  0.00     0.118 C 
BRANCH  26  27
ATOM     27  N   UNL A   1      40.174  19.417  25.974  1.00  0.00    -0.352 N 
ATOM     28  C   UNL A   1      41.530  19.551  26.133  1.00  0.00     0.251 C 
ATOM     29  H   UNL A   1      39.845  18.489  26.009  1.00  0.00     0.163 HD
ATOM     30  O   UNL A   1      42.240  18.552  26.053  1.00  0.00    -0.269 OA
BRANCH  28  31
ATOM     31  C   UNL A   1      42.136  20.873  26.401  1.00  0.00     0.039 A 
ATOM     32  C   UNL A   1      42.458  21.698  25.319  1.00  0.00     0.014 A 
ATOM     33  C   UNL A   1      42.442  21.278  27.701  1.00  0.00     0.014 A 
ATOM     34  C   UNL A   1      43.041  22.947  25.547  1.00  0.00     0.010 A 
ATOM     35  C   UNL A   1      42.948  22.554  27.933  1.00  0.00     0.010 A 
ATOM     36  C   UNL A   1      43.266  23.396  26.858  1.00  0.00    -0.014 A 
BRANCH  36  37
ATOM     37  C   UNL A   1      43.844  24.736  27.126  1.00  0.00     0.031 A 
ATOM     38  C   UNL A   1      42.970  25.847  27.643  1.00  0.00     0.074 A 
ATOM     39  C   UNL A   1      45.140  24.969  26.843  1.00  0.00     0.049 A 
ATOM     40  N   UNL A   1      43.278  27.095  27.889  1.00  0.00    -0.248 NA
ATOM     41  C   UNL A   1      41.557  25.518  27.889  1.00  0.00     0.031 C 
ATOM     42  C   UNL A   1      46.076  23.983  26.298  1.00  0.00     0.029 A 
ATOM     43  N   UNL A   1      45.894  26.107  26.974  1.00  0.00    -0.354 N 
ATOM     44  C   UNL A   1      42.096  27.704  28.297  1.00  0.00     0.074 A 
ATOM     45  C   UNL A   1      41.057  26.701  28.212  1.00  0.00     0.031 C 
ATOM     46  C   UNL A   1      47.287  24.548  26.178  1.00  0.00     0.029 A 
ATOM     47  C   UNL A   1      47.207  25.942  26.602  1.00  0.00     0.049 A 
ATOM     48  H   UNL A   1      45.530  26.960  27.303  1.00  0.00     0.167 HD
ATOM     49  C   UNL A   1      41.898  28.974  28.725  1.00  0.00     0.037 A 
ATOM     50  C   UNL A   1      48.231  26.816  26.607  1.00  0.00     0.037 A 
ATOM     51  C   UNL A   1      42.944  29.958  28.828  1.00  0.00     0.049 A 
ATOM     52  C   UNL A   1      47.991  28.222  27.084  1.00  0.00     0.074 A 
ATOM     53  C   UNL A   1      42.866  31.254  29.308  1.00  0.00     0.029 A 
ATOM     54  N   UNL A   1      44.261  29.755  28.440  1.00  0.00    -0.354 N 
ATOM     55  N   UNL A   1      46.880  28.766  27.523  1.00  0.00    -0.248 NA
ATOM     56  C   UNL A   1      49.144  29.131  27.068  1.00  0.00     0.031 C 
ATOM     57  C   UNL A   1      44.128  31.846  29.173  1.00  0.00     0.029 A 
ATOM     58  C   UNL A   1      45.002  30.907  28.650  1.00  0.00     0.049 A 
ATOM     59  H   UNL A   1      44.617  28.915  28.071  1.00  0.00     0.167 HD
ATOM     60  C   UNL A   1      47.206  30.073  27.861  1.00  0.00     0.074 A 
ATOM     61  C   UNL A   1      48.620  30.235  27.583  1.00  0.00     0.031 C 
ATOM     62  C   UNL A   1      46.409  31.051  28.362  1.00  0.00     0.037 A 
BRANCH  49  63
ATOM     63  C   UNL A   1      40.492  29.362  29.100  1.00  0.00     0.058 A 
ATOM     64  C   UNL A   1      39.509  29.609  28.127  1.00  0.00     0.135 A 
ATOM     65  C   UNL A   1      40.128  29.512  30.448  1.00  0.00     0.135 A 
ATOM     66  F   UNL A   1      39.805  29.492  26.822  1.00  0.00    -0.206 F 
ATOM     67  C   UNL A   1      38.236  30.047  28.474  1.00  0.00     0.059 A 
ATOM     68  C   UNL A   1      38.850  29.921  30.819  1.00  0.00     0.059 A 
ATOM     69  F   UNL A   1      41.025  29.284  31.420  1.00  0.00    -0.206 F 
ATOM     70  C   UNL A   1      37.919  30.212  29.822  1.00  0.00     0.060 A 
BRANCH  70  71
ATOM     71  S   UNL A   1      36.279  30.830  30.258  1.00  0.00     0.124 S 
ATOM     72  O   UNL A   1      35.926  29.952  31.370  1.00  0.00    -0.237 OA
ATOM     73  O   UNL A   1      36.549  32.220  30.610  1.00  0.00    -0.237 OA
ATOM     74  O   UNL A   1      35.508  30.635  29.034  1.00  0.00    -0.744 OA
ENDBRANCH  70  71
ENDBRANCH  49  63
BRANCH  50  75
ATOM     75  C   UNL A   1      49.588  26.363  26.203  1.00  0.00     0.058 A 
ATOM     76  C   UNL A   1      50.083  26.654  24.924  1.00  0.00     0.135 A 
ATOM     77  C   UNL A   1      50.430  25.679  27.093  1.00  0.00     0.135 A 
ATOM     78  F   UNL A   1      49.311  27.302  24.038  1.00  0.00    -0.206 F 
ATOM     79  C   UNL A   1      51.365  26.282  24.538  1.00  0.00     0.059 A 
ATOM     80  C   UNL A   1      51.725  25.314  26.736  1.00  0.00     0.059 A 
ATOM     81  F   UNL A   1      50.007  25.392  28.334  1.00  0.00    -0.206 F 
ATOM     82  C   UNL A   1      52.183  25.618  25.454  1.00  0.00     0.060 A 
BRANCH  82  83
ATOM     83  S   UNL A   1      53.872  25.210  24.966  1.00  0.00     0.124 S 
ATOM     84  O   UNL A   1      53.823  23.753  24.923  1.00  0.00    -0.237 OA
ATOM     85  O   UNL A   1      53.990  25.885  23.677  1.00  0.00    -0.237 OA
ATOM     86  O   UNL A   1      54.679  25.783  26.040  1.00  0.00    -0.744 OA
ENDBRANCH  82  83
ENDBRANCH  50  75
BRANCH  62  87
ATOM     87  C   UNL A   1      47.056  32.372  28.666  1.00  0.00     0.058 A 
ATOM     88  C   UNL A   1      47.608  32.650  29.926  1.00  0.00     0.135 A 
ATOM     89  C   UNL A   1      47.153  33.361  27.673  1.00  0.00     0.135 A 
ATOM     90  F   UNL A   1      47.534  31.742  30.912  1.00  0.00    -0.206 F 
ATOM     91  C   UNL A   1      48.211  33.873  30.201  1.00  0.00     0.059 A 
ATOM     92  C   UNL A   1      47.776  34.581  27.919  1.00  0.00     0.059 A 
ATOM     93  F   UNL A   1      46.651  33.140  26.449  1.00  0.00    -0.206 F 
ATOM     94  C   UNL A   1      48.288  34.834  29.190  1.00  0.00     0.060 A 
BRANCH  94  95
ATOM     95  S   UNL A   1      49.092  36.410  29.549  1.00  0.00     0.124 S 
ATOM     96  O   UNL A   1      50.244  36.360  28.656  1.00  0.00    -0.237 OA
ATOM     97  O   UNL A   1      48.058  37.377  29.198  1.00  0.00    -0.237 OA
ATOM     98  O   UNL A   1      49.397  36.317  30.974  1.00  0.00    -0.744 OA
ENDBRANCH  94  95
ENDBRANCH  62  87
ENDBRANCH  36  37
ENDBRANCH  28  31
ENDBRANCH  26  27
ENDBRANCH   1  26
TORSDOF 17
ENDMDL
