MODEL 1
REMARK VINA RESULT:     -12.5      0.000      0.000
REMARK SMILES C[C@H]1[C@H](C(=O)NCCCNC(=O)c2ccc(-c3c4nc(c(-c5c(F)cc(S(=O)(=O)[O-])cc5F)c5ccc([nH]5)c(-c5c(F)cc(S(=O)(=O)[O-])cc5F)c5nc(c(-c6c(F)cc(S(=O)(=O)[O-])cc6F)c6ccc3[nH]6)C=C5)C=C4)cc2)CCN1c1ccc(C(N)=O)c(Cl)c1
REMARK SMILES IDX 8 1 7 2 6 3 4 4 5 5 3 7 1 8 2 9 81 10 79 11 80 12 82 13
REMARK SMILES IDX 83 14 91 15 84 16 89 17 85 18 90 19 86 20 87 21 88 22 9 25
REMARK SMILES IDX 10 26 11 27 12 29 13 30 14 31 78 32 15 33 77 34 16 35 17 36
REMARK SMILES IDX 18 37 71 38 19 39 76 40 70 41 72 42 20 43 75 44 69 45 68 46
REMARK SMILES IDX 21 48 55 49 34 50 54 51 35 52 38 53 53 54 73 55 36 56 37 57
REMARK SMILES IDX 52 59 74 60 39 61 22 62 23 63 32 64 24 65 25 66 31 67 33 68
REMARK SMILES IDX 26 69 27 70 28 71 29 72 30 73 56 74 57 75 66 76 58 77 59 78
REMARK SMILES IDX 65 79 67 80 60 81 61 82 62 83 63 84 64 85 40 86 41 87 50 88
REMARK SMILES IDX 42 89 43 90 49 91 51 92 44 93 45 94 46 95 47 96 48 97
REMARK H PARENT 6 6 87 23 87 24 10 28 72 47 38 58
REMARK Flexibility Score: inf
ROOT
ATOM      1  C   UNL A   1      37.492  23.651  25.345  1.00  0.00     0.042 C 
ENDROOT
BRANCH   1   2
ATOM      2  C   UNL A   1      36.008  23.846  25.622  1.00  0.00     0.117 C 
BRANCH   2   3
ATOM      3  N   UNL A   1      35.511  22.930  26.638  1.00  0.00    -0.356 N 
ATOM      4  C   UNL A   1      34.417  22.123  26.660  1.00  0.00     0.225 C 
ATOM      5  O   UNL A   1      34.228  21.453  27.680  1.00  0.00    -0.275 OA
ATOM      6  H   UNL A   1      36.063  22.888  27.452  1.00  0.00     0.163 HD
BRANCH   4   7
ATOM      7  C   UNL A   1      33.453  22.009  25.492  1.00  0.00     0.102 C 
ATOM      8  C   UNL A   1      31.016  22.627  25.748  1.00  0.00     0.032 C 
ATOM      9  C   UNL A   1      32.425  23.150  25.461  1.00  0.00     0.091 C 
ATOM     10  N   UNL A   1      32.493  23.668  24.092  1.00  0.00    -0.368 N 
ATOM     11  C   UNL A   1      34.144  21.985  24.128  1.00  0.00     0.037 C 
ATOM     12  C   UNL A   1      33.251  22.801  23.202  1.00  0.00     0.118 C 
BRANCH  10  13
ATOM     13  C   UNL A   1      31.991  24.875  23.673  1.00  0.00     0.038 A 
ATOM     14  C   UNL A   1      31.640  25.095  22.339  1.00  0.00     0.027 A 
ATOM     15  C   UNL A   1      31.847  25.958  24.544  1.00  0.00     0.047 A 
ATOM     16  C   UNL A   1      31.193  26.347  21.890  1.00  0.00     0.017 A 
ATOM     17  C   UNL A   1      31.438  27.231  24.110  1.00  0.00     0.055 A 
ATOM     18  C   UNL A   1      31.102  27.441  22.766  1.00  0.00     0.058 A 
ATOM     19  Cl  UNL A   1      31.403  28.454  25.334  1.00  0.00    -0.083 Cl
BRANCH  18  20
ATOM     20  C   UNL A   1      30.712  28.784  22.242  1.00  0.00     0.250 C 
ATOM     21  N   UNL A   1      31.698  29.703  22.001  1.00  0.00    -0.366 N 
ATOM     22  O   UNL A   1      29.548  29.113  22.047  1.00  0.00    -0.269 OA
ATOM     23  H   UNL A   1      32.641  29.464  22.151  1.00  0.00     0.159 HD
ATOM     24  H   UNL A   1      31.465  30.603  21.678  1.00  0.00     0.159 HD
ENDBRANCH  18  20
ENDBRANCH  10  13
ENDBRANCH   4   7
ENDBRANCH   2   3
ENDBRANCH   1   2
BRANCH   1  25
ATOM     25  C   UNL A   1      38.402  24.054  26.494  1.00  0.00     0.118 C 
BRANCH  25  26
ATOM     26  N   UNL A   1      39.810  24.001  26.134  1.00  0.00    -0.352 N 
ATOM     27  C   UNL A   1      40.843  24.842  26.467  1.00  0.00     0.251 C 
ATOM     28  H   UNL A   1      40.062  23.241  25.562  1.00  0.00     0.163 HD
ATOM     29  O   UNL A   1      41.913  24.734  25.872  1.00  0.00    -0.269 OA
BRANCH  27  30
ATOM     30  C   UNL A   1      40.676  25.876  27.514  1.00  0.00     0.039 A 
ATOM     31  C   UNL A   1      39.679  25.704  28.477  1.00  0.00     0.014 A 
ATOM     32  C   UNL A   1      41.470  27.026  27.537  1.00  0.00     0.014 A 
ATOM     33  C   UNL A   1      39.519  26.653  29.489  1.00  0.00     0.010 A 
ATOM     34  C   UNL A   1      41.378  27.918  28.602  1.00  0.00     0.010 A 
ATOM     35  C   UNL A   1      40.392  27.750  29.584  1.00  0.00    -0.014 A 
BRANCH  35  36
ATOM     36  C   UNL A   1      40.281  28.726  30.701  1.00  0.00     0.031 A 
ATOM     37  C   UNL A   1      41.139  28.581  31.929  1.00  0.00     0.074 A 
ATOM     38  C   UNL A   1      39.371  29.717  30.625  1.00  0.00     0.049 A 
ATOM     39  N   UNL A   1      41.161  29.315  33.014  1.00  0.00    -0.248 NA
ATOM     40  C   UNL A   1      42.078  27.448  31.958  1.00  0.00     0.031 C 
ATOM     41  C   UNL A   1      38.438  29.925  29.515  1.00  0.00     0.029 A 
ATOM     42  N   UNL A   1      39.076  30.734  31.498  1.00  0.00    -0.354 N 
ATOM     43  C   UNL A   1      42.106  28.730  33.850  1.00  0.00     0.074 A 
ATOM     44  C   UNL A   1      42.587  27.544  33.178  1.00  0.00     0.031 C 
ATOM     45  C   UNL A   1      37.697  31.017  29.760  1.00  0.00     0.029 A 
ATOM     46  C   UNL A   1      38.070  31.564  31.060  1.00  0.00     0.049 A 
ATOM     47  H   UNL A   1      39.540  30.858  32.358  1.00  0.00     0.167 HD
ATOM     48  C   UNL A   1      42.555  29.159  35.055  1.00  0.00     0.037 A 
ATOM     49  C   UNL A   1      37.505  32.639  31.643  1.00  0.00     0.037 A 
ATOM     50  C   UNL A   1      42.079  30.350  35.712  1.00  0.00     0.049 A 
ATOM     51  C   UNL A   1      38.017  33.096  32.982  1.00  0.00     0.074 A 
ATOM     52  C   UNL A   1      42.500  30.898  36.911  1.00  0.00     0.029 A 
ATOM     53  N   UNL A   1      41.072  31.174  35.229  1.00  0.00    -0.354 N 
ATOM     54  N   UNL A   1      38.961  32.571  33.728  1.00  0.00    -0.248 NA
ATOM     55  C   UNL A   1      37.398  34.299  33.554  1.00  0.00     0.031 C 
ATOM     56  C   UNL A   1      41.713  32.024  37.178  1.00  0.00     0.029 A 
ATOM     57  C   UNL A   1      40.842  32.213  36.117  1.00  0.00     0.049 A 
ATOM     58  H   UNL A   1      40.592  31.041  34.380  1.00  0.00     0.167 HD
ATOM     59  C   UNL A   1      39.062  33.389  34.848  1.00  0.00     0.074 A 
ATOM     60  C   UNL A   1      38.099  34.458  34.668  1.00  0.00     0.031 C 
ATOM     61  C   UNL A   1      39.876  33.269  35.926  1.00  0.00     0.037 A 
BRANCH  48  62
ATOM     62  C   UNL A   1      43.618  28.337  35.736  1.00  0.00     0.058 A 
ATOM     63  C   UNL A   1      43.292  27.317  36.646  1.00  0.00     0.135 A 
ATOM     64  C   UNL A   1      44.978  28.548  35.455  1.00  0.00     0.135 A 
ATOM     65  F   UNL A   1      42.010  27.079  36.965  1.00  0.00    -0.206 F 
ATOM     66  C   UNL A   1      44.275  26.561  37.278  1.00  0.00     0.059 A 
ATOM     67  C   UNL A   1      45.976  27.782  36.051  1.00  0.00     0.059 A 
ATOM     68  F   UNL A   1      45.349  29.507  34.593  1.00  0.00    -0.206 F 
ATOM     69  C   UNL A   1      45.615  26.801  36.974  1.00  0.00     0.060 A 
BRANCH  69  70
ATOM     70  S   UNL A   1      46.876  25.811  37.802  1.00  0.00     0.124 S 
ATOM     71  O   UNL A   1      48.034  26.030  36.940  1.00  0.00    -0.237 OA
ATOM     72  O   UNL A   1      46.944  26.432  39.122  1.00  0.00    -0.237 OA
ATOM     73  O   UNL A   1      46.322  24.461  37.776  1.00  0.00    -0.744 OA
ENDBRANCH  69  70
ENDBRANCH  48  62
BRANCH  49  74
ATOM     74  C   UNL A   1      36.404  33.364  30.951  1.00  0.00     0.058 A 
ATOM     75  C   UNL A   1      35.083  33.299  31.421  1.00  0.00     0.135 A 
ATOM     76  C   UNL A   1      36.654  34.155  29.819  1.00  0.00     0.135 A 
ATOM     77  F   UNL A   1      34.790  32.553  32.495  1.00  0.00    -0.206 F 
ATOM     78  C   UNL A   1      34.047  33.974  30.780  1.00  0.00     0.059 A 
ATOM     79  C   UNL A   1      35.641  34.864  29.180  1.00  0.00     0.059 A 
ATOM     80  F   UNL A   1      37.902  34.263  29.336  1.00  0.00    -0.206 F 
ATOM     81  C   UNL A   1      34.338  34.757  29.661  1.00  0.00     0.060 A 
BRANCH  81  82
ATOM     82  S   UNL A   1      32.988  35.650  28.859  1.00  0.00     0.124 S 
ATOM     83  O   UNL A   1      33.709  36.715  28.171  1.00  0.00    -0.237 OA
ATOM     84  O   UNL A   1      32.404  34.621  28.003  1.00  0.00    -0.237 OA
ATOM     85  O   UNL A   1      32.153  36.077  29.977  1.00  0.00    -0.744 OA
ENDBRANCH  81  82
ENDBRANCH  49  74
BRANCH  61  86
ATOM     86  C   UNL A   1      39.780  34.335  36.985  1.00  0.00     0.058 A 
ATOM     87  C   UNL A   1      40.491  35.543  36.889  1.00  0.00     0.135 A 
ATOM     88  C   UNL A   1      38.939  34.159  38.097  1.00  0.00     0.135 A 
ATOM     89  F   UNL A   1      41.310  35.764  35.849  1.00  0.00    -0.206 F 
ATOM     90  C   UNL A   1      40.402  36.519  37.875  1.00  0.00     0.059 A 
ATOM     91  C   UNL A   1      38.810  35.136  39.079  1.00  0.00     0.059 A 
ATOM     92  F   UNL A   1      38.225  33.030  38.234  1.00  0.00    -0.206 F 
ATOM     93  C   UNL A   1      39.560  36.307  38.968  1.00  0.00     0.060 A 
BRANCH  93  94
ATOM     94  S   UNL A   1      39.446  37.587  40.235  1.00  0.00     0.124 S 
ATOM     95  O   UNL A   1      40.836  38.017  40.345  1.00  0.00    -0.237 OA
ATOM     96  O   UNL A   1      38.532  38.548  39.627  1.00  0.00    -0.237 OA
ATOM     97  O   UNL A   1      38.916  36.874  41.393  1.00  0.00    -0.744 OA
ENDBRANCH  93  94
ENDBRANCH  61  86
ENDBRANCH  35  36
ENDBRANCH  27  30
ENDBRANCH  25  26
ENDBRANCH   1  25
TORSDOF 15
ENDMDL
MODEL 2
REMARK VINA RESULT:     -12.4      1.174      1.734
REMARK SMILES C[C@H]1[C@H](C(=O)NCCCNC(=O)c2ccc(-c3c4nc(c(-c5c(F)cc(S(=O)(=O)[O-])cc5F)c5ccc([nH]5)c(-c5c(F)cc(S(=O)(=O)[O-])cc5F)c5nc(c(-c6c(F)cc(S(=O)(=O)[O-])cc6F)c6ccc3[nH]6)C=C5)C=C4)cc2)CCN1c1ccc(C(N)=O)c(Cl)c1
REMARK SMILES IDX 8 1 7 2 6 3 4 4 5 5 3 7 1 8 2 9 81 10 79 11 80 12 82 13
REMARK SMILES IDX 83 14 91 15 84 16 89 17 85 18 90 19 86 20 87 21 88 22 9 25
REMARK SMILES IDX 10 26 11 27 12 29 13 30 14 31 78 32 15 33 77 34 16 35 17 36
REMARK SMILES IDX 18 37 71 38 19 39 76 40 70 41 72 42 20 43 75 44 69 45 68 46
REMARK SMILES IDX 21 48 55 49 34 50 54 51 35 52 38 53 53 54 73 55 36 56 37 57
REMARK SMILES IDX 52 59 74 60 39 61 22 62 23 63 32 64 24 65 25 66 31 67 33 68
REMARK SMILES IDX 26 69 27 70 28 71 29 72 30 73 56 74 57 75 66 76 58 77 59 78
REMARK SMILES IDX 65 79 67 80 60 81 61 82 62 83 63 84 64 85 40 86 41 87 50 88
REMARK SMILES IDX 42 89 43 90 49 91 51 92 44 93 45 94 46 95 47 96 48 97
REMARK H PARENT 6 6 87 23 87 24 10 28 72 47 38 58
REMARK Flexibility Score: inf
ROOT
ATOM      1  C   UNL A   1      38.969  22.275  26.119  1.00  0.00     0.042 C 
ENDROOT
BRANCH   1   2
ATOM      2  C   UNL A   1      37.556  22.724  25.772  1.00  0.00     0.117 C 
BRANCH   2   3
ATOM      3  N   UNL A   1      37.343  22.815  24.335  1.00  0.00    -0.356 N 
ATOM      4  C   UNL A   1      36.202  22.912  23.602  1.00  0.00     0.225 C 
ATOM      5  O   UNL A   1      36.320  22.958  22.373  1.00  0.00    -0.275 OA
ATOM      6  H   UNL A   1      38.169  22.804  23.800  1.00  0.00     0.163 HD
BRANCH   4   7
ATOM      7  C   UNL A   1      34.821  22.982  24.231  1.00  0.00     0.102 C 
ATOM      8  C   UNL A   1      34.209  24.846  25.824  1.00  0.00     0.032 C 
ATOM      9  C   UNL A   1      34.302  24.422  24.357  1.00  0.00     0.091 C 
ATOM     10  N   UNL A   1      32.962  24.382  23.765  1.00  0.00    -0.368 N 
ATOM     11  C   UNL A   1      33.761  22.183  23.472  1.00  0.00     0.037 C 
ATOM     12  C   UNL A   1      32.493  23.024  23.535  1.00  0.00     0.118 C 
BRANCH  10  13
ATOM     13  C   UNL A   1      32.234  25.477  23.372  1.00  0.00     0.038 A 
ATOM     14  C   UNL A   1      32.831  26.545  22.698  1.00  0.00     0.027 A 
ATOM     15  C   UNL A   1      30.873  25.603  23.661  1.00  0.00     0.047 A 
ATOM     16  C   UNL A   1      32.109  27.697  22.354  1.00  0.00     0.017 A 
ATOM     17  C   UNL A   1      30.139  26.764  23.361  1.00  0.00     0.055 A 
ATOM     18  C   UNL A   1      30.754  27.833  22.697  1.00  0.00     0.058 A 
ATOM     19  Cl  UNL A   1      28.487  26.748  23.879  1.00  0.00    -0.083 Cl
BRANCH  18  20
ATOM     20  C   UNL A   1      30.035  29.108  22.402  1.00  0.00     0.250 C 
ATOM     21  N   UNL A   1      30.660  30.048  21.627  1.00  0.00    -0.366 N 
ATOM     22  O   UNL A   1      28.922  29.365  22.846  1.00  0.00    -0.269 OA
ATOM     23  H   UNL A   1      31.555  29.866  21.260  1.00  0.00     0.159 HD
ATOM     24  H   UNL A   1      30.216  30.906  21.438  1.00  0.00     0.159 HD
ENDBRANCH  18  20
ENDBRANCH  10  13
ENDBRANCH   4   7
ENDBRANCH   2   3
ENDBRANCH   1   2
BRANCH   1  25
ATOM     25  C   UNL A   1      39.780  23.302  26.891  1.00  0.00     0.118 C 
BRANCH  25  26
ATOM     26  N   UNL A   1      41.017  23.657  26.214  1.00  0.00    -0.352 N 
ATOM     27  C   UNL A   1      41.780  24.795  26.299  1.00  0.00     0.251 C 
ATOM     28  H   UNL A   1      41.362  22.972  25.597  1.00  0.00     0.163 HD
ATOM     29  O   UNL A   1      42.671  24.977  25.472  1.00  0.00    -0.269 OA
BRANCH  27  30
ATOM     30  C   UNL A   1      41.533  25.800  27.358  1.00  0.00     0.039 A 
ATOM     31  C   UNL A   1      40.465  25.603  28.238  1.00  0.00     0.014 A 
ATOM     32  C   UNL A   1      42.320  26.950  27.472  1.00  0.00     0.014 A 
ATOM     33  C   UNL A   1      40.228  26.525  29.260  1.00  0.00     0.010 A 
ATOM     34  C   UNL A   1      42.146  27.812  28.551  1.00  0.00     0.010 A 
ATOM     35  C   UNL A   1      41.089  27.618  29.450  1.00  0.00    -0.014 A 
BRANCH  35  36
ATOM     36  C   UNL A   1      40.892  28.564  30.581  1.00  0.00     0.031 A 
ATOM     37  C   UNL A   1      41.724  28.444  31.830  1.00  0.00     0.074 A 
ATOM     38  C   UNL A   1      39.929  29.504  30.498  1.00  0.00     0.049 A 
ATOM     39  N   UNL A   1      41.674  29.155  32.928  1.00  0.00    -0.248 NA
ATOM     40  C   UNL A   1      42.725  27.365  31.865  1.00  0.00     0.031 C 
ATOM     41  C   UNL A   1      39.016  29.680  29.366  1.00  0.00     0.029 A 
ATOM     42  N   UNL A   1      39.553  30.484  31.381  1.00  0.00    -0.354 N 
ATOM     43  C   UNL A   1      42.628  28.609  33.780  1.00  0.00     0.074 A 
ATOM     44  C   UNL A   1      43.194  27.465  33.100  1.00  0.00     0.031 C 
ATOM     45  C   UNL A   1      38.207  30.723  29.610  1.00  0.00     0.029 A 
ATOM     46  C   UNL A   1      38.513  31.264  30.930  1.00  0.00     0.049 A 
ATOM     47  H   UNL A   1      39.986  30.617  32.256  1.00  0.00     0.167 HD
ATOM     48  C   UNL A   1      43.018  29.038  35.005  1.00  0.00     0.037 A 
ATOM     49  C   UNL A   1      37.872  32.293  31.516  1.00  0.00     0.037 A 
ATOM     50  C   UNL A   1      42.457  30.186  35.670  1.00  0.00     0.049 A 
ATOM     51  C   UNL A   1      38.321  32.752  32.877  1.00  0.00     0.074 A 
ATOM     52  C   UNL A   1      42.813  30.733  36.891  1.00  0.00     0.029 A 
ATOM     53  N   UNL A   1      41.419  30.962  35.174  1.00  0.00    -0.354 N 
ATOM     54  N   UNL A   1      39.272  32.266  33.640  1.00  0.00    -0.248 NA
ATOM     55  C   UNL A   1      37.619  33.906  33.454  1.00  0.00     0.031 C 
ATOM     56  C   UNL A   1      41.956  31.807  37.155  1.00  0.00     0.029 A 
ATOM     57  C   UNL A   1      41.106  31.968  36.074  1.00  0.00     0.049 A 
ATOM     58  H   UNL A   1      40.970  30.818  34.310  1.00  0.00     0.167 HD
ATOM     59  C   UNL A   1      39.297  33.067  34.777  1.00  0.00     0.074 A 
ATOM     60  C   UNL A   1      38.279  34.082  34.590  1.00  0.00     0.031 C 
ATOM     61  C   UNL A   1      40.086  32.971  35.876  1.00  0.00     0.037 A 
BRANCH  48  62
ATOM     62  C   UNL A   1      44.108  28.264  35.701  1.00  0.00     0.058 A 
ATOM     63  C   UNL A   1      45.467  28.559  35.499  1.00  0.00     0.135 A 
ATOM     64  C   UNL A   1      43.793  27.237  36.605  1.00  0.00     0.135 A 
ATOM     65  F   UNL A   1      45.830  29.522  34.636  1.00  0.00    -0.206 F 
ATOM     66  C   UNL A   1      46.473  27.841  36.139  1.00  0.00     0.059 A 
ATOM     67  C   UNL A   1      44.782  26.527  37.281  1.00  0.00     0.059 A 
ATOM     68  F   UNL A   1      42.512  26.911  36.840  1.00  0.00    -0.206 F 
ATOM     69  C   UNL A   1      46.120  26.826  37.029  1.00  0.00     0.060 A 
BRANCH  69  70
ATOM     70  S   UNL A   1      47.438  25.906  37.851  1.00  0.00     0.124 S 
ATOM     71  O   UNL A   1      46.751  24.669  38.208  1.00  0.00    -0.237 OA
ATOM     72  O   UNL A   1      48.442  25.791  36.797  1.00  0.00    -0.237 OA
ATOM     73  O   UNL A   1      47.806  26.765  38.972  1.00  0.00    -0.744 OA
ENDBRANCH  69  70
ENDBRANCH  48  62
BRANCH  49  74
ATOM     74  C   UNL A   1      36.750  32.969  30.807  1.00  0.00     0.058 A 
ATOM     75  C   UNL A   1      35.414  32.694  31.133  1.00  0.00     0.135 A 
ATOM     76  C   UNL A   1      36.994  33.920  29.804  1.00  0.00     0.135 A 
ATOM     77  F   UNL A   1      35.128  31.789  32.080  1.00  0.00    -0.206 F 
ATOM     78  C   UNL A   1      34.359  33.320  30.476  1.00  0.00     0.059 A 
ATOM     79  C   UNL A   1      35.956  34.583  29.154  1.00  0.00     0.059 A 
ATOM     80  F   UNL A   1      38.254  34.231  29.462  1.00  0.00    -0.206 F 
ATOM     81  C   UNL A   1      34.641  34.266  29.488  1.00  0.00     0.060 A 
BRANCH  81  82
ATOM     82  S   UNL A   1      33.262  35.093  28.665  1.00  0.00     0.124 S 
ATOM     83  O   UNL A   1      32.565  35.697  29.794  1.00  0.00    -0.237 OA
ATOM     84  O   UNL A   1      33.949  36.020  27.771  1.00  0.00    -0.237 OA
ATOM     85  O   UNL A   1      32.557  33.999  28.004  1.00  0.00    -0.744 OA
ENDBRANCH  81  82
ENDBRANCH  49  74
BRANCH  61  86
ATOM     86  C   UNL A   1      39.900  34.009  36.951  1.00  0.00     0.058 A 
ATOM     87  C   UNL A   1      40.599  35.227  36.935  1.00  0.00     0.135 A 
ATOM     88  C   UNL A   1      38.986  33.794  37.996  1.00  0.00     0.135 A 
ATOM     89  F   UNL A   1      41.486  35.485  35.961  1.00  0.00    -0.206 F 
ATOM     90  C   UNL A   1      40.426  36.177  37.936  1.00  0.00     0.059 A 
ATOM     91  C   UNL A   1      38.774  34.744  38.990  1.00  0.00     0.059 A 
ATOM     92  F   UNL A   1      38.280  32.653  38.055  1.00  0.00    -0.206 F 
ATOM     93  C   UNL A   1      39.513  35.927  38.961  1.00  0.00     0.060 A 
BRANCH  93  94
ATOM     94  S   UNL A   1      39.292  37.172  40.248  1.00  0.00     0.124 S 
ATOM     95  O   UNL A   1      38.528  36.431  41.246  1.00  0.00    -0.237 OA
ATOM     96  O   UNL A   1      40.669  37.492  40.613  1.00  0.00    -0.237 OA
ATOM     97  O   UNL A   1      38.566  38.241  39.568  1.00  0.00    -0.744 OA
ENDBRANCH  93  94
ENDBRANCH  61  86
ENDBRANCH  35  36
ENDBRANCH  27  30
ENDBRANCH  25  26
ENDBRANCH   1  25
TORSDOF 15
ENDMDL
MODEL 3
REMARK VINA RESULT:     -12.4      3.618      9.697
REMARK SMILES C[C@H]1[C@H](C(=O)NCCCNC(=O)c2ccc(-c3c4nc(c(-c5c(F)cc(S(=O)(=O)[O-])cc5F)c5ccc([nH]5)c(-c5c(F)cc(S(=O)(=O)[O-])cc5F)c5nc(c(-c6c(F)cc(S(=O)(=O)[O-])cc6F)c6ccc3[nH]6)C=C5)C=C4)cc2)CCN1c1ccc(C(N)=O)c(Cl)c1
REMARK SMILES IDX 8 1 7 2 6 3 4 4 5 5 3 7 1 8 2 9 81 10 79 11 80 12 82 13
REMARK SMILES IDX 83 14 91 15 84 16 89 17 85 18 90 19 86 20 87 21 88 22 9 25
REMARK SMILES IDX 10 26 11 27 12 29 13 30 14 31 78 32 15 33 77 34 16 35 17 36
REMARK SMILES IDX 18 37 71 38 19 39 76 40 70 41 72 42 20 43 75 44 69 45 68 46
REMARK SMILES IDX 21 48 55 49 34 50 54 51 35 52 38 53 53 54 73 55 36 56 37 57
REMARK SMILES IDX 52 59 74 60 39 61 22 62 23 63 32 64 24 65 25 66 31 67 33 68
REMARK SMILES IDX 26 69 27 70 28 71 29 72 30 73 56 74 57 75 66 76 58 77 59 78
REMARK SMILES IDX 65 79 67 80 60 81 61 82 62 83 63 84 64 85 40 86 41 87 50 88
REMARK SMILES IDX 42 89 43 90 49 91 51 92 44 93 45 94 46 95 47 96 48 97
REMARK H PARENT 6 6 87 23 87 24 10 28 72 47 38 58
REMARK Flexibility Score: inf
ROOT
ATOM      1  C   UNL A   1      33.038  27.711  26.686  1.00  0.00     0.042 C 
ENDROOT
BRANCH   1   2
ATOM      2  C   UNL A   1      31.649  27.723  26.065  1.00  0.00     0.117 C 
BRANCH   2   3
ATOM      3  N   UNL A   1      30.825  26.618  26.531  1.00  0.00    -0.356 N 
ATOM      4  C   UNL A   1      30.715  25.334  26.095  1.00  0.00     0.225 C 
ATOM      5  O   UNL A   1      29.908  24.605  26.679  1.00  0.00    -0.275 OA
ATOM      6  H   UNL A   1      30.245  26.837  27.295  1.00  0.00     0.163 HD
BRANCH   4   7
ATOM      7  C   UNL A   1      31.547  24.779  24.952  1.00  0.00     0.102 C 
ATOM      8  C   UNL A   1      33.866  23.860  25.355  1.00  0.00     0.032 C 
ATOM      9  C   UNL A   1      32.368  23.548  25.363  1.00  0.00     0.091 C 
ATOM     10  N   UNL A   1      32.064  22.545  24.339  1.00  0.00    -0.368 N 
ATOM     11  C   UNL A   1      30.719  24.383  23.729  1.00  0.00     0.037 C 
ATOM     12  C   UNL A   1      31.360  23.107  23.197  1.00  0.00     0.118 C 
BRANCH  10  13
ATOM     13  C   UNL A   1      32.315  21.200  24.445  1.00  0.00     0.038 A 
ATOM     14  C   UNL A   1      32.712  20.626  25.655  1.00  0.00     0.027 A 
ATOM     15  C   UNL A   1      32.230  20.342  23.346  1.00  0.00     0.047 A 
ATOM     16  C   UNL A   1      33.037  19.265  25.756  1.00  0.00     0.017 A 
ATOM     17  C   UNL A   1      32.588  18.984  23.414  1.00  0.00     0.055 A 
ATOM     18  C   UNL A   1      32.997  18.426  24.631  1.00  0.00     0.058 A 
ATOM     19  Cl  UNL A   1      32.490  18.118  21.919  1.00  0.00    -0.083 Cl
BRANCH  18  20
ATOM     20  C   UNL A   1      33.438  17.003  24.748  1.00  0.00     0.250 C 
ATOM     21  N   UNL A   1      33.758  16.517  25.987  1.00  0.00    -0.366 N 
ATOM     22  O   UNL A   1      33.555  16.260  23.781  1.00  0.00    -0.269 OA
ATOM     23  H   UNL A   1      33.674  17.095  26.779  1.00  0.00     0.159 HD
ATOM     24  H   UNL A   1      34.074  15.589  26.086  1.00  0.00     0.159 HD
ENDBRANCH  18  20
ENDBRANCH  10  13
ENDBRANCH   4   7
ENDBRANCH   2   3
ENDBRANCH   1   2
BRANCH   1  25
ATOM     25  C   UNL A   1      34.027  28.658  26.027  1.00  0.00     0.118 C 
BRANCH  25  26
ATOM     26  N   UNL A   1      33.808  30.045  26.408  1.00  0.00    -0.352 N 
ATOM     27  C   UNL A   1      34.432  30.812  27.360  1.00  0.00     0.251 C 
ATOM     28  H   UNL A   1      33.101  30.506  25.901  1.00  0.00     0.163 HD
ATOM     29  O   UNL A   1      33.939  31.896  27.666  1.00  0.00    -0.269 OA
BRANCH  27  30
ATOM     30  C   UNL A   1      35.671  30.345  28.023  1.00  0.00     0.039 A 
ATOM     31  C   UNL A   1      36.896  30.556  27.385  1.00  0.00     0.014 A 
ATOM     32  C   UNL A   1      35.635  29.673  29.248  1.00  0.00     0.014 A 
ATOM     33  C   UNL A   1      38.080  30.147  28.002  1.00  0.00     0.010 A 
ATOM     34  C   UNL A   1      36.819  29.358  29.908  1.00  0.00     0.010 A 
ATOM     35  C   UNL A   1      38.057  29.578  29.287  1.00  0.00    -0.014 A 
BRANCH  35  36
ATOM     36  C   UNL A   1      39.316  29.208  29.987  1.00  0.00     0.031 A 
ATOM     37  C   UNL A   1      39.750  29.954  31.221  1.00  0.00     0.074 A 
ATOM     38  C   UNL A   1      40.091  28.229  29.481  1.00  0.00     0.049 A 
ATOM     39  N   UNL A   1      40.828  29.794  31.946  1.00  0.00    -0.248 NA
ATOM     40  C   UNL A   1      38.874  31.041  31.688  1.00  0.00     0.031 C 
ATOM     41  C   UNL A   1      39.809  27.476  28.256  1.00  0.00     0.029 A 
ATOM     42  N   UNL A   1      41.275  27.700  29.928  1.00  0.00    -0.354 N 
ATOM     43  C   UNL A   1      40.762  30.759  32.946  1.00  0.00     0.074 A 
ATOM     44  C   UNL A   1      39.573  31.544  32.695  1.00  0.00     0.031 C 
ATOM     45  C   UNL A   1      40.776  26.564  28.067  1.00  0.00     0.029 A 
ATOM     46  C   UNL A   1      41.767  26.693  29.130  1.00  0.00     0.049 A 
ATOM     47  H   UNL A   1      41.731  28.011  30.744  1.00  0.00     0.167 HD
ATOM     48  C   UNL A   1      41.598  30.955  33.994  1.00  0.00     0.037 A 
ATOM     49  C   UNL A   1      42.893  25.961  29.236  1.00  0.00     0.037 A 
ATOM     50  C   UNL A   1      42.774  30.161  34.243  1.00  0.00     0.049 A 
ATOM     51  C   UNL A   1      43.808  26.197  30.407  1.00  0.00     0.074 A 
ATOM     52  C   UNL A   1      43.662  30.246  35.301  1.00  0.00     0.029 A 
ATOM     53  N   UNL A   1      43.229  29.138  33.423  1.00  0.00    -0.354 N 
ATOM     54  N   UNL A   1      43.693  27.068  31.383  1.00  0.00    -0.248 NA
ATOM     55  C   UNL A   1      45.000  25.343  30.502  1.00  0.00     0.031 C 
ATOM     56  C   UNL A   1      44.682  29.310  35.093  1.00  0.00     0.029 A 
ATOM     57  C   UNL A   1      44.398  28.600  33.938  1.00  0.00     0.049 A 
ATOM     58  H   UNL A   1      42.787  28.838  32.595  1.00  0.00     0.167 HD
ATOM     59  C   UNL A   1      44.786  26.855  32.216  1.00  0.00     0.074 A 
ATOM     60  C   UNL A   1      45.536  25.756  31.641  1.00  0.00     0.031 C 
ATOM     61  C   UNL A   1      45.137  27.508  33.352  1.00  0.00     0.037 A 
BRANCH  48  62
ATOM     62  C   UNL A   1      41.266  32.069  34.953  1.00  0.00     0.058 A 
ATOM     63  C   UNL A   1      40.381  31.879  36.028  1.00  0.00     0.135 A 
ATOM     64  C   UNL A   1      41.861  33.334  34.816  1.00  0.00     0.135 A 
ATOM     65  F   UNL A   1      39.771  30.695  36.201  1.00  0.00    -0.206 F 
ATOM     66  C   UNL A   1      40.072  32.909  36.910  1.00  0.00     0.059 A 
ATOM     67  C   UNL A   1      41.590  34.370  35.707  1.00  0.00     0.059 A 
ATOM     68  F   UNL A   1      42.715  33.575  33.810  1.00  0.00    -0.206 F 
ATOM     69  C   UNL A   1      40.682  34.153  36.741  1.00  0.00     0.060 A 
BRANCH  69  70
ATOM     70  S   UNL A   1      40.270  35.477  37.896  1.00  0.00     0.124 S 
ATOM     71  O   UNL A   1      41.519  35.617  38.638  1.00  0.00    -0.237 OA
ATOM     72  O   UNL A   1      39.940  36.581  36.999  1.00  0.00    -0.237 OA
ATOM     73  O   UNL A   1      39.148  34.933  38.654  1.00  0.00    -0.744 OA
ENDBRANCH  69  70
ENDBRANCH  48  62
BRANCH  49  74
ATOM     74  C   UNL A   1      43.204  24.925  28.213  1.00  0.00     0.058 A 
ATOM     75  C   UNL A   1      43.840  25.262  27.009  1.00  0.00     0.135 A 
ATOM     76  C   UNL A   1      42.890  23.574  28.428  1.00  0.00     0.135 A 
ATOM     77  F   UNL A   1      44.156  26.539  26.752  1.00  0.00    -0.206 F 
ATOM     78  C   UNL A   1      44.134  24.301  26.046  1.00  0.00     0.059 A 
ATOM     79  C   UNL A   1      43.202  22.590  27.494  1.00  0.00     0.059 A 
ATOM     80  F   UNL A   1      42.292  23.196  29.569  1.00  0.00    -0.206 F 
ATOM     81  C   UNL A   1      43.813  22.965  26.300  1.00  0.00     0.060 A 
BRANCH  81  82
ATOM     82  S   UNL A   1      44.229  21.725  25.054  1.00  0.00     0.124 S 
ATOM     83  O   UNL A   1      43.178  20.736  25.263  1.00  0.00    -0.237 OA
ATOM     84  O   UNL A   1      44.142  22.493  23.815  1.00  0.00    -0.237 OA
ATOM     85  O   UNL A   1      45.573  21.303  25.431  1.00  0.00    -0.744 OA
ENDBRANCH  81  82
ENDBRANCH  49  74
BRANCH  61  86
ATOM     86  C   UNL A   1      46.376  27.032  34.065  1.00  0.00     0.058 A 
ATOM     87  C   UNL A   1      47.641  27.579  33.798  1.00  0.00     0.135 A 
ATOM     88  C   UNL A   1      46.290  26.037  35.052  1.00  0.00     0.135 A 
ATOM     89  F   UNL A   1      47.782  28.532  32.863  1.00  0.00    -0.206 F 
ATOM     90  C   UNL A   1      48.781  27.129  34.455  1.00  0.00     0.059 A 
ATOM     91  C   UNL A   1      47.412  25.595  35.746  1.00  0.00     0.059 A 
ATOM     92  F   UNL A   1      45.103  25.488  35.360  1.00  0.00    -0.206 F 
ATOM     93  C   UNL A   1      48.658  26.135  35.427  1.00  0.00     0.060 A 
BRANCH  93  94
ATOM     94  S   UNL A   1      50.143  25.568  36.280  1.00  0.00     0.124 S 
ATOM     95  O   UNL A   1      49.616  24.482  37.099  1.00  0.00    -0.237 OA
ATOM     96  O   UNL A   1      51.005  25.165  35.172  1.00  0.00    -0.237 OA
ATOM     97  O   UNL A   1      50.588  26.749  37.013  1.00  0.00    -0.744 OA
ENDBRANCH  93  94
ENDBRANCH  61  86
ENDBRANCH  35  36
ENDBRANCH  27  30
ENDBRANCH  25  26
ENDBRANCH   1  25
TORSDOF 15
ENDMDL
