MODEL 1
REMARK VINA RESULT:     -11.3      0.000      0.000
REMARK SMILES C[C@@](NC(=O)CCOC1CC[NH2+]CC1)(C(=O)NCCCNC(=O)c1ccc(-c2c3nc(c(-c4c(F)cc(S(=O)(=O)[O-])cc4F)c4ccc([nH]4)c(-c4c(F)cc(S(=O)(=O)[O-])cc4F)c4nc(c(-c5c(F)cc(S(=O)(=O)[O-])cc5F)c5ccc2[nH]5)C=C4)C=C3)cc1)C(F)(F)F
REMARK SMILES IDX 18 1 17 2 15 3 16 4 2 6 1 7 3 8 4 9 5 11 6 12 7 13 8 14 9 15
REMARK SMILES IDX 10 16 14 17 11 18 13 19 12 20 90 23 91 24 92 25 93 26 19 27
REMARK SMILES IDX 20 28 21 29 22 30 23 32 24 33 25 34 89 35 26 36 88 37 27 38
REMARK SMILES IDX 28 39 29 40 82 41 30 42 87 43 81 44 83 45 31 46 86 47 80 48
REMARK SMILES IDX 79 49 32 51 66 52 45 53 65 54 46 55 49 56 64 57 84 58 47 59
REMARK SMILES IDX 48 60 63 62 85 63 50 64 33 65 34 66 43 67 35 68 36 69 42 70
REMARK SMILES IDX 44 71 37 72 38 73 39 74 40 75 41 76 67 77 68 78 77 79 69 80
REMARK SMILES IDX 70 81 76 82 78 83 71 84 72 85 73 86 74 87 75 88 51 89 52 90
REMARK SMILES IDX 61 91 53 92 54 93 60 94 62 95 55 96 56 97 57 98 58 99 59 100
REMARK H PARENT 17 5 3 10 12 21 12 22 21 31 83 50 49 61
REMARK Flexibility Score: inf
ROOT
ATOM      1  C   UNL A   1      36.728  23.500  26.330  1.00  0.00     0.117 C 
ENDROOT
BRANCH   1   2
ATOM      2  N   UNL A   1      36.166  22.191  26.034  1.00  0.00    -0.354 N 
ATOM      3  C   UNL A   1      35.009  21.797  25.424  1.00  0.00     0.254 C 
ATOM      4  O   UNL A   1      35.067  20.659  24.942  1.00  0.00    -0.272 OA
ATOM      5  H   UNL A   1      36.730  21.441  26.333  1.00  0.00     0.163 HD
BRANCH   3   6
ATOM      6  C   UNL A   1      33.759  22.681  25.182  1.00  0.00     0.212 C 
ATOM      7  C   UNL A   1      32.515  21.865  24.777  1.00  0.00     0.056 C 
BRANCH   6   8
ATOM      8  N   UNL A   1      33.328  23.548  26.329  1.00  0.00    -0.334 N 
ATOM      9  C   UNL A   1      32.163  24.218  26.512  1.00  0.00     0.223 C 
ATOM     10  H   UNL A   1      33.986  23.644  27.055  1.00  0.00     0.164 HD
ATOM     11  O   UNL A   1      31.431  23.825  27.423  1.00  0.00    -0.275 OA
BRANCH   9  12
ATOM     12  C   UNL A   1      31.827  25.485  25.750  1.00  0.00     0.128 C 
BRANCH  12  13
ATOM     13  C   UNL A   1      30.494  25.651  25.029  1.00  0.00     0.170 C 
BRANCH  13  14
ATOM     14  O   UNL A   1      30.079  26.957  24.613  1.00  0.00    -0.377 OA
BRANCH  14  15
ATOM     15  C   UNL A   1      29.810  27.147  23.221  1.00  0.00     0.129 C 
ATOM     16  C   UNL A   1      31.107  26.999  22.436  1.00  0.00     0.093 C 
ATOM     17  C   UNL A   1      29.176  28.513  22.933  1.00  0.00     0.093 C 
ATOM     18  C   UNL A   1      32.025  28.180  22.712  1.00  0.00     0.263 C 
ATOM     19  C   UNL A   1      30.159  29.658  23.106  1.00  0.00     0.263 C 
ATOM     20  N   UNL A   1      31.383  29.438  22.332  1.00  0.00    -0.346 N 
ATOM     21  H   UNL A   1      31.149  29.407  21.340  1.00  0.00     0.346 HD
ATOM     22  H   UNL A   1      32.030  30.203  22.522  1.00  0.00     0.346 HD
ENDBRANCH  14  15
ENDBRANCH  13  14
ENDBRANCH  12  13
ENDBRANCH   9  12
ENDBRANCH   6   8
BRANCH   6  23
ATOM     23  C   UNL A   1      34.123  23.553  23.947  1.00  0.00     0.420 C 
ATOM     24  F   UNL A   1      33.032  23.861  23.207  1.00  0.00    -0.168 F 
ATOM     25  F   UNL A   1      34.646  24.740  24.367  1.00  0.00    -0.168 F 
ATOM     26  F   UNL A   1      35.047  23.001  23.136  1.00  0.00    -0.168 F 
ENDBRANCH   6  23
ENDBRANCH   3   6
ENDBRANCH   1   2
BRANCH   1  27
ATOM     27  C   UNL A   1      38.145  23.718  25.823  1.00  0.00     0.042 C 
BRANCH  27  28
ATOM     28  C   UNL A   1      39.262  23.291  26.773  1.00  0.00     0.118 C 
BRANCH  28  29
ATOM     29  N   UNL A   1      40.624  23.577  26.323  1.00  0.00    -0.352 N 
ATOM     30  C   UNL A   1      41.466  24.640  26.597  1.00  0.00     0.251 C 
ATOM     31  H   UNL A   1      41.008  22.897  25.723  1.00  0.00     0.163 HD
ATOM     32  O   UNL A   1      42.592  24.662  26.103  1.00  0.00    -0.269 OA
BRANCH  30  33
ATOM     33  C   UNL A   1      41.002  25.790  27.411  1.00  0.00     0.039 A 
ATOM     34  C   UNL A   1      40.073  25.574  28.433  1.00  0.00     0.014 A 
ATOM     35  C   UNL A   1      41.533  27.063  27.228  1.00  0.00     0.014 A 
ATOM     36  C   UNL A   1      39.814  26.586  29.364  1.00  0.00     0.010 A 
ATOM     37  C   UNL A   1      41.390  28.014  28.231  1.00  0.00     0.010 A 
ATOM     38  C   UNL A   1      40.544  27.785  29.327  1.00  0.00    -0.014 A 
BRANCH  38  39
ATOM     39  C   UNL A   1      40.477  28.798  30.420  1.00  0.00     0.031 A 
ATOM     40  C   UNL A   1      41.367  28.662  31.630  1.00  0.00     0.074 A 
ATOM     41  C   UNL A   1      39.533  29.764  30.391  1.00  0.00     0.049 A 
ATOM     42  N   UNL A   1      41.337  29.320  32.761  1.00  0.00    -0.248 NA
ATOM     43  C   UNL A   1      42.391  27.606  31.585  1.00  0.00     0.031 C 
ATOM     44  C   UNL A   1      38.552  29.967  29.319  1.00  0.00     0.029 A 
ATOM     45  N   UNL A   1      39.227  30.752  31.297  1.00  0.00    -0.354 N 
ATOM     46  C   UNL A   1      42.302  28.730  33.570  1.00  0.00     0.074 A 
ATOM     47  C   UNL A   1      42.851  27.619  32.826  1.00  0.00     0.031 C 
ATOM     48  C   UNL A   1      37.785  31.028  29.612  1.00  0.00     0.029 A 
ATOM     49  C   UNL A   1      38.179  31.557  30.913  1.00  0.00     0.049 A 
ATOM     50  H   UNL A   1      39.715  30.872  32.143  1.00  0.00     0.167 HD
ATOM     51  C   UNL A   1      42.720  29.100  34.804  1.00  0.00     0.037 A 
ATOM     52  C   UNL A   1      37.592  32.597  31.538  1.00  0.00     0.037 A 
ATOM     53  C   UNL A   1      42.218  30.248  35.510  1.00  0.00     0.049 A 
ATOM     54  C   UNL A   1      38.107  33.022  32.887  1.00  0.00     0.074 A 
ATOM     55  C   UNL A   1      42.633  30.760  36.726  1.00  0.00     0.029 A 
ATOM     56  N   UNL A   1      41.201  31.075  35.055  1.00  0.00    -0.354 N 
ATOM     57  N   UNL A   1      39.063  32.487  33.610  1.00  0.00    -0.248 NA
ATOM     58  C   UNL A   1      37.469  34.192  33.506  1.00  0.00     0.031 C 
ATOM     59  C   UNL A   1      41.844  31.875  37.024  1.00  0.00     0.029 A 
ATOM     60  C   UNL A   1      40.967  32.086  35.971  1.00  0.00     0.049 A 
ATOM     61  H   UNL A   1      40.716  30.959  34.205  1.00  0.00     0.167 HD
ATOM     62  C   UNL A   1      39.161  33.273  34.752  1.00  0.00     0.074 A 
ATOM     63  C   UNL A   1      38.175  34.325  34.621  1.00  0.00     0.031 C 
ATOM     64  C   UNL A   1      39.992  33.135  35.815  1.00  0.00     0.037 A 
BRANCH  51  65
ATOM     65  C   UNL A   1      43.791  28.266  35.455  1.00  0.00     0.058 A 
ATOM     66  C   UNL A   1      45.156  28.519  35.240  1.00  0.00     0.135 A 
ATOM     67  C   UNL A   1      43.453  27.213  36.320  1.00  0.00     0.135 A 
ATOM     68  F   UNL A   1      45.539  29.504  34.411  1.00  0.00    -0.206 F 
ATOM     69  C   UNL A   1      46.145  27.733  35.822  1.00  0.00     0.059 A 
ATOM     70  C   UNL A   1      44.426  26.434  36.941  1.00  0.00     0.059 A 
ATOM     71  F   UNL A   1      42.164  26.927  36.566  1.00  0.00    -0.206 F 
ATOM     72  C   UNL A   1      45.768  26.691  36.670  1.00  0.00     0.060 A 
BRANCH  72  73
ATOM     73  S   UNL A   1      47.065  25.678  37.414  1.00  0.00     0.124 S 
ATOM     74  O   UNL A   1      46.488  25.382  38.721  1.00  0.00    -0.237 OA
ATOM     75  O   UNL A   1      47.150  24.552  36.489  1.00  0.00    -0.237 OA
ATOM     76  O   UNL A   1      48.224  26.565  37.426  1.00  0.00    -0.744 OA
ENDBRANCH  72  73
ENDBRANCH  51  65
BRANCH  52  77
ATOM     77  C   UNL A   1      36.477  33.334  30.882  1.00  0.00     0.058 A 
ATOM     78  C   UNL A   1      35.164  33.224  31.364  1.00  0.00     0.135 A 
ATOM     79  C   UNL A   1      36.695  34.165  29.772  1.00  0.00     0.135 A 
ATOM     80  F   UNL A   1      34.900  32.437  32.419  1.00  0.00    -0.206 F 
ATOM     81  C   UNL A   1      34.104  33.895  30.762  1.00  0.00     0.059 A 
ATOM     82  C   UNL A   1      35.656  34.867  29.168  1.00  0.00     0.059 A 
ATOM     83  F   UNL A   1      37.934  34.320  29.281  1.00  0.00    -0.206 F 
ATOM     84  C   UNL A   1      34.361  34.717  29.664  1.00  0.00     0.060 A 
BRANCH  84  85
ATOM     85  S   UNL A   1      32.986  35.624  28.920  1.00  0.00     0.124 S 
ATOM     86  O   UNL A   1      32.348  34.584  28.120  1.00  0.00    -0.237 OA
ATOM     87  O   UNL A   1      32.243  36.073  30.094  1.00  0.00    -0.237 OA
ATOM     88  O   UNL A   1      33.652  36.681  28.166  1.00  0.00    -0.744 OA
ENDBRANCH  84  85
ENDBRANCH  52  77
BRANCH  64  89
ATOM     89  C   UNL A   1      39.904  34.169  36.903  1.00  0.00     0.058 A 
ATOM     90  C   UNL A   1      40.662  35.348  36.863  1.00  0.00     0.135 A 
ATOM     91  C   UNL A   1      39.000  34.003  37.965  1.00  0.00     0.135 A 
ATOM     92  F   UNL A   1      41.545  35.551  35.873  1.00  0.00    -0.206 F 
ATOM     93  C   UNL A   1      40.542  36.320  37.851  1.00  0.00     0.059 A 
ATOM     94  C   UNL A   1      38.844  34.974  38.948  1.00  0.00     0.059 A 
ATOM     95  F   UNL A   1      38.243  32.896  38.042  1.00  0.00    -0.206 F 
ATOM     96  C   UNL A   1      39.628  36.125  38.888  1.00  0.00     0.060 A 
BRANCH  96  97
ATOM     97  S   UNL A   1      39.452  37.413  40.140  1.00  0.00     0.124 S 
ATOM     98  O   UNL A   1      38.477  38.299  39.515  1.00  0.00    -0.237 OA
ATOM     99  O   UNL A   1      38.976  36.661  41.297  1.00  0.00    -0.237 OA
ATOM    100  O   UNL A   1      40.803  37.953  40.264  1.00  0.00    -0.744 OA
ENDBRANCH  96  97
ENDBRANCH  64  89
ENDBRANCH  38  39
ENDBRANCH  30  33
ENDBRANCH  28  29
ENDBRANCH  27  28
ENDBRANCH   1  27
TORSDOF 19
ENDMDL
MODEL 2
REMARK VINA RESULT:     -10.9      6.192      8.212
REMARK SMILES C[C@@](NC(=O)CCOC1CC[NH2+]CC1)(C(=O)NCCCNC(=O)c1ccc(-c2c3nc(c(-c4c(F)cc(S(=O)(=O)[O-])cc4F)c4ccc([nH]4)c(-c4c(F)cc(S(=O)(=O)[O-])cc4F)c4nc(c(-c5c(F)cc(S(=O)(=O)[O-])cc5F)c5ccc2[nH]5)C=C4)C=C3)cc1)C(F)(F)F
REMARK SMILES IDX 18 1 17 2 15 3 16 4 2 6 1 7 3 8 4 9 5 11 6 12 7 13 8 14 9 15
REMARK SMILES IDX 10 16 14 17 11 18 13 19 12 20 90 23 91 24 92 25 93 26 19 27
REMARK SMILES IDX 20 28 21 29 22 30 23 32 24 33 25 34 89 35 26 36 88 37 27 38
REMARK SMILES IDX 28 39 29 40 82 41 30 42 87 43 81 44 83 45 31 46 86 47 80 48
REMARK SMILES IDX 79 49 32 51 66 52 45 53 65 54 46 55 49 56 64 57 84 58 47 59
REMARK SMILES IDX 48 60 63 62 85 63 50 64 33 65 34 66 43 67 35 68 36 69 42 70
REMARK SMILES IDX 44 71 37 72 38 73 39 74 40 75 41 76 67 77 68 78 77 79 69 80
REMARK SMILES IDX 70 81 76 82 78 83 71 84 72 85 73 86 74 87 75 88 51 89 52 90
REMARK SMILES IDX 61 91 53 92 54 93 60 94 62 95 55 96 56 97 57 98 58 99 59 100
REMARK H PARENT 17 5 3 10 12 21 12 22 21 31 83 50 49 61
REMARK Flexibility Score: inf
ROOT
ATOM      1  C   UNL A   1      36.658  20.901  25.377  1.00  0.00     0.117 C 
ENDROOT
BRANCH   1   2
ATOM      2  N   UNL A   1      36.010  21.703  26.404  1.00  0.00    -0.354 N 
ATOM      3  C   UNL A   1      34.863  22.444  26.412  1.00  0.00     0.254 C 
ATOM      4  O   UNL A   1      34.388  22.607  27.544  1.00  0.00    -0.272 OA
ATOM      5  H   UNL A   1      36.494  21.714  27.261  1.00  0.00     0.163 HD
BRANCH   3   6
ATOM      6  C   UNL A   1      34.086  22.937  25.165  1.00  0.00     0.212 C 
ATOM      7  C   UNL A   1      33.886  21.835  24.107  1.00  0.00     0.056 C 
BRANCH   6   8
ATOM      8  N   UNL A   1      32.725  23.518  25.419  1.00  0.00    -0.334 N 
ATOM      9  C   UNL A   1      31.528  23.173  24.883  1.00  0.00     0.223 C 
ATOM     10  H   UNL A   1      32.697  24.256  26.071  1.00  0.00     0.164 HD
ATOM     11  O   UNL A   1      30.703  22.662  25.644  1.00  0.00    -0.275 OA
BRANCH   9  12
ATOM     12  C   UNL A   1      31.143  23.529  23.461  1.00  0.00     0.128 C 
BRANCH  12  13
ATOM     13  C   UNL A   1      30.941  24.977  23.028  1.00  0.00     0.170 C 
BRANCH  13  14
ATOM     14  O   UNL A   1      31.503  26.031  23.817  1.00  0.00    -0.377 OA
BRANCH  14  15
ATOM     15  C   UNL A   1      30.590  26.912  24.480  1.00  0.00     0.129 C 
ATOM     16  C   UNL A   1      29.620  27.488  23.457  1.00  0.00     0.093 C 
ATOM     17  C   UNL A   1      31.311  28.047  25.217  1.00  0.00     0.093 C 
ATOM     18  C   UNL A   1      30.342  28.465  22.541  1.00  0.00     0.263 C 
ATOM     19  C   UNL A   1      31.918  29.064  24.266  1.00  0.00     0.263 C 
ATOM     20  N   UNL A   1      30.927  29.563  23.309  1.00  0.00    -0.346 N 
ATOM     21  H   UNL A   1      30.187  30.048  23.816  1.00  0.00     0.346 HD
ATOM     22  H   UNL A   1      31.393  30.199  22.661  1.00  0.00     0.346 HD
ENDBRANCH  14  15
ENDBRANCH  13  14
ENDBRANCH  12  13
ENDBRANCH   9  12
ENDBRANCH   6   8
BRANCH   6  23
ATOM     23  C   UNL A   1      35.017  23.998  24.511  1.00  0.00     0.420 C 
ATOM     24  F   UNL A   1      35.929  24.478  25.389  1.00  0.00    -0.168 F 
ATOM     25  F   UNL A   1      35.727  23.418  23.502  1.00  0.00    -0.168 F 
ATOM     26  F   UNL A   1      34.363  25.040  23.961  1.00  0.00    -0.168 F 
ENDBRANCH   6  23
ENDBRANCH   3   6
ENDBRANCH   1   2
BRANCH   1  27
ATOM     27  C   UNL A   1      38.047  21.373  24.978  1.00  0.00     0.042 C 
BRANCH  27  28
ATOM     28  C   UNL A   1      39.126  21.242  26.051  1.00  0.00     0.118 C 
BRANCH  28  29
ATOM     29  N   UNL A   1      39.951  20.036  25.980  1.00  0.00    -0.352 N 
ATOM     30  C   UNL A   1      41.314  19.859  26.140  1.00  0.00     0.251 C 
ATOM     31  H   UNL A   1      39.452  19.209  25.786  1.00  0.00     0.163 HD
ATOM     32  O   UNL A   1      41.792  18.729  26.043  1.00  0.00    -0.269 OA
BRANCH  30  33
ATOM     33  C   UNL A   1      42.215  21.018  26.348  1.00  0.00     0.039 A 
ATOM     34  C   UNL A   1      42.684  21.727  25.237  1.00  0.00     0.014 A 
ATOM     35  C   UNL A   1      42.537  21.460  27.627  1.00  0.00     0.014 A 
ATOM     36  C   UNL A   1      43.323  22.959  25.417  1.00  0.00     0.010 A 
ATOM     37  C   UNL A   1      43.037  22.745  27.800  1.00  0.00     0.010 A 
ATOM     38  C   UNL A   1      43.419  23.525  26.698  1.00  0.00    -0.014 A 
BRANCH  38  39
ATOM     39  C   UNL A   1      43.879  24.927  26.922  1.00  0.00     0.031 A 
ATOM     40  C   UNL A   1      45.333  25.282  26.739  1.00  0.00     0.074 A 
ATOM     41  C   UNL A   1      43.023  25.850  27.412  1.00  0.00     0.049 A 
ATOM     42  N   UNL A   1      45.965  26.384  27.056  1.00  0.00    -0.248 NA
ATOM     43  C   UNL A   1      46.206  24.239  26.176  1.00  0.00     0.031 C 
ATOM     44  C   UNL A   1      41.605  25.625  27.712  1.00  0.00     0.029 A 
ATOM     45  N   UNL A   1      43.221  27.164  27.763  1.00  0.00    -0.354 N 
ATOM     46  C   UNL A   1      47.306  26.147  26.773  1.00  0.00     0.074 A 
ATOM     47  C   UNL A   1      47.406  24.777  26.324  1.00  0.00     0.031 C 
ATOM     48  C   UNL A   1      41.058  26.764  28.163  1.00  0.00     0.029 A 
ATOM     49  C   UNL A   1      42.090  27.792  28.236  1.00  0.00     0.049 A 
ATOM     50  H   UNL A   1      44.092  27.615  27.684  1.00  0.00     0.167 HD
ATOM     51  C   UNL A   1      48.355  27.002  26.844  1.00  0.00     0.037 A 
ATOM     52  C   UNL A   1      41.904  29.049  28.687  1.00  0.00     0.037 A 
ATOM     53  C   UNL A   1      48.238  28.384  27.225  1.00  0.00     0.049 A 
ATOM     54  C   UNL A   1      43.074  29.997  28.710  1.00  0.00     0.074 A 
ATOM     55  C   UNL A   1      49.222  29.356  27.249  1.00  0.00     0.029 A 
ATOM     56  N   UNL A   1      47.062  28.996  27.634  1.00  0.00    -0.354 N 
ATOM     57  N   UNL A   1      44.324  29.770  28.380  1.00  0.00    -0.248 NA
ATOM     58  C   UNL A   1      42.810  31.370  29.161  1.00  0.00     0.031 C 
ATOM     59  C   UNL A   1      48.648  30.547  27.705  1.00  0.00     0.029 A 
ATOM     60  C   UNL A   1      47.297  30.329  27.922  1.00  0.00     0.049 A 
ATOM     61  H   UNL A   1      46.188  28.547  27.709  1.00  0.00     0.167 HD
ATOM     62  C   UNL A   1      44.988  30.979  28.555  1.00  0.00     0.074 A 
ATOM     63  C   UNL A   1      44.000  31.936  29.009  1.00  0.00     0.031 C 
ATOM     64  C   UNL A   1      46.297  31.271  28.358  1.00  0.00     0.037 A 
BRANCH  51  65
ATOM     65  C   UNL A   1      49.714  26.469  26.478  1.00  0.00     0.058 A 
ATOM     66  C   UNL A   1      50.205  26.540  25.164  1.00  0.00     0.135 A 
ATOM     67  C   UNL A   1      50.546  25.896  27.454  1.00  0.00     0.135 A 
ATOM     68  F   UNL A   1      49.447  27.064  24.186  1.00  0.00    -0.206 F 
ATOM     69  C   UNL A   1      51.450  26.025  24.821  1.00  0.00     0.059 A 
ATOM     70  C   UNL A   1      51.811  25.404  27.140  1.00  0.00     0.059 A 
ATOM     71  F   UNL A   1      50.131  25.803  28.727  1.00  0.00    -0.206 F 
ATOM     72  C   UNL A   1      52.245  25.457  25.817  1.00  0.00     0.060 A 
BRANCH  72  73
ATOM     73  S   UNL A   1      53.857  24.789  25.353  1.00  0.00     0.124 S 
ATOM     74  O   UNL A   1      53.519  23.404  25.042  1.00  0.00    -0.237 OA
ATOM     75  O   UNL A   1      54.223  25.623  24.212  1.00  0.00    -0.237 OA
ATOM     76  O   UNL A   1      54.664  24.984  26.553  1.00  0.00    -0.744 OA
ENDBRANCH  72  73
ENDBRANCH  51  65
BRANCH  52  77
ATOM     77  C   UNL A   1      40.552  29.498  29.118  1.00  0.00     0.058 A 
ATOM     78  C   UNL A   1      39.537  29.723  28.175  1.00  0.00     0.135 A 
ATOM     79  C   UNL A   1      40.240  29.703  30.471  1.00  0.00     0.135 A 
ATOM     80  F   UNL A   1      39.785  29.548  26.868  1.00  0.00    -0.206 F 
ATOM     81  C   UNL A   1      38.268  30.152  28.554  1.00  0.00     0.059 A 
ATOM     82  C   UNL A   1      38.971  30.107  30.877  1.00  0.00     0.059 A 
ATOM     83  F   UNL A   1      41.168  29.485  31.416  1.00  0.00    -0.206 F 
ATOM     84  C   UNL A   1      37.994  30.339  29.909  1.00  0.00     0.060 A 
BRANCH  84  85
ATOM     85  S   UNL A   1      36.329  30.848  30.395  1.00  0.00     0.124 S 
ATOM     86  O   UNL A   1      35.614  30.760  29.127  1.00  0.00    -0.237 OA
ATOM     87  O   UNL A   1      35.981  29.843  31.395  1.00  0.00    -0.237 OA
ATOM     88  O   UNL A   1      36.530  32.196  30.916  1.00  0.00    -0.744 OA
ENDBRANCH  84  85
ENDBRANCH  52  77
BRANCH  64  89
ATOM     89  C   UNL A   1      46.734  32.690  28.590  1.00  0.00     0.058 A 
ATOM     90  C   UNL A   1      46.699  33.650  27.568  1.00  0.00     0.135 A 
ATOM     91  C   UNL A   1      47.133  33.107  29.871  1.00  0.00     0.135 A 
ATOM     92  F   UNL A   1      46.331  33.301  26.326  1.00  0.00    -0.206 F 
ATOM     93  C   UNL A   1      47.063  34.972  27.803  1.00  0.00     0.059 A 
ATOM     94  C   UNL A   1      47.475  34.429  30.135  1.00  0.00     0.059 A 
ATOM     95  F   UNL A   1      47.173  32.228  30.887  1.00  0.00    -0.206 F 
ATOM     96  C   UNL A   1      47.447  35.352  29.091  1.00  0.00     0.060 A 
BRANCH  96  97
ATOM     97  S   UNL A   1      47.876  37.079  29.390  1.00  0.00     0.124 S 
ATOM     98  O   UNL A   1      47.605  37.206  30.818  1.00  0.00    -0.237 OA
ATOM     99  O   UNL A   1      49.284  37.122  29.006  1.00  0.00    -0.237 OA
ATOM    100  O   UNL A   1      46.970  37.812  28.511  1.00  0.00    -0.744 OA
ENDBRANCH  96  97
ENDBRANCH  64  89
ENDBRANCH  38  39
ENDBRANCH  30  33
ENDBRANCH  28  29
ENDBRANCH  27  28
ENDBRANCH   1  27
TORSDOF 19
ENDMDL
MODEL 3
REMARK VINA RESULT:     -10.8      5.819     11.208
REMARK SMILES C[C@@](NC(=O)CCOC1CC[NH2+]CC1)(C(=O)NCCCNC(=O)c1ccc(-c2c3nc(c(-c4c(F)cc(S(=O)(=O)[O-])cc4F)c4ccc([nH]4)c(-c4c(F)cc(S(=O)(=O)[O-])cc4F)c4nc(c(-c5c(F)cc(S(=O)(=O)[O-])cc5F)c5ccc2[nH]5)C=C4)C=C3)cc1)C(F)(F)F
REMARK SMILES IDX 18 1 17 2 15 3 16 4 2 6 1 7 3 8 4 9 5 11 6 12 7 13 8 14 9 15
REMARK SMILES IDX 10 16 14 17 11 18 13 19 12 20 90 23 91 24 92 25 93 26 19 27
REMARK SMILES IDX 20 28 21 29 22 30 23 32 24 33 25 34 89 35 26 36 88 37 27 38
REMARK SMILES IDX 28 39 29 40 82 41 30 42 87 43 81 44 83 45 31 46 86 47 80 48
REMARK SMILES IDX 79 49 32 51 66 52 45 53 65 54 46 55 49 56 64 57 84 58 47 59
REMARK SMILES IDX 48 60 63 62 85 63 50 64 33 65 34 66 43 67 35 68 36 69 42 70
REMARK SMILES IDX 44 71 37 72 38 73 39 74 40 75 41 76 67 77 68 78 77 79 69 80
REMARK SMILES IDX 70 81 76 82 78 83 71 84 72 85 73 86 74 87 75 88 51 89 52 90
REMARK SMILES IDX 61 91 53 92 54 93 60 94 62 95 55 96 56 97 57 98 58 99 59 100
REMARK H PARENT 17 5 3 10 12 21 12 22 21 31 83 50 49 61
REMARK Flexibility Score: inf
ROOT
ATOM      1  C   UNL A   1      33.641  28.186  26.471  1.00  0.00     0.117 C 
ENDROOT
BRANCH   1   2
ATOM      2  N   UNL A   1      32.806  29.011  25.611  1.00  0.00    -0.354 N 
ATOM      3  C   UNL A   1      31.863  28.708  24.670  1.00  0.00     0.254 C 
ATOM      4  O   UNL A   1      31.049  29.620  24.474  1.00  0.00    -0.272 OA
ATOM      5  H   UNL A   1      32.948  29.978  25.730  1.00  0.00     0.163 HD
BRANCH   3   6
ATOM      6  C   UNL A   1      31.668  27.332  23.983  1.00  0.00     0.212 C 
ATOM      7  C   UNL A   1      30.660  27.379  22.819  1.00  0.00     0.056 C 
BRANCH   6   8
ATOM      8  N   UNL A   1      32.906  26.686  23.433  1.00  0.00    -0.334 N 
ATOM      9  C   UNL A   1      33.057  25.922  22.322  1.00  0.00     0.223 C 
ATOM     10  H   UNL A   1      33.728  26.838  23.953  1.00  0.00     0.164 HD
ATOM     11  O   UNL A   1      33.722  26.403  21.402  1.00  0.00    -0.275 OA
BRANCH   9  12
ATOM     12  C   UNL A   1      32.574  24.488  22.251  1.00  0.00     0.128 C 
BRANCH  12  13
ATOM     13  C   UNL A   1      33.012  23.447  23.277  1.00  0.00     0.170 C 
BRANCH  13  14
ATOM     14  O   UNL A   1      34.347  22.932  23.227  1.00  0.00    -0.377 OA
BRANCH  14  15
ATOM     15  C   UNL A   1      35.384  23.742  23.788  1.00  0.00     0.129 C 
ATOM     16  C   UNL A   1      36.710  23.000  23.683  1.00  0.00     0.093 C 
ATOM     17  C   UNL A   1      35.105  24.113  25.249  1.00  0.00     0.093 C 
ATOM     18  C   UNL A   1      36.726  21.816  24.638  1.00  0.00     0.263 C 
ATOM     19  C   UNL A   1      35.247  22.927  26.187  1.00  0.00     0.263 C 
ATOM     20  N   UNL A   1      36.541  22.260  26.019  1.00  0.00    -0.346 N 
ATOM     21  H   UNL A   1      37.286  22.912  26.264  1.00  0.00     0.346 HD
ATOM     22  H   UNL A   1      36.567  21.443  26.629  1.00  0.00     0.346 HD
ENDBRANCH  14  15
ENDBRANCH  13  14
ENDBRANCH  12  13
ENDBRANCH   9  12
ENDBRANCH   6   8
BRANCH   6  23
ATOM     23  C   UNL A   1      31.023  26.432  25.076  1.00  0.00     0.420 C 
ATOM     24  F   UNL A   1      31.919  25.572  25.614  1.00  0.00    -0.168 F 
ATOM     25  F   UNL A   1      30.578  27.212  26.102  1.00  0.00    -0.168 F 
ATOM     26  F   UNL A   1      29.957  25.727  24.649  1.00  0.00    -0.168 F 
ENDBRANCH   6  23
ENDBRANCH   3   6
ENDBRANCH   1   2
BRANCH   1  27
ATOM     27  C   UNL A   1      34.496  28.958  27.463  1.00  0.00     0.042 C 
BRANCH  27  28
ATOM     28  C   UNL A   1      34.288  30.470  27.483  1.00  0.00     0.118 C 
BRANCH  28  29
ATOM     29  N   UNL A   1      34.410  31.113  28.791  1.00  0.00    -0.352 N 
ATOM     30  C   UNL A   1      35.461  31.147  29.691  1.00  0.00     0.251 C 
ATOM     31  H   UNL A   1      33.608  31.605  29.082  1.00  0.00     0.163 HD
ATOM     32  O   UNL A   1      35.335  31.770  30.744  1.00  0.00    -0.269 OA
BRANCH  30  33
ATOM     33  C   UNL A   1      36.705  30.379  29.440  1.00  0.00     0.039 A 
ATOM     34  C   UNL A   1      37.351  30.509  28.206  1.00  0.00     0.014 A 
ATOM     35  C   UNL A   1      37.281  29.596  30.435  1.00  0.00     0.014 A 
ATOM     36  C   UNL A   1      38.643  29.997  28.040  1.00  0.00     0.010 A 
ATOM     37  C   UNL A   1      38.614  29.218  30.320  1.00  0.00     0.010 A 
ATOM     38  C   UNL A   1      39.324  29.429  29.130  1.00  0.00    -0.014 A 
BRANCH  38  39
ATOM     39  C   UNL A   1      40.773  29.079  29.073  1.00  0.00     0.031 A 
ATOM     40  C   UNL A   1      41.816  30.136  29.340  1.00  0.00     0.074 A 
ATOM     41  C   UNL A   1      41.157  27.851  28.659  1.00  0.00     0.049 A 
ATOM     42  N   UNL A   1      43.112  30.086  29.163  1.00  0.00    -0.248 NA
ATOM     43  C   UNL A   1      41.331  31.442  29.814  1.00  0.00     0.031 C 
ATOM     44  C   UNL A   1      40.257  26.754  28.292  1.00  0.00     0.029 A 
ATOM     45  N   UNL A   1      42.410  27.321  28.458  1.00  0.00    -0.354 N 
ATOM     46  C   UNL A   1      43.584  31.360  29.461  1.00  0.00     0.074 A 
ATOM     47  C   UNL A   1      42.431  32.177  29.763  1.00  0.00     0.031 C 
ATOM     48  C   UNL A   1      40.982  25.678  27.949  1.00  0.00     0.029 A 
ATOM     49  C   UNL A   1      42.399  26.016  28.020  1.00  0.00     0.049 A 
ATOM     50  H   UNL A   1      43.238  27.828  28.613  1.00  0.00     0.167 HD
ATOM     51  C   UNL A   1      44.864  31.802  29.516  1.00  0.00     0.037 A 
ATOM     52  C   UNL A   1      43.412  25.184  27.702  1.00  0.00     0.037 A 
ATOM     53  C   UNL A   1      46.011  30.967  29.283  1.00  0.00     0.049 A 
ATOM     54  C   UNL A   1      44.828  25.683  27.819  1.00  0.00     0.074 A 
ATOM     55  C   UNL A   1      47.351  31.294  29.396  1.00  0.00     0.029 A 
ATOM     56  N   UNL A   1      45.956  29.634  28.905  1.00  0.00    -0.354 N 
ATOM     57  N   UNL A   1      45.256  26.875  28.161  1.00  0.00    -0.248 NA
ATOM     58  C   UNL A   1      45.898  24.725  27.510  1.00  0.00     0.031 C 
ATOM     59  C   UNL A   1      48.106  30.168  29.053  1.00  0.00     0.029 A 
ATOM     60  C   UNL A   1      47.237  29.125  28.771  1.00  0.00     0.049 A 
ATOM     61  H   UNL A   1      45.127  29.123  28.755  1.00  0.00     0.167 HD
ATOM     62  C   UNL A   1      46.644  26.801  28.139  1.00  0.00     0.074 A 
ATOM     63  C   UNL A   1      46.984  25.445  27.760  1.00  0.00     0.031 C 
ATOM     64  C   UNL A   1      47.555  27.768  28.408  1.00  0.00     0.037 A 
BRANCH  51  65
ATOM     65  C   UNL A   1      45.086  33.250  29.866  1.00  0.00     0.058 A 
ATOM     66  C   UNL A   1      44.997  34.264  28.898  1.00  0.00     0.135 A 
ATOM     67  C   UNL A   1      45.372  33.633  31.186  1.00  0.00     0.135 A 
ATOM     68  F   UNL A   1      44.740  33.957  27.616  1.00  0.00    -0.206 F 
ATOM     69  C   UNL A   1      45.228  35.598  29.217  1.00  0.00     0.059 A 
ATOM     70  C   UNL A   1      45.573  34.966  31.535  1.00  0.00     0.059 A 
ATOM     71  F   UNL A   1      45.466  32.706  32.154  1.00  0.00    -0.206 F 
ATOM     72  C   UNL A   1      45.517  35.938  30.539  1.00  0.00     0.060 A 
BRANCH  72  73
ATOM     73  S   UNL A   1      45.817  37.674  30.933  1.00  0.00     0.124 S 
ATOM     74  O   UNL A   1      46.867  38.011  29.978  1.00  0.00    -0.237 OA
ATOM     75  O   UNL A   1      44.513  38.281  30.681  1.00  0.00    -0.237 OA
ATOM     76  O   UNL A   1      46.229  37.638  32.333  1.00  0.00    -0.744 OA
ENDBRANCH  72  73
ENDBRANCH  51  65
BRANCH  52  77
ATOM     77  C   UNL A   1      43.129  23.785  27.279  1.00  0.00     0.058 A 
ATOM     78  C   UNL A   1      42.892  22.782  28.232  1.00  0.00     0.135 A 
ATOM     79  C   UNL A   1      43.080  23.421  25.925  1.00  0.00     0.135 A 
ATOM     80  F   UNL A   1      42.935  23.077  29.540  1.00  0.00    -0.206 F 
ATOM     81  C   UNL A   1      42.635  21.466  27.860  1.00  0.00     0.059 A 
ATOM     82  C   UNL A   1      42.799  22.116  25.527  1.00  0.00     0.059 A 
ATOM     83  F   UNL A   1      43.280  24.344  24.972  1.00  0.00    -0.206 F 
ATOM     84  C   UNL A   1      42.589  21.143  26.504  1.00  0.00     0.060 A 
BRANCH  84  85
ATOM     85  S   UNL A   1      42.205  19.442  26.031  1.00  0.00     0.124 S 
ATOM     86  O   UNL A   1      42.499  18.721  27.264  1.00  0.00    -0.237 OA
ATOM     87  O   UNL A   1      40.793  19.535  25.668  1.00  0.00    -0.237 OA
ATOM     88  O   UNL A   1      43.115  19.190  24.918  1.00  0.00    -0.744 OA
ENDBRANCH  84  85
ENDBRANCH  52  77
BRANCH  64  89
ATOM     89  C   UNL A   1      49.008  27.389  28.344  1.00  0.00     0.058 A 
ATOM     90  C   UNL A   1      49.712  27.364  27.131  1.00  0.00     0.135 A 
ATOM     91  C   UNL A   1      49.719  27.109  29.523  1.00  0.00     0.135 A 
ATOM     92  F   UNL A   1      49.077  27.618  25.976  1.00  0.00    -0.206 F 
ATOM     93  C   UNL A   1      51.067  27.055  27.085  1.00  0.00     0.059 A 
ATOM     94  C   UNL A   1      51.080  26.824  29.504  1.00  0.00     0.059 A 
ATOM     95  F   UNL A   1      49.094  27.130  30.711  1.00  0.00    -0.206 F 
ATOM     96  C   UNL A   1      51.744  26.789  28.278  1.00  0.00     0.060 A 
BRANCH  96  97
ATOM     97  S   UNL A   1      53.511  26.431  28.209  1.00  0.00     0.124 S 
ATOM     98  O   UNL A   1      54.063  27.738  27.871  1.00  0.00    -0.237 OA
ATOM     99  O   UNL A   1      53.786  25.955  29.561  1.00  0.00    -0.237 OA
ATOM    100  O   UNL A   1      53.611  25.418  27.162  1.00  0.00    -0.744 OA
ENDBRANCH  96  97
ENDBRANCH  64  89
ENDBRANCH  38  39
ENDBRANCH  30  33
ENDBRANCH  28  29
ENDBRANCH  27  28
ENDBRANCH   1  27
TORSDOF 19
ENDMDL
