MODEL 1
REMARK VINA RESULT:     -12.6      0.000      0.000
REMARK SMILES COc1cc([C@@H]2CC(NCCCNC(=O)c3ccc(-c4c5nc(c(-c6c(F)cc(S(=O)(=O)[O-])cc6F)c6ccc([nH]6)c(-c6c(F)cc(S(=O)(=O)[O-])cc6F)c6nc(c(-c7c(F)cc(S(=O)(=O)[O-])cc7F)c7ccc4[nH]7)C=C6)C=C5)cc3)=[NH+]c3c(C(=O)[O-])cn(-c4ccc(Cl)cc4)c32)cc(OC)c1O
REMARK SMILES IDX 12 1 11 2 10 3 9 4 6 5 7 6 97 7 8 8 83 9 89 10 82 11 84 12
REMARK SMILES IDX 88 13 5 16 3 17 4 18 102 19 99 20 98 21 2 22 1 23 103 24
REMARK SMILES IDX 100 26 101 27 90 28 91 29 96 30 92 31 95 32 93 33 94 34
REMARK SMILES IDX 85 35 86 36 87 37 13 38 14 39 15 41 16 42 17 43 81 44 18 45
REMARK SMILES IDX 80 46 19 47 20 48 21 49 74 50 22 51 79 52 73 53 75 54 23 55
REMARK SMILES IDX 78 56 72 57 71 58 24 60 58 61 37 62 57 63 38 64 41 65 56 66
REMARK SMILES IDX 76 67 39 68 40 69 55 71 77 72 42 73 25 74 26 75 35 76 27 77
REMARK SMILES IDX 28 78 34 79 36 80 29 81 30 82 31 83 32 84 33 85 59 86 60 87
REMARK SMILES IDX 69 88 61 89 62 90 68 91 70 92 63 93 64 94 65 95 66 96 67 97
REMARK SMILES IDX 43 98 44 99 53 100 45 101 46 102 52 103 54 104 47 105 48 106
REMARK SMILES IDX 49 107 50 108 51 109
REMARK H PARENT 9 14 82 15 103 25 13 40 75 59 41 70
REMARK Flexibility Score: inf
ROOT
ATOM      1  C   UNL A   1      42.772  21.744  25.915  1.00  0.00     0.120 C 
ENDROOT
BRANCH   1   2
ATOM      2  C   UNL A   1      42.526  20.274  25.626  1.00  0.00     0.067 C 
BRANCH   2   3
ATOM      3  C   UNL A   1      41.569  19.626  26.626  1.00  0.00     0.235 C 
BRANCH   3   4
ATOM      4  N   UNL A   1      40.270  19.321  26.043  1.00  0.00    -0.278 N 
ATOM      5  C   UNL A   1      37.006  20.910  24.703  1.00  0.00     0.083 C 
ATOM      6  C   UNL A   1      38.104  19.851  24.973  1.00  0.00     0.142 C 
ATOM      7  C   UNL A   1      37.321  22.194  25.401  1.00  0.00     0.078 A 
ATOM      8  C   UNL A   1      39.283  20.271  25.851  1.00  0.00     0.248 C 
ATOM      9  C   UNL A   1      38.487  22.408  26.097  1.00  0.00     0.155 A 
ATOM     10  N   UNL A   1      36.745  23.441  25.204  1.00  0.00    -0.315 N 
ATOM     11  N   UNL A   1      39.431  21.442  26.393  1.00  0.00    -0.243 N 
ATOM     12  C   UNL A   1      38.699  23.785  26.301  1.00  0.00     0.062 A 
ATOM     13  C   UNL A   1      37.610  24.398  25.707  1.00  0.00     0.106 A 
ATOM     14  H   UNL A   1      40.084  18.393  25.773  1.00  0.00     0.304 HD
ATOM     15  H   UNL A   1      40.188  21.635  26.992  1.00  0.00     0.312 HD
BRANCH   5  16
ATOM     16  C   UNL A   1      35.641  20.288  24.927  1.00  0.00    -0.031 A 
ATOM     17  C   UNL A   1      34.283  18.254  24.958  1.00  0.00     0.164 A 
ATOM     18  C   UNL A   1      35.438  18.945  24.578  1.00  0.00     0.055 A 
ATOM     19  C   UNL A   1      33.299  18.923  25.707  1.00  0.00     0.200 A 
ATOM     20  C   UNL A   1      33.438  20.288  26.004  1.00  0.00     0.164 A 
ATOM     21  C   UNL A   1      34.609  20.956  25.598  1.00  0.00     0.055 A 
BRANCH  17  22
ATOM     22  O   UNL A   1      34.307  16.937  24.570  1.00  0.00    -0.493 OA
ATOM     23  C   UNL A   1      34.018  16.617  23.212  1.00  0.00     0.278 C 
ENDBRANCH  17  22
BRANCH  19  24
ATOM     24  O   UNL A   1      32.347  18.146  26.276  1.00  0.00    -0.502 OA
ATOM     25  H   UNL A   1      32.586  17.335  26.683  1.00  0.00     0.293 HD
ENDBRANCH  19  24
BRANCH  20  26
ATOM     26  O   UNL A   1      32.610  21.112  26.719  1.00  0.00    -0.493 OA
ATOM     27  C   UNL A   1      33.166  22.142  27.521  1.00  0.00     0.278 C 
ENDBRANCH  20  26
ENDBRANCH   5  16
BRANCH  10  28
ATOM     28  C   UNL A   1      35.534  23.774  24.551  1.00  0.00     0.046 A 
ATOM     29  C   UNL A   1      34.603  24.605  25.178  1.00  0.00     0.028 A 
ATOM     30  C   UNL A   1      35.324  23.351  23.231  1.00  0.00     0.028 A 
ATOM     31  C   UNL A   1      33.438  24.977  24.503  1.00  0.00     0.022 A 
ATOM     32  C   UNL A   1      34.153  23.716  22.564  1.00  0.00     0.022 A 
ATOM     33  C   UNL A   1      33.215  24.527  23.202  1.00  0.00     0.041 A 
ATOM     34  Cl  UNL A   1      31.783  24.991  22.367  1.00  0.00    -0.084 Cl
ENDBRANCH  10  28
BRANCH  12  35
ATOM     35  C   UNL A   1      39.809  24.500  26.910  1.00  0.00     0.077 C 
ATOM     36  O   UNL A   1      40.117  25.651  26.670  1.00  0.00    -0.545 OA
ATOM     37  O   UNL A   1      40.551  23.787  27.791  1.00  0.00    -0.545 OA
ENDBRANCH  12  35
ENDBRANCH   3   4
ENDBRANCH   2   3
ENDBRANCH   1   2
BRANCH   1  38
ATOM     38  N   UNL A   1      44.001  22.270  25.297  1.00  0.00    -0.352 N 
ATOM     39  C   UNL A   1      44.465  23.576  25.276  1.00  0.00     0.251 C 
ATOM     40  H   UNL A   1      44.565  21.608  24.838  1.00  0.00     0.163 HD
ATOM     41  O   UNL A   1      45.305  23.931  24.456  1.00  0.00    -0.269 OA
BRANCH  39  42
ATOM     42  C   UNL A   1      43.933  24.528  26.267  1.00  0.00     0.039 A 
ATOM     43  C   UNL A   1      44.113  24.374  27.645  1.00  0.00     0.014 A 
ATOM     44  C   UNL A   1      43.277  25.642  25.762  1.00  0.00     0.014 A 
ATOM     45  C   UNL A   1      43.694  25.401  28.492  1.00  0.00     0.010 A 
ATOM     46  C   UNL A   1      43.109  26.737  26.555  1.00  0.00     0.010 A 
ATOM     47  C   UNL A   1      43.207  26.591  27.930  1.00  0.00    -0.014 A 
BRANCH  47  48
ATOM     48  C   UNL A   1      42.869  27.762  28.730  1.00  0.00     0.031 A 
ATOM     49  C   UNL A   1      43.878  28.849  28.664  1.00  0.00     0.074 A 
ATOM     50  C   UNL A   1      41.628  27.942  29.242  1.00  0.00     0.049 A 
ATOM     51  N   UNL A   1      44.649  29.273  29.609  1.00  0.00    -0.248 NA
ATOM     52  C   UNL A   1      44.189  29.426  27.343  1.00  0.00     0.031 C 
ATOM     53  C   UNL A   1      40.443  27.085  29.084  1.00  0.00     0.029 A 
ATOM     54  N   UNL A   1      41.122  29.003  29.924  1.00  0.00    -0.354 N 
ATOM     55  C   UNL A   1      45.349  30.346  29.068  1.00  0.00     0.074 A 
ATOM     56  C   UNL A   1      45.207  30.237  27.640  1.00  0.00     0.031 C 
ATOM     57  C   UNL A   1      39.332  27.766  29.441  1.00  0.00     0.029 A 
ATOM     58  C   UNL A   1      39.730  29.038  30.012  1.00  0.00     0.049 A 
ATOM     59  H   UNL A   1      41.696  29.695  30.326  1.00  0.00     0.167 HD
ATOM     60  C   UNL A   1      45.748  31.391  29.845  1.00  0.00     0.037 A 
ATOM     61  C   UNL A   1      38.970  30.060  30.491  1.00  0.00     0.037 A 
ATOM     62  C   UNL A   1      45.699  31.045  31.245  1.00  0.00     0.049 A 
ATOM     63  C   UNL A   1      39.871  30.904  31.318  1.00  0.00     0.074 A 
ATOM     64  C   UNL A   1      46.266  30.040  32.007  1.00  0.00     0.029 A 
ATOM     65  N   UNL A   1      44.642  31.519  31.988  1.00  0.00    -0.354 N 
ATOM     66  N   UNL A   1      40.411  30.497  32.436  1.00  0.00    -0.248 NA
ATOM     67  C   UNL A   1      40.564  31.996  30.651  1.00  0.00     0.031 C 
ATOM     68  C   UNL A   1      45.229  29.624  32.895  1.00  0.00     0.029 A 
ATOM     69  C   UNL A   1      44.129  30.458  32.694  1.00  0.00     0.049 A 
ATOM     70  H   UNL A   1      44.315  32.447  32.010  1.00  0.00     0.167 HD
ATOM     71  C   UNL A   1      41.716  30.967  32.391  1.00  0.00     0.074 A 
ATOM     72  C   UNL A   1      41.730  31.945  31.302  1.00  0.00     0.031 C 
ATOM     73  C   UNL A   1      42.729  30.311  33.030  1.00  0.00     0.037 A 
BRANCH  60  74
ATOM     74  C   UNL A   1      45.823  32.821  29.362  1.00  0.00     0.058 A 
ATOM     75  C   UNL A   1      44.645  33.480  28.958  1.00  0.00     0.135 A 
ATOM     76  C   UNL A   1      47.029  33.485  29.038  1.00  0.00     0.135 A 
ATOM     77  F   UNL A   1      43.442  32.932  29.190  1.00  0.00    -0.206 F 
ATOM     78  C   UNL A   1      44.666  34.681  28.245  1.00  0.00     0.059 A 
ATOM     79  C   UNL A   1      47.072  34.709  28.383  1.00  0.00     0.059 A 
ATOM     80  F   UNL A   1      48.231  32.935  29.250  1.00  0.00    -0.206 F 
ATOM     81  C   UNL A   1      45.888  35.283  27.956  1.00  0.00     0.060 A 
BRANCH  81  82
ATOM     82  S   UNL A   1      45.928  36.787  26.968  1.00  0.00     0.124 S 
ATOM     83  O   UNL A   1      44.518  36.952  26.634  1.00  0.00    -0.237 OA
ATOM     84  O   UNL A   1      46.480  37.753  27.913  1.00  0.00    -0.237 OA
ATOM     85  O   UNL A   1      46.805  36.435  25.856  1.00  0.00    -0.744 OA
ENDBRANCH  81  82
ENDBRANCH  60  74
BRANCH  61  86
ATOM     86  C   UNL A   1      37.639  30.536  30.019  1.00  0.00     0.058 A 
ATOM     87  C   UNL A   1      36.695  31.111  30.894  1.00  0.00     0.135 A 
ATOM     88  C   UNL A   1      37.375  30.707  28.651  1.00  0.00     0.135 A 
ATOM     89  F   UNL A   1      36.859  31.002  32.222  1.00  0.00    -0.206 F 
ATOM     90  C   UNL A   1      35.605  31.875  30.440  1.00  0.00     0.059 A 
ATOM     91  C   UNL A   1      36.286  31.436  28.185  1.00  0.00     0.059 A 
ATOM     92  F   UNL A   1      38.226  30.268  27.712  1.00  0.00    -0.206 F 
ATOM     93  C   UNL A   1      35.425  32.060  29.073  1.00  0.00     0.060 A 
BRANCH  93  94
ATOM     94  S   UNL A   1      34.196  33.239  28.445  1.00  0.00     0.124 S 
ATOM     95  O   UNL A   1      33.723  33.869  29.671  1.00  0.00    -0.237 OA
ATOM     96  O   UNL A   1      34.991  34.081  27.559  1.00  0.00    -0.237 OA
ATOM     97  O   UNL A   1      33.212  32.399  27.755  1.00  0.00    -0.744 OA
ENDBRANCH  93  94
ENDBRANCH  61  86
BRANCH  73  98
ATOM     98  C   UNL A   1      42.374  29.205  33.998  1.00  0.00     0.058 A 
ATOM     99  C   UNL A   1      42.267  27.842  33.658  1.00  0.00     0.135 A 
ATOM    100  C   UNL A   1      42.297  29.524  35.360  1.00  0.00     0.135 A 
ATOM    101  F   UNL A   1      42.431  27.431  32.395  1.00  0.00    -0.206 F 
ATOM    102  C   UNL A   1      42.055  26.853  34.622  1.00  0.00     0.059 A 
ATOM    103  C   UNL A   1      42.117  28.553  36.341  1.00  0.00     0.059 A 
ATOM    104  F   UNL A   1      42.449  30.797  35.761  1.00  0.00    -0.206 F 
ATOM    105  C   UNL A   1      41.983  27.219  35.964  1.00  0.00     0.060 A 
BRANCH 105 106
ATOM    106  S   UNL A   1      41.775  25.937  37.220  1.00  0.00     0.124 S 
ATOM    107  O   UNL A   1      42.012  24.718  36.455  1.00  0.00    -0.237 OA
ATOM    108  O   UNL A   1      42.801  26.281  38.200  1.00  0.00    -0.237 OA
ATOM    109  O   UNL A   1      40.400  26.128  37.678  1.00  0.00    -0.744 OA
ENDBRANCH 105 106
ENDBRANCH  73  98
ENDBRANCH  47  48
ENDBRANCH  39  42
ENDBRANCH   1  38
TORSDOF 18
ENDMDL
MODEL 2
REMARK VINA RESULT:     -12.2      2.124      4.194
REMARK SMILES COc1cc([C@@H]2CC(NCCCNC(=O)c3ccc(-c4c5nc(c(-c6c(F)cc(S(=O)(=O)[O-])cc6F)c6ccc([nH]6)c(-c6c(F)cc(S(=O)(=O)[O-])cc6F)c6nc(c(-c7c(F)cc(S(=O)(=O)[O-])cc7F)c7ccc4[nH]7)C=C6)C=C5)cc3)=[NH+]c3c(C(=O)[O-])cn(-c4ccc(Cl)cc4)c32)cc(OC)c1O
REMARK SMILES IDX 12 1 11 2 10 3 9 4 6 5 7 6 97 7 8 8 83 9 89 10 82 11 84 12
REMARK SMILES IDX 88 13 5 16 3 17 4 18 102 19 99 20 98 21 2 22 1 23 103 24
REMARK SMILES IDX 100 26 101 27 90 28 91 29 96 30 92 31 95 32 93 33 94 34
REMARK SMILES IDX 85 35 86 36 87 37 13 38 14 39 15 41 16 42 17 43 81 44 18 45
REMARK SMILES IDX 80 46 19 47 20 48 21 49 74 50 22 51 79 52 73 53 75 54 23 55
REMARK SMILES IDX 78 56 72 57 71 58 24 60 58 61 37 62 57 63 38 64 41 65 56 66
REMARK SMILES IDX 76 67 39 68 40 69 55 71 77 72 42 73 25 74 26 75 35 76 27 77
REMARK SMILES IDX 28 78 34 79 36 80 29 81 30 82 31 83 32 84 33 85 59 86 60 87
REMARK SMILES IDX 69 88 61 89 62 90 68 91 70 92 63 93 64 94 65 95 66 96 67 97
REMARK SMILES IDX 43 98 44 99 53 100 45 101 46 102 52 103 54 104 47 105 48 106
REMARK SMILES IDX 49 107 50 108 51 109
REMARK H PARENT 9 14 82 15 103 25 13 40 75 59 41 70
REMARK Flexibility Score: inf
ROOT
ATOM      1  C   UNL A   1      40.211  22.413  26.204  1.00  0.00     0.120 C 
ENDROOT
BRANCH   1   2
ATOM      2  C   UNL A   1      39.473  21.155  25.783  1.00  0.00     0.067 C 
BRANCH   2   3
ATOM      3  C   UNL A   1      37.979  21.210  26.103  1.00  0.00     0.235 C 
BRANCH   3   4
ATOM      4  N   UNL A   1      37.419  22.545  25.939  1.00  0.00    -0.278 N 
ATOM      5  C   UNL A   1      34.131  24.490  25.326  1.00  0.00     0.083 C 
ATOM      6  C   UNL A   1      35.606  24.211  25.708  1.00  0.00     0.142 C 
ATOM      7  C   UNL A   1      33.461  23.245  24.841  1.00  0.00     0.078 A 
ATOM      8  C   UNL A   1      36.111  22.777  25.553  1.00  0.00     0.248 C 
ATOM      9  C   UNL A   1      34.069  22.012  24.843  1.00  0.00     0.155 A 
ATOM     10  N   UNL A   1      32.104  23.016  24.660  1.00  0.00    -0.315 N 
ATOM     11  N   UNL A   1      35.403  21.778  25.120  1.00  0.00    -0.243 N 
ATOM     12  C   UNL A   1      33.112  20.986  24.723  1.00  0.00     0.062 A 
ATOM     13  C   UNL A   1      31.899  21.647  24.640  1.00  0.00     0.106 A 
ATOM     14  H   UNL A   1      38.000  23.321  26.112  1.00  0.00     0.304 HD
ATOM     15  H   UNL A   1      35.801  20.887  24.992  1.00  0.00     0.312 HD
BRANCH   5  16
ATOM     16  C   UNL A   1      34.064  25.729  24.452  1.00  0.00    -0.031 A 
ATOM     17  C   UNL A   1      33.644  26.665  22.233  1.00  0.00     0.164 A 
ATOM     18  C   UNL A   1      33.931  25.579  23.065  1.00  0.00     0.055 A 
ATOM     19  C   UNL A   1      33.486  27.941  22.801  1.00  0.00     0.200 A 
ATOM     20  C   UNL A   1      33.689  28.137  24.176  1.00  0.00     0.164 A 
ATOM     21  C   UNL A   1      33.987  27.023  24.984  1.00  0.00     0.055 A 
BRANCH  17  22
ATOM     22  O   UNL A   1      33.495  26.295  20.918  1.00  0.00    -0.493 OA
ATOM     23  C   UNL A   1      32.330  25.569  20.537  1.00  0.00     0.278 C 
ENDBRANCH  17  22
BRANCH  19  24
ATOM     24  O   UNL A   1      32.944  28.891  22.001  1.00  0.00    -0.502 OA
ATOM     25  H   UNL A   1      33.385  29.150  21.216  1.00  0.00     0.293 HD
ENDBRANCH  19  24
BRANCH  20  26
ATOM     26  O   UNL A   1      33.577  29.282  24.919  1.00  0.00    -0.493 OA
ATOM     27  C   UNL A   1      32.352  29.582  25.568  1.00  0.00     0.278 C 
ENDBRANCH  20  26
ENDBRANCH   5  16
BRANCH  10  28
ATOM     28  C   UNL A   1      31.043  23.948  24.576  1.00  0.00     0.046 A 
ATOM     29  C   UNL A   1      30.588  24.601  25.723  1.00  0.00     0.028 A 
ATOM     30  C   UNL A   1      30.523  24.288  23.319  1.00  0.00     0.028 A 
ATOM     31  C   UNL A   1      29.581  25.564  25.622  1.00  0.00     0.022 A 
ATOM     32  C   UNL A   1      29.508  25.242  23.224  1.00  0.00     0.022 A 
ATOM     33  C   UNL A   1      29.041  25.876  24.375  1.00  0.00     0.041 A 
ATOM     34  Cl  UNL A   1      27.805  27.067  24.248  1.00  0.00    -0.084 Cl
ENDBRANCH  10  28
BRANCH  12  35
ATOM     35  C   UNL A   1      33.256  19.539  24.750  1.00  0.00     0.077 C 
ATOM     36  O   UNL A   1      34.310  18.938  24.667  1.00  0.00    -0.545 OA
ATOM     37  O   UNL A   1      32.101  18.838  24.852  1.00  0.00    -0.545 OA
ENDBRANCH  12  35
ENDBRANCH   3   4
ENDBRANCH   2   3
ENDBRANCH   1   2
BRANCH   1  38
ATOM     38  N   UNL A   1      41.612  22.455  25.752  1.00  0.00    -0.352 N 
ATOM     39  C   UNL A   1      42.459  23.549  25.667  1.00  0.00     0.251 C 
ATOM     40  H   UNL A   1      41.997  21.594  25.472  1.00  0.00     0.163 HD
ATOM     41  O   UNL A   1      43.466  23.511  24.969  1.00  0.00    -0.269 OA
BRANCH  39  42
ATOM     42  C   UNL A   1      42.127  24.758  26.441  1.00  0.00     0.039 A 
ATOM     43  C   UNL A   1      41.175  24.769  27.465  1.00  0.00     0.014 A 
ATOM     44  C   UNL A   1      42.855  25.901  26.143  1.00  0.00     0.014 A 
ATOM     45  C   UNL A   1      41.033  25.927  28.232  1.00  0.00     0.010 A 
ATOM     46  C   UNL A   1      42.898  26.923  27.044  1.00  0.00     0.010 A 
ATOM     47  C   UNL A   1      41.917  26.996  28.021  1.00  0.00    -0.014 A 
BRANCH  47  48
ATOM     48  C   UNL A   1      41.928  28.189  28.859  1.00  0.00     0.031 A 
ATOM     49  C   UNL A   1      42.970  29.180  28.484  1.00  0.00     0.074 A 
ATOM     50  C   UNL A   1      40.906  28.481  29.698  1.00  0.00     0.049 A 
ATOM     51  N   UNL A   1      44.013  29.525  29.162  1.00  0.00    -0.248 NA
ATOM     52  C   UNL A   1      42.942  29.732  27.117  1.00  0.00     0.031 C 
ATOM     53  C   UNL A   1      39.653  27.737  29.902  1.00  0.00     0.029 A 
ATOM     54  N   UNL A   1      40.714  29.581  30.472  1.00  0.00    -0.354 N 
ATOM     55  C   UNL A   1      44.623  30.532  28.420  1.00  0.00     0.074 A 
ATOM     56  C   UNL A   1      44.070  30.443  27.094  1.00  0.00     0.031 C 
ATOM     57  C   UNL A   1      38.757  28.517  30.545  1.00  0.00     0.029 A 
ATOM     58  C   UNL A   1      39.413  29.744  30.952  1.00  0.00     0.049 A 
ATOM     59  H   UNL A   1      41.437  30.215  30.680  1.00  0.00     0.167 HD
ATOM     60  C   UNL A   1      45.320  31.532  29.029  1.00  0.00     0.037 A 
ATOM     61  C   UNL A   1      38.917  30.829  31.605  1.00  0.00     0.037 A 
ATOM     62  C   UNL A   1      45.641  31.185  30.392  1.00  0.00     0.049 A 
ATOM     63  C   UNL A   1      40.088  31.582  32.123  1.00  0.00     0.074 A 
ATOM     64  C   UNL A   1      46.309  30.129  30.983  1.00  0.00     0.029 A 
ATOM     65  N   UNL A   1      44.887  31.752  31.395  1.00  0.00    -0.354 N 
ATOM     66  N   UNL A   1      40.886  31.122  33.049  1.00  0.00    -0.248 NA
ATOM     67  C   UNL A   1      40.657  32.609  31.263  1.00  0.00     0.031 C 
ATOM     68  C   UNL A   1      45.536  29.806  32.138  1.00  0.00     0.029 A 
ATOM     69  C   UNL A   1      44.503  30.739  32.241  1.00  0.00     0.049 A 
ATOM     70  H   UNL A   1      44.664  32.705  31.488  1.00  0.00     0.167 HD
ATOM     71  C   UNL A   1      42.160  31.470  32.625  1.00  0.00     0.074 A 
ATOM     72  C   UNL A   1      41.950  32.447  31.556  1.00  0.00     0.031 C 
ATOM     73  C   UNL A   1      43.250  30.720  32.963  1.00  0.00     0.037 A 
BRANCH  60  74
ATOM     74  C   UNL A   1      45.381  32.952  28.513  1.00  0.00     0.058 A 
ATOM     75  C   UNL A   1      46.634  33.569  28.328  1.00  0.00     0.135 A 
ATOM     76  C   UNL A   1      44.263  33.815  28.436  1.00  0.00     0.135 A 
ATOM     77  F   UNL A   1      47.767  32.853  28.404  1.00  0.00    -0.206 F 
ATOM     78  C   UNL A   1      46.768  34.945  28.131  1.00  0.00     0.059 A 
ATOM     79  C   UNL A   1      44.370  35.176  28.181  1.00  0.00     0.059 A 
ATOM     80  F   UNL A   1      43.018  33.403  28.704  1.00  0.00    -0.206 F 
ATOM     81  C   UNL A   1      45.627  35.741  28.067  1.00  0.00     0.060 A 
BRANCH  81  82
ATOM     82  S   UNL A   1      45.794  37.525  27.894  1.00  0.00     0.124 S 
ATOM     83  O   UNL A   1      45.678  37.963  29.280  1.00  0.00    -0.237 OA
ATOM     84  O   UNL A   1      47.118  37.646  27.293  1.00  0.00    -0.237 OA
ATOM     85  O   UNL A   1      44.680  37.883  27.022  1.00  0.00    -0.744 OA
ENDBRANCH  81  82
ENDBRANCH  60  74
BRANCH  61  86
ATOM     86  C   UNL A   1      37.554  31.428  31.520  1.00  0.00     0.058 A 
ATOM     87  C   UNL A   1      36.693  31.491  32.636  1.00  0.00     0.135 A 
ATOM     88  C   UNL A   1      37.176  32.215  30.422  1.00  0.00     0.135 A 
ATOM     89  F   UNL A   1      36.969  30.774  33.736  1.00  0.00    -0.206 F 
ATOM     90  C   UNL A   1      35.576  32.343  32.685  1.00  0.00     0.059 A 
ATOM     91  C   UNL A   1      36.057  33.041  30.444  1.00  0.00     0.059 A 
ATOM     92  F   UNL A   1      37.940  32.299  29.323  1.00  0.00    -0.206 F 
ATOM     93  C   UNL A   1      35.281  33.145  31.586  1.00  0.00     0.060 A 
BRANCH  93  94
ATOM     94  S   UNL A   1      34.013  34.439  31.689  1.00  0.00     0.124 S 
ATOM     95  O   UNL A   1      33.144  33.931  32.743  1.00  0.00    -0.237 OA
ATOM     96  O   UNL A   1      34.798  35.623  32.023  1.00  0.00    -0.237 OA
ATOM     97  O   UNL A   1      33.419  34.469  30.349  1.00  0.00    -0.744 OA
ENDBRANCH  93  94
ENDBRANCH  61  86
BRANCH  73  98
ATOM     98  C   UNL A   1      43.088  29.647  34.016  1.00  0.00     0.058 A 
ATOM     99  C   UNL A   1      43.143  29.868  35.406  1.00  0.00     0.135 A 
ATOM    100  C   UNL A   1      42.702  28.367  33.596  1.00  0.00     0.135 A 
ATOM    101  F   UNL A   1      43.402  31.084  35.902  1.00  0.00    -0.206 F 
ATOM    102  C   UNL A   1      42.865  28.856  36.329  1.00  0.00     0.059 A 
ATOM    103  C   UNL A   1      42.391  27.352  34.496  1.00  0.00     0.059 A 
ATOM    104  F   UNL A   1      42.572  28.102  32.284  1.00  0.00    -0.206 F 
ATOM    105  C   UNL A   1      42.488  27.599  35.862  1.00  0.00     0.060 A 
BRANCH 105 106
ATOM    106  S   UNL A   1      42.064  26.305  37.051  1.00  0.00     0.124 S 
ATOM    107  O   UNL A   1      42.149  25.099  36.234  1.00  0.00    -0.237 OA
ATOM    108  O   UNL A   1      43.100  26.456  38.068  1.00  0.00    -0.237 OA
ATOM    109  O   UNL A   1      40.718  26.670  37.486  1.00  0.00    -0.744 OA
ENDBRANCH 105 106
ENDBRANCH  73  98
ENDBRANCH  47  48
ENDBRANCH  39  42
ENDBRANCH   1  38
TORSDOF 18
ENDMDL
MODEL 3
REMARK VINA RESULT:     -12.1      4.060      8.646
REMARK SMILES COc1cc([C@@H]2CC(NCCCNC(=O)c3ccc(-c4c5nc(c(-c6c(F)cc(S(=O)(=O)[O-])cc6F)c6ccc([nH]6)c(-c6c(F)cc(S(=O)(=O)[O-])cc6F)c6nc(c(-c7c(F)cc(S(=O)(=O)[O-])cc7F)c7ccc4[nH]7)C=C6)C=C5)cc3)=[NH+]c3c(C(=O)[O-])cn(-c4ccc(Cl)cc4)c32)cc(OC)c1O
REMARK SMILES IDX 12 1 11 2 10 3 9 4 6 5 7 6 97 7 8 8 83 9 89 10 82 11 84 12
REMARK SMILES IDX 88 13 5 16 3 17 4 18 102 19 99 20 98 21 2 22 1 23 103 24
REMARK SMILES IDX 100 26 101 27 90 28 91 29 96 30 92 31 95 32 93 33 94 34
REMARK SMILES IDX 85 35 86 36 87 37 13 38 14 39 15 41 16 42 17 43 81 44 18 45
REMARK SMILES IDX 80 46 19 47 20 48 21 49 74 50 22 51 79 52 73 53 75 54 23 55
REMARK SMILES IDX 78 56 72 57 71 58 24 60 58 61 37 62 57 63 38 64 41 65 56 66
REMARK SMILES IDX 76 67 39 68 40 69 55 71 77 72 42 73 25 74 26 75 35 76 27 77
REMARK SMILES IDX 28 78 34 79 36 80 29 81 30 82 31 83 32 84 33 85 59 86 60 87
REMARK SMILES IDX 69 88 61 89 62 90 68 91 70 92 63 93 64 94 65 95 66 96 67 97
REMARK SMILES IDX 43 98 44 99 53 100 45 101 46 102 52 103 54 104 47 105 48 106
REMARK SMILES IDX 49 107 50 108 51 109
REMARK H PARENT 9 14 82 15 103 25 13 40 75 59 41 70
REMARK Flexibility Score: inf
ROOT
ATOM      1  C   UNL A   1      42.806  22.702  25.233  1.00  0.00     0.120 C 
ENDROOT
BRANCH   1   2
ATOM      2  C   UNL A   1      43.965  21.893  25.788  1.00  0.00     0.067 C 
BRANCH   2   3
ATOM      3  C   UNL A   1      45.267  22.692  25.851  1.00  0.00     0.235 C 
BRANCH   3   4
ATOM      4  N   UNL A   1      45.514  23.259  27.170  1.00  0.00    -0.278 N 
ATOM      5  C   UNL A   1      47.315  26.130  29.038  1.00  0.00     0.083 C 
ATOM      6  C   UNL A   1      46.346  24.952  28.770  1.00  0.00     0.142 C 
ATOM      7  C   UNL A   1      48.185  26.384  27.849  1.00  0.00     0.078 A 
ATOM      8  C   UNL A   1      46.417  24.282  27.398  1.00  0.00     0.248 C 
ATOM      9  C   UNL A   1      48.048  25.714  26.658  1.00  0.00     0.155 A 
ATOM     10  N   UNL A   1      48.980  27.492  27.591  1.00  0.00    -0.315 N 
ATOM     11  N   UNL A   1      47.231  24.619  26.444  1.00  0.00    -0.243 N 
ATOM     12  C   UNL A   1      48.700  26.407  25.619  1.00  0.00     0.062 A 
ATOM     13  C   UNL A   1      49.243  27.523  26.231  1.00  0.00     0.106 A 
ATOM     14  H   UNL A   1      45.013  22.897  27.936  1.00  0.00     0.304 HD
ATOM     15  H   UNL A   1      47.265  24.115  25.599  1.00  0.00     0.312 HD
BRANCH   5  16
ATOM     16  C   UNL A   1      47.981  25.936  30.387  1.00  0.00    -0.031 A 
ATOM     17  C   UNL A   1      47.705  25.639  32.799  1.00  0.00     0.164 A 
ATOM     18  C   UNL A   1      47.204  26.022  31.551  1.00  0.00     0.055 A 
ATOM     19  C   UNL A   1      49.022  25.158  32.890  1.00  0.00     0.200 A 
ATOM     20  C   UNL A   1      49.850  25.133  31.757  1.00  0.00     0.164 A 
ATOM     21  C   UNL A   1      49.317  25.536  30.517  1.00  0.00     0.055 A 
BRANCH  17  22
ATOM     22  O   UNL A   1      46.766  25.743  33.796  1.00  0.00    -0.493 OA
ATOM     23  C   UNL A   1      46.610  26.993  34.463  1.00  0.00     0.278 C 
ENDBRANCH  17  22
BRANCH  19  24
ATOM     24  O   UNL A   1      49.360  24.550  34.053  1.00  0.00    -0.502 OA
ATOM     25  H   UNL A   1      50.138  24.808  34.508  1.00  0.00     0.293 HD
ENDBRANCH  19  24
BRANCH  20  26
ATOM     26  O   UNL A   1      51.144  24.700  31.632  1.00  0.00    -0.493 OA
ATOM     27  C   UNL A   1      52.178  25.638  31.385  1.00  0.00     0.278 C 
ENDBRANCH  20  26
ENDBRANCH   5  16
BRANCH  10  28
ATOM     28  C   UNL A   1      49.426  28.500  28.478  1.00  0.00     0.046 A 
ATOM     29  C   UNL A   1      50.667  28.384  29.107  1.00  0.00     0.028 A 
ATOM     30  C   UNL A   1      48.662  29.665  28.638  1.00  0.00     0.028 A 
ATOM     31  C   UNL A   1      51.127  29.412  29.934  1.00  0.00     0.022 A 
ATOM     32  C   UNL A   1      49.119  30.684  29.476  1.00  0.00     0.022 A 
ATOM     33  C   UNL A   1      50.349  30.553  30.120  1.00  0.00     0.041 A 
ATOM     34  Cl  UNL A   1      50.917  31.824  31.133  1.00  0.00    -0.084 Cl
ENDBRANCH  10  28
BRANCH  12  35
ATOM     35  C   UNL A   1      48.773  26.139  24.192  1.00  0.00     0.077 C 
ATOM     36  O   UNL A   1      49.511  26.707  23.410  1.00  0.00    -0.545 OA
ATOM     37  O   UNL A   1      47.922  25.192  23.730  1.00  0.00    -0.545 OA
ENDBRANCH  12  35
ENDBRANCH   3   4
ENDBRANCH   2   3
ENDBRANCH   1   2
BRANCH   1  38
ATOM     38  N   UNL A   1      41.484  22.181  25.620  1.00  0.00    -0.352 N 
ATOM     39  C   UNL A   1      40.609  22.672  26.577  1.00  0.00     0.251 C 
ATOM     40  H   UNL A   1      41.182  21.379  25.137  1.00  0.00     0.163 HD
ATOM     41  O   UNL A   1      39.715  21.967  27.031  1.00  0.00    -0.269 OA
BRANCH  39  42
ATOM     42  C   UNL A   1      40.772  24.064  27.031  1.00  0.00     0.039 A 
ATOM     43  C   UNL A   1      39.874  25.084  26.701  1.00  0.00     0.014 A 
ATOM     44  C   UNL A   1      41.850  24.318  27.867  1.00  0.00     0.014 A 
ATOM     45  C   UNL A   1      40.039  26.336  27.295  1.00  0.00     0.010 A 
ATOM     46  C   UNL A   1      41.855  25.446  28.632  1.00  0.00     0.010 A 
ATOM     47  C   UNL A   1      41.028  26.500  28.277  1.00  0.00    -0.014 A 
BRANCH  47  48
ATOM     48  C   UNL A   1      41.186  27.731  29.041  1.00  0.00     0.031 A 
ATOM     49  C   UNL A   1      42.238  28.638  28.513  1.00  0.00     0.074 A 
ATOM     50  C   UNL A   1      40.269  28.125  29.957  1.00  0.00     0.049 A 
ATOM     51  N   UNL A   1      43.360  28.955  29.067  1.00  0.00    -0.248 NA
ATOM     52  C   UNL A   1      42.105  29.120  27.126  1.00  0.00     0.031 C 
ATOM     53  C   UNL A   1      39.004  27.469  30.322  1.00  0.00     0.029 A 
ATOM     54  N   UNL A   1      40.215  29.273  30.683  1.00  0.00    -0.354 N 
ATOM     55  C   UNL A   1      43.948  29.884  28.214  1.00  0.00     0.074 A 
ATOM     56  C   UNL A   1      43.262  29.761  26.955  1.00  0.00     0.031 C 
ATOM     57  C   UNL A   1      38.220  28.332  31.003  1.00  0.00     0.029 A 
ATOM     58  C   UNL A   1      38.979  29.537  31.275  1.00  0.00     0.049 A 
ATOM     59  H   UNL A   1      40.989  29.873  30.784  1.00  0.00     0.167 HD
ATOM     60  C   UNL A   1      44.754  30.870  28.696  1.00  0.00     0.037 A 
ATOM     61  C   UNL A   1      38.609  30.682  31.911  1.00  0.00     0.037 A 
ATOM     62  C   UNL A   1      45.189  30.575  30.040  1.00  0.00     0.049 A 
ATOM     63  C   UNL A   1      39.865  31.388  32.271  1.00  0.00     0.074 A 
ATOM     64  C   UNL A   1      45.854  29.512  30.623  1.00  0.00     0.029 A 
ATOM     65  N   UNL A   1      44.570  31.235  31.077  1.00  0.00    -0.354 N 
ATOM     66  N   UNL A   1      40.724  30.929  33.141  1.00  0.00    -0.248 NA
ATOM     67  C   UNL A   1      40.401  32.335  31.303  1.00  0.00     0.031 C 
ATOM     68  C   UNL A   1      45.183  29.295  31.863  1.00  0.00     0.029 A 
ATOM     69  C   UNL A   1      44.218  30.292  32.011  1.00  0.00     0.049 A 
ATOM     70  H   UNL A   1      44.410  32.204  31.137  1.00  0.00     0.167 HD
ATOM     71  C   UNL A   1      41.967  31.179  32.577  1.00  0.00     0.074 A 
ATOM     72  C   UNL A   1      41.706  32.112  31.480  1.00  0.00     0.031 C 
ATOM     73  C   UNL A   1      43.043  30.384  32.851  1.00  0.00     0.037 A 
BRANCH  60  74
ATOM     74  C   UNL A   1      44.841  32.256  28.098  1.00  0.00     0.058 A 
ATOM     75  C   UNL A   1      46.020  32.654  27.437  1.00  0.00     0.135 A 
ATOM     76  C   UNL A   1      43.918  33.294  28.367  1.00  0.00     0.135 A 
ATOM     77  F   UNL A   1      46.979  31.759  27.152  1.00  0.00    -0.206 F 
ATOM     78  C   UNL A   1      46.283  33.987  27.113  1.00  0.00     0.059 A 
ATOM     79  C   UNL A   1      44.132  34.616  27.999  1.00  0.00     0.059 A 
ATOM     80  F   UNL A   1      42.808  33.098  29.088  1.00  0.00    -0.206 F 
ATOM     81  C   UNL A   1      45.333  34.961  27.407  1.00  0.00     0.060 A 
BRANCH  81  82
ATOM     82  S   UNL A   1      45.697  36.691  27.066  1.00  0.00     0.124 S 
ATOM     83  O   UNL A   1      46.405  37.083  28.278  1.00  0.00    -0.237 OA
ATOM     84  O   UNL A   1      46.505  36.595  25.854  1.00  0.00    -0.237 OA
ATOM     85  O   UNL A   1      44.375  37.283  26.886  1.00  0.00    -0.744 OA
ENDBRANCH  81  82
ENDBRANCH  60  74
BRANCH  61  86
ATOM     86  C   UNL A   1      37.279  31.355  31.924  1.00  0.00     0.058 A 
ATOM     87  C   UNL A   1      36.662  31.771  33.122  1.00  0.00     0.135 A 
ATOM     88  C   UNL A   1      36.717  31.870  30.746  1.00  0.00     0.135 A 
ATOM     89  F   UNL A   1      37.127  31.333  34.302  1.00  0.00    -0.206 F 
ATOM     90  C   UNL A   1      35.608  32.701  33.149  1.00  0.00     0.059 A 
ATOM     91  C   UNL A   1      35.656  32.769  30.755  1.00  0.00     0.059 A 
ATOM     92  F   UNL A   1      37.248  31.609  29.542  1.00  0.00    -0.206 F 
ATOM     93  C   UNL A   1      35.128  33.223  31.952  1.00  0.00     0.060 A 
BRANCH  93  94
ATOM     94  S   UNL A   1      33.953  34.607  31.942  1.00  0.00     0.124 S 
ATOM     95  O   UNL A   1      32.980  34.188  32.942  1.00  0.00    -0.237 OA
ATOM     96  O   UNL A   1      34.798  35.739  32.306  1.00  0.00    -0.237 OA
ATOM     97  O   UNL A   1      33.456  34.646  30.563  1.00  0.00    -0.744 OA
ENDBRANCH  93  94
ENDBRANCH  61  86
BRANCH  73  98
ATOM     98  C   UNL A   1      42.929  29.377  33.973  1.00  0.00     0.058 A 
ATOM     99  C   UNL A   1      42.449  28.061  33.827  1.00  0.00     0.135 A 
ATOM    100  C   UNL A   1      43.479  29.714  35.217  1.00  0.00     0.135 A 
ATOM    101  F   UNL A   1      42.000  27.617  32.647  1.00  0.00    -0.206 F 
ATOM    102  C   UNL A   1      42.481  27.140  34.877  1.00  0.00     0.059 A 
ATOM    103  C   UNL A   1      43.550  28.804  36.269  1.00  0.00     0.059 A 
ATOM    104  F   UNL A   1      44.009  30.934  35.408  1.00  0.00    -0.206 F 
ATOM    105  C   UNL A   1      43.036  27.522  36.097  1.00  0.00     0.060 A 
BRANCH 105 106
ATOM    106  S   UNL A   1      43.140  26.315  37.438  1.00  0.00     0.124 S 
ATOM    107  O   UNL A   1      44.046  26.973  38.373  1.00  0.00    -0.237 OA
ATOM    108  O   UNL A   1      41.751  26.202  37.873  1.00  0.00    -0.237 OA
ATOM    109  O   UNL A   1      43.678  25.124  36.784  1.00  0.00    -0.744 OA
ENDBRANCH 105 106
ENDBRANCH  73  98
ENDBRANCH  47  48
ENDBRANCH  39  42
ENDBRANCH   1  38
TORSDOF 18
ENDMDL
