MODEL 1
REMARK VINA RESULT:      -9.9      0.000      0.000
REMARK SMILES Cc1ccc(O)c(C(=O)CCCC(=O)NCCCNC(=O)c2ccc(-c3c4nc(c(-c5c(F)cc(S(=O)(=O)[O-])cc5F)c5ccc([nH]5)c(-c5c(F)cc(S(=O)(=O)[O-])cc5F)c5nc(c(-c6c(F)cc(S(=O)(=O)[O-])cc6F)c6ccc3[nH]6)C=C5)C=C4)cc2)c1
REMARK SMILES IDX 16 1 15 2 13 3 14 4 12 6 11 7 10 8 8 9 9 10 7 11 1 12 2 13
REMARK SMILES IDX 3 14 88 15 4 16 5 17 6 18 17 20 18 21 19 22 20 23 21 25
REMARK SMILES IDX 22 26 23 27 87 28 24 29 86 30 25 31 26 32 27 33 80 34 28 35
REMARK SMILES IDX 85 36 79 37 81 38 29 39 84 40 78 41 77 42 30 44 64 45 43 46
REMARK SMILES IDX 63 47 44 48 47 49 62 50 82 51 45 52 46 53 61 55 83 56 48 57
REMARK SMILES IDX 31 58 32 59 41 60 33 61 34 62 40 63 42 64 35 65 36 66 37 67
REMARK SMILES IDX 38 68 39 69 65 70 66 71 75 72 67 73 68 74 74 75 76 76 69 77
REMARK SMILES IDX 70 78 71 79 72 80 73 81 49 82 50 83 59 84 51 85 52 86 58 87
REMARK SMILES IDX 60 88 53 89 54 90 55 91 56 92 57 93
REMARK H PARENT 15 5 6 19 19 24 81 43 47 54
REMARK Flexibility Score: inf
ROOT
ATOM      1  C   UNL A   1      32.885  34.412  28.095  1.00  0.00     0.117 C 
ENDROOT
BRANCH   1   2
ATOM      2  N   UNL A   1      33.054  35.780  28.535  1.00  0.00    -0.356 N 
ATOM      3  C   UNL A   1      33.027  36.408  29.732  1.00  0.00     0.220 C 
ATOM      4  O   UNL A   1      33.261  37.624  29.685  1.00  0.00    -0.275 OA
ATOM      5  H   UNL A   1      33.229  36.398  27.788  1.00  0.00     0.163 HD
BRANCH   3   6
ATOM      6  C   UNL A   1      32.889  35.752  31.104  1.00  0.00     0.100 C 
BRANCH   6   7
ATOM      7  C   UNL A   1      33.908  35.845  32.241  1.00  0.00     0.018 C 
BRANCH   7   8
ATOM      8  C   UNL A   1      34.188  34.749  33.263  1.00  0.00     0.082 C 
BRANCH   8   9
ATOM      9  C   UNL A   1      35.559  34.109  33.545  1.00  0.00     0.166 C 
ATOM     10  O   UNL A   1      35.655  33.350  34.519  1.00  0.00    -0.294 OA
BRANCH   9  11
ATOM     11  C   UNL A   1      36.767  34.172  32.648  1.00  0.00     0.060 A 
ATOM     12  C   UNL A   1      37.799  33.358  29.057  1.00  0.00     0.044 C 
ATOM     13  C   UNL A   1      37.888  33.821  30.484  1.00  0.00    -0.050 A 
ATOM     14  C   UNL A   1      39.084  34.294  31.013  1.00  0.00     0.007 A 
ATOM     15  C   UNL A   1      36.751  33.796  31.307  1.00  0.00     0.019 A 
ATOM     16  C   UNL A   1      39.140  34.680  32.350  1.00  0.00     0.047 A 
ATOM     17  C   UNL A   1      38.001  34.607  33.159  1.00  0.00     0.126 A 
BRANCH  17  18
ATOM     18  O   UNL A   1      38.191  34.962  34.469  1.00  0.00    -0.507 OA
ATOM     19  H   UNL A   1      37.454  35.176  35.008  1.00  0.00     0.293 HD
ENDBRANCH  17  18
ENDBRANCH   9  11
ENDBRANCH   8   9
ENDBRANCH   7   8
ENDBRANCH   6   7
ENDBRANCH   3   6
ENDBRANCH   1   2
BRANCH   1  20
ATOM     20  C   UNL A   1      34.208  33.672  27.993  1.00  0.00     0.042 C 
BRANCH  20  21
ATOM     21  C   UNL A   1      34.163  32.312  28.655  1.00  0.00     0.118 C 
BRANCH  21  22
ATOM     22  N   UNL A   1      33.853  31.248  27.707  1.00  0.00    -0.352 N 
ATOM     23  C   UNL A   1      34.624  30.175  27.323  1.00  0.00     0.251 C 
ATOM     24  H   UNL A   1      32.966  31.305  27.282  1.00  0.00     0.163 HD
ATOM     25  O   UNL A   1      34.255  29.467  26.390  1.00  0.00    -0.269 OA
BRANCH  23  26
ATOM     26  C   UNL A   1      35.904  29.900  28.014  1.00  0.00     0.039 A 
ATOM     27  C   UNL A   1      35.886  29.360  29.302  1.00  0.00     0.014 A 
ATOM     28  C   UNL A   1      37.122  30.158  27.384  1.00  0.00     0.014 A 
ATOM     29  C   UNL A   1      37.090  29.037  29.931  1.00  0.00     0.010 A 
ATOM     30  C   UNL A   1      38.305  29.711  27.953  1.00  0.00     0.010 A 
ATOM     31  C   UNL A   1      38.309  29.184  29.249  1.00  0.00    -0.014 A 
BRANCH  31  32
ATOM     32  C   UNL A   1      39.609  28.873  29.894  1.00  0.00     0.031 A 
ATOM     33  C   UNL A   1      40.031  29.645  31.121  1.00  0.00     0.074 A 
ATOM     34  C   UNL A   1      40.430  27.952  29.352  1.00  0.00     0.049 A 
ATOM     35  N   UNL A   1      41.151  29.584  31.793  1.00  0.00    -0.248 NA
ATOM     36  C   UNL A   1      39.085  30.652  31.633  1.00  0.00     0.031 C 
ATOM     37  C   UNL A   1      40.164  27.192  28.128  1.00  0.00     0.029 A 
ATOM     38  N   UNL A   1      41.658  27.500  29.760  1.00  0.00    -0.354 N 
ATOM     39  C   UNL A   1      41.052  30.559  32.780  1.00  0.00     0.074 A 
ATOM     40  C   UNL A   1      39.801  31.250  32.571  1.00  0.00     0.031 C 
ATOM     41  C   UNL A   1      41.180  26.341  27.908  1.00  0.00     0.029 A 
ATOM     42  C   UNL A   1      42.182  26.517  28.954  1.00  0.00     0.049 A 
ATOM     43  H   UNL A   1      42.122  27.846  30.557  1.00  0.00     0.167 HD
ATOM     44  C   UNL A   1      41.905  30.829  33.796  1.00  0.00     0.037 A 
ATOM     45  C   UNL A   1      43.337  25.832  29.055  1.00  0.00     0.037 A 
ATOM     46  C   UNL A   1      43.120  30.097  34.030  1.00  0.00     0.049 A 
ATOM     47  C   UNL A   1      44.246  26.113  30.222  1.00  0.00     0.074 A 
ATOM     48  C   UNL A   1      44.028  30.239  35.063  1.00  0.00     0.029 A 
ATOM     49  N   UNL A   1      43.590  29.073  33.220  1.00  0.00    -0.354 N 
ATOM     50  N   UNL A   1      44.108  26.998  31.181  1.00  0.00    -0.248 NA
ATOM     51  C   UNL A   1      45.458  25.290  30.330  1.00  0.00     0.031 C 
ATOM     52  C   UNL A   1      45.066  29.323  34.859  1.00  0.00     0.029 A 
ATOM     53  C   UNL A   1      44.779  28.578  33.726  1.00  0.00     0.049 A 
ATOM     54  H   UNL A   1      43.143  28.747  32.405  1.00  0.00     0.167 HD
ATOM     55  C   UNL A   1      45.199  26.816  32.025  1.00  0.00     0.074 A 
ATOM     56  C   UNL A   1      45.977  25.728  31.468  1.00  0.00     0.031 C 
ATOM     57  C   UNL A   1      45.529  27.488  33.157  1.00  0.00     0.037 A 
BRANCH  44  58
ATOM     58  C   UNL A   1      41.536  31.946  34.737  1.00  0.00     0.058 A 
ATOM     59  C   UNL A   1      40.814  31.709  35.919  1.00  0.00     0.135 A 
ATOM     60  C   UNL A   1      41.914  33.269  34.458  1.00  0.00     0.135 A 
ATOM     61  F   UNL A   1      40.408  30.466  36.226  1.00  0.00    -0.206 F 
ATOM     62  C   UNL A   1      40.448  32.746  36.771  1.00  0.00     0.059 A 
ATOM     63  C   UNL A   1      41.587  34.319  35.314  1.00  0.00     0.059 A 
ATOM     64  F   UNL A   1      42.602  33.556  33.343  1.00  0.00    -0.206 F 
ATOM     65  C   UNL A   1      40.838  34.049  36.459  1.00  0.00     0.060 A 
BRANCH  65  66
ATOM     66  S   UNL A   1      40.357  35.383  37.575  1.00  0.00     0.124 S 
ATOM     67  O   UNL A   1      41.578  35.564  38.354  1.00  0.00    -0.237 OA
ATOM     68  O   UNL A   1      40.032  36.463  36.648  1.00  0.00    -0.237 OA
ATOM     69  O   UNL A   1      39.224  34.824  38.304  1.00  0.00    -0.744 OA
ENDBRANCH  65  66
ENDBRANCH  44  58
BRANCH  45  70
ATOM     70  C   UNL A   1      43.673  24.782  28.056  1.00  0.00     0.058 A 
ATOM     71  C   UNL A   1      43.169  23.478  28.182  1.00  0.00     0.135 A 
ATOM     72  C   UNL A   1      44.491  25.060  26.949  1.00  0.00     0.135 A 
ATOM     73  F   UNL A   1      42.384  23.162  29.223  1.00  0.00    -0.206 F 
ATOM     74  C   UNL A   1      43.482  22.482  27.264  1.00  0.00     0.059 A 
ATOM     75  C   UNL A   1      44.797  24.087  26.003  1.00  0.00     0.059 A 
ATOM     76  F   UNL A   1      44.981  26.296  26.770  1.00  0.00    -0.206 F 
ATOM     77  C   UNL A   1      44.296  22.796  26.176  1.00  0.00     0.060 A 
BRANCH  77  78
ATOM     78  S   UNL A   1      44.663  21.506  24.967  1.00  0.00     0.124 S 
ATOM     79  O   UNL A   1      44.513  22.229  23.709  1.00  0.00    -0.237 OA
ATOM     80  O   UNL A   1      46.025  21.126  25.328  1.00  0.00    -0.237 OA
ATOM     81  O   UNL A   1      43.646  20.494  25.238  1.00  0.00    -0.744 OA
ENDBRANCH  77  78
ENDBRANCH  45  70
BRANCH  57  82
ATOM     82  C   UNL A   1      46.760  27.029  33.890  1.00  0.00     0.058 A 
ATOM     83  C   UNL A   1      48.025  27.578  33.629  1.00  0.00     0.135 A 
ATOM     84  C   UNL A   1      46.663  26.040  34.882  1.00  0.00     0.135 A 
ATOM     85  F   UNL A   1      48.171  28.525  32.689  1.00  0.00    -0.206 F 
ATOM     86  C   UNL A   1      49.160  27.131  34.296  1.00  0.00     0.059 A 
ATOM     87  C   UNL A   1      47.780  25.600  35.584  1.00  0.00     0.059 A 
ATOM     88  F   UNL A   1      45.473  25.495  35.182  1.00  0.00    -0.206 F 
ATOM     89  C   UNL A   1      49.028  26.137  35.268  1.00  0.00     0.060 A 
BRANCH  89  90
ATOM     90  S   UNL A   1      50.508  25.562  36.126  1.00  0.00     0.124 S 
ATOM     91  O   UNL A   1      51.461  26.617  35.802  1.00  0.00    -0.237 OA
ATOM     92  O   UNL A   1      50.065  25.511  37.516  1.00  0.00    -0.237 OA
ATOM     93  O   UNL A   1      50.773  24.264  35.512  1.00  0.00    -0.744 OA
ENDBRANCH  89  90
ENDBRANCH  57  82
ENDBRANCH  31  32
ENDBRANCH  23  26
ENDBRANCH  21  22
ENDBRANCH  20  21
ENDBRANCH   1  20
TORSDOF 18
ENDMDL
MODEL 2
REMARK VINA RESULT:      -9.8      2.995      8.638
REMARK SMILES Cc1ccc(O)c(C(=O)CCCC(=O)NCCCNC(=O)c2ccc(-c3c4nc(c(-c5c(F)cc(S(=O)(=O)[O-])cc5F)c5ccc([nH]5)c(-c5c(F)cc(S(=O)(=O)[O-])cc5F)c5nc(c(-c6c(F)cc(S(=O)(=O)[O-])cc6F)c6ccc3[nH]6)C=C5)C=C4)cc2)c1
REMARK SMILES IDX 16 1 15 2 13 3 14 4 12 6 11 7 10 8 8 9 9 10 7 11 1 12 2 13
REMARK SMILES IDX 3 14 88 15 4 16 5 17 6 18 17 20 18 21 19 22 20 23 21 25
REMARK SMILES IDX 22 26 23 27 87 28 24 29 86 30 25 31 26 32 27 33 80 34 28 35
REMARK SMILES IDX 85 36 79 37 81 38 29 39 84 40 78 41 77 42 30 44 64 45 43 46
REMARK SMILES IDX 63 47 44 48 47 49 62 50 82 51 45 52 46 53 61 55 83 56 48 57
REMARK SMILES IDX 31 58 32 59 41 60 33 61 34 62 40 63 42 64 35 65 36 66 37 67
REMARK SMILES IDX 38 68 39 69 65 70 66 71 75 72 67 73 68 74 74 75 76 76 69 77
REMARK SMILES IDX 70 78 71 79 72 80 73 81 49 82 50 83 59 84 51 85 52 86 58 87
REMARK SMILES IDX 60 88 53 89 54 90 55 91 56 92 57 93
REMARK H PARENT 15 5 6 19 19 24 81 43 47 54
REMARK Flexibility Score: inf
ROOT
ATOM      1  C   UNL A   1      33.168  34.040  28.024  1.00  0.00     0.117 C 
ENDROOT
BRANCH   1   2
ATOM      2  N   UNL A   1      32.976  35.360  28.583  1.00  0.00    -0.356 N 
ATOM      3  C   UNL A   1      33.127  35.910  29.809  1.00  0.00     0.220 C 
ATOM      4  O   UNL A   1      32.882  37.122  29.868  1.00  0.00    -0.275 OA
ATOM      5  H   UNL A   1      32.660  36.010  27.914  1.00  0.00     0.163 HD
BRANCH   3   6
ATOM      6  C   UNL A   1      33.696  35.227  31.051  1.00  0.00     0.100 C 
BRANCH   6   7
ATOM      7  C   UNL A   1      33.474  35.679  32.495  1.00  0.00     0.018 C 
BRANCH   7   8
ATOM      8  C   UNL A   1      34.523  35.645  33.600  1.00  0.00     0.082 C 
BRANCH   8   9
ATOM      9  C   UNL A   1      35.596  34.558  33.790  1.00  0.00     0.166 C 
ATOM     10  O   UNL A   1      35.308  33.574  34.485  1.00  0.00    -0.294 OA
BRANCH   9  11
ATOM     11  C   UNL A   1      36.917  34.480  33.070  1.00  0.00     0.060 A 
ATOM     12  C   UNL A   1      38.308  33.959  29.547  1.00  0.00     0.044 C 
ATOM     13  C   UNL A   1      38.266  34.193  31.030  1.00  0.00    -0.050 A 
ATOM     14  C   UNL A   1      39.436  34.321  31.771  1.00  0.00     0.007 A 
ATOM     15  C   UNL A   1      37.034  34.303  31.693  1.00  0.00     0.019 A 
ATOM     16  C   UNL A   1      39.360  34.499  33.151  1.00  0.00     0.047 A 
ATOM     17  C   UNL A   1      38.119  34.565  33.792  1.00  0.00     0.126 A 
BRANCH  17  18
ATOM     18  O   UNL A   1      38.171  34.688  35.156  1.00  0.00    -0.507 OA
ATOM     19  H   UNL A   1      37.891  35.485  35.565  1.00  0.00     0.293 HD
ENDBRANCH  17  18
ENDBRANCH   9  11
ENDBRANCH   8   9
ENDBRANCH   7   8
ENDBRANCH   6   7
ENDBRANCH   3   6
ENDBRANCH   1   2
BRANCH   1  20
ATOM     20  C   UNL A   1      34.612  33.576  28.127  1.00  0.00     0.042 C 
BRANCH  20  21
ATOM     21  C   UNL A   1      34.776  32.395  29.059  1.00  0.00     0.118 C 
BRANCH  21  22
ATOM     22  N   UNL A   1      34.173  31.181  28.521  1.00  0.00    -0.352 N 
ATOM     23  C   UNL A   1      34.778  30.007  28.136  1.00  0.00     0.251 C 
ATOM     24  H   UNL A   1      33.193  31.205  28.419  1.00  0.00     0.163 HD
ATOM     25  O   UNL A   1      34.120  29.147  27.556  1.00  0.00    -0.269 OA
BRANCH  23  26
ATOM     26  C   UNL A   1      36.221  29.801  28.395  1.00  0.00     0.039 A 
ATOM     27  C   UNL A   1      36.632  29.316  29.639  1.00  0.00     0.014 A 
ATOM     28  C   UNL A   1      37.167  30.069  27.406  1.00  0.00     0.014 A 
ATOM     29  C   UNL A   1      37.985  29.056  29.865  1.00  0.00     0.010 A 
ATOM     30  C   UNL A   1      38.487  29.682  27.584  1.00  0.00     0.010 A 
ATOM     31  C   UNL A   1      38.921  29.211  28.829  1.00  0.00    -0.014 A 
BRANCH  31  32
ATOM     32  C   UNL A   1      40.370  28.968  29.039  1.00  0.00     0.031 A 
ATOM     33  C   UNL A   1      40.960  27.634  28.653  1.00  0.00     0.074 A 
ATOM     34  C   UNL A   1      41.135  29.910  29.624  1.00  0.00     0.049 A 
ATOM     35  N   UNL A   1      42.179  27.189  28.816  1.00  0.00    -0.248 NA
ATOM     36  C   UNL A   1      40.047  26.651  28.042  1.00  0.00     0.031 C 
ATOM     37  C   UNL A   1      40.664  31.210  30.106  1.00  0.00     0.029 A 
ATOM     38  N   UNL A   1      42.474  29.916  29.917  1.00  0.00    -0.354 N 
ATOM     39  C   UNL A   1      42.166  25.875  28.358  1.00  0.00     0.074 A 
ATOM     40  C   UNL A   1      40.805  25.569  27.986  1.00  0.00     0.031 C 
ATOM     41  C   UNL A   1      41.705  31.902  30.597  1.00  0.00     0.029 A 
ATOM     42  C   UNL A   1      42.909  31.084  30.496  1.00  0.00     0.049 A 
ATOM     43  H   UNL A   1      43.071  29.154  29.729  1.00  0.00     0.167 HD
ATOM     44  C   UNL A   1      43.201  25.014  28.220  1.00  0.00     0.037 A 
ATOM     45  C   UNL A   1      44.142  31.454  30.892  1.00  0.00     0.037 A 
ATOM     46  C   UNL A   1      44.562  25.348  28.540  1.00  0.00     0.049 A 
ATOM     47  C   UNL A   1      45.287  30.500  30.681  1.00  0.00     0.074 A 
ATOM     48  C   UNL A   1      45.700  24.580  28.381  1.00  0.00     0.029 A 
ATOM     49  N   UNL A   1      44.969  26.562  29.076  1.00  0.00    -0.354 N 
ATOM     50  N   UNL A   1      45.268  29.282  30.190  1.00  0.00    -0.248 NA
ATOM     51  C   UNL A   1      46.624  30.976  31.060  1.00  0.00     0.031 C 
ATOM     52  C   UNL A   1      46.793  25.316  28.852  1.00  0.00     0.029 A 
ATOM     53  C   UNL A   1      46.341  26.562  29.259  1.00  0.00     0.049 A 
ATOM     54  H   UNL A   1      44.370  27.313  29.293  1.00  0.00     0.167 HD
ATOM     55  C   UNL A   1      46.592  28.859  30.172  1.00  0.00     0.074 A 
ATOM     56  C   UNL A   1      47.385  29.957  30.687  1.00  0.00     0.031 C 
ATOM     57  C   UNL A   1      47.108  27.671  29.766  1.00  0.00     0.037 A 
BRANCH  44  58
ATOM     58  C   UNL A   1      42.897  23.641  27.680  1.00  0.00     0.058 A 
ATOM     59  C   UNL A   1      42.656  22.548  28.530  1.00  0.00     0.135 A 
ATOM     60  C   UNL A   1      42.837  23.415  26.295  1.00  0.00     0.135 A 
ATOM     61  F   UNL A   1      42.721  22.701  29.862  1.00  0.00    -0.206 F 
ATOM     62  C   UNL A   1      42.405  21.275  28.029  1.00  0.00     0.059 A 
ATOM     63  C   UNL A   1      42.554  22.156  25.771  1.00  0.00     0.059 A 
ATOM     64  F   UNL A   1      43.060  24.421  25.435  1.00  0.00    -0.206 F 
ATOM     65  C   UNL A   1      42.358  21.089  26.647  1.00  0.00     0.060 A 
BRANCH  65  66
ATOM     66  S   UNL A   1      42.029  19.432  26.013  1.00  0.00     0.124 S 
ATOM     67  O   UNL A   1      42.375  18.606  27.166  1.00  0.00    -0.237 OA
ATOM     68  O   UNL A   1      40.608  19.498  25.686  1.00  0.00    -0.237 OA
ATOM     69  O   UNL A   1      42.928  19.321  24.869  1.00  0.00    -0.744 OA
ENDBRANCH  65  66
ENDBRANCH  44  58
BRANCH  45  70
ATOM     70  C   UNL A   1      44.366  32.804  31.476  1.00  0.00     0.058 A 
ATOM     71  C   UNL A   1      44.708  33.895  30.662  1.00  0.00     0.135 A 
ATOM     72  C   UNL A   1      44.230  33.036  32.854  1.00  0.00     0.135 A 
ATOM     73  F   UNL A   1      44.851  33.724  29.339  1.00  0.00    -0.206 F 
ATOM     74  C   UNL A   1      44.932  35.161  31.193  1.00  0.00     0.059 A 
ATOM     75  C   UNL A   1      44.424  34.299  33.406  1.00  0.00     0.059 A 
ATOM     76  F   UNL A   1      43.884  32.032  33.674  1.00  0.00    -0.206 F 
ATOM     77  C   UNL A   1      44.786  35.353  32.567  1.00  0.00     0.060 A 
BRANCH  77  78
ATOM     78  S   UNL A   1      45.038  37.010  33.241  1.00  0.00     0.124 S 
ATOM     79  O   UNL A   1      44.209  37.818  32.354  1.00  0.00    -0.237 OA
ATOM     80  O   UNL A   1      44.554  36.861  34.610  1.00  0.00    -0.237 OA
ATOM     81  O   UNL A   1      46.479  37.208  33.113  1.00  0.00    -0.744 OA
ENDBRANCH  77  78
ENDBRANCH  45  70
BRANCH  57  82
ATOM     82  C   UNL A   1      48.603  27.519  29.822  1.00  0.00     0.058 A 
ATOM     83  C   UNL A   1      49.258  27.058  30.974  1.00  0.00     0.135 A 
ATOM     84  C   UNL A   1      49.385  27.822  28.696  1.00  0.00     0.135 A 
ATOM     85  F   UNL A   1      48.556  26.756  32.077  1.00  0.00    -0.206 F 
ATOM     86  C   UNL A   1      50.643  26.943  31.022  1.00  0.00     0.059 A 
ATOM     87  C   UNL A   1      50.768  27.684  28.711  1.00  0.00     0.059 A 
ATOM     88  F   UNL A   1      48.806  28.251  27.563  1.00  0.00    -0.206 F 
ATOM     89  C   UNL A   1      51.390  27.265  29.887  1.00  0.00     0.060 A 
BRANCH  89  90
ATOM     90  S   UNL A   1      53.187  27.115  29.961  1.00  0.00     0.124 S 
ATOM     91  O   UNL A   1      53.571  28.441  30.433  1.00  0.00    -0.237 OA
ATOM     92  O   UNL A   1      53.373  26.024  30.913  1.00  0.00    -0.237 OA
ATOM     93  O   UNL A   1      53.559  26.806  28.584  1.00  0.00    -0.744 OA
ENDBRANCH  89  90
ENDBRANCH  57  82
ENDBRANCH  31  32
ENDBRANCH  23  26
ENDBRANCH  21  22
ENDBRANCH  20  21
ENDBRANCH   1  20
TORSDOF 18
ENDMDL
MODEL 3
REMARK VINA RESULT:      -9.7      3.367     11.811
REMARK SMILES Cc1ccc(O)c(C(=O)CCCC(=O)NCCCNC(=O)c2ccc(-c3c4nc(c(-c5c(F)cc(S(=O)(=O)[O-])cc5F)c5ccc([nH]5)c(-c5c(F)cc(S(=O)(=O)[O-])cc5F)c5nc(c(-c6c(F)cc(S(=O)(=O)[O-])cc6F)c6ccc3[nH]6)C=C5)C=C4)cc2)c1
REMARK SMILES IDX 16 1 15 2 13 3 14 4 12 6 11 7 10 8 8 9 9 10 7 11 1 12 2 13
REMARK SMILES IDX 3 14 88 15 4 16 5 17 6 18 17 20 18 21 19 22 20 23 21 25
REMARK SMILES IDX 22 26 23 27 87 28 24 29 86 30 25 31 26 32 27 33 80 34 28 35
REMARK SMILES IDX 85 36 79 37 81 38 29 39 84 40 78 41 77 42 30 44 64 45 43 46
REMARK SMILES IDX 63 47 44 48 47 49 62 50 82 51 45 52 46 53 61 55 83 56 48 57
REMARK SMILES IDX 31 58 32 59 41 60 33 61 34 62 40 63 42 64 35 65 36 66 37 67
REMARK SMILES IDX 38 68 39 69 65 70 66 71 75 72 67 73 68 74 74 75 76 76 69 77
REMARK SMILES IDX 70 78 71 79 72 80 73 81 49 82 50 83 59 84 51 85 52 86 58 87
REMARK SMILES IDX 60 88 53 89 54 90 55 91 56 92 57 93
REMARK H PARENT 15 5 6 19 19 24 81 43 47 54
REMARK Flexibility Score: inf
ROOT
ATOM      1  C   UNL A   1      42.407  21.428  27.056  1.00  0.00     0.117 C 
ENDROOT
BRANCH   1   2
ATOM      2  N   UNL A   1      42.620  20.461  26.001  1.00  0.00    -0.356 N 
ATOM      3  C   UNL A   1      43.698  20.009  25.323  1.00  0.00     0.220 C 
ATOM      4  O   UNL A   1      43.454  19.123  24.492  1.00  0.00    -0.275 OA
ATOM      5  H   UNL A   1      41.782  20.033  25.707  1.00  0.00     0.163 HD
BRANCH   3   6
ATOM      6  C   UNL A   1      45.159  20.370  25.585  1.00  0.00     0.100 C 
BRANCH   6   7
ATOM      7  C   UNL A   1      46.054  21.185  24.651  1.00  0.00     0.018 C 
BRANCH   7   8
ATOM      8  C   UNL A   1      46.054  22.705  24.536  1.00  0.00     0.082 C 
BRANCH   8   9
ATOM      9  C   UNL A   1      44.899  23.639  24.940  1.00  0.00     0.166 C 
ATOM     10  O   UNL A   1      43.792  23.453  24.416  1.00  0.00    -0.294 OA
BRANCH   9  11
ATOM     11  C   UNL A   1      44.930  24.658  26.049  1.00  0.00     0.060 A 
ATOM     12  C   UNL A   1      44.044  24.986  29.754  1.00  0.00     0.044 C 
ATOM     13  C   UNL A   1      44.528  25.348  28.378  1.00  0.00    -0.050 A 
ATOM     14  C   UNL A   1      44.992  26.627  28.092  1.00  0.00     0.007 A 
ATOM     15  C   UNL A   1      44.533  24.386  27.356  1.00  0.00     0.019 A 
ATOM     16  C   UNL A   1      45.397  26.938  26.796  1.00  0.00     0.047 A 
ATOM     17  C   UNL A   1      45.354  25.971  25.787  1.00  0.00     0.126 A 
BRANCH  17  18
ATOM     18  O   UNL A   1      45.727  26.408  24.542  1.00  0.00    -0.507 OA
ATOM     19  H   UNL A   1      46.459  26.015  24.108  1.00  0.00     0.293 HD
ENDBRANCH  17  18
ENDBRANCH   9  11
ENDBRANCH   8   9
ENDBRANCH   7   8
ENDBRANCH   6   7
ENDBRANCH   3   6
ENDBRANCH   1   2
BRANCH   1  20
ATOM     20  C   UNL A   1      40.966  21.908  27.116  1.00  0.00     0.042 C 
BRANCH  20  21
ATOM     21  C   UNL A   1      40.862  23.403  27.323  1.00  0.00     0.118 C 
BRANCH  21  22
ATOM     22  N   UNL A   1      41.332  24.154  26.165  1.00  0.00    -0.352 N 
ATOM     23  C   UNL A   1      41.418  25.515  25.989  1.00  0.00     0.251 C 
ATOM     24  H   UNL A   1      41.630  23.609  25.400  1.00  0.00     0.163 HD
ATOM     25  O   UNL A   1      41.692  25.967  24.879  1.00  0.00    -0.269 OA
BRANCH  23  26
ATOM     26  C   UNL A   1      41.153  26.425  27.126  1.00  0.00     0.039 A 
ATOM     27  C   UNL A   1      40.278  26.021  28.137  1.00  0.00     0.014 A 
ATOM     28  C   UNL A   1      41.780  27.669  27.204  1.00  0.00     0.014 A 
ATOM     29  C   UNL A   1      40.076  26.847  29.245  1.00  0.00     0.010 A 
ATOM     30  C   UNL A   1      41.686  28.422  28.364  1.00  0.00     0.010 A 
ATOM     31  C   UNL A   1      40.801  28.043  29.380  1.00  0.00    -0.014 A 
BRANCH  31  32
ATOM     32  C   UNL A   1      40.595  28.958  30.531  1.00  0.00     0.031 A 
ATOM     33  C   UNL A   1      41.459  28.808  31.759  1.00  0.00     0.074 A 
ATOM     34  C   UNL A   1      39.606  29.872  30.499  1.00  0.00     0.049 A 
ATOM     35  N   UNL A   1      41.400  29.450  32.897  1.00  0.00    -0.248 NA
ATOM     36  C   UNL A   1      42.500  27.766  31.720  1.00  0.00     0.031 C 
ATOM     37  C   UNL A   1      38.660  30.064  29.397  1.00  0.00     0.029 A 
ATOM     38  N   UNL A   1      39.230  30.812  31.423  1.00  0.00    -0.354 N 
ATOM     39  C   UNL A   1      42.369  28.870  33.709  1.00  0.00     0.074 A 
ATOM     40  C   UNL A   1      42.946  27.775  32.965  1.00  0.00     0.031 C 
ATOM     41  C   UNL A   1      37.840  31.085  29.693  1.00  0.00     0.029 A 
ATOM     42  C   UNL A   1      38.178  31.598  31.017  1.00  0.00     0.049 A 
ATOM     43  H   UNL A   1      39.672  30.916  32.298  1.00  0.00     0.167 HD
ATOM     44  C   UNL A   1      42.773  29.241  34.946  1.00  0.00     0.037 A 
ATOM     45  C   UNL A   1      37.563  32.621  31.640  1.00  0.00     0.037 A 
ATOM     46  C   UNL A   1      42.231  30.368  35.656  1.00  0.00     0.049 A 
ATOM     47  C   UNL A   1      38.063  33.050  32.994  1.00  0.00     0.074 A 
ATOM     48  C   UNL A   1      42.607  30.876  36.885  1.00  0.00     0.029 A 
ATOM     49  N   UNL A   1      41.201  31.172  35.187  1.00  0.00    -0.354 N 
ATOM     50  N   UNL A   1      39.022  32.528  33.724  1.00  0.00    -0.248 NA
ATOM     51  C   UNL A   1      37.410  34.216  33.602  1.00  0.00     0.031 C 
ATOM     52  C   UNL A   1      41.781  31.968  37.177  1.00  0.00     0.029 A 
ATOM     53  C   UNL A   1      40.924  32.169  36.106  1.00  0.00     0.049 A 
ATOM     54  H   UNL A   1      40.737  31.051  34.327  1.00  0.00     0.167 HD
ATOM     55  C   UNL A   1      39.109  33.322  34.862  1.00  0.00     0.074 A 
ATOM     56  C   UNL A   1      38.114  34.367  34.715  1.00  0.00     0.031 C 
ATOM     57  C   UNL A   1      39.934  33.201  35.932  1.00  0.00     0.037 A 
BRANCH  44  58
ATOM     58  C   UNL A   1      43.865  28.431  35.594  1.00  0.00     0.058 A 
ATOM     59  C   UNL A   1      43.580  27.360  36.457  1.00  0.00     0.135 A 
ATOM     60  C   UNL A   1      45.216  28.723  35.343  1.00  0.00     0.135 A 
ATOM     61  F   UNL A   1      42.307  27.048  36.749  1.00  0.00    -0.206 F 
ATOM     62  C   UNL A   1      44.590  26.633  37.077  1.00  0.00     0.059 A 
ATOM     63  C   UNL A   1      46.244  27.987  35.927  1.00  0.00     0.059 A 
ATOM     64  F   UNL A   1      45.549  29.737  34.529  1.00  0.00    -0.206 F 
ATOM     65  C   UNL A   1      45.920  26.955  36.807  1.00  0.00     0.060 A 
BRANCH  65  66
ATOM     66  S   UNL A   1      47.220  26.001  37.618  1.00  0.00     0.124 S 
ATOM     67  O   UNL A   1      48.057  27.062  38.171  1.00  0.00    -0.237 OA
ATOM     68  O   UNL A   1      46.468  25.216  38.593  1.00  0.00    -0.237 OA
ATOM     69  O   UNL A   1      47.813  25.237  36.526  1.00  0.00    -0.744 OA
ENDBRANCH  65  66
ENDBRANCH  44  58
BRANCH  45  70
ATOM     70  C   UNL A   1      36.447  33.342  30.971  1.00  0.00     0.058 A 
ATOM     71  C   UNL A   1      36.684  34.171  29.864  1.00  0.00     0.135 A 
ATOM     72  C   UNL A   1      35.121  33.209  31.413  1.00  0.00     0.135 A 
ATOM     73  F   UNL A   1      37.934  34.333  29.405  1.00  0.00    -0.206 F 
ATOM     74  C   UNL A   1      35.654  34.862  29.234  1.00  0.00     0.059 A 
ATOM     75  C   UNL A   1      34.070  33.869  30.783  1.00  0.00     0.059 A 
ATOM     76  F   UNL A   1      34.836  32.412  32.454  1.00  0.00    -0.206 F 
ATOM     77  C   UNL A   1      34.349  34.702  29.700  1.00  0.00     0.060 A 
BRANCH  77  78
ATOM     78  S   UNL A   1      33.014  35.571  28.849  1.00  0.00     0.124 S 
ATOM     79  O   UNL A   1      32.242  36.095  29.970  1.00  0.00    -0.237 OA
ATOM     80  O   UNL A   1      33.744  36.557  28.059  1.00  0.00    -0.237 OA
ATOM     81  O   UNL A   1      32.367  34.515  28.076  1.00  0.00    -0.744 OA
ENDBRANCH  77  78
ENDBRANCH  45  70
BRANCH  57  82
ATOM     82  C   UNL A   1      39.825  34.252  37.002  1.00  0.00     0.058 A 
ATOM     83  C   UNL A   1      40.449  35.502  36.879  1.00  0.00     0.135 A 
ATOM     84  C   UNL A   1      39.066  34.006  38.158  1.00  0.00     0.135 A 
ATOM     85  F   UNL A   1      41.187  35.786  35.794  1.00  0.00    -0.206 F 
ATOM     86  C   UNL A   1      40.361  36.458  37.885  1.00  0.00     0.059 A 
ATOM     87  C   UNL A   1      38.938  34.959  39.162  1.00  0.00     0.059 A 
ATOM     88  F   UNL A   1      38.435  32.831  38.317  1.00  0.00    -0.206 F 
ATOM     89  C   UNL A   1      39.607  36.174  39.026  1.00  0.00     0.060 A 
BRANCH  89  90
ATOM     90  S   UNL A   1      39.501  37.421  40.327  1.00  0.00     0.124 S 
ATOM     91  O   UNL A   1      38.667  38.436  39.690  1.00  0.00    -0.237 OA
ATOM     92  O   UNL A   1      38.879  36.682  41.420  1.00  0.00    -0.237 OA
ATOM     93  O   UNL A   1      40.893  37.800  40.548  1.00  0.00    -0.744 OA
ENDBRANCH  89  90
ENDBRANCH  57  82
ENDBRANCH  31  32
ENDBRANCH  23  26
ENDBRANCH  21  22
ENDBRANCH  20  21
ENDBRANCH   1  20
TORSDOF 18
ENDMDL
