MODEL 1
REMARK VINA RESULT:     -11.7      0.000      0.000
REMARK SMILES C[N@H+]1CCO[C@@H](COc2ccc(C(=O)NCCCNC(=O)c3ccc(-c4c5nc(c(-c6c(F)cc(S(=O)(=O)[O-])cc6F)c6ccc([nH]6)c(-c6c(F)cc(S(=O)(=O)[O-])cc6F)c6nc(c(-c7c(F)cc(S(=O)(=O)[O-])cc7F)c7ccc4[nH]7)C=C6)C=C5)cc3)cc2N)C1
REMARK SMILES IDX 17 1 16 2 15 3 13 4 14 5 12 7 9 8 10 9 89 10 11 11 88 12
REMARK SMILES IDX 8 13 7 14 6 15 1 16 2 17 3 18 91 19 4 21 5 22 90 23 18 26
REMARK SMILES IDX 19 27 20 28 21 30 22 31 23 32 87 33 24 34 86 35 25 36 26 37
REMARK SMILES IDX 27 38 80 39 28 40 85 41 79 42 81 43 29 44 84 45 78 46 77 47
REMARK SMILES IDX 30 49 64 50 43 51 63 52 44 53 47 54 62 55 82 56 45 57 46 58
REMARK SMILES IDX 61 60 83 61 48 62 31 63 32 64 41 65 33 66 34 67 40 68 42 69
REMARK SMILES IDX 35 70 36 71 37 72 38 73 39 74 65 75 66 76 75 77 67 78 68 79
REMARK SMILES IDX 74 80 76 81 69 82 70 83 71 84 72 85 73 86 49 87 50 88 59 89
REMARK SMILES IDX 51 90 52 91 58 92 60 93 53 94 54 95 55 96 56 97 57 98
REMARK H PARENT 15 6 2 20 90 24 90 25 19 29 81 48 47 59
REMARK Flexibility Score: inf
ROOT
ATOM      1  C   UNL A   1      33.806  29.799  27.159  1.00  0.00     0.042 C 
ENDROOT
BRANCH   1   2
ATOM      2  C   UNL A   1      33.724  29.198  25.756  1.00  0.00     0.118 C 
BRANCH   2   3
ATOM      3  N   UNL A   1      32.572  29.687  25.012  1.00  0.00    -0.352 N 
ATOM      4  C   UNL A   1      31.487  29.022  24.491  1.00  0.00     0.251 C 
ATOM      5  O   UNL A   1      30.536  29.678  24.068  1.00  0.00    -0.269 OA
ATOM      6  H   UNL A   1      32.569  30.660  24.854  1.00  0.00     0.163 HD
BRANCH   4   7
ATOM      7  C   UNL A   1      31.404  27.539  24.479  1.00  0.00     0.042 A 
ATOM      8  C   UNL A   1      31.084  24.784  24.252  1.00  0.00     0.142 A 
ATOM      9  C   UNL A   1      31.824  25.468  23.288  1.00  0.00     0.049 A 
ATOM     10  C   UNL A   1      30.644  25.430  25.420  1.00  0.00     0.075 A 
ATOM     11  C   UNL A   1      31.984  26.851  23.403  1.00  0.00     0.018 A 
ATOM     12  C   UNL A   1      30.793  26.815  25.505  1.00  0.00     0.043 A 
BRANCH   8  13
ATOM     13  O   UNL A   1      30.781  23.456  24.086  1.00  0.00    -0.488 OA
BRANCH  13  14
ATOM     14  C   UNL A   1      31.934  22.598  24.246  1.00  0.00     0.267 C 
BRANCH  14  15
ATOM     15  C   UNL A   1      31.884  21.702  25.507  1.00  0.00     0.210 C 
ATOM     16  C   UNL A   1      35.081  21.478  24.979  1.00  0.00     0.332 C 
ATOM     17  N   UNL A   1      34.267  20.815  25.989  1.00  0.00    -0.333 N 
ATOM     18  C   UNL A   1      34.189  21.577  27.242  1.00  0.00     0.290 C 
ATOM     19  C   UNL A   1      32.891  20.522  25.542  1.00  0.00     0.298 C 
ATOM     20  H   UNL A   1      34.752  19.933  26.151  1.00  0.00     0.348 HD
ATOM     21  C   UNL A   1      33.280  22.811  27.140  1.00  0.00     0.222 C 
ATOM     22  O   UNL A   1      31.953  22.483  26.723  1.00  0.00    -0.363 OA
ENDBRANCH  14  15
ENDBRANCH  13  14
ENDBRANCH   8  13
BRANCH  10  23
ATOM     23  N   UNL A   1      29.865  24.760  26.360  1.00  0.00    -0.396 N 
ATOM     24  H   UNL A   1      29.206  25.256  26.898  1.00  0.00     0.156 HD
ATOM     25  H   UNL A   1      29.975  23.790  26.489  1.00  0.00     0.156 HD
ENDBRANCH  10  23
ENDBRANCH   4   7
ENDBRANCH   2   3
ENDBRANCH   1   2
BRANCH   1  26
ATOM     26  C   UNL A   1      35.158  29.622  27.839  1.00  0.00     0.118 C 
BRANCH  26  27
ATOM     27  N   UNL A   1      35.246  30.336  29.104  1.00  0.00    -0.352 N 
ATOM     28  C   UNL A   1      36.290  30.438  29.992  1.00  0.00     0.251 C 
ATOM     29  H   UNL A   1      34.430  30.821  29.364  1.00  0.00     0.163 HD
ATOM     30  O   UNL A   1      36.089  30.935  31.097  1.00  0.00    -0.269 OA
BRANCH  28  31
ATOM     31  C   UNL A   1      37.641  29.939  29.641  1.00  0.00     0.039 A 
ATOM     32  C   UNL A   1      38.057  30.005  28.307  1.00  0.00     0.014 A 
ATOM     33  C   UNL A   1      38.485  29.377  30.603  1.00  0.00     0.014 A 
ATOM     34  C   UNL A   1      39.337  29.570  27.953  1.00  0.00     0.010 A 
ATOM     35  C   UNL A   1      39.789  29.018  30.263  1.00  0.00     0.010 A 
ATOM     36  C   UNL A   1      40.229  29.107  28.934  1.00  0.00    -0.014 A 
BRANCH  36  37
ATOM     37  C   UNL A   1      41.625  28.719  28.592  1.00  0.00     0.031 A 
ATOM     38  C   UNL A   1      42.713  29.758  28.547  1.00  0.00     0.074 A 
ATOM     39  C   UNL A   1      41.897  27.441  28.256  1.00  0.00     0.049 A 
ATOM     40  N   UNL A   1      43.967  29.626  28.195  1.00  0.00    -0.248 NA
ATOM     41  C   UNL A   1      42.339  31.131  28.921  1.00  0.00     0.031 C 
ATOM     42  C   UNL A   1      40.920  26.350  28.217  1.00  0.00     0.029 A 
ATOM     43  N   UNL A   1      43.071  26.844  27.870  1.00  0.00    -0.354 N 
ATOM     44  C   UNL A   1      44.525  30.897  28.290  1.00  0.00     0.074 A 
ATOM     45  C   UNL A   1      43.460  31.794  28.681  1.00  0.00     0.031 C 
ATOM     46  C   UNL A   1      41.538  25.217  27.852  1.00  0.00     0.029 A 
ATOM     47  C   UNL A   1      42.944  25.504  27.585  1.00  0.00     0.049 A 
ATOM     48  H   UNL A   1      43.926  27.330  27.803  1.00  0.00     0.167 HD
ATOM     49  C   UNL A   1      45.810  31.276  28.091  1.00  0.00     0.037 A 
ATOM     50  C   UNL A   1      43.852  24.609  27.146  1.00  0.00     0.037 A 
ATOM     51  C   UNL A   1      46.868  30.371  27.721  1.00  0.00     0.049 A 
ATOM     52  C   UNL A   1      45.271  25.056  26.924  1.00  0.00     0.074 A 
ATOM     53  C   UNL A   1      48.214  30.646  27.549  1.00  0.00     0.029 A 
ATOM     54  N   UNL A   1      46.702  29.018  27.462  1.00  0.00    -0.354 N 
ATOM     55  N   UNL A   1      45.793  26.249  27.079  1.00  0.00    -0.248 NA
ATOM     56  C   UNL A   1      46.227  24.035  26.474  1.00  0.00     0.031 C 
ATOM     57  C   UNL A   1      48.852  29.472  27.136  1.00  0.00     0.029 A 
ATOM     58  C   UNL A   1      47.916  28.450  27.110  1.00  0.00     0.049 A 
ATOM     59  H   UNL A   1      45.847  28.533  27.519  1.00  0.00     0.167 HD
ATOM     60  C   UNL A   1      47.145  26.115  26.779  1.00  0.00     0.074 A 
ATOM     61  C   UNL A   1      47.361  24.723  26.441  1.00  0.00     0.031 C 
ATOM     62  C   UNL A   1      48.119  27.059  26.787  1.00  0.00     0.037 A 
BRANCH  49  63
ATOM     63  C   UNL A   1      46.148  32.732  28.271  1.00  0.00     0.058 A 
ATOM     64  C   UNL A   1      46.559  33.249  29.510  1.00  0.00     0.135 A 
ATOM     65  C   UNL A   1      46.099  33.618  27.181  1.00  0.00     0.135 A 
ATOM     66  F   UNL A   1      46.612  32.453  30.590  1.00  0.00    -0.206 F 
ATOM     67  C   UNL A   1      46.880  34.594  29.671  1.00  0.00     0.059 A 
ATOM     68  C   UNL A   1      46.446  34.959  27.311  1.00  0.00     0.059 A 
ATOM     69  F   UNL A   1      45.715  33.180  25.972  1.00  0.00    -0.206 F 
ATOM     70  C   UNL A   1      46.820  35.441  28.564  1.00  0.00     0.060 A 
BRANCH  70  71
ATOM     71  S   UNL A   1      47.245  37.181  28.789  1.00  0.00     0.124 S 
ATOM     72  O   UNL A   1      46.855  37.398  30.179  1.00  0.00    -0.237 OA
ATOM     73  O   UNL A   1      48.681  37.188  28.526  1.00  0.00    -0.237 OA
ATOM     74  O   UNL A   1      46.425  37.864  27.793  1.00  0.00    -0.744 OA
ENDBRANCH  70  71
ENDBRANCH  49  63
BRANCH  50  75
ATOM     75  C   UNL A   1      43.448  23.197  26.907  1.00  0.00     0.058 A 
ATOM     76  C   UNL A   1      43.342  22.686  25.605  1.00  0.00     0.135 A 
ATOM     77  C   UNL A   1      43.176  22.325  27.974  1.00  0.00     0.135 A 
ATOM     78  F   UNL A   1      43.586  23.481  24.551  1.00  0.00    -0.206 F 
ATOM     79  C   UNL A   1      42.963  21.369  25.365  1.00  0.00     0.059 A 
ATOM     80  C   UNL A   1      42.824  20.995  27.761  1.00  0.00     0.059 A 
ATOM     81  F   UNL A   1      43.282  22.756  29.239  1.00  0.00    -0.206 F 
ATOM     82  C   UNL A   1      42.710  20.530  26.451  1.00  0.00     0.060 A 
BRANCH  82  83
ATOM     83  S   UNL A   1      42.268  18.809  26.130  1.00  0.00     0.124 S 
ATOM     84  O   UNL A   1      43.212  18.453  25.079  1.00  0.00    -0.237 OA
ATOM     85  O   UNL A   1      42.494  18.187  27.431  1.00  0.00    -0.237 OA
ATOM     86  O   UNL A   1      40.869  18.894  25.721  1.00  0.00    -0.744 OA
ENDBRANCH  82  83
ENDBRANCH  50  75
BRANCH  62  87
ATOM     87  C   UNL A   1      49.521  26.615  26.468  1.00  0.00     0.058 A 
ATOM     88  C   UNL A   1      50.335  25.983  27.420  1.00  0.00     0.135 A 
ATOM     89  C   UNL A   1      50.032  26.771  25.169  1.00  0.00     0.135 A 
ATOM     90  F   UNL A   1      49.898  25.815  28.679  1.00  0.00    -0.206 F 
ATOM     91  C   UNL A   1      51.615  25.540  27.101  1.00  0.00     0.059 A 
ATOM     92  C   UNL A   1      51.297  26.308  24.820  1.00  0.00     0.059 A 
ATOM     93  F   UNL A   1      49.291  27.360  24.216  1.00  0.00    -0.206 F 
ATOM     94  C   UNL A   1      52.085  25.704  25.796  1.00  0.00     0.060 A 
BRANCH  94  95
ATOM     95  S   UNL A   1      53.732  25.087  25.387  1.00  0.00     0.124 S 
ATOM     96  O   UNL A   1      54.530  25.631  26.480  1.00  0.00    -0.237 OA
ATOM     97  O   UNL A   1      53.536  23.640  25.402  1.00  0.00    -0.237 OA
ATOM     98  O   UNL A   1      53.994  25.664  24.071  1.00  0.00    -0.744 OA
ENDBRANCH  94  95
ENDBRANCH  62  87
ENDBRANCH  36  37
ENDBRANCH  28  31
ENDBRANCH  26  27
ENDBRANCH   1  26
TORSDOF 17
ENDMDL
MODEL 2
REMARK VINA RESULT:     -11.5      4.371      7.058
REMARK SMILES C[N@H+]1CCO[C@@H](COc2ccc(C(=O)NCCCNC(=O)c3ccc(-c4c5nc(c(-c6c(F)cc(S(=O)(=O)[O-])cc6F)c6ccc([nH]6)c(-c6c(F)cc(S(=O)(=O)[O-])cc6F)c6nc(c(-c7c(F)cc(S(=O)(=O)[O-])cc7F)c7ccc4[nH]7)C=C6)C=C5)cc3)cc2N)C1
REMARK SMILES IDX 17 1 16 2 15 3 13 4 14 5 12 7 9 8 10 9 89 10 11 11 88 12
REMARK SMILES IDX 8 13 7 14 6 15 1 16 2 17 3 18 91 19 4 21 5 22 90 23 18 26
REMARK SMILES IDX 19 27 20 28 21 30 22 31 23 32 87 33 24 34 86 35 25 36 26 37
REMARK SMILES IDX 27 38 80 39 28 40 85 41 79 42 81 43 29 44 84 45 78 46 77 47
REMARK SMILES IDX 30 49 64 50 43 51 63 52 44 53 47 54 62 55 82 56 45 57 46 58
REMARK SMILES IDX 61 60 83 61 48 62 31 63 32 64 41 65 33 66 34 67 40 68 42 69
REMARK SMILES IDX 35 70 36 71 37 72 38 73 39 74 65 75 66 76 75 77 67 78 68 79
REMARK SMILES IDX 74 80 76 81 69 82 70 83 71 84 72 85 73 86 49 87 50 88 59 89
REMARK SMILES IDX 51 90 52 91 58 92 60 93 53 94 54 95 55 96 56 97 57 98
REMARK H PARENT 15 6 2 20 90 24 90 25 19 29 81 48 47 59
REMARK Flexibility Score: inf
ROOT
ATOM      1  C   UNL A   1      35.039  32.975  30.238  1.00  0.00     0.042 C 
ENDROOT
BRANCH   1   2
ATOM      2  C   UNL A   1      36.404  33.547  30.621  1.00  0.00     0.118 C 
BRANCH   2   3
ATOM      3  N   UNL A   1      36.355  34.316  31.857  1.00  0.00    -0.352 N 
ATOM      4  C   UNL A   1      37.004  34.136  33.056  1.00  0.00     0.251 C 
ATOM      5  O   UNL A   1      36.954  35.032  33.897  1.00  0.00    -0.269 OA
ATOM      6  H   UNL A   1      35.756  35.097  31.829  1.00  0.00     0.163 HD
BRANCH   4   7
ATOM      7  C   UNL A   1      37.809  32.921  33.340  1.00  0.00     0.042 A 
ATOM      8  C   UNL A   1      39.433  30.681  33.638  1.00  0.00     0.142 A 
ATOM      9  C   UNL A   1      40.000  31.952  33.722  1.00  0.00     0.049 A 
ATOM     10  C   UNL A   1      38.039  30.512  33.577  1.00  0.00     0.075 A 
ATOM     11  C   UNL A   1      39.183  33.076  33.572  1.00  0.00     0.018 A 
ATOM     12  C   UNL A   1      37.244  31.645  33.405  1.00  0.00     0.043 A 
BRANCH   8  13
ATOM     13  O   UNL A   1      40.228  29.562  33.627  1.00  0.00    -0.488 OA
BRANCH  13  14
ATOM     14  C   UNL A   1      40.940  29.374  34.872  1.00  0.00     0.267 C 
BRANCH  14  15
ATOM     15  C   UNL A   1      42.467  29.186  34.702  1.00  0.00     0.210 C 
ATOM     16  C   UNL A   1      41.746  26.082  35.333  1.00  0.00     0.332 C 
ATOM     17  N   UNL A   1      43.049  26.700  35.129  1.00  0.00    -0.333 N 
ATOM     18  C   UNL A   1      43.478  26.664  33.725  1.00  0.00     0.290 C 
ATOM     19  C   UNL A   1      43.121  28.098  35.596  1.00  0.00     0.298 C 
ATOM     20  H   UNL A   1      43.677  26.134  35.697  1.00  0.00     0.348 HD
ATOM     21  C   UNL A   1      42.725  27.667  32.839  1.00  0.00     0.222 C 
ATOM     22  O   UNL A   1      42.835  29.010  33.314  1.00  0.00    -0.363 OA
ENDBRANCH  14  15
ENDBRANCH  13  14
ENDBRANCH   8  13
BRANCH  10  23
ATOM     23  N   UNL A   1      37.475  29.246  33.446  1.00  0.00    -0.396 N 
ATOM     24  H   UNL A   1      36.664  29.121  32.901  1.00  0.00     0.156 HD
ATOM     25  H   UNL A   1      37.886  28.474  33.899  1.00  0.00     0.156 HD
ENDBRANCH  10  23
ENDBRANCH   4   7
ENDBRANCH   2   3
ENDBRANCH   1   2
BRANCH   1  26
ATOM     26  C   UNL A   1      34.773  32.939  28.738  1.00  0.00     0.118 C 
BRANCH  26  27
ATOM     27  N   UNL A   1      33.995  31.776  28.337  1.00  0.00    -0.352 N 
ATOM     28  C   UNL A   1      34.400  30.492  28.060  1.00  0.00     0.251 C 
ATOM     29  H   UNL A   1      33.027  31.934  28.250  1.00  0.00     0.163 HD
ATOM     30  O   UNL A   1      33.603  29.709  27.552  1.00  0.00    -0.269 OA
BRANCH  28  31
ATOM     31  C   UNL A   1      35.786  30.052  28.348  1.00  0.00     0.039 A 
ATOM     32  C   UNL A   1      36.735  30.102  27.322  1.00  0.00     0.014 A 
ATOM     33  C   UNL A   1      36.150  29.560  29.605  1.00  0.00     0.014 A 
ATOM     34  C   UNL A   1      38.057  29.722  27.573  1.00  0.00     0.010 A 
ATOM     35  C   UNL A   1      37.484  29.258  29.876  1.00  0.00     0.010 A 
ATOM     36  C   UNL A   1      38.452  29.331  28.864  1.00  0.00    -0.014 A 
BRANCH  36  37
ATOM     37  C   UNL A   1      39.870  29.004  29.174  1.00  0.00     0.031 A 
ATOM     38  C   UNL A   1      40.770  30.039  29.796  1.00  0.00     0.074 A 
ATOM     39  C   UNL A   1      40.365  27.797  28.833  1.00  0.00     0.049 A 
ATOM     40  N   UNL A   1      42.048  29.967  30.066  1.00  0.00    -0.248 NA
ATOM     41  C   UNL A   1      40.160  31.334  30.135  1.00  0.00     0.031 C 
ATOM     42  C   UNL A   1      39.607  26.725  28.183  1.00  0.00     0.029 A 
ATOM     43  N   UNL A   1      41.625  27.271  28.971  1.00  0.00    -0.354 N 
ATOM     44  C   UNL A   1      42.398  31.206  30.591  1.00  0.00     0.074 A 
ATOM     45  C   UNL A   1      41.209  32.029  30.552  1.00  0.00     0.031 C 
ATOM     46  C   UNL A   1      40.409  25.665  28.000  1.00  0.00     0.029 A 
ATOM     47  C   UNL A   1      41.749  25.993  28.475  1.00  0.00     0.049 A 
ATOM     48  H   UNL A   1      42.372  27.762  29.386  1.00  0.00     0.167 HD
ATOM     49  C   UNL A   1      43.593  31.614  31.082  1.00  0.00     0.037 A 
ATOM     50  C   UNL A   1      42.823  25.181  28.399  1.00  0.00     0.037 A 
ATOM     51  C   UNL A   1      44.767  30.781  31.135  1.00  0.00     0.049 A 
ATOM     52  C   UNL A   1      44.142  25.659  28.942  1.00  0.00     0.074 A 
ATOM     53  C   UNL A   1      46.012  31.082  31.662  1.00  0.00     0.029 A 
ATOM     54  N   UNL A   1      44.846  29.486  30.642  1.00  0.00    -0.354 N 
ATOM     55  N   UNL A   1      44.438  26.813  29.491  1.00  0.00    -0.248 NA
ATOM     56  C   UNL A   1      45.273  24.724  28.862  1.00  0.00     0.031 C 
ATOM     57  C   UNL A   1      46.857  29.989  31.442  1.00  0.00     0.029 A 
ATOM     58  C   UNL A   1      46.123  28.984  30.832  1.00  0.00     0.049 A 
ATOM     59  H   UNL A   1      44.103  28.997  30.219  1.00  0.00     0.167 HD
ATOM     60  C   UNL A   1      45.779  26.730  29.853  1.00  0.00     0.074 A 
ATOM     61  C   UNL A   1      46.233  25.410  29.467  1.00  0.00     0.031 C 
ATOM     62  C   UNL A   1      46.559  27.662  30.454  1.00  0.00     0.037 A 
BRANCH  49  63
ATOM     63  C   UNL A   1      43.695  33.023  31.602  1.00  0.00     0.058 A 
ATOM     64  C   UNL A   1      43.925  34.113  30.746  1.00  0.00     0.135 A 
ATOM     65  C   UNL A   1      43.520  33.296  32.969  1.00  0.00     0.135 A 
ATOM     66  F   UNL A   1      44.113  33.912  29.432  1.00  0.00    -0.206 F 
ATOM     67  C   UNL A   1      44.010  35.415  31.229  1.00  0.00     0.059 A 
ATOM     68  C   UNL A   1      43.569  34.593  33.470  1.00  0.00     0.059 A 
ATOM     69  F   UNL A   1      43.296  32.295  33.834  1.00  0.00    -0.206 F 
ATOM     70  C   UNL A   1      43.830  35.645  32.593  1.00  0.00     0.060 A 
BRANCH  70  71
ATOM     71  S   UNL A   1      43.937  37.342  33.201  1.00  0.00     0.124 S 
ATOM     72  O   UNL A   1      44.174  38.079  31.964  1.00  0.00    -0.237 OA
ATOM     73  O   UNL A   1      42.625  37.537  33.813  1.00  0.00    -0.237 OA
ATOM     74  O   UNL A   1      45.060  37.300  34.132  1.00  0.00    -0.744 OA
ENDBRANCH  70  71
ENDBRANCH  49  63
BRANCH  50  75
ATOM     75  C   UNL A   1      42.687  23.824  27.802  1.00  0.00     0.058 A 
ATOM     76  C   UNL A   1      42.764  23.634  26.415  1.00  0.00     0.135 A 
ATOM     77  C   UNL A   1      42.496  22.689  28.606  1.00  0.00     0.135 A 
ATOM     78  F   UNL A   1      42.941  24.688  25.603  1.00  0.00    -0.206 F 
ATOM     79  C   UNL A   1      42.637  22.373  25.842  1.00  0.00     0.059 A 
ATOM     80  C   UNL A   1      42.395  21.413  28.059  1.00  0.00     0.059 A 
ATOM     81  F   UNL A   1      42.435  22.812  29.941  1.00  0.00    -0.206 F 
ATOM     82  C   UNL A   1      42.457  21.267  26.674  1.00  0.00     0.060 A 
BRANCH  82  83
ATOM     83  S   UNL A   1      42.343  19.629  25.923  1.00  0.00     0.124 S 
ATOM     84  O   UNL A   1      43.365  19.708  24.887  1.00  0.00    -0.237 OA
ATOM     85  O   UNL A   1      42.643  18.754  27.053  1.00  0.00    -0.237 OA
ATOM     86  O   UNL A   1      40.963  19.573  25.449  1.00  0.00    -0.744 OA
ENDBRANCH  82  83
ENDBRANCH  50  75
BRANCH  62  87
ATOM     87  C   UNL A   1      47.977  27.276  30.779  1.00  0.00     0.058 A 
ATOM     88  C   UNL A   1      48.306  26.566  31.944  1.00  0.00     0.135 A 
ATOM     89  C   UNL A   1      49.013  27.570  29.877  1.00  0.00     0.135 A 
ATOM     90  F   UNL A   1      47.354  26.265  32.843  1.00  0.00    -0.206 F 
ATOM     91  C   UNL A   1      49.615  26.178  32.213  1.00  0.00     0.059 A 
ATOM     92  C   UNL A   1      50.324  27.167  30.112  1.00  0.00     0.059 A 
ATOM     93  F   UNL A   1      48.753  28.238  28.742  1.00  0.00    -0.206 F 
ATOM     94  C   UNL A   1      50.616  26.481  31.288  1.00  0.00     0.060 A 
BRANCH  94  95
ATOM     95  S   UNL A   1      52.303  25.936  31.633  1.00  0.00     0.124 S 
ATOM     96  O   UNL A   1      52.937  26.099  30.329  1.00  0.00    -0.237 OA
ATOM     97  O   UNL A   1      52.729  26.874  32.667  1.00  0.00    -0.237 OA
ATOM     98  O   UNL A   1      52.130  24.556  32.078  1.00  0.00    -0.744 OA
ENDBRANCH  94  95
ENDBRANCH  62  87
ENDBRANCH  36  37
ENDBRANCH  28  31
ENDBRANCH  26  27
ENDBRANCH   1  26
TORSDOF 17
ENDMDL
MODEL 3
REMARK VINA RESULT:     -11.5      2.794      3.759
REMARK SMILES C[N@H+]1CCO[C@@H](COc2ccc(C(=O)NCCCNC(=O)c3ccc(-c4c5nc(c(-c6c(F)cc(S(=O)(=O)[O-])cc6F)c6ccc([nH]6)c(-c6c(F)cc(S(=O)(=O)[O-])cc6F)c6nc(c(-c7c(F)cc(S(=O)(=O)[O-])cc7F)c7ccc4[nH]7)C=C6)C=C5)cc3)cc2N)C1
REMARK SMILES IDX 17 1 16 2 15 3 13 4 14 5 12 7 9 8 10 9 89 10 11 11 88 12
REMARK SMILES IDX 8 13 7 14 6 15 1 16 2 17 3 18 91 19 4 21 5 22 90 23 18 26
REMARK SMILES IDX 19 27 20 28 21 30 22 31 23 32 87 33 24 34 86 35 25 36 26 37
REMARK SMILES IDX 27 38 80 39 28 40 85 41 79 42 81 43 29 44 84 45 78 46 77 47
REMARK SMILES IDX 30 49 64 50 43 51 63 52 44 53 47 54 62 55 82 56 45 57 46 58
REMARK SMILES IDX 61 60 83 61 48 62 31 63 32 64 41 65 33 66 34 67 40 68 42 69
REMARK SMILES IDX 35 70 36 71 37 72 38 73 39 74 65 75 66 76 75 77 67 78 68 79
REMARK SMILES IDX 74 80 76 81 69 82 70 83 71 84 72 85 73 86 49 87 50 88 59 89
REMARK SMILES IDX 51 90 52 91 58 92 60 93 53 94 54 95 55 96 56 97 57 98
REMARK H PARENT 15 6 2 20 90 24 90 25 19 29 81 48 47 59
REMARK Flexibility Score: inf
ROOT
ATOM      1  C   UNL A   1      33.455  27.932  25.686  1.00  0.00     0.042 C 
ENDROOT
BRANCH   1   2
ATOM      2  C   UNL A   1      32.083  27.409  25.266  1.00  0.00     0.118 C 
BRANCH   2   3
ATOM      3  N   UNL A   1      32.032  27.063  23.852  1.00  0.00    -0.352 N 
ATOM      4  C   UNL A   1      32.219  25.860  23.211  1.00  0.00     0.251 C 
ATOM      5  O   UNL A   1      31.930  25.773  22.018  1.00  0.00    -0.269 OA
ATOM      6  H   UNL A   1      31.829  27.818  23.252  1.00  0.00     0.163 HD
BRANCH   4   7
ATOM      7  C   UNL A   1      32.700  24.653  23.928  1.00  0.00     0.042 A 
ATOM      8  C   UNL A   1      33.613  22.270  25.039  1.00  0.00     0.142 A 
ATOM      9  C   UNL A   1      34.491  23.059  24.297  1.00  0.00     0.049 A 
ATOM     10  C   UNL A   1      32.331  22.735  25.378  1.00  0.00     0.075 A 
ATOM     11  C   UNL A   1      34.031  24.255  23.740  1.00  0.00     0.018 A 
ATOM     12  C   UNL A   1      31.883  23.920  24.794  1.00  0.00     0.043 A 
BRANCH   8  13
ATOM     13  O   UNL A   1      33.989  21.021  25.467  1.00  0.00    -0.488 OA
BRANCH  13  14
ATOM     14  C   UNL A   1      33.945  20.035  24.411  1.00  0.00     0.267 C 
BRANCH  14  15
ATOM     15  C   UNL A   1      32.589  19.296  24.295  1.00  0.00     0.210 C 
ATOM     16  C   UNL A   1      34.486  16.797  23.449  1.00  0.00     0.332 C 
ATOM     17  N   UNL A   1      33.032  16.874  23.496  1.00  0.00    -0.333 N 
ATOM     18  C   UNL A   1      32.485  16.453  24.793  1.00  0.00     0.290 C 
ATOM     19  C   UNL A   1      32.499  18.214  23.185  1.00  0.00     0.298 C 
ATOM     20  H   UNL A   1      32.731  16.227  22.768  1.00  0.00     0.348 HD
ATOM     21  C   UNL A   1      32.700  17.494  25.902  1.00  0.00     0.222 C 
ATOM     22  O   UNL A   1      32.153  18.772  25.570  1.00  0.00    -0.363 OA
ENDBRANCH  14  15
ENDBRANCH  13  14
ENDBRANCH   8  13
BRANCH  10  23
ATOM     23  N   UNL A   1      31.437  21.929  26.079  1.00  0.00    -0.396 N 
ATOM     24  H   UNL A   1      31.245  22.115  27.027  1.00  0.00     0.156 HD
ATOM     25  H   UNL A   1      30.997  21.173  25.626  1.00  0.00     0.156 HD
ENDBRANCH  10  23
ENDBRANCH   4   7
ENDBRANCH   2   3
ENDBRANCH   1   2
BRANCH   1  26
ATOM     26  C   UNL A   1      33.586  28.223  27.176  1.00  0.00     0.118 C 
BRANCH  26  27
ATOM     27  N   UNL A   1      33.504  29.645  27.477  1.00  0.00    -0.352 N 
ATOM     28  C   UNL A   1      34.428  30.481  28.060  1.00  0.00     0.251 C 
ATOM     29  H   UNL A   1      32.656  30.075  27.224  1.00  0.00     0.163 HD
ATOM     30  O   UNL A   1      34.083  31.610  28.398  1.00  0.00    -0.269 OA
BRANCH  28  31
ATOM     31  C   UNL A   1      35.819  30.029  28.303  1.00  0.00     0.039 A 
ATOM     32  C   UNL A   1      36.740  30.094  27.253  1.00  0.00     0.014 A 
ATOM     33  C   UNL A   1      36.213  29.511  29.540  1.00  0.00     0.014 A 
ATOM     34  C   UNL A   1      38.066  29.703  27.462  1.00  0.00     0.010 A 
ATOM     35  C   UNL A   1      37.552  29.198  29.770  1.00  0.00     0.010 A 
ATOM     36  C   UNL A   1      38.493  29.286  28.733  1.00  0.00    -0.014 A 
BRANCH  36  37
ATOM     37  C   UNL A   1      39.917  28.947  28.999  1.00  0.00     0.031 A 
ATOM     38  C   UNL A   1      40.856  29.987  29.551  1.00  0.00     0.074 A 
ATOM     39  C   UNL A   1      40.380  27.720  28.681  1.00  0.00     0.049 A 
ATOM     40  N   UNL A   1      42.143  29.903  29.773  1.00  0.00    -0.248 NA
ATOM     41  C   UNL A   1      40.280  31.303  29.868  1.00  0.00     0.031 C 
ATOM     42  C   UNL A   1      39.581  26.640  28.098  1.00  0.00     0.029 A 
ATOM     43  N   UNL A   1      41.637  27.179  28.788  1.00  0.00    -0.354 N 
ATOM     44  C   UNL A   1      42.531  31.154  30.241  1.00  0.00     0.074 A 
ATOM     45  C   UNL A   1      41.354  31.994  30.220  1.00  0.00     0.031 C 
ATOM     46  C   UNL A   1      40.359  25.562  27.921  1.00  0.00     0.029 A 
ATOM     47  C   UNL A   1      41.722  25.884  28.332  1.00  0.00     0.049 A 
ATOM     48  H   UNL A   1      42.406  27.671  29.156  1.00  0.00     0.167 HD
ATOM     49  C   UNL A   1      43.751  31.558  30.671  1.00  0.00     0.037 A 
ATOM     50  C   UNL A   1      42.779  25.051  28.242  1.00  0.00     0.037 A 
ATOM     51  C   UNL A   1      44.914  30.708  30.707  1.00  0.00     0.049 A 
ATOM     52  C   UNL A   1      44.126  25.526  28.717  1.00  0.00     0.074 A 
ATOM     53  C   UNL A   1      46.182  31.006  31.175  1.00  0.00     0.029 A 
ATOM     54  N   UNL A   1      44.954  29.397  30.256  1.00  0.00    -0.354 N 
ATOM     55  N   UNL A   1      44.460  26.693  29.214  1.00  0.00    -0.248 NA
ATOM     56  C   UNL A   1      45.239  24.570  28.625  1.00  0.00     0.031 C 
ATOM     57  C   UNL A   1      47.001  29.893  30.960  1.00  0.00     0.029 A 
ATOM     58  C   UNL A   1      46.229  28.880  30.414  1.00  0.00     0.049 A 
ATOM     59  H   UNL A   1      44.188  28.906  29.879  1.00  0.00     0.167 HD
ATOM     60  C   UNL A   1      45.813  26.600  29.527  1.00  0.00     0.074 A 
ATOM     61  C   UNL A   1      46.232  25.261  29.169  1.00  0.00     0.031 C 
ATOM     62  C   UNL A   1      46.631  27.539  30.065  1.00  0.00     0.037 A 
BRANCH  49  63
ATOM     63  C   UNL A   1      43.894  32.982  31.138  1.00  0.00     0.058 A 
ATOM     64  C   UNL A   1      44.363  33.996  30.286  1.00  0.00     0.135 A 
ATOM     65  C   UNL A   1      43.521  33.348  32.442  1.00  0.00     0.135 A 
ATOM     66  F   UNL A   1      44.747  33.703  29.034  1.00  0.00    -0.206 F 
ATOM     67  C   UNL A   1      44.485  35.313  30.719  1.00  0.00     0.059 A 
ATOM     68  C   UNL A   1      43.606  34.665  32.886  1.00  0.00     0.059 A 
ATOM     69  F   UNL A   1      43.065  32.422  33.299  1.00  0.00    -0.206 F 
ATOM     70  C   UNL A   1      44.103  35.637  32.021  1.00  0.00     0.060 A 
BRANCH  70  71
ATOM     71  S   UNL A   1      44.264  37.353  32.563  1.00  0.00     0.124 S 
ATOM     72  O   UNL A   1      45.698  37.444  32.816  1.00  0.00    -0.237 OA
ATOM     73  O   UNL A   1      43.777  38.093  31.402  1.00  0.00    -0.237 OA
ATOM     74  O   UNL A   1      43.412  37.417  33.746  1.00  0.00    -0.744 OA
ENDBRANCH  70  71
ENDBRANCH  49  63
BRANCH  50  75
ATOM     75  C   UNL A   1      42.600  23.678  27.698  1.00  0.00     0.058 A 
ATOM     76  C   UNL A   1      42.667  23.433  26.319  1.00  0.00     0.135 A 
ATOM     77  C   UNL A   1      42.376  22.580  28.545  1.00  0.00     0.135 A 
ATOM     78  F   UNL A   1      42.875  24.449  25.467  1.00  0.00    -0.206 F 
ATOM     79  C   UNL A   1      42.500  22.155  25.795  1.00  0.00     0.059 A 
ATOM     80  C   UNL A   1      42.234  21.289  28.048  1.00  0.00     0.059 A 
ATOM     81  F   UNL A   1      42.322  22.756  29.874  1.00  0.00    -0.206 F 
ATOM     82  C   UNL A   1      42.287  21.088  26.669  1.00  0.00     0.060 A 
BRANCH  82  83
ATOM     83  S   UNL A   1      42.120  19.427  25.982  1.00  0.00     0.124 S 
ATOM     84  O   UNL A   1      40.687  19.356  25.726  1.00  0.00    -0.237 OA
ATOM     85  O   UNL A   1      42.978  19.496  24.803  1.00  0.00    -0.237 OA
ATOM     86  O   UNL A   1      42.614  18.569  27.055  1.00  0.00    -0.744 OA
ENDBRANCH  82  83
ENDBRANCH  50  75
BRANCH  62  87
ATOM     87  C   UNL A   1      48.054  27.141  30.347  1.00  0.00     0.058 A 
ATOM     88  C   UNL A   1      49.086  27.366  29.423  1.00  0.00     0.135 A 
ATOM     89  C   UNL A   1      48.398  26.583  31.590  1.00  0.00     0.135 A 
ATOM     90  F   UNL A   1      48.812  27.891  28.218  1.00  0.00    -0.206 F 
ATOM     91  C   UNL A   1      50.405  27.032  29.712  1.00  0.00     0.059 A 
ATOM     92  C   UNL A   1      49.714  26.268  31.911  1.00  0.00     0.059 A 
ATOM     93  F   UNL A   1      47.451  26.356  32.514  1.00  0.00    -0.206 F 
ATOM     94  C   UNL A   1      50.710  26.487  30.962  1.00  0.00     0.060 A 
BRANCH  94  95
ATOM     95  S   UNL A   1      52.432  26.096  31.338  1.00  0.00     0.124 S 
ATOM     96  O   UNL A   1      52.313  24.758  31.906  1.00  0.00    -0.237 OA
ATOM     97  O   UNL A   1      53.064  26.174  30.024  1.00  0.00    -0.237 OA
ATOM     98  O   UNL A   1      52.821  27.145  32.277  1.00  0.00    -0.744 OA
ENDBRANCH  94  95
ENDBRANCH  62  87
ENDBRANCH  36  37
ENDBRANCH  28  31
ENDBRANCH  26  27
ENDBRANCH   1  26
TORSDOF 17
ENDMDL
