MODEL 1
REMARK VINA RESULT:     -12.2      0.000      0.000
REMARK SMILES CC[C@@](C)(NC(=O)c1cc(C)c(Br)s1)C(=O)NCCCNC(=O)c1ccc(-c2c3nc(c(-c4c(F)cc(S(=O)(=O)[O-])cc4F)c4ccc([nH]4)c(-c4c(F)cc(S(=O)(=O)[O-])cc4F)c4nc(c(-c5c(F)cc(S(=O)(=O)[O-])cc5F)c5ccc2[nH]5)C=C4)C=C3)cc1
REMARK SMILES IDX 19 1 18 2 17 3 15 4 16 5 3 7 4 8 2 9 1 10 5 11 6 12 7 14
REMARK SMILES IDX 8 15 9 16 14 17 10 18 12 19 11 20 13 21 20 22 21 23 22 24
REMARK SMILES IDX 23 26 24 27 25 28 89 29 26 30 88 31 27 32 28 33 29 34 82 35
REMARK SMILES IDX 30 36 87 37 81 38 83 39 31 40 86 41 80 42 79 43 32 45 66 46
REMARK SMILES IDX 45 47 65 48 46 49 49 50 64 51 84 52 47 53 48 54 63 56 85 57
REMARK SMILES IDX 50 58 33 59 34 60 43 61 35 62 36 63 42 64 44 65 37 66 38 67
REMARK SMILES IDX 39 68 40 69 41 70 67 71 68 72 77 73 69 74 70 75 76 76 78 77
REMARK SMILES IDX 71 78 72 79 73 80 74 81 75 82 51 83 52 84 61 85 53 86 54 87
REMARK SMILES IDX 60 88 62 89 55 90 56 91 57 92 58 93 59 94
REMARK H PARENT 17 6 5 13 21 25 83 44 49 55
REMARK Flexibility Score: inf
ROOT
ATOM      1  C   UNL A   1      36.941  22.999  24.373  1.00  0.00     0.042 C 
ENDROOT
BRANCH   1   2
ATOM      2  C   UNL A   1      35.791  22.097  23.916  1.00  0.00     0.117 C 
BRANCH   2   3
ATOM      3  N   UNL A   1      34.988  21.419  24.928  1.00  0.00    -0.354 N 
ATOM      4  C   UNL A   1      33.796  21.692  25.556  1.00  0.00     0.245 C 
ATOM      5  O   UNL A   1      33.294  20.749  26.174  1.00  0.00    -0.272 OA
ATOM      6  H   UNL A   1      35.390  20.573  25.231  1.00  0.00     0.163 HD
BRANCH   4   7
ATOM      7  C   UNL A   1      33.066  23.058  25.429  1.00  0.00     0.116 C 
ATOM      8  C   UNL A   1      33.919  24.058  26.250  1.00  0.00     0.045 C 
BRANCH   7   9
ATOM      9  C   UNL A   1      32.965  23.630  23.979  1.00  0.00     0.035 C 
ATOM     10  C   UNL A   1      32.205  22.813  22.936  1.00  0.00     0.007 C 
ENDBRANCH   7   9
BRANCH   7  11
ATOM     11  N   UNL A   1      31.690  23.026  25.990  1.00  0.00    -0.337 N 
ATOM     12  C   UNL A   1      30.846  24.033  26.437  1.00  0.00     0.262 C 
ATOM     13  H   UNL A   1      31.305  22.122  26.056  1.00  0.00     0.164 HD
ATOM     14  O   UNL A   1      30.068  23.658  27.320  1.00  0.00    -0.268 OA
BRANCH  12  15
ATOM     15  C   UNL A   1      30.816  25.382  25.879  1.00  0.00     0.093 A 
ATOM     16  C   UNL A   1      31.462  26.546  26.230  1.00  0.00     0.030 A 
ATOM     17  S   UNL A   1      29.961  25.658  24.403  1.00  0.00    -0.123 S 
ATOM     18  C   UNL A   1      31.217  27.678  25.393  1.00  0.00    -0.025 A 
ATOM     19  C   UNL A   1      30.473  27.276  24.310  1.00  0.00     0.074 A 
ATOM     20  C   UNL A   1      31.768  29.030  25.706  1.00  0.00     0.046 C 
ATOM     21  Br  UNL A   1      30.079  28.362  22.829  1.00  0.00    -0.039 Br
ENDBRANCH  12  15
ENDBRANCH   7  11
ENDBRANCH   4   7
ENDBRANCH   2   3
ENDBRANCH   1   2
BRANCH   1  22
ATOM     22  C   UNL A   1      37.492  22.714  25.759  1.00  0.00     0.118 C 
BRANCH  22  23
ATOM     23  N   UNL A   1      38.734  21.941  25.808  1.00  0.00    -0.352 N 
ATOM     24  C   UNL A   1      40.016  22.369  26.146  1.00  0.00     0.251 C 
ATOM     25  H   UNL A   1      38.651  20.989  25.570  1.00  0.00     0.163 HD
ATOM     26  O   UNL A   1      40.978  21.667  25.884  1.00  0.00    -0.269 OA
BRANCH  24  27
ATOM     27  C   UNL A   1      40.206  23.673  26.829  1.00  0.00     0.039 A 
ATOM     28  C   UNL A   1      39.372  24.780  26.606  1.00  0.00     0.014 A 
ATOM     29  C   UNL A   1      41.276  23.801  27.697  1.00  0.00     0.014 A 
ATOM     30  C   UNL A   1      39.634  25.985  27.273  1.00  0.00     0.010 A 
ATOM     31  C   UNL A   1      41.365  24.877  28.528  1.00  0.00     0.010 A 
ATOM     32  C   UNL A   1      40.657  26.021  28.219  1.00  0.00    -0.014 A 
BRANCH  32  33
ATOM     33  C   UNL A   1      41.066  27.196  28.975  1.00  0.00     0.031 A 
ATOM     34  C   UNL A   1      42.156  27.982  28.348  1.00  0.00     0.074 A 
ATOM     35  C   UNL A   1      40.259  27.710  29.934  1.00  0.00     0.049 A 
ATOM     36  N   UNL A   1      43.344  28.173  28.813  1.00  0.00    -0.248 NA
ATOM     37  C   UNL A   1      41.967  28.479  26.974  1.00  0.00     0.031 C 
ATOM     38  C   UNL A   1      38.960  27.200  30.400  1.00  0.00     0.029 A 
ATOM     39  N   UNL A   1      40.356  28.892  30.599  1.00  0.00    -0.354 N 
ATOM     40  C   UNL A   1      43.976  29.010  27.898  1.00  0.00     0.074 A 
ATOM     41  C   UNL A   1      43.182  28.960  26.701  1.00  0.00     0.031 C 
ATOM     42  C   UNL A   1      38.304  28.171  31.075  1.00  0.00     0.029 A 
ATOM     43  C   UNL A   1      39.180  29.316  31.219  1.00  0.00     0.049 A 
ATOM     44  H   UNL A   1      41.193  29.410  30.640  1.00  0.00     0.167 HD
ATOM     45  C   UNL A   1      44.957  29.873  28.287  1.00  0.00     0.037 A 
ATOM     46  C   UNL A   1      38.949  30.543  31.764  1.00  0.00     0.037 A 
ATOM     47  C   UNL A   1      45.391  29.585  29.634  1.00  0.00     0.049 A 
ATOM     48  C   UNL A   1      40.291  31.145  32.015  1.00  0.00     0.074 A 
ATOM     49  C   UNL A   1      45.928  28.475  30.257  1.00  0.00     0.029 A 
ATOM     50  N   UNL A   1      44.905  30.386  30.642  1.00  0.00    -0.354 N 
ATOM     51  N   UNL A   1      41.143  30.666  32.884  1.00  0.00    -0.248 NA
ATOM     52  C   UNL A   1      40.881  31.957  30.959  1.00  0.00     0.031 C 
ATOM     53  C   UNL A   1      45.303  28.434  31.537  1.00  0.00     0.029 A 
ATOM     54  C   UNL A   1      44.487  29.560  31.658  1.00  0.00     0.049 A 
ATOM     55  H   UNL A   1      44.865  31.369  30.638  1.00  0.00     0.167 HD
ATOM     56  C   UNL A   1      42.381  30.747  32.260  1.00  0.00     0.074 A 
ATOM     57  C   UNL A   1      42.168  31.628  31.112  1.00  0.00     0.031 C 
ATOM     58  C   UNL A   1      43.381  29.857  32.545  1.00  0.00     0.037 A 
BRANCH  45  59
ATOM     59  C   UNL A   1      45.282  31.184  27.610  1.00  0.00     0.058 A 
ATOM     60  C   UNL A   1      46.542  31.340  26.994  1.00  0.00     0.135 A 
ATOM     61  C   UNL A   1      44.531  32.370  27.762  1.00  0.00     0.135 A 
ATOM     62  F   UNL A   1      47.342  30.280  26.795  1.00  0.00    -0.206 F 
ATOM     63  C   UNL A   1      47.051  32.588  26.637  1.00  0.00     0.059 A 
ATOM     64  C   UNL A   1      44.993  33.617  27.357  1.00  0.00     0.059 A 
ATOM     65  F   UNL A   1      43.358  32.401  28.402  1.00  0.00    -0.206 F 
ATOM     66  C   UNL A   1      46.274  33.724  26.841  1.00  0.00     0.060 A 
BRANCH  66  67
ATOM     67  S   UNL A   1      46.972  35.347  26.499  1.00  0.00     0.124 S 
ATOM     68  O   UNL A   1      47.713  35.607  27.728  1.00  0.00    -0.237 OA
ATOM     69  O   UNL A   1      47.777  35.086  25.309  1.00  0.00    -0.237 OA
ATOM     70  O   UNL A   1      45.794  36.181  26.282  1.00  0.00    -0.744 OA
ENDBRANCH  66  67
ENDBRANCH  45  59
BRANCH  46  71
ATOM     71  C   UNL A   1      37.678  31.330  31.789  1.00  0.00     0.058 A 
ATOM     72  C   UNL A   1      37.015  31.626  32.998  1.00  0.00     0.135 A 
ATOM     73  C   UNL A   1      37.218  32.038  30.660  1.00  0.00     0.135 A 
ATOM     74  F   UNL A   1      37.374  31.005  34.131  1.00  0.00    -0.206 F 
ATOM     75  C   UNL A   1      36.014  32.605  33.088  1.00  0.00     0.059 A 
ATOM     76  C   UNL A   1      36.229  33.019  30.724  1.00  0.00     0.059 A 
ATOM     77  F   UNL A   1      37.771  31.852  29.455  1.00  0.00    -0.206 F 
ATOM     78  C   UNL A   1      35.646  33.318  31.948  1.00  0.00     0.060 A 
BRANCH  78  79
ATOM     79  S   UNL A   1      34.501  34.715  32.083  1.00  0.00     0.124 S 
ATOM     80  O   UNL A   1      35.300  35.689  32.818  1.00  0.00    -0.237 OA
ATOM     81  O   UNL A   1      34.233  35.035  30.685  1.00  0.00    -0.237 OA
ATOM     82  O   UNL A   1      33.370  34.154  32.818  1.00  0.00    -0.744 OA
ENDBRANCH  78  79
ENDBRANCH  46  71
BRANCH  58  83
ATOM     83  C   UNL A   1      43.214  28.936  33.730  1.00  0.00     0.058 A 
ATOM     84  C   UNL A   1      43.418  29.323  35.067  1.00  0.00     0.135 A 
ATOM     85  C   UNL A   1      42.639  27.675  33.518  1.00  0.00     0.135 A 
ATOM     86  F   UNL A   1      43.858  30.549  35.372  1.00  0.00    -0.206 F 
ATOM     87  C   UNL A   1      43.104  28.485  36.139  1.00  0.00     0.059 A 
ATOM     88  C   UNL A   1      42.285  26.834  34.572  1.00  0.00     0.059 A 
ATOM     89  F   UNL A   1      42.352  27.270  32.270  1.00  0.00    -0.206 F 
ATOM     90  C   UNL A   1      42.533  27.242  35.881  1.00  0.00     0.060 A 
BRANCH  90  91
ATOM     91  S   UNL A   1      42.044  26.197  37.270  1.00  0.00     0.124 S 
ATOM     92  O   UNL A   1      43.067  26.510  38.262  1.00  0.00    -0.237 OA
ATOM     93  O   UNL A   1      40.698  26.676  37.573  1.00  0.00    -0.237 OA
ATOM     94  O   UNL A   1      42.104  24.846  36.717  1.00  0.00    -0.744 OA
ENDBRANCH  90  91
ENDBRANCH  58  83
ENDBRANCH  32  33
ENDBRANCH  24  27
ENDBRANCH  22  23
ENDBRANCH   1  22
TORSDOF 16
ENDMDL
MODEL 2
REMARK VINA RESULT:     -12.1      1.669      2.349
REMARK SMILES CC[C@@](C)(NC(=O)c1cc(C)c(Br)s1)C(=O)NCCCNC(=O)c1ccc(-c2c3nc(c(-c4c(F)cc(S(=O)(=O)[O-])cc4F)c4ccc([nH]4)c(-c4c(F)cc(S(=O)(=O)[O-])cc4F)c4nc(c(-c5c(F)cc(S(=O)(=O)[O-])cc5F)c5ccc2[nH]5)C=C4)C=C3)cc1
REMARK SMILES IDX 19 1 18 2 17 3 15 4 16 5 3 7 4 8 2 9 1 10 5 11 6 12 7 14
REMARK SMILES IDX 8 15 9 16 14 17 10 18 12 19 11 20 13 21 20 22 21 23 22 24
REMARK SMILES IDX 23 26 24 27 25 28 89 29 26 30 88 31 27 32 28 33 29 34 82 35
REMARK SMILES IDX 30 36 87 37 81 38 83 39 31 40 86 41 80 42 79 43 32 45 66 46
REMARK SMILES IDX 45 47 65 48 46 49 49 50 64 51 84 52 47 53 48 54 63 56 85 57
REMARK SMILES IDX 50 58 33 59 34 60 43 61 35 62 36 63 42 64 44 65 37 66 38 67
REMARK SMILES IDX 39 68 40 69 41 70 67 71 68 72 77 73 69 74 70 75 76 76 78 77
REMARK SMILES IDX 71 78 72 79 73 80 74 81 75 82 51 83 52 84 61 85 53 86 54 87
REMARK SMILES IDX 60 88 62 89 55 90 56 91 57 92 58 93 59 94
REMARK H PARENT 17 6 5 13 21 25 83 44 49 55
REMARK Flexibility Score: inf
ROOT
ATOM      1  C   UNL A   1      38.652  21.433  25.700  1.00  0.00     0.042 C 
ENDROOT
BRANCH   1   2
ATOM      2  C   UNL A   1      37.627  22.558  25.533  1.00  0.00     0.117 C 
BRANCH   2   3
ATOM      3  N   UNL A   1      36.456  22.574  26.403  1.00  0.00    -0.354 N 
ATOM      4  C   UNL A   1      35.200  22.019  26.340  1.00  0.00     0.245 C 
ATOM      5  O   UNL A   1      34.560  22.035  27.396  1.00  0.00    -0.272 OA
ATOM      6  H   UNL A   1      36.596  23.103  27.222  1.00  0.00     0.163 HD
BRANCH   4   7
ATOM      7  C   UNL A   1      34.643  21.327  25.065  1.00  0.00     0.116 C 
ATOM      8  C   UNL A   1      35.393  19.974  24.970  1.00  0.00     0.045 C 
BRANCH   7   9
ATOM      9  C   UNL A   1      33.116  20.999  25.096  1.00  0.00     0.035 C 
ATOM     10  C   UNL A   1      32.615  19.831  24.250  1.00  0.00     0.007 C 
ENDBRANCH   7   9
BRANCH   7  11
ATOM     11  N   UNL A   1      34.903  22.110  23.829  1.00  0.00    -0.337 N 
ATOM     12  C   UNL A   1      34.322  23.262  23.319  1.00  0.00     0.262 C 
ATOM     13  H   UNL A   1      35.622  21.741  23.266  1.00  0.00     0.164 HD
ATOM     14  O   UNL A   1      34.354  23.318  22.085  1.00  0.00    -0.268 OA
BRANCH  12  15
ATOM     15  C   UNL A   1      33.791  24.343  24.145  1.00  0.00     0.093 A 
ATOM     16  C   UNL A   1      34.380  25.447  24.720  1.00  0.00     0.030 A 
ATOM     17  S   UNL A   1      32.084  24.448  24.387  1.00  0.00    -0.123 S 
ATOM     18  C   UNL A   1      33.505  26.329  25.426  1.00  0.00    -0.025 A 
ATOM     19  C   UNL A   1      32.208  25.918  25.232  1.00  0.00     0.074 A 
ATOM     20  C   UNL A   1      34.013  27.512  26.183  1.00  0.00     0.046 C 
ATOM     21  Br  UNL A   1      30.694  26.879  25.788  1.00  0.00    -0.039 Br
ENDBRANCH  12  15
ENDBRANCH   7  11
ENDBRANCH   4   7
ENDBRANCH   2   3
ENDBRANCH   1   2
BRANCH   1  22
ATOM     22  C   UNL A   1      39.862  21.764  26.554  1.00  0.00     0.118 C 
BRANCH  22  23
ATOM     23  N   UNL A   1      41.161  21.671  25.888  1.00  0.00    -0.352 N 
ATOM     24  C   UNL A   1      42.074  22.686  25.606  1.00  0.00     0.251 C 
ATOM     25  H   UNL A   1      41.427  20.767  25.598  1.00  0.00     0.163 HD
ATOM     26  O   UNL A   1      42.982  22.483  24.817  1.00  0.00    -0.269 OA
BRANCH  24  27
ATOM     27  C   UNL A   1      41.942  24.006  26.272  1.00  0.00     0.039 A 
ATOM     28  C   UNL A   1      41.268  25.090  25.688  1.00  0.00     0.014 A 
ATOM     29  C   UNL A   1      42.542  24.172  27.507  1.00  0.00     0.014 A 
ATOM     30  C   UNL A   1      41.209  26.313  26.372  1.00  0.00     0.010 A 
ATOM     31  C   UNL A   1      42.258  25.265  28.269  1.00  0.00     0.010 A 
ATOM     32  C   UNL A   1      41.734  26.388  27.661  1.00  0.00    -0.014 A 
BRANCH  32  33
ATOM     33  C   UNL A   1      41.771  27.585  28.489  1.00  0.00     0.031 A 
ATOM     34  C   UNL A   1      42.891  28.507  28.186  1.00  0.00     0.074 A 
ATOM     35  C   UNL A   1      40.671  27.978  29.176  1.00  0.00     0.049 A 
ATOM     36  N   UNL A   1      43.869  28.827  28.965  1.00  0.00    -0.248 NA
ATOM     37  C   UNL A   1      43.039  29.011  26.810  1.00  0.00     0.031 C 
ATOM     38  C   UNL A   1      39.365  27.308  29.262  1.00  0.00     0.029 A 
ATOM     39  N   UNL A   1      40.436  29.147  29.829  1.00  0.00    -0.354 N 
ATOM     40  C   UNL A   1      44.628  29.753  28.257  1.00  0.00     0.074 A 
ATOM     41  C   UNL A   1      44.215  29.638  26.884  1.00  0.00     0.031 C 
ATOM     42  C   UNL A   1      38.434  28.179  29.715  1.00  0.00     0.029 A 
ATOM     43  C   UNL A   1      39.092  29.416  30.088  1.00  0.00     0.049 A 
ATOM     44  H   UNL A   1      41.159  29.758  30.098  1.00  0.00     0.167 HD
ATOM     45  C   UNL A   1      45.350  30.716  28.896  1.00  0.00     0.037 A 
ATOM     46  C   UNL A   1      38.572  30.593  30.532  1.00  0.00     0.037 A 
ATOM     47  C   UNL A   1      45.419  30.450  30.314  1.00  0.00     0.049 A 
ATOM     48  C   UNL A   1      39.708  31.343  31.144  1.00  0.00     0.074 A 
ATOM     49  C   UNL A   1      45.888  29.396  31.075  1.00  0.00     0.029 A 
ATOM     50  N   UNL A   1      44.577  31.164  31.136  1.00  0.00    -0.354 N 
ATOM     51  N   UNL A   1      40.331  30.947  32.224  1.00  0.00    -0.248 NA
ATOM     52  C   UNL A   1      40.469  32.243  30.289  1.00  0.00     0.031 C 
ATOM     53  C   UNL A   1      44.938  29.252  32.128  1.00  0.00     0.029 A 
ATOM     54  C   UNL A   1      43.993  30.272  32.002  1.00  0.00     0.049 A 
ATOM     55  H   UNL A   1      44.423  32.135  31.110  1.00  0.00     0.167 HD
ATOM     56  C   UNL A   1      41.676  31.188  31.973  1.00  0.00     0.074 A 
ATOM     57  C   UNL A   1      41.690  32.065  30.802  1.00  0.00     0.031 C 
ATOM     58  C   UNL A   1      42.654  30.416  32.538  1.00  0.00     0.037 A 
BRANCH  45  59
ATOM     59  C   UNL A   1      45.693  32.071  28.325  1.00  0.00     0.058 A 
ATOM     60  C   UNL A   1      47.041  32.489  28.320  1.00  0.00     0.135 A 
ATOM     61  C   UNL A   1      44.746  33.077  28.027  1.00  0.00     0.135 A 
ATOM     62  F   UNL A   1      48.028  31.618  28.587  1.00  0.00    -0.206 F 
ATOM     63  C   UNL A   1      47.413  33.818  28.120  1.00  0.00     0.059 A 
ATOM     64  C   UNL A   1      45.099  34.395  27.763  1.00  0.00     0.059 A 
ATOM     65  F   UNL A   1      43.428  32.860  28.075  1.00  0.00    -0.206 F 
ATOM     66  C   UNL A   1      46.429  34.767  27.861  1.00  0.00     0.060 A 
BRANCH  66  67
ATOM     67  S   UNL A   1      46.888  36.503  27.727  1.00  0.00     0.124 S 
ATOM     68  O   UNL A   1      47.123  36.848  29.125  1.00  0.00    -0.237 OA
ATOM     69  O   UNL A   1      48.073  36.438  26.876  1.00  0.00    -0.237 OA
ATOM     70  O   UNL A   1      45.715  37.115  27.113  1.00  0.00    -0.744 OA
ENDBRANCH  66  67
ENDBRANCH  45  59
BRANCH  46  71
ATOM     71  C   UNL A   1      37.260  31.224  30.190  1.00  0.00     0.058 A 
ATOM     72  C   UNL A   1      36.495  31.910  31.154  1.00  0.00     0.135 A 
ATOM     73  C   UNL A   1      36.847  31.403  28.853  1.00  0.00     0.135 A 
ATOM     74  F   UNL A   1      36.802  31.805  32.456  1.00  0.00    -0.206 F 
ATOM     75  C   UNL A   1      35.436  32.764  30.809  1.00  0.00     0.059 A 
ATOM     76  C   UNL A   1      35.801  32.250  28.484  1.00  0.00     0.059 A 
ATOM     77  F   UNL A   1      37.497  30.812  27.843  1.00  0.00    -0.206 F 
ATOM     78  C   UNL A   1      35.114  32.950  29.466  1.00  0.00     0.060 A 
BRANCH  78  79
ATOM     79  S   UNL A   1      33.885  34.194  28.992  1.00  0.00     0.124 S 
ATOM     80  O   UNL A   1      34.720  35.228  28.390  1.00  0.00    -0.237 OA
ATOM     81  O   UNL A   1      33.028  33.452  28.074  1.00  0.00    -0.237 OA
ATOM     82  O   UNL A   1      33.264  34.555  30.263  1.00  0.00    -0.744 OA
ENDBRANCH  78  79
ENDBRANCH  46  71
BRANCH  58  83
ATOM     83  C   UNL A   1      42.272  29.454  33.638  1.00  0.00     0.058 A 
ATOM     84  C   UNL A   1      41.708  28.184  33.417  1.00  0.00     0.135 A 
ATOM     85  C   UNL A   1      42.669  29.750  34.950  1.00  0.00     0.135 A 
ATOM     86  F   UNL A   1      41.401  27.770  32.183  1.00  0.00    -0.206 F 
ATOM     87  C   UNL A   1      41.513  27.268  34.453  1.00  0.00     0.059 A 
ATOM     88  C   UNL A   1      42.516  28.839  35.994  1.00  0.00     0.059 A 
ATOM     89  F   UNL A   1      43.277  30.917  35.219  1.00  0.00    -0.206 F 
ATOM     90  C   UNL A   1      41.925  27.604  35.739  1.00  0.00     0.060 A 
BRANCH  90  91
ATOM     91  S   UNL A   1      41.754  26.385  37.060  1.00  0.00     0.124 S 
ATOM     92  O   UNL A   1      40.434  26.698  37.596  1.00  0.00    -0.237 OA
ATOM     93  O   UNL A   1      41.864  25.118  36.343  1.00  0.00    -0.237 OA
ATOM     94  O   UNL A   1      42.875  26.685  37.948  1.00  0.00    -0.744 OA
ENDBRANCH  90  91
ENDBRANCH  58  83
ENDBRANCH  32  33
ENDBRANCH  24  27
ENDBRANCH  22  23
ENDBRANCH   1  22
TORSDOF 16
ENDMDL
MODEL 3
REMARK VINA RESULT:     -12.0      1.201      1.548
REMARK SMILES CC[C@@](C)(NC(=O)c1cc(C)c(Br)s1)C(=O)NCCCNC(=O)c1ccc(-c2c3nc(c(-c4c(F)cc(S(=O)(=O)[O-])cc4F)c4ccc([nH]4)c(-c4c(F)cc(S(=O)(=O)[O-])cc4F)c4nc(c(-c5c(F)cc(S(=O)(=O)[O-])cc5F)c5ccc2[nH]5)C=C4)C=C3)cc1
REMARK SMILES IDX 19 1 18 2 17 3 15 4 16 5 3 7 4 8 2 9 1 10 5 11 6 12 7 14
REMARK SMILES IDX 8 15 9 16 14 17 10 18 12 19 11 20 13 21 20 22 21 23 22 24
REMARK SMILES IDX 23 26 24 27 25 28 89 29 26 30 88 31 27 32 28 33 29 34 82 35
REMARK SMILES IDX 30 36 87 37 81 38 83 39 31 40 86 41 80 42 79 43 32 45 66 46
REMARK SMILES IDX 45 47 65 48 46 49 49 50 64 51 84 52 47 53 48 54 63 56 85 57
REMARK SMILES IDX 50 58 33 59 34 60 43 61 35 62 36 63 42 64 44 65 37 66 38 67
REMARK SMILES IDX 39 68 40 69 41 70 67 71 68 72 77 73 69 74 70 75 76 76 78 77
REMARK SMILES IDX 71 78 72 79 73 80 74 81 75 82 51 83 52 84 61 85 53 86 54 87
REMARK SMILES IDX 60 88 62 89 55 90 56 91 57 92 58 93 59 94
REMARK H PARENT 17 6 5 13 21 25 83 44 49 55
REMARK Flexibility Score: inf
ROOT
ATOM      1  C   UNL A   1      36.360  21.873  24.881  1.00  0.00     0.042 C 
ENDROOT
BRANCH   1   2
ATOM      2  C   UNL A   1      35.017  22.539  25.191  1.00  0.00     0.117 C 
BRANCH   2   3
ATOM      3  N   UNL A   1      33.800  21.950  24.641  1.00  0.00    -0.354 N 
ATOM      4  C   UNL A   1      32.656  22.457  24.073  1.00  0.00     0.245 C 
ATOM      5  O   UNL A   1      31.948  21.635  23.483  1.00  0.00    -0.272 OA
ATOM      6  H   UNL A   1      33.796  20.967  24.688  1.00  0.00     0.163 HD
BRANCH   4   7
ATOM      7  C   UNL A   1      32.306  23.971  24.077  1.00  0.00     0.116 C 
ATOM      8  C   UNL A   1      30.885  24.067  23.466  1.00  0.00     0.045 C 
BRANCH   7   9
ATOM      9  C   UNL A   1      32.240  24.637  25.488  1.00  0.00     0.035 C 
ATOM     10  C   UNL A   1      31.645  23.827  26.638  1.00  0.00     0.007 C 
ENDBRANCH   7   9
BRANCH   7  11
ATOM     11  N   UNL A   1      33.242  24.777  23.250  1.00  0.00    -0.337 N 
ATOM     12  C   UNL A   1      33.124  26.034  22.674  1.00  0.00     0.262 C 
ATOM     13  H   UNL A   1      34.106  24.337  23.079  1.00  0.00     0.164 HD
ATOM     14  O   UNL A   1      33.790  26.159  21.640  1.00  0.00    -0.268 OA
BRANCH  12  15
ATOM     15  C   UNL A   1      32.357  27.132  23.256  1.00  0.00     0.093 A 
ATOM     16  C   UNL A   1      32.621  28.001  24.291  1.00  0.00     0.030 A 
ATOM     17  S   UNL A   1      30.891  27.627  22.488  1.00  0.00    -0.123 S 
ATOM     18  C   UNL A   1      31.631  29.002  24.538  1.00  0.00    -0.025 A 
ATOM     19  C   UNL A   1      30.679  28.939  23.549  1.00  0.00     0.074 A 
ATOM     20  C   UNL A   1      31.731  29.950  25.687  1.00  0.00     0.046 C 
ATOM     21  Br  UNL A   1      29.292  30.185  23.327  1.00  0.00    -0.039 Br
ENDBRANCH  12  15
ENDBRANCH   7  11
ENDBRANCH   4   7
ENDBRANCH   2   3
ENDBRANCH   1   2
BRANCH   1  22
ATOM     22  C   UNL A   1      37.586  22.558  25.459  1.00  0.00     0.118 C 
BRANCH  22  23
ATOM     23  N   UNL A   1      38.742  21.697  25.712  1.00  0.00    -0.352 N 
ATOM     24  C   UNL A   1      39.998  22.043  26.205  1.00  0.00     0.251 C 
ATOM     25  H   UNL A   1      38.614  20.742  25.505  1.00  0.00     0.163 HD
ATOM     26  O   UNL A   1      40.925  21.257  26.107  1.00  0.00    -0.269 OA
BRANCH  24  27
ATOM     27  C   UNL A   1      40.202  23.364  26.852  1.00  0.00     0.039 A 
ATOM     28  C   UNL A   1      39.366  24.466  26.615  1.00  0.00     0.014 A 
ATOM     29  C   UNL A   1      41.286  23.510  27.699  1.00  0.00     0.014 A 
ATOM     30  C   UNL A   1      39.641  25.688  27.246  1.00  0.00     0.010 A 
ATOM     31  C   UNL A   1      41.390  24.607  28.501  1.00  0.00     0.010 A 
ATOM     32  C   UNL A   1      40.679  25.745  28.175  1.00  0.00    -0.014 A 
BRANCH  32  33
ATOM     33  C   UNL A   1      41.103  26.937  28.895  1.00  0.00     0.031 A 
ATOM     34  C   UNL A   1      42.207  27.686  28.247  1.00  0.00     0.074 A 
ATOM     35  C   UNL A   1      40.300  27.493  29.834  1.00  0.00     0.049 A 
ATOM     36  N   UNL A   1      43.396  27.875  28.711  1.00  0.00    -0.248 NA
ATOM     37  C   UNL A   1      42.031  28.142  26.857  1.00  0.00     0.031 C 
ATOM     38  C   UNL A   1      38.992  27.017  30.310  1.00  0.00     0.029 A 
ATOM     39  N   UNL A   1      40.412  28.695  30.461  1.00  0.00    -0.354 N 
ATOM     40  C   UNL A   1      44.043  28.673  27.773  1.00  0.00     0.074 A 
ATOM     41  C   UNL A   1      43.253  28.596  26.574  1.00  0.00     0.031 C 
ATOM     42  C   UNL A   1      38.348  28.019  30.951  1.00  0.00     0.029 A 
ATOM     43  C   UNL A   1      39.241  29.156  31.062  1.00  0.00     0.049 A 
ATOM     44  H   UNL A   1      41.256  29.201  30.489  1.00  0.00     0.167 HD
ATOM     45  C   UNL A   1      45.036  29.533  28.137  1.00  0.00     0.037 A 
ATOM     46  C   UNL A   1      39.026  30.402  31.566  1.00  0.00     0.037 A 
ATOM     47  C   UNL A   1      45.460  29.282  29.494  1.00  0.00     0.049 A 
ATOM     48  C   UNL A   1      40.376  30.992  31.803  1.00  0.00     0.074 A 
ATOM     49  C   UNL A   1      45.979  28.184  30.155  1.00  0.00     0.029 A 
ATOM     50  N   UNL A   1      44.983  30.122  30.475  1.00  0.00    -0.354 N 
ATOM     51  N   UNL A   1      41.217  30.528  32.691  1.00  0.00    -0.248 NA
ATOM     52  C   UNL A   1      40.981  31.761  30.725  1.00  0.00     0.031 C 
ATOM     53  C   UNL A   1      45.349  28.194  31.433  1.00  0.00     0.029 A 
ATOM     54  C   UNL A   1      44.549  29.335  31.514  1.00  0.00     0.049 A 
ATOM     55  H   UNL A   1      44.957  31.104  30.439  1.00  0.00     0.167 HD
ATOM     56  C   UNL A   1      42.459  30.572  32.070  1.00  0.00     0.074 A 
ATOM     57  C   UNL A   1      42.263  31.419  30.894  1.00  0.00     0.031 C 
ATOM     58  C   UNL A   1      43.444  29.677  32.387  1.00  0.00     0.037 A 
BRANCH  45  59
ATOM     59  C   UNL A   1      45.382  30.816  27.420  1.00  0.00     0.058 A 
ATOM     60  C   UNL A   1      46.703  31.005  26.959  1.00  0.00     0.135 A 
ATOM     61  C   UNL A   1      44.562  31.966  27.397  1.00  0.00     0.135 A 
ATOM     62  F   UNL A   1      47.572  29.982  26.934  1.00  0.00    -0.206 F 
ATOM     63  C   UNL A   1      47.194  32.256  26.585  1.00  0.00     0.059 A 
ATOM     64  C   UNL A   1      45.013  33.210  26.970  1.00  0.00     0.059 A 
ATOM     65  F   UNL A   1      43.316  31.971  27.880  1.00  0.00    -0.206 F 
ATOM     66  C   UNL A   1      46.343  33.357  26.613  1.00  0.00     0.060 A 
BRANCH  66  67
ATOM     67  S   UNL A   1      47.001  34.993  26.254  1.00  0.00     0.124 S 
ATOM     68  O   UNL A   1      47.699  35.302  27.497  1.00  0.00    -0.237 OA
ATOM     69  O   UNL A   1      47.847  34.731  25.093  1.00  0.00    -0.237 OA
ATOM     70  O   UNL A   1      45.806  35.786  25.986  1.00  0.00    -0.744 OA
ENDBRANCH  66  67
ENDBRANCH  45  59
BRANCH  46  71
ATOM     71  C   UNL A   1      37.766  31.208  31.561  1.00  0.00     0.058 A 
ATOM     72  C   UNL A   1      36.982  31.362  32.722  1.00  0.00     0.135 A 
ATOM     73  C   UNL A   1      37.436  32.065  30.492  1.00  0.00     0.135 A 
ATOM     74  F   UNL A   1      37.212  30.593  33.797  1.00  0.00    -0.206 F 
ATOM     75  C   UNL A   1      35.986  32.344  32.835  1.00  0.00     0.059 A 
ATOM     76  C   UNL A   1      36.454  33.053  30.580  1.00  0.00     0.059 A 
ATOM     77  F   UNL A   1      38.112  32.023  29.337  1.00  0.00    -0.206 F 
ATOM     78  C   UNL A   1      35.747  33.206  31.765  1.00  0.00     0.060 A 
BRANCH  78  79
ATOM     79  S   UNL A   1      34.607  34.599  31.960  1.00  0.00     0.124 S 
ATOM     80  O   UNL A   1      35.431  35.564  32.681  1.00  0.00    -0.237 OA
ATOM     81  O   UNL A   1      34.290  34.939  30.578  1.00  0.00    -0.237 OA
ATOM     82  O   UNL A   1      33.503  34.027  32.726  1.00  0.00    -0.744 OA
ENDBRANCH  78  79
ENDBRANCH  46  71
BRANCH  58  83
ATOM     83  C   UNL A   1      43.259  28.797  33.601  1.00  0.00     0.058 A 
ATOM     84  C   UNL A   1      43.455  29.226  34.926  1.00  0.00     0.135 A 
ATOM     85  C   UNL A   1      42.676  27.534  33.425  1.00  0.00     0.135 A 
ATOM     86  F   UNL A   1      43.902  30.458  35.194  1.00  0.00    -0.206 F 
ATOM     87  C   UNL A   1      43.124  28.427  36.022  1.00  0.00     0.059 A 
ATOM     88  C   UNL A   1      42.306  26.731  34.503  1.00  0.00     0.059 A 
ATOM     89  F   UNL A   1      42.396  27.090  32.188  1.00  0.00    -0.206 F 
ATOM     90  C   UNL A   1      42.545  27.180  35.800  1.00  0.00     0.060 A 
BRANCH  90  91
ATOM     91  S   UNL A   1      42.036  26.185  37.218  1.00  0.00     0.124 S 
ATOM     92  O   UNL A   1      41.964  24.847  36.641  1.00  0.00    -0.237 OA
ATOM     93  O   UNL A   1      43.120  26.408  38.170  1.00  0.00    -0.237 OA
ATOM     94  O   UNL A   1      40.753  26.770  37.602  1.00  0.00    -0.744 OA
ENDBRANCH  90  91
ENDBRANCH  58  83
ENDBRANCH  32  33
ENDBRANCH  24  27
ENDBRANCH  22  23
ENDBRANCH   1  22
TORSDOF 16
ENDMDL
