MODEL 1
REMARK VINA RESULT:     -11.6      0.000      0.000
REMARK SMILES CCC(CC)(NC(=O)c1c(C)noc1C)C(=O)NCCCNC(=O)c1ccc(-c2c3nc(c(-c4c(F)cc(S(=O)(=O)[O-])cc4F)c4ccc([nH]4)c(-c4c(F)cc(S(=O)(=O)[O-])cc4F)c4nc(c(-c5c(F)cc(S(=O)(=O)[O-])cc5F)c5ccc2[nH]5)C=C4)C=C3)cc1
REMARK SMILES IDX 20 1 19 2 18 3 16 4 17 5 3 7 2 8 1 9 4 10 5 11 6 12 7 13
REMARK SMILES IDX 8 15 9 16 10 17 14 18 11 19 12 20 13 21 15 22 21 23 22 24
REMARK SMILES IDX 23 25 24 27 25 28 26 29 90 30 27 31 89 32 28 33 29 34 30 35
REMARK SMILES IDX 83 36 31 37 88 38 82 39 84 40 32 41 87 42 81 43 80 44 33 46
REMARK SMILES IDX 67 47 46 48 66 49 47 50 50 51 65 52 85 53 48 54 49 55 64 57
REMARK SMILES IDX 86 58 51 59 34 60 35 61 44 62 36 63 37 64 43 65 45 66 38 67
REMARK SMILES IDX 39 68 40 69 41 70 42 71 68 72 69 73 78 74 70 75 71 76 77 77
REMARK SMILES IDX 79 78 72 79 73 80 74 81 75 82 76 83 52 84 53 85 62 86 54 87
REMARK SMILES IDX 55 88 61 89 63 90 56 91 57 92 58 93 59 94 60 95
REMARK H PARENT 18 6 6 14 22 26 84 45 50 56
REMARK Flexibility Score: inf
ROOT
ATOM      1  C   UNL A   1      37.717  23.904  25.830  1.00  0.00     0.042 C 
ENDROOT
BRANCH   1   2
ATOM      2  C   UNL A   1      36.713  22.748  25.715  1.00  0.00     0.117 C 
BRANCH   2   3
ATOM      3  N   UNL A   1      35.759  22.446  26.790  1.00  0.00    -0.354 N 
ATOM      4  C   UNL A   1      34.383  22.552  26.917  1.00  0.00     0.245 C 
ATOM      5  O   UNL A   1      33.847  21.921  27.831  1.00  0.00    -0.272 OA
ATOM      6  H   UNL A   1      36.191  22.089  27.599  1.00  0.00     0.163 HD
BRANCH   4   7
ATOM      7  C   UNL A   1      33.545  23.245  25.833  1.00  0.00     0.118 C 
BRANCH   7   8
ATOM      8  C   UNL A   1      33.587  22.694  24.382  1.00  0.00     0.035 C 
ATOM      9  C   UNL A   1      33.263  21.223  24.152  1.00  0.00     0.007 C 
ENDBRANCH   7   8
BRANCH   7  10
ATOM     10  C   UNL A   1      34.147  24.703  25.859  1.00  0.00     0.035 C 
ATOM     11  C   UNL A   1      34.331  25.457  24.554  1.00  0.00     0.007 C 
ENDBRANCH   7  10
BRANCH   7  12
ATOM     12  N   UNL A   1      32.147  23.152  26.289  1.00  0.00    -0.337 N 
ATOM     13  C   UNL A   1      31.103  24.053  26.413  1.00  0.00     0.257 C 
ATOM     14  H   UNL A   1      31.898  22.242  26.569  1.00  0.00     0.164 HD
ATOM     15  O   UNL A   1      30.272  23.645  27.236  1.00  0.00    -0.269 OA
BRANCH  13  16
ATOM     16  C   UNL A   1      30.855  25.354  25.749  1.00  0.00     0.105 A 
ATOM     17  C   UNL A   1      30.575  25.402  24.318  1.00  0.00     0.093 A 
ATOM     18  C   UNL A   1      30.987  26.722  26.026  1.00  0.00     0.146 A 
ATOM     19  C   UNL A   1      30.518  24.303  23.323  1.00  0.00     0.071 C 
ATOM     20  N   UNL A   1      30.392  26.640  23.868  1.00  0.00    -0.084 NA
ATOM     21  O   UNL A   1      30.627  27.448  24.928  1.00  0.00    -0.361 OA
ATOM     22  C   UNL A   1      31.481  27.673  27.046  1.00  0.00     0.092 C 
ENDBRANCH  13  16
ENDBRANCH   7  12
ENDBRANCH   4   7
ENDBRANCH   2   3
ENDBRANCH   1   2
BRANCH   1  23
ATOM     23  C   UNL A   1      38.914  23.831  26.767  1.00  0.00     0.118 C 
BRANCH  23  24
ATOM     24  N   UNL A   1      40.198  24.000  26.126  1.00  0.00    -0.352 N 
ATOM     25  C   UNL A   1      41.179  24.924  26.396  1.00  0.00     0.251 C 
ATOM     26  H   UNL A   1      40.396  23.369  25.397  1.00  0.00     0.163 HD
ATOM     27  O   UNL A   1      42.193  24.938  25.699  1.00  0.00    -0.269 OA
BRANCH  25  28
ATOM     28  C   UNL A   1      41.010  25.928  27.475  1.00  0.00     0.039 A 
ATOM     29  C   UNL A   1      39.975  25.734  28.395  1.00  0.00     0.014 A 
ATOM     30  C   UNL A   1      41.826  27.060  27.581  1.00  0.00     0.014 A 
ATOM     31  C   UNL A   1      39.786  26.642  29.441  1.00  0.00     0.010 A 
ATOM     32  C   UNL A   1      41.667  27.940  28.658  1.00  0.00     0.010 A 
ATOM     33  C   UNL A   1      40.643  27.744  29.599  1.00  0.00    -0.014 A 
BRANCH  33  34
ATOM     34  C   UNL A   1      40.456  28.682  30.742  1.00  0.00     0.031 A 
ATOM     35  C   UNL A   1      41.303  28.559  31.982  1.00  0.00     0.074 A 
ATOM     36  C   UNL A   1      39.519  29.649  30.669  1.00  0.00     0.049 A 
ATOM     37  N   UNL A   1      41.305  29.305  33.060  1.00  0.00    -0.248 NA
ATOM     38  C   UNL A   1      42.264  27.447  32.026  1.00  0.00     0.031 C 
ATOM     39  C   UNL A   1      38.606  29.854  29.543  1.00  0.00     0.029 A 
ATOM     40  N   UNL A   1      39.179  30.643  31.555  1.00  0.00    -0.354 N 
ATOM     41  C   UNL A   1      42.260  28.753  33.907  1.00  0.00     0.074 A 
ATOM     42  C   UNL A   1      42.780  27.579  33.239  1.00  0.00     0.031 C 
ATOM     43  C   UNL A   1      37.829  30.921  29.794  1.00  0.00     0.029 A 
ATOM     44  C   UNL A   1      38.165  31.461  31.109  1.00  0.00     0.049 A 
ATOM     45  H   UNL A   1      39.618  30.760  32.428  1.00  0.00     0.167 HD
ATOM     46  C   UNL A   1      42.682  29.195  35.116  1.00  0.00     0.037 A 
ATOM     47  C   UNL A   1      37.574  32.525  31.688  1.00  0.00     0.037 A 
ATOM     48  C   UNL A   1      42.170  30.370  35.775  1.00  0.00     0.049 A 
ATOM     49  C   UNL A   1      38.054  32.991  33.037  1.00  0.00     0.074 A 
ATOM     50  C   UNL A   1      42.565  30.921  36.982  1.00  0.00     0.029 A 
ATOM     51  N   UNL A   1      41.148  31.172  35.288  1.00  0.00    -0.354 N 
ATOM     52  N   UNL A   1      39.006  32.496  33.792  1.00  0.00    -0.248 NA
ATOM     53  C   UNL A   1      37.388  34.171  33.610  1.00  0.00     0.031 C 
ATOM     54  C   UNL A   1      41.751  32.027  37.248  1.00  0.00     0.029 A 
ATOM     55  C   UNL A   1      40.886  32.201  36.179  1.00  0.00     0.049 A 
ATOM     56  H   UNL A   1      40.677  31.031  34.435  1.00  0.00     0.167 HD
ATOM     57  C   UNL A   1      39.075  33.320  34.910  1.00  0.00     0.074 A 
ATOM     58  C   UNL A   1      38.075  34.353  34.729  1.00  0.00     0.031 C 
ATOM     59  C   UNL A   1      39.896  33.231  35.986  1.00  0.00     0.037 A 
BRANCH  46  60
ATOM     60  C   UNL A   1      43.758  28.402  35.813  1.00  0.00     0.058 A 
ATOM     61  C   UNL A   1      45.121  28.659  35.594  1.00  0.00     0.135 A 
ATOM     62  C   UNL A   1      43.423  27.398  36.736  1.00  0.00     0.135 A 
ATOM     63  F   UNL A   1      45.499  29.601  34.715  1.00  0.00    -0.206 F 
ATOM     64  C   UNL A   1      46.114  27.930  36.241  1.00  0.00     0.059 A 
ATOM     65  C   UNL A   1      44.400  26.675  37.417  1.00  0.00     0.059 A 
ATOM     66  F   UNL A   1      42.136  27.111  36.988  1.00  0.00    -0.206 F 
ATOM     67  C   UNL A   1      45.742  26.937  37.150  1.00  0.00     0.060 A 
BRANCH  67  68
ATOM     68  S   UNL A   1      47.043  25.999  37.981  1.00  0.00     0.124 S 
ATOM     69  O   UNL A   1      48.227  26.424  37.240  1.00  0.00    -0.237 OA
ATOM     70  O   UNL A   1      46.949  26.485  39.355  1.00  0.00    -0.237 OA
ATOM     71  O   UNL A   1      46.643  24.610  37.781  1.00  0.00    -0.744 OA
ENDBRANCH  67  68
ENDBRANCH  46  60
BRANCH  47  72
ATOM     72  C   UNL A   1      36.474  33.241  30.984  1.00  0.00     0.058 A 
ATOM     73  C   UNL A   1      36.731  34.035  29.856  1.00  0.00     0.135 A 
ATOM     74  C   UNL A   1      35.144  33.144  31.422  1.00  0.00     0.135 A 
ATOM     75  F   UNL A   1      37.987  34.169  29.403  1.00  0.00    -0.206 F 
ATOM     76  C   UNL A   1      35.715  34.721  29.198  1.00  0.00     0.059 A 
ATOM     77  C   UNL A   1      34.107  33.797  30.764  1.00  0.00     0.059 A 
ATOM     78  F   UNL A   1      34.841  32.386  32.487  1.00  0.00    -0.206 F 
ATOM     79  C   UNL A   1      34.403  34.593  29.659  1.00  0.00     0.060 A 
BRANCH  79  80
ATOM     80  S   UNL A   1      33.084  35.448  28.768  1.00  0.00     0.124 S 
ATOM     81  O   UNL A   1      32.285  35.978  29.867  1.00  0.00    -0.237 OA
ATOM     82  O   UNL A   1      33.829  36.430  27.988  1.00  0.00    -0.237 OA
ATOM     83  O   UNL A   1      32.461  34.382  27.990  1.00  0.00    -0.744 OA
ENDBRANCH  79  80
ENDBRANCH  47  72
BRANCH  59  84
ATOM     84  C   UNL A   1      39.783  34.303  37.038  1.00  0.00     0.058 A 
ATOM     85  C   UNL A   1      39.051  34.110  38.220  1.00  0.00     0.135 A 
ATOM     86  C   UNL A   1      40.459  35.525  36.879  1.00  0.00     0.135 A 
ATOM     87  F   UNL A   1      38.382  32.964  38.421  1.00  0.00    -0.206 F 
ATOM     88  C   UNL A   1      38.970  35.100  39.195  1.00  0.00     0.059 A 
ATOM     89  C   UNL A   1      40.416  36.517  37.854  1.00  0.00     0.059 A 
ATOM     90  F   UNL A   1      41.183  35.759  35.773  1.00  0.00    -0.206 F 
ATOM     91  C   UNL A   1      39.658  36.301  39.003  1.00  0.00     0.060 A 
BRANCH  91  92
ATOM     92  S   UNL A   1      39.568  37.565  40.288  1.00  0.00     0.124 S 
ATOM     93  O   UNL A   1      38.850  36.861  41.345  1.00  0.00    -0.237 OA
ATOM     94  O   UNL A   1      40.976  37.842  40.555  1.00  0.00    -0.237 OA
ATOM     95  O   UNL A   1      38.833  38.651  39.646  1.00  0.00    -0.744 OA
ENDBRANCH  91  92
ENDBRANCH  59  84
ENDBRANCH  33  34
ENDBRANCH  25  28
ENDBRANCH  23  24
ENDBRANCH   1  23
TORSDOF 17
ENDMDL
MODEL 2
REMARK VINA RESULT:     -11.5      1.192      2.055
REMARK SMILES CCC(CC)(NC(=O)c1c(C)noc1C)C(=O)NCCCNC(=O)c1ccc(-c2c3nc(c(-c4c(F)cc(S(=O)(=O)[O-])cc4F)c4ccc([nH]4)c(-c4c(F)cc(S(=O)(=O)[O-])cc4F)c4nc(c(-c5c(F)cc(S(=O)(=O)[O-])cc5F)c5ccc2[nH]5)C=C4)C=C3)cc1
REMARK SMILES IDX 20 1 19 2 18 3 16 4 17 5 3 7 2 8 1 9 4 10 5 11 6 12 7 13
REMARK SMILES IDX 8 15 9 16 10 17 14 18 11 19 12 20 13 21 15 22 21 23 22 24
REMARK SMILES IDX 23 25 24 27 25 28 26 29 90 30 27 31 89 32 28 33 29 34 30 35
REMARK SMILES IDX 83 36 31 37 88 38 82 39 84 40 32 41 87 42 81 43 80 44 33 46
REMARK SMILES IDX 67 47 46 48 66 49 47 50 50 51 65 52 85 53 48 54 49 55 64 57
REMARK SMILES IDX 86 58 51 59 34 60 35 61 44 62 36 63 37 64 43 65 45 66 38 67
REMARK SMILES IDX 39 68 40 69 41 70 42 71 68 72 69 73 78 74 70 75 71 76 77 77
REMARK SMILES IDX 79 78 72 79 73 80 74 81 75 82 76 83 52 84 53 85 62 86 54 87
REMARK SMILES IDX 55 88 61 89 63 90 56 91 57 92 58 93 59 94 60 95
REMARK H PARENT 18 6 6 14 22 26 84 45 50 56
REMARK Flexibility Score: inf
ROOT
ATOM      1  C   UNL A   1      39.341  22.205  26.476  1.00  0.00     0.042 C 
ENDROOT
BRANCH   1   2
ATOM      2  C   UNL A   1      37.992  22.749  25.985  1.00  0.00     0.117 C 
BRANCH   2   3
ATOM      3  N   UNL A   1      37.591  22.657  24.574  1.00  0.00    -0.354 N 
ATOM      4  C   UNL A   1      36.431  22.959  23.880  1.00  0.00     0.245 C 
ATOM      5  O   UNL A   1      36.515  23.067  22.654  1.00  0.00    -0.272 OA
ATOM      6  H   UNL A   1      38.303  22.302  23.995  1.00  0.00     0.163 HD
BRANCH   4   7
ATOM      7  C   UNL A   1      35.151  23.362  24.625  1.00  0.00     0.118 C 
BRANCH   7   8
ATOM      8  C   UNL A   1      35.233  23.693  26.140  1.00  0.00     0.035 C 
ATOM      9  C   UNL A   1      34.413  22.856  27.114  1.00  0.00     0.007 C 
ENDBRANCH   7   8
BRANCH   7  10
ATOM     10  C   UNL A   1      34.254  22.080  24.416  1.00  0.00     0.035 C 
ATOM     11  C   UNL A   1      33.266  22.041  23.264  1.00  0.00     0.007 C 
ENDBRANCH   7  10
BRANCH   7  12
ATOM     12  N   UNL A   1      34.657  24.572  23.945  1.00  0.00    -0.337 N 
ATOM     13  C   UNL A   1      33.499  25.327  24.026  1.00  0.00     0.257 C 
ATOM     14  H   UNL A   1      35.296  24.925  23.285  1.00  0.00     0.164 HD
ATOM     15  O   UNL A   1      33.329  25.974  22.983  1.00  0.00    -0.269 OA
BRANCH  13  16
ATOM     16  C   UNL A   1      32.495  25.461  25.107  1.00  0.00     0.105 A 
ATOM     17  C   UNL A   1      32.568  26.585  26.035  1.00  0.00     0.093 A 
ATOM     18  C   UNL A   1      31.494  24.694  25.718  1.00  0.00     0.146 A 
ATOM     19  C   UNL A   1      33.557  27.688  26.118  1.00  0.00     0.071 C 
ATOM     20  N   UNL A   1      31.610  26.556  26.958  1.00  0.00    -0.084 NA
ATOM     21  O   UNL A   1      30.939  25.400  26.745  1.00  0.00    -0.361 OA
ATOM     22  C   UNL A   1      30.885  23.346  25.725  1.00  0.00     0.092 C 
ENDBRANCH  13  16
ENDBRANCH   7  12
ENDBRANCH   4   7
ENDBRANCH   2   3
ENDBRANCH   1   2
BRANCH   1  23
ATOM     23  C   UNL A   1      40.423  23.127  27.018  1.00  0.00     0.118 C 
BRANCH  23  24
ATOM     24  N   UNL A   1      41.136  23.883  26.013  1.00  0.00    -0.352 N 
ATOM     25  C   UNL A   1      41.563  25.188  26.061  1.00  0.00     0.251 C 
ATOM     26  H   UNL A   1      41.341  23.398  25.182  1.00  0.00     0.163 HD
ATOM     27  O   UNL A   1      42.116  25.672  25.074  1.00  0.00    -0.269 OA
BRANCH  25  28
ATOM     28  C   UNL A   1      41.324  26.029  27.260  1.00  0.00     0.039 A 
ATOM     29  C   UNL A   1      42.215  27.075  27.517  1.00  0.00     0.014 A 
ATOM     30  C   UNL A   1      40.263  25.793  28.143  1.00  0.00     0.014 A 
ATOM     31  C   UNL A   1      42.022  27.907  28.623  1.00  0.00     0.010 A 
ATOM     32  C   UNL A   1      40.042  26.658  29.220  1.00  0.00     0.010 A 
ATOM     33  C   UNL A   1      40.920  27.723  29.476  1.00  0.00    -0.014 A 
BRANCH  33  34
ATOM     34  C   UNL A   1      40.702  28.643  30.629  1.00  0.00     0.031 A 
ATOM     35  C   UNL A   1      41.536  28.521  31.877  1.00  0.00     0.074 A 
ATOM     36  C   UNL A   1      39.746  29.592  30.557  1.00  0.00     0.049 A 
ATOM     37  N   UNL A   1      41.510  29.253  32.964  1.00  0.00    -0.248 NA
ATOM     38  C   UNL A   1      42.518  27.427  31.918  1.00  0.00     0.031 C 
ATOM     39  C   UNL A   1      38.842  29.793  29.422  1.00  0.00     0.029 A 
ATOM     40  N   UNL A   1      39.375  30.568  31.451  1.00  0.00    -0.354 N 
ATOM     41  C   UNL A   1      42.466  28.710  33.815  1.00  0.00     0.074 A 
ATOM     42  C   UNL A   1      43.018  27.554  33.139  1.00  0.00     0.031 C 
ATOM     43  C   UNL A   1      38.042  30.841  29.678  1.00  0.00     0.029 A 
ATOM     44  C   UNL A   1      38.351  31.371  31.002  1.00  0.00     0.049 A 
ATOM     45  H   UNL A   1      39.803  30.682  32.330  1.00  0.00     0.167 HD
ATOM     46  C   UNL A   1      42.865  29.144  35.035  1.00  0.00     0.037 A 
ATOM     47  C   UNL A   1      37.732  32.415  31.588  1.00  0.00     0.037 A 
ATOM     48  C   UNL A   1      42.322  30.300  35.703  1.00  0.00     0.049 A 
ATOM     49  C   UNL A   1      38.187  32.874  32.949  1.00  0.00     0.074 A 
ATOM     50  C   UNL A   1      42.692  30.844  36.921  1.00  0.00     0.029 A 
ATOM     51  N   UNL A   1      41.290  31.088  35.213  1.00  0.00    -0.354 N 
ATOM     52  N   UNL A   1      39.139  32.388  33.708  1.00  0.00    -0.248 NA
ATOM     53  C   UNL A   1      37.491  34.033  33.528  1.00  0.00     0.031 C 
ATOM     54  C   UNL A   1      41.853  31.930  37.191  1.00  0.00     0.029 A 
ATOM     55  C   UNL A   1      40.998  32.100  36.114  1.00  0.00     0.049 A 
ATOM     56  H   UNL A   1      40.832  30.948  34.353  1.00  0.00     0.167 HD
ATOM     57  C   UNL A   1      39.179  33.199  34.837  1.00  0.00     0.074 A 
ATOM     58  C   UNL A   1      38.161  34.214  34.658  1.00  0.00     0.031 C 
ATOM     59  C   UNL A   1      39.989  33.113  35.922  1.00  0.00     0.037 A 
BRANCH  46  60
ATOM     60  C   UNL A   1      43.948  28.363  35.734  1.00  0.00     0.058 A 
ATOM     61  C   UNL A   1      45.304  28.708  35.607  1.00  0.00     0.135 A 
ATOM     62  C   UNL A   1      43.626  27.283  36.570  1.00  0.00     0.135 A 
ATOM     63  F   UNL A   1      45.671  29.727  34.814  1.00  0.00    -0.206 F 
ATOM     64  C   UNL A   1      46.303  27.990  36.257  1.00  0.00     0.059 A 
ATOM     65  C   UNL A   1      44.607  26.567  37.253  1.00  0.00     0.059 A 
ATOM     66  F   UNL A   1      42.346  26.910  36.733  1.00  0.00    -0.206 F 
ATOM     67  C   UNL A   1      45.944  26.918  37.077  1.00  0.00     0.060 A 
BRANCH  67  68
ATOM     68  S   UNL A   1      47.253  25.997  37.913  1.00  0.00     0.124 S 
ATOM     69  O   UNL A   1      48.276  27.026  38.074  1.00  0.00    -0.237 OA
ATOM     70  O   UNL A   1      46.594  25.562  39.140  1.00  0.00    -0.237 OA
ATOM     71  O   UNL A   1      47.578  24.933  36.969  1.00  0.00    -0.744 OA
ENDBRANCH  67  68
ENDBRANCH  46  60
BRANCH  47  72
ATOM     72  C   UNL A   1      36.627  33.118  30.880  1.00  0.00     0.058 A 
ATOM     73  C   UNL A   1      36.892  34.043  29.858  1.00  0.00     0.135 A 
ATOM     74  C   UNL A   1      35.283  32.878  31.208  1.00  0.00     0.135 A 
ATOM     75  F   UNL A   1      38.160  34.315  29.513  1.00  0.00    -0.206 F 
ATOM     76  C   UNL A   1      35.869  34.717  29.198  1.00  0.00     0.059 A 
ATOM     77  C   UNL A   1      34.241  33.519  30.543  1.00  0.00     0.059 A 
ATOM     78  F   UNL A   1      34.973  31.993  32.167  1.00  0.00    -0.206 F 
ATOM     79  C   UNL A   1      34.544  34.446  29.547  1.00  0.00     0.060 A 
BRANCH  79  80
ATOM     80  S   UNL A   1      33.222  35.290  28.652  1.00  0.00     0.124 S 
ATOM     81  O   UNL A   1      33.980  36.141  27.742  1.00  0.00    -0.237 OA
ATOM     82  O   UNL A   1      32.508  34.174  28.039  1.00  0.00    -0.237 OA
ATOM     83  O   UNL A   1      32.493  35.985  29.709  1.00  0.00    -0.744 OA
ENDBRANCH  79  80
ENDBRANCH  47  72
BRANCH  59  84
ATOM     84  C   UNL A   1      39.842  34.168  36.986  1.00  0.00     0.058 A 
ATOM     85  C   UNL A   1      40.462  35.423  36.878  1.00  0.00     0.135 A 
ATOM     86  C   UNL A   1      39.029  33.935  38.108  1.00  0.00     0.135 A 
ATOM     87  F   UNL A   1      41.254  35.698  35.831  1.00  0.00    -0.206 F 
ATOM     88  C   UNL A   1      40.303  36.399  37.858  1.00  0.00     0.059 A 
ATOM     89  C   UNL A   1      38.832  34.906  39.085  1.00  0.00     0.059 A 
ATOM     90  F   UNL A   1      38.403  32.757  38.256  1.00  0.00    -0.206 F 
ATOM     91  C   UNL A   1      39.485  36.132  38.958  1.00  0.00     0.060 A 
BRANCH  91  92
ATOM     92  S   UNL A   1      39.265  37.416  40.207  1.00  0.00     0.124 S 
ATOM     93  O   UNL A   1      38.764  36.643  41.338  1.00  0.00    -0.237 OA
ATOM     94  O   UNL A   1      40.616  37.949  40.352  1.00  0.00    -0.237 OA
ATOM     95  O   UNL A   1      38.302  38.326  39.593  1.00  0.00    -0.744 OA
ENDBRANCH  91  92
ENDBRANCH  59  84
ENDBRANCH  33  34
ENDBRANCH  25  28
ENDBRANCH  23  24
ENDBRANCH   1  23
TORSDOF 17
ENDMDL
MODEL 3
REMARK VINA RESULT:     -11.1      0.579      8.362
REMARK SMILES CCC(CC)(NC(=O)c1c(C)noc1C)C(=O)NCCCNC(=O)c1ccc(-c2c3nc(c(-c4c(F)cc(S(=O)(=O)[O-])cc4F)c4ccc([nH]4)c(-c4c(F)cc(S(=O)(=O)[O-])cc4F)c4nc(c(-c5c(F)cc(S(=O)(=O)[O-])cc5F)c5ccc2[nH]5)C=C4)C=C3)cc1
REMARK SMILES IDX 20 1 19 2 18 3 16 4 17 5 3 7 2 8 1 9 4 10 5 11 6 12 7 13
REMARK SMILES IDX 8 15 9 16 10 17 14 18 11 19 12 20 13 21 15 22 21 23 22 24
REMARK SMILES IDX 23 25 24 27 25 28 26 29 90 30 27 31 89 32 28 33 29 34 30 35
REMARK SMILES IDX 83 36 31 37 88 38 82 39 84 40 32 41 87 42 81 43 80 44 33 46
REMARK SMILES IDX 67 47 46 48 66 49 47 50 50 51 65 52 85 53 48 54 49 55 64 57
REMARK SMILES IDX 86 58 51 59 34 60 35 61 44 62 36 63 37 64 43 65 45 66 38 67
REMARK SMILES IDX 39 68 40 69 41 70 42 71 68 72 69 73 78 74 70 75 71 76 77 77
REMARK SMILES IDX 79 78 72 79 73 80 74 81 75 82 76 83 52 84 53 85 62 86 54 87
REMARK SMILES IDX 55 88 61 89 63 90 56 91 57 92 58 93 59 94 60 95
REMARK H PARENT 18 6 6 14 22 26 84 45 50 56
REMARK Flexibility Score: inf
ROOT
ATOM      1  C   UNL A   1      37.660  24.086  26.120  1.00  0.00     0.042 C 
ENDROOT
BRANCH   1   2
ATOM      2  C   UNL A   1      36.636  22.969  25.874  1.00  0.00     0.117 C 
BRANCH   2   3
ATOM      3  N   UNL A   1      35.647  22.592  26.893  1.00  0.00    -0.354 N 
ATOM      4  C   UNL A   1      34.262  22.595  26.940  1.00  0.00     0.245 C 
ATOM      5  O   UNL A   1      33.723  21.921  27.822  1.00  0.00    -0.272 OA
ATOM      6  H   UNL A   1      36.058  22.265  27.725  1.00  0.00     0.163 HD
BRANCH   4   7
ATOM      7  C   UNL A   1      33.437  23.227  25.810  1.00  0.00     0.118 C 
BRANCH   7   8
ATOM      8  C   UNL A   1      33.481  22.586  24.397  1.00  0.00     0.035 C 
ATOM      9  C   UNL A   1      33.686  21.079  24.287  1.00  0.00     0.007 C 
ENDBRANCH   7   8
BRANCH   7  10
ATOM     10  C   UNL A   1      34.056  24.677  25.748  1.00  0.00     0.035 C 
ATOM     11  C   UNL A   1      34.230  25.357  24.401  1.00  0.00     0.007 C 
ENDBRANCH   7  10
BRANCH   7  12
ATOM     12  N   UNL A   1      32.036  23.178  26.262  1.00  0.00    -0.337 N 
ATOM     13  C   UNL A   1      31.022  24.113  26.385  1.00  0.00     0.257 C 
ATOM     14  H   UNL A   1      31.758  22.276  26.539  1.00  0.00     0.164 HD
ATOM     15  O   UNL A   1      30.176  23.730  27.206  1.00  0.00    -0.269 OA
BRANCH  13  16
ATOM     16  C   UNL A   1      30.817  25.422  25.724  1.00  0.00     0.105 A 
ATOM     17  C   UNL A   1      30.533  25.481  24.294  1.00  0.00     0.093 A 
ATOM     18  C   UNL A   1      31.000  26.784  26.001  1.00  0.00     0.146 A 
ATOM     19  C   UNL A   1      30.432  24.386  23.298  1.00  0.00     0.071 C 
ATOM     20  N   UNL A   1      30.392  26.725  23.845  1.00  0.00    -0.084 NA
ATOM     21  O   UNL A   1      30.661  27.524  24.905  1.00  0.00    -0.361 OA
ATOM     22  C   UNL A   1      31.532  27.716  27.019  1.00  0.00     0.092 C 
ENDBRANCH  13  16
ENDBRANCH   7  12
ENDBRANCH   4   7
ENDBRANCH   2   3
ENDBRANCH   1   2
BRANCH   1  23
ATOM     23  C   UNL A   1      38.953  23.829  26.880  1.00  0.00     0.118 C 
BRANCH  23  24
ATOM     24  N   UNL A   1      40.161  24.043  26.114  1.00  0.00    -0.352 N 
ATOM     25  C   UNL A   1      41.131  25.001  26.289  1.00  0.00     0.251 C 
ATOM     26  H   UNL A   1      40.306  23.421  25.366  1.00  0.00     0.163 HD
ATOM     27  O   UNL A   1      42.069  25.051  25.494  1.00  0.00    -0.269 OA
BRANCH  25  28
ATOM     28  C   UNL A   1      41.036  25.997  27.385  1.00  0.00     0.039 A 
ATOM     29  C   UNL A   1      40.116  25.759  28.410  1.00  0.00     0.014 A 
ATOM     30  C   UNL A   1      41.810  27.163  27.408  1.00  0.00     0.014 A 
ATOM     31  C   UNL A   1      40.002  26.657  29.474  1.00  0.00     0.010 A 
ATOM     32  C   UNL A   1      41.730  28.035  28.500  1.00  0.00     0.010 A 
ATOM     33  C   UNL A   1      40.823  27.795  29.544  1.00  0.00    -0.014 A 
BRANCH  33  34
ATOM     34  C   UNL A   1      40.721  28.725  30.705  1.00  0.00     0.031 A 
ATOM     35  C   UNL A   1      39.683  29.817  30.726  1.00  0.00     0.074 A 
ATOM     36  C   UNL A   1      41.567  28.590  31.747  1.00  0.00     0.049 A 
ATOM     37  N   UNL A   1      39.426  30.694  31.664  1.00  0.00    -0.248 NA
ATOM     38  C   UNL A   1      38.833  29.950  29.534  1.00  0.00     0.031 C 
ATOM     39  C   UNL A   1      42.643  27.600  31.837  1.00  0.00     0.029 A 
ATOM     40  N   UNL A   1      41.656  29.282  32.931  1.00  0.00    -0.354 N 
ATOM     41  C   UNL A   1      38.389  31.483  31.176  1.00  0.00     0.074 A 
ATOM     42  C   UNL A   1      38.101  31.012  29.838  1.00  0.00     0.031 C 
ATOM     43  C   UNL A   1      43.265  27.733  33.020  1.00  0.00     0.029 A 
ATOM     44  C   UNL A   1      42.656  28.832  33.763  1.00  0.00     0.049 A 
ATOM     45  H   UNL A   1      41.061  30.031  33.162  1.00  0.00     0.167 HD
ATOM     46  C   UNL A   1      37.722  32.490  31.792  1.00  0.00     0.037 A 
ATOM     47  C   UNL A   1      43.039  29.253  34.985  1.00  0.00     0.037 A 
ATOM     48  C   UNL A   1      38.005  32.951  33.128  1.00  0.00     0.049 A 
ATOM     49  C   UNL A   1      42.289  30.380  35.646  1.00  0.00     0.074 A 
ATOM     50  C   UNL A   1      37.355  33.935  33.854  1.00  0.00     0.029 A 
ATOM     51  N   UNL A   1      39.021  32.466  33.938  1.00  0.00    -0.354 N 
ATOM     52  N   UNL A   1      41.267  31.067  35.195  1.00  0.00    -0.248 NA
ATOM     53  C   UNL A   1      42.736  30.780  36.988  1.00  0.00     0.031 C 
ATOM     54  C   UNL A   1      38.008  34.078  35.082  1.00  0.00     0.029 A 
ATOM     55  C   UNL A   1      39.028  33.144  35.148  1.00  0.00     0.049 A 
ATOM     56  H   UNL A   1      39.645  31.746  33.691  1.00  0.00     0.167 HD
ATOM     57  C   UNL A   1      40.929  31.957  36.209  1.00  0.00     0.074 A 
ATOM     58  C   UNL A   1      41.849  31.715  37.301  1.00  0.00     0.031 C 
ATOM     59  C   UNL A   1      39.942  32.888  36.234  1.00  0.00     0.037 A 
BRANCH  46  60
ATOM     60  C   UNL A   1      36.616  33.166  31.025  1.00  0.00     0.058 A 
ATOM     61  C   UNL A   1      36.886  34.020  29.943  1.00  0.00     0.135 A 
ATOM     62  C   UNL A   1      35.271  32.930  31.350  1.00  0.00     0.135 A 
ATOM     63  F   UNL A   1      38.153  34.289  29.593  1.00  0.00    -0.206 F 
ATOM     64  C   UNL A   1      35.863  34.641  29.232  1.00  0.00     0.059 A 
ATOM     65  C   UNL A   1      34.230  33.518  30.634  1.00  0.00     0.059 A 
ATOM     66  F   UNL A   1      34.953  32.120  32.372  1.00  0.00    -0.206 F 
ATOM     67  C   UNL A   1      34.537  34.385  29.587  1.00  0.00     0.060 A 
BRANCH  67  68
ATOM     68  S   UNL A   1      33.223  35.199  28.653  1.00  0.00     0.124 S 
ATOM     69  O   UNL A   1      33.975  36.202  27.906  1.00  0.00    -0.237 OA
ATOM     70  O   UNL A   1      32.675  34.100  27.864  1.00  0.00    -0.237 OA
ATOM     71  O   UNL A   1      32.341  35.721  29.691  1.00  0.00    -0.744 OA
ENDBRANCH  67  68
ENDBRANCH  46  60
BRANCH  47  72
ATOM     72  C   UNL A   1      44.177  28.589  35.678  1.00  0.00     0.058 A 
ATOM     73  C   UNL A   1      43.965  27.521  36.564  1.00  0.00     0.135 A 
ATOM     74  C   UNL A   1      45.501  29.006  35.468  1.00  0.00     0.135 A 
ATOM     75  F   UNL A   1      42.717  27.091  36.807  1.00  0.00    -0.206 F 
ATOM     76  C   UNL A   1      45.019  26.902  37.229  1.00  0.00     0.059 A 
ATOM     77  C   UNL A   1      46.574  28.384  36.100  1.00  0.00     0.059 A 
ATOM     78  F   UNL A   1      45.762  30.013  34.621  1.00  0.00    -0.206 F 
ATOM     79  C   UNL A   1      46.322  27.339  36.987  1.00  0.00     0.060 A 
BRANCH  79  80
ATOM     80  S   UNL A   1      47.687  26.497  37.818  1.00  0.00     0.124 S 
ATOM     81  O   UNL A   1      47.010  25.344  38.400  1.00  0.00    -0.237 OA
ATOM     82  O   UNL A   1      48.592  26.214  36.709  1.00  0.00    -0.237 OA
ATOM     83  O   UNL A   1      48.167  27.495  38.769  1.00  0.00    -0.744 OA
ENDBRANCH  79  80
ENDBRANCH  47  72
BRANCH  59  84
ATOM     84  C   UNL A   1      39.772  33.689  37.497  1.00  0.00     0.058 A 
ATOM     85  C   UNL A   1      40.449  34.901  37.706  1.00  0.00     0.135 A 
ATOM     86  C   UNL A   1      38.880  33.258  38.495  1.00  0.00     0.135 A 
ATOM     87  F   UNL A   1      41.316  35.358  36.789  1.00  0.00    -0.206 F 
ATOM     88  C   UNL A   1      40.268  35.644  38.869  1.00  0.00     0.059 A 
ATOM     89  C   UNL A   1      38.662  33.999  39.652  1.00  0.00     0.059 A 
ATOM     90  F   UNL A   1      38.199  32.111  38.342  1.00  0.00    -0.206 F 
ATOM     91  C   UNL A   1      39.371  35.184  39.837  1.00  0.00     0.060 A 
BRANCH  91  92
ATOM     92  S   UNL A   1      39.125  36.171  41.328  1.00  0.00     0.124 S 
ATOM     93  O   UNL A   1      37.906  35.583  41.872  1.00  0.00    -0.237 OA
ATOM     94  O   UNL A   1      40.346  35.910  42.083  1.00  0.00    -0.237 OA
ATOM     95  O   UNL A   1      38.990  37.533  40.817  1.00  0.00    -0.744 OA
ENDBRANCH  91  92
ENDBRANCH  59  84
ENDBRANCH  33  34
ENDBRANCH  25  28
ENDBRANCH  23  24
ENDBRANCH   1  23
TORSDOF 17
ENDMDL
