MODEL 1
REMARK VINA RESULT:     -10.6      0.000      0.000
REMARK SMILES C[C@H](Nc1ccc(F)cc1Br)[C@@H](C)C(=O)NCCCNC(=O)c1ccc(-c2c3nc(c(-c4c(F)cc(S(=O)(=O)[O-])cc4F)c4ccc([nH]4)c(-c4c(F)cc(S(=O)(=O)[O-])cc4F)c4nc(c(-c5c(F)cc(S(=O)(=O)[O-])cc5F)c5ccc2[nH]5)C=C4)C=C3)cc1
REMARK SMILES IDX 18 1 17 2 16 3 14 4 15 5 12 7 13 8 2 9 1 10 3 11 4 13 5 14
REMARK SMILES IDX 10 15 6 16 9 17 11 18 7 19 8 20 19 21 20 22 21 23 22 25
REMARK SMILES IDX 23 26 24 27 88 28 25 29 87 30 26 31 27 32 28 33 81 34 29 35
REMARK SMILES IDX 86 36 80 37 82 38 30 39 85 40 79 41 78 42 31 44 65 45 44 46
REMARK SMILES IDX 64 47 45 48 48 49 63 50 83 51 46 52 47 53 62 55 84 56 49 57
REMARK SMILES IDX 32 58 33 59 42 60 34 61 35 62 41 63 43 64 36 65 37 66 38 67
REMARK SMILES IDX 39 68 40 69 66 70 67 71 76 72 68 73 69 74 75 75 77 76 70 77
REMARK SMILES IDX 71 78 72 79 73 80 74 81 50 82 51 83 60 84 52 85 53 86 59 87
REMARK SMILES IDX 61 88 54 89 55 90 56 91 57 92 58 93
REMARK H PARENT 16 6 3 12 20 24 82 43 48 54
REMARK Flexibility Score: inf
ROOT
ATOM      1  C   UNL A   1      32.776  27.862  25.918  1.00  0.00     0.042 C 
ENDROOT
BRANCH   1   2
ATOM      2  C   UNL A   1      31.388  27.316  26.237  1.00  0.00     0.117 C 
BRANCH   2   3
ATOM      3  N   UNL A   1      31.422  25.987  26.828  1.00  0.00    -0.356 N 
ATOM      4  C   UNL A   1      31.656  24.759  26.288  1.00  0.00     0.224 C 
ATOM      5  O   UNL A   1      31.659  23.795  27.060  1.00  0.00    -0.275 OA
ATOM      6  H   UNL A   1      31.244  25.972  27.797  1.00  0.00     0.163 HD
BRANCH   4   7
ATOM      7  C   UNL A   1      31.899  24.544  24.796  1.00  0.00     0.097 C 
ATOM      8  C   UNL A   1      30.861  23.586  24.211  1.00  0.00     0.020 C 
BRANCH   7   9
ATOM      9  C   UNL A   1      33.382  24.216  24.532  1.00  0.00     0.088 C 
ATOM     10  C   UNL A   1      33.622  24.043  23.020  1.00  0.00     0.031 C 
BRANCH   9  11
ATOM     11  N   UNL A   1      33.808  22.999  25.234  1.00  0.00    -0.381 N 
ATOM     12  H   UNL A   1      33.148  22.320  25.503  1.00  0.00     0.160 HD
BRANCH  11  13
ATOM     13  C   UNL A   1      35.170  22.820  25.516  1.00  0.00     0.049 A 
ATOM     14  C   UNL A   1      35.991  23.903  25.873  1.00  0.00     0.030 A 
ATOM     15  C   UNL A   1      35.783  21.562  25.337  1.00  0.00     0.044 A 
ATOM     16  C   UNL A   1      37.375  23.752  25.988  1.00  0.00     0.041 A 
ATOM     17  C   UNL A   1      37.165  21.406  25.450  1.00  0.00     0.057 A 
ATOM     18  Br  UNL A   1      34.751  20.033  24.869  1.00  0.00    -0.048 Br
ATOM     19  C   UNL A   1      37.948  22.509  25.759  1.00  0.00     0.124 A 
ATOM     20  F   UNL A   1      39.277  22.371  25.833  1.00  0.00    -0.207 F 
ENDBRANCH  11  13
ENDBRANCH   9  11
ENDBRANCH   7   9
ENDBRANCH   4   7
ENDBRANCH   2   3
ENDBRANCH   1   2
BRANCH   1  21
ATOM     21  C   UNL A   1      33.589  28.265  27.141  1.00  0.00     0.118 C 
BRANCH  21  22
ATOM     22  N   UNL A   1      33.509  29.692  27.418  1.00  0.00    -0.352 N 
ATOM     23  C   UNL A   1      34.412  30.530  28.022  1.00  0.00     0.251 C 
ATOM     24  H   UNL A   1      32.675  30.125  27.125  1.00  0.00     0.163 HD
ATOM     25  O   UNL A   1      34.051  31.663  28.349  1.00  0.00    -0.269 OA
BRANCH  23  26
ATOM     26  C   UNL A   1      35.795  30.086  28.301  1.00  0.00     0.039 A 
ATOM     27  C   UNL A   1      36.738  30.119  27.270  1.00  0.00     0.014 A 
ATOM     28  C   UNL A   1      36.162  29.609  29.562  1.00  0.00     0.014 A 
ATOM     29  C   UNL A   1      38.058  29.737  27.521  1.00  0.00     0.010 A 
ATOM     30  C   UNL A   1      37.496  29.316  29.835  1.00  0.00     0.010 A 
ATOM     31  C   UNL A   1      38.458  29.368  28.816  1.00  0.00    -0.014 A 
BRANCH  31  32
ATOM     32  C   UNL A   1      39.872  29.028  29.125  1.00  0.00     0.031 A 
ATOM     33  C   UNL A   1      40.779  30.057  29.747  1.00  0.00     0.074 A 
ATOM     34  C   UNL A   1      40.356  27.817  28.784  1.00  0.00     0.049 A 
ATOM     35  N   UNL A   1      42.056  29.976  30.016  1.00  0.00    -0.248 NA
ATOM     36  C   UNL A   1      40.178  31.358  30.083  1.00  0.00     0.031 C 
ATOM     37  C   UNL A   1      39.588  26.752  28.133  1.00  0.00     0.029 A 
ATOM     38  N   UNL A   1      41.610  27.280  28.926  1.00  0.00    -0.354 N 
ATOM     39  C   UNL A   1      42.414  31.214  30.538  1.00  0.00     0.074 A 
ATOM     40  C   UNL A   1      41.232  32.047  30.494  1.00  0.00     0.031 C 
ATOM     41  C   UNL A   1      40.381  25.684  27.954  1.00  0.00     0.029 A 
ATOM     42  C   UNL A   1      41.722  26.000  28.437  1.00  0.00     0.049 A 
ATOM     43  H   UNL A   1      42.360  27.766  29.339  1.00  0.00     0.167 HD
ATOM     44  C   UNL A   1      43.611  31.613  31.031  1.00  0.00     0.037 A 
ATOM     45  C   UNL A   1      42.786  25.174  28.376  1.00  0.00     0.037 A 
ATOM     46  C   UNL A   1      44.776  30.770  31.094  1.00  0.00     0.049 A 
ATOM     47  C   UNL A   1      44.107  25.642  28.926  1.00  0.00     0.074 A 
ATOM     48  C   UNL A   1      46.020  31.060  31.627  1.00  0.00     0.029 A 
ATOM     49  N   UNL A   1      44.844  29.473  30.608  1.00  0.00    -0.354 N 
ATOM     50  N   UNL A   1      44.410  26.796  29.472  1.00  0.00    -0.248 NA
ATOM     51  C   UNL A   1      45.228  24.694  28.857  1.00  0.00     0.031 C 
ATOM     52  C   UNL A   1      46.853  29.956  31.420  1.00  0.00     0.029 A 
ATOM     53  C   UNL A   1      46.113  28.956  30.809  1.00  0.00     0.049 A 
ATOM     54  H   UNL A   1      44.099  28.989  30.183  1.00  0.00     0.167 HD
ATOM     55  C   UNL A   1      45.748  26.701  29.839  1.00  0.00     0.074 A 
ATOM     56  C   UNL A   1      46.192  25.375  29.463  1.00  0.00     0.031 C 
ATOM     57  C   UNL A   1      46.538  27.630  30.436  1.00  0.00     0.037 A 
BRANCH  44  58
ATOM     58  C   UNL A   1      43.720  33.023  31.546  1.00  0.00     0.058 A 
ATOM     59  C   UNL A   1      43.510  33.334  32.900  1.00  0.00     0.135 A 
ATOM     60  C   UNL A   1      44.075  34.075  30.684  1.00  0.00     0.135 A 
ATOM     61  F   UNL A   1      43.154  32.372  33.766  1.00  0.00    -0.206 F 
ATOM     62  C   UNL A   1      43.616  34.637  33.373  1.00  0.00     0.059 A 
ATOM     63  C   UNL A   1      44.217  35.381  31.142  1.00  0.00     0.059 A 
ATOM     64  F   UNL A   1      44.289  33.837  29.380  1.00  0.00    -0.206 F 
ATOM     65  C   UNL A   1      43.970  35.655  32.487  1.00  0.00     0.060 A 
BRANCH  65  66
ATOM     66  S   UNL A   1      44.108  37.340  33.120  1.00  0.00     0.124 S 
ATOM     67  O   UNL A   1      45.381  37.279  33.832  1.00  0.00    -0.237 OA
ATOM     68  O   UNL A   1      44.106  38.134  31.894  1.00  0.00    -0.237 OA
ATOM     69  O   UNL A   1      42.925  37.488  33.961  1.00  0.00    -0.744 OA
ENDBRANCH  65  66
ENDBRANCH  44  58
BRANCH  45  70
ATOM     70  C   UNL A   1      42.639  23.815  27.791  1.00  0.00     0.058 A 
ATOM     71  C   UNL A   1      42.447  22.694  28.611  1.00  0.00     0.135 A 
ATOM     72  C   UNL A   1      42.674  23.609  26.402  1.00  0.00     0.135 A 
ATOM     73  F   UNL A   1      42.412  22.838  29.945  1.00  0.00    -0.206 F 
ATOM     74  C   UNL A   1      42.312  21.415  28.081  1.00  0.00     0.059 A 
ATOM     75  C   UNL A   1      42.514  22.344  25.846  1.00  0.00     0.059 A 
ATOM     76  F   UNL A   1      42.837  24.650  25.572  1.00  0.00    -0.206 F 
ATOM     77  C   UNL A   1      42.344  21.251  26.695  1.00  0.00     0.060 A 
BRANCH  77  78
ATOM     78  S   UNL A   1      42.119  19.593  26.015  1.00  0.00     0.124 S 
ATOM     79  O   UNL A   1      40.689  19.581  25.734  1.00  0.00    -0.237 OA
ATOM     80  O   UNL A   1      43.000  19.619  24.851  1.00  0.00    -0.237 OA
ATOM     81  O   UNL A   1      42.557  18.723  27.103  1.00  0.00    -0.744 OA
ENDBRANCH  77  78
ENDBRANCH  45  70
BRANCH  57  82
ATOM     82  C   UNL A   1      47.953  27.233  30.757  1.00  0.00     0.058 A 
ATOM     83  C   UNL A   1      48.305  26.689  32.001  1.00  0.00     0.135 A 
ATOM     84  C   UNL A   1      48.959  27.347  29.782  1.00  0.00     0.135 A 
ATOM     85  F   UNL A   1      47.383  26.563  32.969  1.00  0.00    -0.206 F 
ATOM     86  C   UNL A   1      49.610  26.294  32.278  1.00  0.00     0.059 A 
ATOM     87  C   UNL A   1      50.263  26.932  30.028  1.00  0.00     0.059 A 
ATOM     88  F   UNL A   1      48.673  27.852  28.571  1.00  0.00    -0.206 F 
ATOM     89  C   UNL A   1      50.582  26.417  31.283  1.00  0.00     0.060 A 
BRANCH  89  90
ATOM     90  S   UNL A   1      52.263  25.868  31.644  1.00  0.00     0.124 S 
ATOM     91  O   UNL A   1      52.922  26.076  30.359  1.00  0.00    -0.237 OA
ATOM     92  O   UNL A   1      52.664  26.773  32.716  1.00  0.00    -0.237 OA
ATOM     93  O   UNL A   1      52.088  24.474  32.041  1.00  0.00    -0.744 OA
ENDBRANCH  89  90
ENDBRANCH  57  82
ENDBRANCH  31  32
ENDBRANCH  23  26
ENDBRANCH  21  22
ENDBRANCH   1  21
TORSDOF 16
ENDMDL
MODEL 2
REMARK VINA RESULT:     -10.3      4.255      6.523
REMARK SMILES C[C@H](Nc1ccc(F)cc1Br)[C@@H](C)C(=O)NCCCNC(=O)c1ccc(-c2c3nc(c(-c4c(F)cc(S(=O)(=O)[O-])cc4F)c4ccc([nH]4)c(-c4c(F)cc(S(=O)(=O)[O-])cc4F)c4nc(c(-c5c(F)cc(S(=O)(=O)[O-])cc5F)c5ccc2[nH]5)C=C4)C=C3)cc1
REMARK SMILES IDX 18 1 17 2 16 3 14 4 15 5 12 7 13 8 2 9 1 10 3 11 4 13 5 14
REMARK SMILES IDX 10 15 6 16 9 17 11 18 7 19 8 20 19 21 20 22 21 23 22 25
REMARK SMILES IDX 23 26 24 27 88 28 25 29 87 30 26 31 27 32 28 33 81 34 29 35
REMARK SMILES IDX 86 36 80 37 82 38 30 39 85 40 79 41 78 42 31 44 65 45 44 46
REMARK SMILES IDX 64 47 45 48 48 49 63 50 83 51 46 52 47 53 62 55 84 56 49 57
REMARK SMILES IDX 32 58 33 59 42 60 34 61 35 62 41 63 43 64 36 65 37 66 38 67
REMARK SMILES IDX 39 68 40 69 66 70 67 71 76 72 68 73 69 74 75 75 77 76 70 77
REMARK SMILES IDX 71 78 72 79 73 80 74 81 50 82 51 83 60 84 52 85 53 86 59 87
REMARK SMILES IDX 61 88 54 89 55 90 56 91 57 92 58 93
REMARK H PARENT 16 6 3 12 20 24 82 43 48 54
REMARK Flexibility Score: inf
ROOT
ATOM      1  C   UNL A   1      34.509  34.422  28.076  1.00  0.00     0.042 C 
ENDROOT
BRANCH   1   2
ATOM      2  C   UNL A   1      33.317  34.491  29.027  1.00  0.00     0.117 C 
BRANCH   2   3
ATOM      3  N   UNL A   1      33.563  35.335  30.186  1.00  0.00    -0.356 N 
ATOM      4  C   UNL A   1      34.049  35.054  31.427  1.00  0.00     0.224 C 
ATOM      5  O   UNL A   1      34.187  36.002  32.205  1.00  0.00    -0.275 OA
ATOM      6  H   UNL A   1      33.337  36.283  30.049  1.00  0.00     0.163 HD
BRANCH   4   7
ATOM      7  C   UNL A   1      34.411  33.639  31.873  1.00  0.00     0.097 C 
ATOM      8  C   UNL A   1      33.934  33.383  33.302  1.00  0.00     0.020 C 
BRANCH   7   9
ATOM      9  C   UNL A   1      35.891  33.337  31.565  1.00  0.00     0.088 C 
ATOM     10  C   UNL A   1      36.377  32.152  32.419  1.00  0.00     0.031 C 
BRANCH   9  11
ATOM     11  N   UNL A   1      36.752  34.500  31.814  1.00  0.00    -0.381 N 
ATOM     12  H   UNL A   1      36.405  35.284  32.299  1.00  0.00     0.160 HD
BRANCH  11  13
ATOM     13  C   UNL A   1      38.075  34.479  31.350  1.00  0.00     0.049 A 
ATOM     14  C   UNL A   1      38.367  34.340  29.982  1.00  0.00     0.030 A 
ATOM     15  C   UNL A   1      39.156  34.479  32.256  1.00  0.00     0.044 A 
ATOM     16  C   UNL A   1      39.678  34.149  29.541  1.00  0.00     0.041 A 
ATOM     17  C   UNL A   1      40.468  34.287  31.820  1.00  0.00     0.057 A 
ATOM     18  Br  UNL A   1      38.861  34.677  34.126  1.00  0.00    -0.048 Br
ATOM     19  C   UNL A   1      40.712  34.109  30.466  1.00  0.00     0.124 A 
ATOM     20  F   UNL A   1      41.964  33.889  30.048  1.00  0.00    -0.207 F 
ENDBRANCH  11  13
ENDBRANCH   9  11
ENDBRANCH   7   9
ENDBRANCH   4   7
ENDBRANCH   2   3
ENDBRANCH   1   2
BRANCH   1  21
ATOM     21  C   UNL A   1      35.291  33.118  28.143  1.00  0.00     0.118 C 
BRANCH  21  22
ATOM     22  N   UNL A   1      34.511  31.976  27.687  1.00  0.00    -0.352 N 
ATOM     23  C   UNL A   1      34.853  30.651  27.591  1.00  0.00     0.251 C 
ATOM     24  H   UNL A   1      33.593  32.188  27.403  1.00  0.00     0.163 HD
ATOM     25  O   UNL A   1      34.108  29.885  26.975  1.00  0.00    -0.269 OA
BRANCH  23  26
ATOM     26  C   UNL A   1      36.102  30.140  28.195  1.00  0.00     0.039 A 
ATOM     27  C   UNL A   1      37.283  30.185  27.449  1.00  0.00     0.014 A 
ATOM     28  C   UNL A   1      36.114  29.589  29.478  1.00  0.00     0.014 A 
ATOM     29  C   UNL A   1      38.482  29.740  28.013  1.00  0.00     0.010 A 
ATOM     30  C   UNL A   1      37.321  29.231  30.073  1.00  0.00     0.010 A 
ATOM     31  C   UNL A   1      38.518  29.294  29.344  1.00  0.00    -0.014 A 
BRANCH  31  32
ATOM     32  C   UNL A   1      39.792  28.885  29.991  1.00  0.00     0.031 A 
ATOM     33  C   UNL A   1      40.275  29.593  31.229  1.00  0.00     0.074 A 
ATOM     34  C   UNL A   1      40.547  27.921  29.426  1.00  0.00     0.049 A 
ATOM     35  N   UNL A   1      41.393  29.434  31.889  1.00  0.00    -0.248 NA
ATOM     36  C   UNL A   1      39.398  30.639  31.782  1.00  0.00     0.031 C 
ATOM     37  C   UNL A   1      40.210  27.193  28.200  1.00  0.00     0.029 A 
ATOM     38  N   UNL A   1      41.757  27.395  29.800  1.00  0.00    -0.354 N 
ATOM     39  C   UNL A   1      41.361  30.365  32.921  1.00  0.00     0.074 A 
ATOM     40  C   UNL A   1      40.139  31.124  32.767  1.00  0.00     0.031 C 
ATOM     41  C   UNL A   1      41.178  26.301  27.937  1.00  0.00     0.029 A 
ATOM     42  C   UNL A   1      42.223  26.421  28.949  1.00  0.00     0.049 A 
ATOM     43  H   UNL A   1      42.246  27.687  30.603  1.00  0.00     0.167 HD
ATOM     44  C   UNL A   1      42.256  30.554  33.921  1.00  0.00     0.037 A 
ATOM     45  C   UNL A   1      43.367  25.708  28.974  1.00  0.00     0.037 A 
ATOM     46  C   UNL A   1      43.457  29.777  34.082  1.00  0.00     0.049 A 
ATOM     47  C   UNL A   1      44.348  25.940  30.092  1.00  0.00     0.074 A 
ATOM     48  C   UNL A   1      44.400  29.852  35.093  1.00  0.00     0.029 A 
ATOM     49  N   UNL A   1      43.884  28.786  33.211  1.00  0.00    -0.354 N 
ATOM     50  N   UNL A   1      44.272  26.783  31.094  1.00  0.00    -0.248 NA
ATOM     51  C   UNL A   1      45.568  25.120  30.086  1.00  0.00     0.031 C 
ATOM     52  C   UNL A   1      45.420  28.939  34.807  1.00  0.00     0.029 A 
ATOM     53  C   UNL A   1      45.085  28.255  33.648  1.00  0.00     0.049 A 
ATOM     54  H   UNL A   1      43.403  28.500  32.401  1.00  0.00     0.167 HD
ATOM     55  C   UNL A   1      45.417  26.572  31.855  1.00  0.00     0.074 A 
ATOM     56  C   UNL A   1      46.164  25.517  31.202  1.00  0.00     0.031 C 
ATOM     57  C   UNL A   1      45.814  27.198  32.992  1.00  0.00     0.037 A 
BRANCH  44  58
ATOM     58  C   UNL A   1      41.967  31.641  34.921  1.00  0.00     0.058 A 
ATOM     59  C   UNL A   1      42.503  32.932  34.785  1.00  0.00     0.135 A 
ATOM     60  C   UNL A   1      41.114  31.401  36.012  1.00  0.00     0.135 A 
ATOM     61  F   UNL A   1      43.336  33.215  33.771  1.00  0.00    -0.206 F 
ATOM     62  C   UNL A   1      42.230  33.935  35.710  1.00  0.00     0.059 A 
ATOM     63  C   UNL A   1      40.803  32.398  36.932  1.00  0.00     0.059 A 
ATOM     64  F   UNL A   1      40.573  30.186  36.192  1.00  0.00    -0.206 F 
ATOM     65  C   UNL A   1      41.379  33.659  36.780  1.00  0.00     0.060 A 
BRANCH  65  66
ATOM     66  S   UNL A   1      41.032  34.974  37.967  1.00  0.00     0.124 S 
ATOM     67  O   UNL A   1      40.197  34.274  38.940  1.00  0.00    -0.237 OA
ATOM     68  O   UNL A   1      42.368  35.339  38.427  1.00  0.00    -0.237 OA
ATOM     69  O   UNL A   1      40.349  35.985  37.168  1.00  0.00    -0.744 OA
ENDBRANCH  65  66
ENDBRANCH  44  58
BRANCH  45  70
ATOM     70  C   UNL A   1      43.636  24.696  27.918  1.00  0.00     0.058 A 
ATOM     71  C   UNL A   1      44.384  25.024  26.778  1.00  0.00     0.135 A 
ATOM     72  C   UNL A   1      43.165  23.377  28.033  1.00  0.00     0.135 A 
ATOM     73  F   UNL A   1      44.850  26.272  26.619  1.00  0.00    -0.206 F 
ATOM     74  C   UNL A   1      44.641  24.090  25.779  1.00  0.00     0.059 A 
ATOM     75  C   UNL A   1      43.433  22.418  27.061  1.00  0.00     0.059 A 
ATOM     76  F   UNL A   1      42.461  23.007  29.113  1.00  0.00    -0.206 F 
ATOM     77  C   UNL A   1      44.163  22.787  25.932  1.00  0.00     0.060 A 
BRANCH  77  78
ATOM     78  S   UNL A   1      44.544  21.571  24.654  1.00  0.00     0.124 S 
ATOM     79  O   UNL A   1      43.571  20.525  24.942  1.00  0.00    -0.237 OA
ATOM     80  O   UNL A   1      44.319  22.335  23.429  1.00  0.00    -0.237 OA
ATOM     81  O   UNL A   1      45.938  21.229  24.921  1.00  0.00    -0.744 OA
ENDBRANCH  77  78
ENDBRANCH  45  70
BRANCH  57  82
ATOM     82  C   UNL A   1      47.094  26.731  33.628  1.00  0.00     0.058 A 
ATOM     83  C   UNL A   1      47.120  25.674  34.551  1.00  0.00     0.135 A 
ATOM     84  C   UNL A   1      48.320  27.315  33.266  1.00  0.00     0.135 A 
ATOM     85  F   UNL A   1      45.976  25.084  34.936  1.00  0.00    -0.206 F 
ATOM     86  C   UNL A   1      48.313  25.227  35.110  1.00  0.00     0.059 A 
ATOM     87  C   UNL A   1      49.527  26.865  33.790  1.00  0.00     0.059 A 
ATOM     88  F   UNL A   1      48.352  28.323  32.379  1.00  0.00    -0.206 F 
ATOM     89  C   UNL A   1      49.512  25.827  34.721  1.00  0.00     0.060 A 
BRANCH  89  90
ATOM     90  S   UNL A   1      51.055  25.214  35.427  1.00  0.00     0.124 S 
ATOM     91  O   UNL A   1      51.246  23.973  34.684  1.00  0.00    -0.237 OA
ATOM     92  O   UNL A   1      51.991  26.290  35.115  1.00  0.00    -0.237 OA
ATOM     93  O   UNL A   1      50.742  25.055  36.844  1.00  0.00    -0.744 OA
ENDBRANCH  89  90
ENDBRANCH  57  82
ENDBRANCH  31  32
ENDBRANCH  23  26
ENDBRANCH  21  22
ENDBRANCH   1  21
TORSDOF 16
ENDMDL
MODEL 3
REMARK VINA RESULT:     -10.3      4.866     10.441
REMARK SMILES C[C@H](Nc1ccc(F)cc1Br)[C@@H](C)C(=O)NCCCNC(=O)c1ccc(-c2c3nc(c(-c4c(F)cc(S(=O)(=O)[O-])cc4F)c4ccc([nH]4)c(-c4c(F)cc(S(=O)(=O)[O-])cc4F)c4nc(c(-c5c(F)cc(S(=O)(=O)[O-])cc5F)c5ccc2[nH]5)C=C4)C=C3)cc1
REMARK SMILES IDX 18 1 17 2 16 3 14 4 15 5 12 7 13 8 2 9 1 10 3 11 4 13 5 14
REMARK SMILES IDX 10 15 6 16 9 17 11 18 7 19 8 20 19 21 20 22 21 23 22 25
REMARK SMILES IDX 23 26 24 27 88 28 25 29 87 30 26 31 27 32 28 33 81 34 29 35
REMARK SMILES IDX 86 36 80 37 82 38 30 39 85 40 79 41 78 42 31 44 65 45 44 46
REMARK SMILES IDX 64 47 45 48 48 49 63 50 83 51 46 52 47 53 62 55 84 56 49 57
REMARK SMILES IDX 32 58 33 59 42 60 34 61 35 62 41 63 43 64 36 65 37 66 38 67
REMARK SMILES IDX 39 68 40 69 66 70 67 71 76 72 68 73 69 74 75 75 77 76 70 77
REMARK SMILES IDX 71 78 72 79 73 80 74 81 50 82 51 83 60 84 52 85 53 86 59 87
REMARK SMILES IDX 61 88 54 89 55 90 56 91 57 92 58 93
REMARK H PARENT 16 6 3 12 20 24 82 43 48 54
REMARK Flexibility Score: inf
ROOT
ATOM      1  C   UNL A   1      40.302  21.780  26.601  1.00  0.00     0.042 C 
ENDROOT
BRANCH   1   2
ATOM      2  C   UNL A   1      38.925  21.402  26.064  1.00  0.00     0.117 C 
BRANCH   2   3
ATOM      3  N   UNL A   1      38.267  22.495  25.365  1.00  0.00    -0.356 N 
ATOM      4  C   UNL A   1      36.955  22.842  25.253  1.00  0.00     0.224 C 
ATOM      5  O   UNL A   1      36.696  23.866  24.614  1.00  0.00    -0.275 OA
ATOM      6  H   UNL A   1      38.884  23.095  24.886  1.00  0.00     0.163 HD
BRANCH   4   7
ATOM      7  C   UNL A   1      35.826  22.020  25.870  1.00  0.00     0.097 C 
ATOM      8  C   UNL A   1      35.303  20.984  24.875  1.00  0.00     0.020 C 
BRANCH   7   9
ATOM      9  C   UNL A   1      34.784  22.944  26.530  1.00  0.00     0.088 C 
ATOM     10  C   UNL A   1      34.070  22.200  27.674  1.00  0.00     0.031 C 
BRANCH   9  11
ATOM     11  N   UNL A   1      33.787  23.424  25.566  1.00  0.00    -0.381 N 
ATOM     12  H   UNL A   1      33.487  22.847  24.827  1.00  0.00     0.160 HD
BRANCH  11  13
ATOM     13  C   UNL A   1      33.269  24.720  25.712  1.00  0.00     0.049 A 
ATOM     14  C   UNL A   1      34.094  25.852  25.610  1.00  0.00     0.030 A 
ATOM     15  C   UNL A   1      31.922  24.918  26.082  1.00  0.00     0.044 A 
ATOM     16  C   UNL A   1      33.613  27.125  25.922  1.00  0.00     0.041 A 
ATOM     17  C   UNL A   1      31.437  26.189  26.395  1.00  0.00     0.057 A 
ATOM     18  Br  UNL A   1      30.724  23.447  26.231  1.00  0.00    -0.048 Br
ATOM     19  C   UNL A   1      32.294  27.278  26.327  1.00  0.00     0.124 A 
ATOM     20  F   UNL A   1      31.842  28.492  26.662  1.00  0.00    -0.207 F 
ENDBRANCH  11  13
ENDBRANCH   9  11
ENDBRANCH   7   9
ENDBRANCH   4   7
ENDBRANCH   2   3
ENDBRANCH   1   2
BRANCH   1  21
ATOM     21  C   UNL A   1      40.460  23.254  26.945  1.00  0.00     0.118 C 
BRANCH  21  22
ATOM     22  N   UNL A   1      41.280  23.969  25.977  1.00  0.00    -0.352 N 
ATOM     23  C   UNL A   1      41.716  25.269  25.973  1.00  0.00     0.251 C 
ATOM     24  H   UNL A   1      41.567  23.433  25.202  1.00  0.00     0.163 HD
ATOM     25  O   UNL A   1      42.221  25.727  24.946  1.00  0.00    -0.269 OA
BRANCH  23  26
ATOM     26  C   UNL A   1      41.570  26.125  27.170  1.00  0.00     0.039 A 
ATOM     27  C   UNL A   1      42.475  27.173  27.368  1.00  0.00     0.014 A 
ATOM     28  C   UNL A   1      40.569  25.886  28.115  1.00  0.00     0.014 A 
ATOM     29  C   UNL A   1      42.334  28.015  28.474  1.00  0.00     0.010 A 
ATOM     30  C   UNL A   1      40.374  26.779  29.165  1.00  0.00     0.010 A 
ATOM     31  C   UNL A   1      41.259  27.849  29.362  1.00  0.00    -0.014 A 
BRANCH  31  32
ATOM     32  C   UNL A   1      41.046  28.776  30.504  1.00  0.00     0.031 A 
ATOM     33  C   UNL A   1      41.882  28.647  31.750  1.00  0.00     0.074 A 
ATOM     34  C   UNL A   1      40.056  29.689  30.446  1.00  0.00     0.049 A 
ATOM     35  N   UNL A   1      41.793  29.307  32.876  1.00  0.00    -0.248 NA
ATOM     36  C   UNL A   1      42.938  27.621  31.740  1.00  0.00     0.031 C 
ATOM     37  C   UNL A   1      39.147  29.880  29.312  1.00  0.00     0.029 A 
ATOM     38  N   UNL A   1      39.639  30.621  31.362  1.00  0.00    -0.354 N 
ATOM     39  C   UNL A   1      42.767  28.769  33.710  1.00  0.00     0.074 A 
ATOM     40  C   UNL A   1      43.398  27.690  32.981  1.00  0.00     0.031 C 
ATOM     41  C   UNL A   1      38.298  30.881  29.592  1.00  0.00     0.029 A 
ATOM     42  C   UNL A   1      38.571  31.375  30.938  1.00  0.00     0.049 A 
ATOM     43  H   UNL A   1      40.066  30.738  32.242  1.00  0.00     0.167 HD
ATOM     44  C   UNL A   1      43.121  29.154  34.960  1.00  0.00     0.037 A 
ATOM     45  C   UNL A   1      37.882  32.349  31.564  1.00  0.00     0.037 A 
ATOM     46  C   UNL A   1      42.506  30.246  35.669  1.00  0.00     0.049 A 
ATOM     47  C   UNL A   1      38.291  32.757  32.954  1.00  0.00     0.074 A 
ATOM     48  C   UNL A   1      42.830  30.753  36.916  1.00  0.00     0.029 A 
ATOM     49  N   UNL A   1      41.441  30.999  35.197  1.00  0.00    -0.354 N 
ATOM     50  N   UNL A   1      39.255  32.277  33.703  1.00  0.00    -0.248 NA
ATOM     51  C   UNL A   1      37.522  33.841  33.582  1.00  0.00     0.031 C 
ATOM     52  C   UNL A   1      41.930  31.780  37.218  1.00  0.00     0.029 A 
ATOM     53  C   UNL A   1      41.081  31.952  36.135  1.00  0.00     0.049 A 
ATOM     54  H   UNL A   1      41.005  30.875  34.323  1.00  0.00     0.167 HD
ATOM     55  C   UNL A   1      39.229  33.022  34.878  1.00  0.00     0.074 A 
ATOM     56  C   UNL A   1      38.161  33.990  34.735  1.00  0.00     0.031 C 
ATOM     57  C   UNL A   1      40.019  32.914  35.975  1.00  0.00     0.037 A 
BRANCH  44  58
ATOM     58  C   UNL A   1      44.228  28.394  35.639  1.00  0.00     0.058 A 
ATOM     59  C   UNL A   1      45.578  28.746  35.471  1.00  0.00     0.135 A 
ATOM     60  C   UNL A   1      43.937  27.321  36.498  1.00  0.00     0.135 A 
ATOM     61  F   UNL A   1      45.916  29.752  34.650  1.00  0.00    -0.206 F 
ATOM     62  C   UNL A   1      46.598  28.043  36.103  1.00  0.00     0.059 A 
ATOM     63  C   UNL A   1      44.940  26.624  37.166  1.00  0.00     0.059 A 
ATOM     64  F   UNL A   1      42.665  26.941  36.697  1.00  0.00    -0.206 F 
ATOM     65  C   UNL A   1      46.269  26.983  36.949  1.00  0.00     0.060 A 
BRANCH  65  66
ATOM     66  S   UNL A   1      47.606  26.086  37.766  1.00  0.00     0.124 S 
ATOM     67  O   UNL A   1      46.906  24.899  38.249  1.00  0.00    -0.237 OA
ATOM     68  O   UNL A   1      48.547  25.864  36.671  1.00  0.00    -0.237 OA
ATOM     69  O   UNL A   1      48.058  27.011  38.799  1.00  0.00    -0.744 OA
ENDBRANCH  65  66
ENDBRANCH  44  58
BRANCH  45  70
ATOM     70  C   UNL A   1      36.749  33.021  30.873  1.00  0.00     0.058 A 
ATOM     71  C   UNL A   1      35.420  32.721  31.208  1.00  0.00     0.135 A 
ATOM     72  C   UNL A   1      36.968  33.984  29.875  1.00  0.00     0.135 A 
ATOM     73  F   UNL A   1      35.158  31.802  32.151  1.00  0.00    -0.206 F 
ATOM     74  C   UNL A   1      34.348  33.337  30.569  1.00  0.00     0.059 A 
ATOM     75  C   UNL A   1      35.914  34.634  29.241  1.00  0.00     0.059 A 
ATOM     76  F   UNL A   1      38.220  34.321  29.531  1.00  0.00    -0.206 F 
ATOM     77  C   UNL A   1      34.607  34.295  29.588  1.00  0.00     0.060 A 
BRANCH  77  78
ATOM     78  S   UNL A   1      33.209  35.123  28.799  1.00  0.00     0.124 S 
ATOM     79  O   UNL A   1      32.682  34.064  27.948  1.00  0.00    -0.237 OA
ATOM     80  O   UNL A   1      32.385  35.491  29.948  1.00  0.00    -0.237 OA
ATOM     81  O   UNL A   1      33.834  36.244  28.102  1.00  0.00    -0.744 OA
ENDBRANCH  77  78
ENDBRANCH  45  70
BRANCH  57  82
ATOM     82  C   UNL A   1      39.788  33.892  37.094  1.00  0.00     0.058 A 
ATOM     83  C   UNL A   1      39.001  33.569  38.210  1.00  0.00     0.135 A 
ATOM     84  C   UNL A   1      40.411  35.152  37.075  1.00  0.00     0.135 A 
ATOM     85  F   UNL A   1      38.379  32.380  38.276  1.00  0.00    -0.206 F 
ATOM     86  C   UNL A   1      38.818  34.467  39.255  1.00  0.00     0.059 A 
ATOM     87  C   UNL A   1      40.266  36.054  38.123  1.00  0.00     0.059 A 
ATOM     88  F   UNL A   1      41.183  35.508  36.036  1.00  0.00    -0.206 F 
ATOM     89  C   UNL A   1      39.458  35.707  39.205  1.00  0.00     0.060 A 
BRANCH  89  90
ATOM     90  S   UNL A   1      39.242  36.850  40.585  1.00  0.00     0.124 S 
ATOM     91  O   UNL A   1      38.563  37.968  39.938  1.00  0.00    -0.237 OA
ATOM     92  O   UNL A   1      38.432  36.068  41.513  1.00  0.00    -0.237 OA
ATOM     93  O   UNL A   1      40.608  37.115  41.025  1.00  0.00    -0.744 OA
ENDBRANCH  89  90
ENDBRANCH  57  82
ENDBRANCH  31  32
ENDBRANCH  23  26
ENDBRANCH  21  22
ENDBRANCH   1  21
TORSDOF 16
ENDMDL
