MODEL 1
REMARK VINA RESULT:     -12.4      0.000      0.000
REMARK SMILES O=C(NCCCNC(=O)c1ccccc1C(=O)N1CCS[C@H]1c1ccccc1)c1ccc(-c2c3nc(c(-c4c(F)cc(S(=O)(=O)[O-])cc4F)c4ccc([nH]4)c(-c4c(F)cc(S(=O)(=O)[O-])cc4F)c4nc(c(-c5c(F)cc(S(=O)(=O)[O-])cc5F)c5ccc2[nH]5)C=C4)C=C3)cc1
REMARK SMILES IDX 5 1 4 2 3 3 1 4 2 5 29 7 30 8 94 9 31 10 93 11 32 12 33 13
REMARK SMILES IDX 34 14 87 15 35 16 92 17 86 18 88 19 36 20 91 21 85 22 84 23
REMARK SMILES IDX 37 25 71 26 50 27 70 28 51 29 54 30 69 31 89 32 52 33 53 34
REMARK SMILES IDX 68 36 90 37 55 38 38 39 39 40 48 41 40 42 41 43 47 44 49 45
REMARK SMILES IDX 42 46 43 47 44 48 45 49 46 50 72 51 73 52 82 53 74 54 75 55
REMARK SMILES IDX 81 56 83 57 76 58 77 59 78 60 79 61 80 62 56 63 57 64 66 65
REMARK SMILES IDX 58 66 59 67 65 68 67 69 60 70 61 71 62 72 63 73 64 74 6 75
REMARK SMILES IDX 7 76 8 77 9 79 10 80 11 81 15 82 12 83 14 84 13 85 16 86
REMARK SMILES IDX 17 87 18 88 19 89 22 90 20 91 21 92 23 93 24 94 28 95 25 96
REMARK SMILES IDX 27 97 26 98
REMARK H PARENT 3 6 88 24 54 35 7 78
REMARK Flexibility Score: inf
ROOT
ATOM      1  C   UNL A   1      37.319  23.346  25.530  1.00  0.00     0.042 C 
ENDROOT
BRANCH   1   2
ATOM      2  C   UNL A   1      38.244  24.118  26.456  1.00  0.00     0.118 C 
BRANCH   2   3
ATOM      3  N   UNL A   1      39.664  23.991  26.148  1.00  0.00    -0.352 N 
ATOM      4  O   UNL A   1      41.867  24.503  26.317  1.00  0.00    -0.269 OA
ATOM      5  C   UNL A   1      40.710  24.731  26.652  1.00  0.00     0.251 C 
ATOM      6  H   UNL A   1      39.904  23.290  25.499  1.00  0.00     0.163 HD
BRANCH   5   7
ATOM      7  C   UNL A   1      40.382  25.855  27.549  1.00  0.00     0.039 A 
ATOM      8  C   UNL A   1      41.137  27.026  27.488  1.00  0.00     0.014 A 
ATOM      9  C   UNL A   1      39.458  25.646  28.575  1.00  0.00     0.014 A 
ATOM     10  C   UNL A   1      41.115  27.896  28.568  1.00  0.00     0.010 A 
ATOM     11  C   UNL A   1      39.359  26.581  29.605  1.00  0.00     0.010 A 
ATOM     12  C   UNL A   1      40.225  27.685  29.638  1.00  0.00    -0.014 A 
BRANCH  12  13
ATOM     13  C   UNL A   1      40.194  28.664  30.753  1.00  0.00     0.031 A 
ATOM     14  C   UNL A   1      41.159  28.576  31.905  1.00  0.00     0.074 A 
ATOM     15  C   UNL A   1      39.293  29.663  30.688  1.00  0.00     0.049 A 
ATOM     16  N   UNL A   1      41.240  29.339  32.965  1.00  0.00    -0.248 NA
ATOM     17  C   UNL A   1      42.154  27.491  31.876  1.00  0.00     0.031 C 
ATOM     18  C   UNL A   1      38.305  29.834  29.616  1.00  0.00     0.029 A 
ATOM     19  N   UNL A   1      39.070  30.730  31.515  1.00  0.00    -0.354 N 
ATOM     20  C   UNL A   1      42.265  28.811  33.744  1.00  0.00     0.074 A 
ATOM     21  C   UNL A   1      42.776  27.656  33.037  1.00  0.00     0.031 C 
ATOM     22  C   UNL A   1      37.621  30.967  29.824  1.00  0.00     0.029 A 
ATOM     23  C   UNL A   1      38.064  31.558  31.079  1.00  0.00     0.049 A 
ATOM     24  H   UNL A   1      39.580  30.889  32.342  1.00  0.00     0.167 HD
ATOM     25  C   UNL A   1      42.729  29.254  34.938  1.00  0.00     0.037 A 
ATOM     26  C   UNL A   1      37.530  32.657  31.641  1.00  0.00     0.037 A 
ATOM     27  C   UNL A   1      42.229  30.427  35.611  1.00  0.00     0.049 A 
ATOM     28  C   UNL A   1      38.073  33.128  32.955  1.00  0.00     0.074 A 
ATOM     29  C   UNL A   1      42.653  30.981  36.808  1.00  0.00     0.029 A 
ATOM     30  N   UNL A   1      41.200  31.232  35.143  1.00  0.00    -0.354 N 
ATOM     31  N   UNL A   1      39.042  32.615  33.673  1.00  0.00    -0.248 NA
ATOM     32  C   UNL A   1      37.445  34.318  33.542  1.00  0.00     0.031 C 
ATOM     33  C   UNL A   1      41.859  32.100  37.079  1.00  0.00     0.029 A 
ATOM     34  C   UNL A   1      40.966  32.267  36.034  1.00  0.00     0.049 A 
ATOM     35  H   UNL A   1      40.709  31.088  34.303  1.00  0.00     0.167 HD
ATOM     36  C   UNL A   1      39.143  33.419  34.800  1.00  0.00     0.074 A 
ATOM     37  C   UNL A   1      38.152  34.469  34.653  1.00  0.00     0.031 C 
ATOM     38  C   UNL A   1      39.971  33.296  35.865  1.00  0.00     0.037 A 
BRANCH  25  39
ATOM     39  C   UNL A   1      43.820  28.467  35.615  1.00  0.00     0.058 A 
ATOM     40  C   UNL A   1      43.536  27.431  36.517  1.00  0.00     0.135 A 
ATOM     41  C   UNL A   1      45.167  28.702  35.293  1.00  0.00     0.135 A 
ATOM     42  F   UNL A   1      42.268  27.170  36.871  1.00  0.00    -0.206 F 
ATOM     43  C   UNL A   1      44.549  26.660  37.082  1.00  0.00     0.059 A 
ATOM     44  C   UNL A   1      46.195  27.932  35.831  1.00  0.00     0.059 A 
ATOM     45  F   UNL A   1      45.495  29.682  34.436  1.00  0.00    -0.206 F 
ATOM     46  C   UNL A   1      45.876  26.916  36.731  1.00  0.00     0.060 A 
BRANCH  46  47
ATOM     47  S   UNL A   1      47.178  25.890  37.452  1.00  0.00     0.124 S 
ATOM     48  O   UNL A   1      46.564  24.567  37.402  1.00  0.00    -0.237 OA
ATOM     49  O   UNL A   1      48.291  26.106  36.533  1.00  0.00    -0.237 OA
ATOM     50  O   UNL A   1      47.354  26.451  38.787  1.00  0.00    -0.744 OA
ENDBRANCH  46  47
ENDBRANCH  25  39
BRANCH  26  51
ATOM     51  C   UNL A   1      36.408  33.354  30.964  1.00  0.00     0.058 A 
ATOM     52  C   UNL A   1      35.113  33.331  31.499  1.00  0.00     0.135 A 
ATOM     53  C   UNL A   1      36.622  34.097  29.792  1.00  0.00     0.135 A 
ATOM     54  F   UNL A   1      34.862  32.636  32.618  1.00  0.00    -0.206 F 
ATOM     55  C   UNL A   1      34.064  34.011  30.889  1.00  0.00     0.059 A 
ATOM     56  C   UNL A   1      35.597  34.807  29.180  1.00  0.00     0.059 A 
ATOM     57  F   UNL A   1      37.851  34.169  29.256  1.00  0.00    -0.206 F 
ATOM     58  C   UNL A   1      34.317  34.748  29.731  1.00  0.00     0.060 A 
BRANCH  58  59
ATOM     59  S   UNL A   1      32.966  35.675  28.973  1.00  0.00     0.124 S 
ATOM     60  O   UNL A   1      32.379  34.668  28.097  1.00  0.00    -0.237 OA
ATOM     61  O   UNL A   1      32.165  36.061  30.130  1.00  0.00    -0.237 OA
ATOM     62  O   UNL A   1      33.654  36.775  28.303  1.00  0.00    -0.744 OA
ENDBRANCH  58  59
ENDBRANCH  26  51
BRANCH  38  63
ATOM     63  C   UNL A   1      39.846  34.335  36.940  1.00  0.00     0.058 A 
ATOM     64  C   UNL A   1      39.046  34.119  38.072  1.00  0.00     0.135 A 
ATOM     65  C   UNL A   1      40.546  35.547  36.846  1.00  0.00     0.135 A 
ATOM     66  F   UNL A   1      38.348  32.980  38.200  1.00  0.00    -0.206 F 
ATOM     67  C   UNL A   1      38.923  35.084  39.065  1.00  0.00     0.059 A 
ATOM     68  C   UNL A   1      40.455  36.516  37.837  1.00  0.00     0.059 A 
ATOM     69  F   UNL A   1      41.328  35.794  35.783  1.00  0.00    -0.206 F 
ATOM     70  C   UNL A   1      39.631  36.281  38.937  1.00  0.00     0.060 A 
BRANCH  70  71
ATOM     71  S   UNL A   1      39.481  37.521  40.239  1.00  0.00     0.124 S 
ATOM     72  O   UNL A   1      38.583  38.490  39.620  1.00  0.00    -0.237 OA
ATOM     73  O   UNL A   1      38.918  36.751  41.344  1.00  0.00    -0.237 OA
ATOM     74  O   UNL A   1      40.855  37.972  40.435  1.00  0.00    -0.744 OA
ENDBRANCH  70  71
ENDBRANCH  38  63
ENDBRANCH  12  13
ENDBRANCH   5   7
ENDBRANCH   2   3
ENDBRANCH   1   2
BRANCH   1  75
ATOM     75  C   UNL A   1      35.855  23.714  25.652  1.00  0.00     0.118 C 
BRANCH  75  76
ATOM     76  N   UNL A   1      35.368  24.493  24.528  1.00  0.00    -0.352 N 
ATOM     77  C   UNL A   1      34.226  24.296  23.800  1.00  0.00     0.252 C 
ATOM     78  H   UNL A   1      35.927  25.256  24.255  1.00  0.00     0.163 HD
ATOM     79  O   UNL A   1      34.020  24.969  22.796  1.00  0.00    -0.269 OA
BRANCH  77  80
ATOM     80  C   UNL A   1      33.322  23.190  24.158  1.00  0.00     0.052 A 
ATOM     81  C   UNL A   1      33.697  21.928  23.665  1.00  0.00     0.014 A 
ATOM     82  C   UNL A   1      32.216  23.317  25.010  1.00  0.00     0.052 A 
ATOM     83  C   UNL A   1      33.019  20.784  24.077  1.00  0.00     0.001 A 
ATOM     84  C   UNL A   1      31.562  22.150  25.441  1.00  0.00     0.014 A 
ATOM     85  C   UNL A   1      31.963  20.894  24.978  1.00  0.00     0.001 A 
BRANCH  82  86
ATOM     86  C   UNL A   1      31.766  24.603  25.610  1.00  0.00     0.255 C 
ATOM     87  O   UNL A   1      32.141  24.857  26.754  1.00  0.00    -0.269 OA
BRANCH  86  88
ATOM     88  N   UNL A   1      31.083  25.527  24.843  1.00  0.00    -0.322 N 
ATOM     89  C   UNL A   1      30.169  25.036  23.825  1.00  0.00     0.132 C 
ATOM     90  C   UNL A   1      31.568  26.847  24.459  1.00  0.00     0.174 C 
ATOM     91  C   UNL A   1      29.144  26.130  23.592  1.00  0.00     0.093 C 
ATOM     92  S   UNL A   1      30.108  27.669  23.721  1.00  0.00    -0.130 SA
BRANCH  90  93
ATOM     93  C   UNL A   1      32.385  27.641  25.445  1.00  0.00    -0.015 A 
ATOM     94  C   UNL A   1      33.784  27.641  25.489  1.00  0.00     0.007 A 
ATOM     95  C   UNL A   1      31.695  28.451  26.370  1.00  0.00     0.007 A 
ATOM     96  C   UNL A   1      34.471  28.442  26.406  1.00  0.00     0.000 A 
ATOM     97  C   UNL A   1      32.379  29.254  27.282  1.00  0.00     0.000 A 
ATOM     98  C   UNL A   1      33.769  29.251  27.297  1.00  0.00     0.000 A 
ENDBRANCH  90  93
ENDBRANCH  86  88
ENDBRANCH  82  86
ENDBRANCH  77  80
ENDBRANCH  75  76
ENDBRANCH   1  75
TORSDOF 16
ENDMDL
MODEL 2
REMARK VINA RESULT:     -12.2      0.903      2.142
REMARK SMILES O=C(NCCCNC(=O)c1ccccc1C(=O)N1CCS[C@H]1c1ccccc1)c1ccc(-c2c3nc(c(-c4c(F)cc(S(=O)(=O)[O-])cc4F)c4ccc([nH]4)c(-c4c(F)cc(S(=O)(=O)[O-])cc4F)c4nc(c(-c5c(F)cc(S(=O)(=O)[O-])cc5F)c5ccc2[nH]5)C=C4)C=C3)cc1
REMARK SMILES IDX 5 1 4 2 3 3 1 4 2 5 29 7 30 8 94 9 31 10 93 11 32 12 33 13
REMARK SMILES IDX 34 14 87 15 35 16 92 17 86 18 88 19 36 20 91 21 85 22 84 23
REMARK SMILES IDX 37 25 71 26 50 27 70 28 51 29 54 30 69 31 89 32 52 33 53 34
REMARK SMILES IDX 68 36 90 37 55 38 38 39 39 40 48 41 40 42 41 43 47 44 49 45
REMARK SMILES IDX 42 46 43 47 44 48 45 49 46 50 72 51 73 52 82 53 74 54 75 55
REMARK SMILES IDX 81 56 83 57 76 58 77 59 78 60 79 61 80 62 56 63 57 64 66 65
REMARK SMILES IDX 58 66 59 67 65 68 67 69 60 70 61 71 62 72 63 73 64 74 6 75
REMARK SMILES IDX 7 76 8 77 9 79 10 80 11 81 15 82 12 83 14 84 13 85 16 86
REMARK SMILES IDX 17 87 18 88 19 89 22 90 20 91 21 92 23 93 24 94 28 95 25 96
REMARK SMILES IDX 27 97 26 98
REMARK H PARENT 3 6 88 24 54 35 7 78
REMARK Flexibility Score: inf
ROOT
ATOM      1  C   UNL A   1      37.193  23.099  25.697  1.00  0.00     0.042 C 
ENDROOT
BRANCH   1   2
ATOM      2  C   UNL A   1      38.098  24.082  26.421  1.00  0.00     0.118 C 
BRANCH   2   3
ATOM      3  N   UNL A   1      39.518  23.941  26.123  1.00  0.00    -0.352 N 
ATOM      4  O   UNL A   1      41.725  24.427  26.312  1.00  0.00    -0.269 OA
ATOM      5  C   UNL A   1      40.569  24.666  26.639  1.00  0.00     0.251 C 
ATOM      6  H   UNL A   1      39.755  23.241  25.472  1.00  0.00     0.163 HD
BRANCH   5   7
ATOM      7  C   UNL A   1      40.246  25.789  27.540  1.00  0.00     0.039 A 
ATOM      8  C   UNL A   1      40.968  26.978  27.439  1.00  0.00     0.014 A 
ATOM      9  C   UNL A   1      39.369  25.565  28.603  1.00  0.00     0.014 A 
ATOM     10  C   UNL A   1      40.965  27.857  28.513  1.00  0.00     0.010 A 
ATOM     11  C   UNL A   1      39.286  26.507  29.628  1.00  0.00     0.010 A 
ATOM     12  C   UNL A   1      40.124  27.633  29.618  1.00  0.00    -0.014 A 
BRANCH  12  13
ATOM     13  C   UNL A   1      40.111  28.621  30.726  1.00  0.00     0.031 A 
ATOM     14  C   UNL A   1      41.081  28.529  31.874  1.00  0.00     0.074 A 
ATOM     15  C   UNL A   1      39.222  29.630  30.658  1.00  0.00     0.049 A 
ATOM     16  N   UNL A   1      41.177  29.299  32.928  1.00  0.00    -0.248 NA
ATOM     17  C   UNL A   1      42.062  27.432  31.848  1.00  0.00     0.031 C 
ATOM     18  C   UNL A   1      38.230  29.806  29.590  1.00  0.00     0.029 A 
ATOM     19  N   UNL A   1      39.016  30.706  31.478  1.00  0.00    -0.354 N 
ATOM     20  C   UNL A   1      42.199  28.765  33.705  1.00  0.00     0.074 A 
ATOM     21  C   UNL A   1      42.692  27.598  33.004  1.00  0.00     0.031 C 
ATOM     22  C   UNL A   1      37.562  30.949  29.792  1.00  0.00     0.029 A 
ATOM     23  C   UNL A   1      38.018  31.543  31.041  1.00  0.00     0.049 A 
ATOM     24  H   UNL A   1      39.533  30.865  32.301  1.00  0.00     0.167 HD
ATOM     25  C   UNL A   1      42.674  29.210  34.894  1.00  0.00     0.037 A 
ATOM     26  C   UNL A   1      37.502  32.653  31.597  1.00  0.00     0.037 A 
ATOM     27  C   UNL A   1      42.193  30.395  35.560  1.00  0.00     0.049 A 
ATOM     28  C   UNL A   1      38.057  33.128  32.905  1.00  0.00     0.074 A 
ATOM     29  C   UNL A   1      42.630  30.952  36.750  1.00  0.00     0.029 A 
ATOM     30  N   UNL A   1      41.172  31.209  35.091  1.00  0.00    -0.354 N 
ATOM     31  N   UNL A   1      39.023  32.607  33.622  1.00  0.00    -0.248 NA
ATOM     32  C   UNL A   1      37.447  34.329  33.485  1.00  0.00     0.031 C 
ATOM     33  C   UNL A   1      41.851  32.083  37.017  1.00  0.00     0.029 A 
ATOM     34  C   UNL A   1      40.955  32.254  35.975  1.00  0.00     0.049 A 
ATOM     35  H   UNL A   1      40.674  31.065  34.255  1.00  0.00     0.167 HD
ATOM     36  C   UNL A   1      39.140  33.419  34.742  1.00  0.00     0.074 A 
ATOM     37  C   UNL A   1      38.162  34.480  34.592  1.00  0.00     0.031 C 
ATOM     38  C   UNL A   1      39.972  33.294  35.804  1.00  0.00     0.037 A 
BRANCH  25  39
ATOM     39  C   UNL A   1      43.759  28.415  35.571  1.00  0.00     0.058 A 
ATOM     40  C   UNL A   1      45.119  28.676  35.346  1.00  0.00     0.135 A 
ATOM     41  C   UNL A   1      43.431  27.435  36.522  1.00  0.00     0.135 A 
ATOM     42  F   UNL A   1      45.491  29.594  34.439  1.00  0.00    -0.206 F 
ATOM     43  C   UNL A   1      46.116  27.987  36.032  1.00  0.00     0.059 A 
ATOM     44  C   UNL A   1      44.410  26.746  37.233  1.00  0.00     0.059 A 
ATOM     45  F   UNL A   1      42.145  27.144  36.776  1.00  0.00    -0.206 F 
ATOM     46  C   UNL A   1      45.752  27.025  36.976  1.00  0.00     0.060 A 
BRANCH  46  47
ATOM     47  S   UNL A   1      47.056  26.157  37.878  1.00  0.00     0.124 S 
ATOM     48  O   UNL A   1      46.612  24.772  37.768  1.00  0.00    -0.237 OA
ATOM     49  O   UNL A   1      48.249  26.502  37.112  1.00  0.00    -0.237 OA
ATOM     50  O   UNL A   1      46.986  26.735  39.216  1.00  0.00    -0.744 OA
ENDBRANCH  46  47
ENDBRANCH  25  39
BRANCH  26  51
ATOM     51  C   UNL A   1      36.385  33.359  30.921  1.00  0.00     0.058 A 
ATOM     52  C   UNL A   1      35.079  33.300  31.425  1.00  0.00     0.135 A 
ATOM     53  C   UNL A   1      36.614  34.147  29.781  1.00  0.00     0.135 A 
ATOM     54  F   UNL A   1      34.813  32.560  32.512  1.00  0.00    -0.206 F 
ATOM     55  C   UNL A   1      34.034  33.987  30.816  1.00  0.00     0.059 A 
ATOM     56  C   UNL A   1      35.592  34.865  29.172  1.00  0.00     0.059 A 
ATOM     57  F   UNL A   1      37.853  34.255  29.276  1.00  0.00    -0.206 F 
ATOM     58  C   UNL A   1      34.302  34.769  29.691  1.00  0.00     0.060 A 
BRANCH  58  59
ATOM     59  S   UNL A   1      32.955  35.705  28.937  1.00  0.00     0.124 S 
ATOM     60  O   UNL A   1      33.683  36.780  28.276  1.00  0.00    -0.237 OA
ATOM     61  O   UNL A   1      32.341  34.714  28.059  1.00  0.00    -0.237 OA
ATOM     62  O   UNL A   1      32.144  36.100  30.085  1.00  0.00    -0.744 OA
ENDBRANCH  58  59
ENDBRANCH  26  51
BRANCH  38  63
ATOM     63  C   UNL A   1      39.865  34.342  36.871  1.00  0.00     0.058 A 
ATOM     64  C   UNL A   1      40.590  35.541  36.790  1.00  0.00     0.135 A 
ATOM     65  C   UNL A   1      39.017  34.154  37.972  1.00  0.00     0.135 A 
ATOM     66  F   UNL A   1      41.423  35.760  35.761  1.00  0.00    -0.206 F 
ATOM     67  C   UNL A   1      40.496  36.510  37.784  1.00  0.00     0.059 A 
ATOM     68  C   UNL A   1      38.891  35.118  38.964  1.00  0.00     0.059 A 
ATOM     69  F   UNL A   1      38.300  33.025  38.088  1.00  0.00    -0.206 F 
ATOM     70  C   UNL A   1      39.645  36.288  38.868  1.00  0.00     0.060 A 
BRANCH  70  71
ATOM     71  S   UNL A   1      39.516  37.559  40.143  1.00  0.00     0.124 S 
ATOM     72  O   UNL A   1      38.486  38.429  39.585  1.00  0.00    -0.237 OA
ATOM     73  O   UNL A   1      39.125  36.787  41.318  1.00  0.00    -0.237 OA
ATOM     74  O   UNL A   1      40.860  38.125  40.192  1.00  0.00    -0.744 OA
ENDBRANCH  70  71
ENDBRANCH  38  63
ENDBRANCH  12  13
ENDBRANCH   5   7
ENDBRANCH   2   3
ENDBRANCH   1   2
BRANCH   1  75
ATOM     75  C   UNL A   1      35.837  23.655  25.314  1.00  0.00     0.118 C 
BRANCH  75  76
ATOM     76  N   UNL A   1      35.599  23.642  23.883  1.00  0.00    -0.352 N 
ATOM     77  C   UNL A   1      34.413  23.446  23.229  1.00  0.00     0.252 C 
ATOM     78  H   UNL A   1      36.387  23.792  23.311  1.00  0.00     0.163 HD
ATOM     79  O   UNL A   1      34.402  23.338  22.007  1.00  0.00    -0.269 OA
BRANCH  77  80
ATOM     80  C   UNL A   1      33.182  23.238  24.010  1.00  0.00     0.052 A 
ATOM     81  C   UNL A   1      33.006  21.937  24.510  1.00  0.00     0.014 A 
ATOM     82  C   UNL A   1      32.277  24.255  24.344  1.00  0.00     0.052 A 
ATOM     83  C   UNL A   1      31.972  21.663  25.402  1.00  0.00     0.001 A 
ATOM     84  C   UNL A   1      31.258  23.969  25.269  1.00  0.00     0.014 A 
ATOM     85  C   UNL A   1      31.109  22.682  25.794  1.00  0.00     0.001 A 
BRANCH  82  86
ATOM     86  C   UNL A   1      32.401  25.668  23.893  1.00  0.00     0.255 C 
ATOM     87  O   UNL A   1      32.223  25.899  22.697  1.00  0.00    -0.269 OA
BRANCH  86  88
ATOM     88  N   UNL A   1      32.560  26.681  24.818  1.00  0.00    -0.322 N 
ATOM     89  C   UNL A   1      33.598  26.537  25.826  1.00  0.00     0.132 C 
ATOM     90  C   UNL A   1      31.503  27.543  25.333  1.00  0.00     0.174 C 
ATOM     91  C   UNL A   1      33.976  27.939  26.268  1.00  0.00     0.093 C 
ATOM     92  S   UNL A   1      32.394  28.840  26.270  1.00  0.00    -0.130 SA
BRANCH  90  93
ATOM     93  C   UNL A   1      30.407  27.992  24.402  1.00  0.00    -0.015 A 
ATOM     94  C   UNL A   1      29.273  27.230  24.097  1.00  0.00     0.007 A 
ATOM     95  C   UNL A   1      30.521  29.269  23.817  1.00  0.00     0.007 A 
ATOM     96  C   UNL A   1      28.275  27.736  23.259  1.00  0.00     0.000 A 
ATOM     97  C   UNL A   1      29.525  29.777  22.984  1.00  0.00     0.000 A 
ATOM     98  C   UNL A   1      28.399  29.009  22.708  1.00  0.00     0.000 A 
ENDBRANCH  90  93
ENDBRANCH  86  88
ENDBRANCH  82  86
ENDBRANCH  77  80
ENDBRANCH  75  76
ENDBRANCH   1  75
TORSDOF 16
ENDMDL
MODEL 3
REMARK VINA RESULT:     -12.1      6.632     11.952
REMARK SMILES O=C(NCCCNC(=O)c1ccccc1C(=O)N1CCS[C@H]1c1ccccc1)c1ccc(-c2c3nc(c(-c4c(F)cc(S(=O)(=O)[O-])cc4F)c4ccc([nH]4)c(-c4c(F)cc(S(=O)(=O)[O-])cc4F)c4nc(c(-c5c(F)cc(S(=O)(=O)[O-])cc5F)c5ccc2[nH]5)C=C4)C=C3)cc1
REMARK SMILES IDX 5 1 4 2 3 3 1 4 2 5 29 7 30 8 94 9 31 10 93 11 32 12 33 13
REMARK SMILES IDX 34 14 87 15 35 16 92 17 86 18 88 19 36 20 91 21 85 22 84 23
REMARK SMILES IDX 37 25 71 26 50 27 70 28 51 29 54 30 69 31 89 32 52 33 53 34
REMARK SMILES IDX 68 36 90 37 55 38 38 39 39 40 48 41 40 42 41 43 47 44 49 45
REMARK SMILES IDX 42 46 43 47 44 48 45 49 46 50 72 51 73 52 82 53 74 54 75 55
REMARK SMILES IDX 81 56 83 57 76 58 77 59 78 60 79 61 80 62 56 63 57 64 66 65
REMARK SMILES IDX 58 66 59 67 65 68 67 69 60 70 61 71 62 72 63 73 64 74 6 75
REMARK SMILES IDX 7 76 8 77 9 79 10 80 11 81 15 82 12 83 14 84 13 85 16 86
REMARK SMILES IDX 17 87 18 88 19 89 22 90 20 91 21 92 23 93 24 94 28 95 25 96
REMARK SMILES IDX 27 97 26 98
REMARK H PARENT 3 6 88 24 54 35 7 78
REMARK Flexibility Score: inf
ROOT
ATOM      1  C   UNL A   1      34.019  29.320  26.722  1.00  0.00     0.042 C 
ENDROOT
BRANCH   1   2
ATOM      2  C   UNL A   1      35.024  29.058  27.832  1.00  0.00     0.118 C 
BRANCH   2   3
ATOM      3  N   UNL A   1      35.182  30.152  28.783  1.00  0.00    -0.352 N 
ATOM      4  O   UNL A   1      36.338  31.572  30.122  1.00  0.00    -0.269 OA
ATOM      5  C   UNL A   1      36.348  30.625  29.344  1.00  0.00     0.251 C 
ATOM      6  H   UNL A   1      34.355  30.608  29.059  1.00  0.00     0.163 HD
BRANCH   5   7
ATOM      7  C   UNL A   1      37.597  29.905  29.033  1.00  0.00     0.039 A 
ATOM      8  C   UNL A   1      38.449  29.528  30.072  1.00  0.00     0.014 A 
ATOM      9  C   UNL A   1      37.995  29.796  27.699  1.00  0.00     0.014 A 
ATOM     10  C   UNL A   1      39.774  29.238  29.781  1.00  0.00     0.010 A 
ATOM     11  C   UNL A   1      39.299  29.396  27.407  1.00  0.00     0.010 A 
ATOM     12  C   UNL A   1      40.214  29.167  28.446  1.00  0.00    -0.014 A 
BRANCH  12  13
ATOM     13  C   UNL A   1      41.627  28.805  28.171  1.00  0.00     0.031 A 
ATOM     14  C   UNL A   1      42.731  29.825  28.252  1.00  0.00     0.074 A 
ATOM     15  C   UNL A   1      41.901  27.519  27.879  1.00  0.00     0.049 A 
ATOM     16  N   UNL A   1      44.008  29.669  28.014  1.00  0.00    -0.248 NA
ATOM     17  C   UNL A   1      42.361  31.197  28.636  1.00  0.00     0.031 C 
ATOM     18  C   UNL A   1      40.900  26.451  27.766  1.00  0.00     0.029 A 
ATOM     19  N   UNL A   1      43.090  26.882  27.644  1.00  0.00    -0.354 N 
ATOM     20  C   UNL A   1      44.589  30.922  28.184  1.00  0.00     0.074 A 
ATOM     21  C   UNL A   1      43.522  31.833  28.542  1.00  0.00     0.031 C 
ATOM     22  C   UNL A   1      41.522  25.286  27.540  1.00  0.00     0.029 A 
ATOM     23  C   UNL A   1      42.950  25.536  27.410  1.00  0.00     0.049 A 
ATOM     24  H   UNL A   1      43.959  27.344  27.643  1.00  0.00     0.167 HD
ATOM     25  C   UNL A   1      45.892  31.272  28.051  1.00  0.00     0.037 A 
ATOM     26  C   UNL A   1      43.867  24.604  27.095  1.00  0.00     0.037 A 
ATOM     27  C   UNL A   1      46.946  30.342  27.728  1.00  0.00     0.049 A 
ATOM     28  C   UNL A   1      45.301  25.019  26.968  1.00  0.00     0.074 A 
ATOM     29  C   UNL A   1      48.303  30.588  27.603  1.00  0.00     0.029 A 
ATOM     30  N   UNL A   1      46.763  28.988  27.486  1.00  0.00    -0.354 N 
ATOM     31  N   UNL A   1      45.827  26.208  27.133  1.00  0.00    -0.248 NA
ATOM     32  C   UNL A   1      46.262  23.973  26.599  1.00  0.00     0.031 C 
ATOM     33  C   UNL A   1      48.935  29.390  27.253  1.00  0.00     0.029 A 
ATOM     34  C   UNL A   1      47.979  28.390  27.198  1.00  0.00     0.049 A 
ATOM     35  H   UNL A   1      45.897  28.522  27.515  1.00  0.00     0.167 HD
ATOM     36  C   UNL A   1      47.185  26.056  26.890  1.00  0.00     0.074 A 
ATOM     37  C   UNL A   1      47.401  24.653  26.592  1.00  0.00     0.031 C 
ATOM     38  C   UNL A   1      48.165  26.992  26.901  1.00  0.00     0.037 A 
BRANCH  25  39
ATOM     39  C   UNL A   1      46.264  32.719  28.234  1.00  0.00     0.058 A 
ATOM     40  C   UNL A   1      46.685  33.225  29.473  1.00  0.00     0.135 A 
ATOM     41  C   UNL A   1      46.278  33.592  27.134  1.00  0.00     0.135 A 
ATOM     42  F   UNL A   1      46.679  32.440  30.562  1.00  0.00    -0.206 F 
ATOM     43  C   UNL A   1      47.098  34.547  29.617  1.00  0.00     0.059 A 
ATOM     44  C   UNL A   1      46.704  34.913  27.250  1.00  0.00     0.059 A 
ATOM     45  F   UNL A   1      45.885  33.161  25.924  1.00  0.00    -0.206 F 
ATOM     46  C   UNL A   1      47.107  35.384  28.499  1.00  0.00     0.060 A 
BRANCH  46  47
ATOM     47  S   UNL A   1      47.671  37.089  28.696  1.00  0.00     0.124 S 
ATOM     48  O   UNL A   1      49.079  36.972  28.332  1.00  0.00    -0.237 OA
ATOM     49  O   UNL A   1      46.829  37.809  27.745  1.00  0.00    -0.237 OA
ATOM     50  O   UNL A   1      47.407  37.375  30.102  1.00  0.00    -0.744 OA
ENDBRANCH  46  47
ENDBRANCH  25  39
BRANCH  26  51
ATOM     51  C   UNL A   1      43.436  23.203  26.856  1.00  0.00     0.058 A 
ATOM     52  C   UNL A   1      43.415  22.662  25.564  1.00  0.00     0.135 A 
ATOM     53  C   UNL A   1      43.081  22.365  27.926  1.00  0.00     0.135 A 
ATOM     54  F   UNL A   1      43.747  23.425  24.512  1.00  0.00    -0.206 F 
ATOM     55  C   UNL A   1      43.045  21.340  25.337  1.00  0.00     0.059 A 
ATOM     56  C   UNL A   1      42.735  21.035  27.727  1.00  0.00     0.059 A 
ATOM     57  F   UNL A   1      43.110  22.832  29.184  1.00  0.00    -0.206 F 
ATOM     58  C   UNL A   1      42.709  20.534  26.426  1.00  0.00     0.060 A 
BRANCH  58  59
ATOM     59  S   UNL A   1      42.284  18.804  26.134  1.00  0.00     0.124 S 
ATOM     60  O   UNL A   1      42.528  18.220  27.447  1.00  0.00    -0.237 OA
ATOM     61  O   UNL A   1      40.886  18.892  25.723  1.00  0.00    -0.237 OA
ATOM     62  O   UNL A   1      43.214  18.409  25.080  1.00  0.00    -0.744 OA
ENDBRANCH  58  59
ENDBRANCH  26  51
BRANCH  38  63
ATOM     63  C   UNL A   1      49.554  26.517  26.597  1.00  0.00     0.058 A 
ATOM     64  C   UNL A   1      50.081  26.586  25.298  1.00  0.00     0.135 A 
ATOM     65  C   UNL A   1      50.372  26.007  27.617  1.00  0.00     0.135 A 
ATOM     66  F   UNL A   1      49.331  27.056  24.289  1.00  0.00    -0.206 F 
ATOM     67  C   UNL A   1      51.366  26.139  25.015  1.00  0.00     0.059 A 
ATOM     68  C   UNL A   1      51.668  25.575  27.360  1.00  0.00     0.059 A 
ATOM     69  F   UNL A   1      49.913  25.927  28.876  1.00  0.00    -0.206 F 
ATOM     70  C   UNL A   1      52.152  25.633  26.053  1.00  0.00     0.060 A 
BRANCH  70  71
ATOM     71  S   UNL A   1      53.826  25.073  25.680  1.00  0.00     0.124 S 
ATOM     72  O   UNL A   1      53.613  23.648  25.449  1.00  0.00    -0.237 OA
ATOM     73  O   UNL A   1      54.167  25.862  24.501  1.00  0.00    -0.237 OA
ATOM     74  O   UNL A   1      54.572  25.410  26.889  1.00  0.00    -0.744 OA
ENDBRANCH  70  71
ENDBRANCH  38  63
ENDBRANCH  12  13
ENDBRANCH   5   7
ENDBRANCH   2   3
ENDBRANCH   1   2
BRANCH   1  75
ATOM     75  C   UNL A   1      33.890  28.198  25.712  1.00  0.00     0.118 C 
BRANCH  75  76
ATOM     76  N   UNL A   1      33.419  26.956  26.296  1.00  0.00    -0.352 N 
ATOM     77  C   UNL A   1      32.431  26.130  25.833  1.00  0.00     0.252 C 
ATOM     78  H   UNL A   1      33.863  26.673  27.129  1.00  0.00     0.163 HD
ATOM     79  O   UNL A   1      32.064  25.178  26.515  1.00  0.00    -0.269 OA
BRANCH  77  80
ATOM     80  C   UNL A   1      31.732  26.469  24.583  1.00  0.00     0.052 A 
ATOM     81  C   UNL A   1      30.755  27.473  24.698  1.00  0.00     0.014 A 
ATOM     82  C   UNL A   1      32.053  25.933  23.328  1.00  0.00     0.052 A 
ATOM     83  C   UNL A   1      30.150  27.996  23.558  1.00  0.00     0.001 A 
ATOM     84  C   UNL A   1      31.457  26.494  22.185  1.00  0.00     0.014 A 
ATOM     85  C   UNL A   1      30.514  27.519  22.302  1.00  0.00     0.001 A 
BRANCH  82  86
ATOM     86  C   UNL A   1      33.097  24.896  23.103  1.00  0.00     0.255 C 
ATOM     87  O   UNL A   1      34.227  25.284  22.808  1.00  0.00    -0.269 OA
BRANCH  86  88
ATOM     88  N   UNL A   1      32.826  23.568  23.369  1.00  0.00    -0.322 N 
ATOM     89  C   UNL A   1      31.495  23.063  23.071  1.00  0.00     0.132 C 
ATOM     90  C   UNL A   1      33.416  22.771  24.439  1.00  0.00     0.174 C 
ATOM     91  C   UNL A   1      31.634  21.568  22.851  1.00  0.00     0.093 C 
ATOM     92  S   UNL A   1      32.883  21.058  24.073  1.00  0.00    -0.130 SA
BRANCH  90  93
ATOM     93  C   UNL A   1      34.864  22.985  24.795  1.00  0.00    -0.015 A 
ATOM     94  C   UNL A   1      35.307  23.835  25.815  1.00  0.00     0.007 A 
ATOM     95  C   UNL A   1      35.835  22.266  24.068  1.00  0.00     0.007 A 
ATOM     96  C   UNL A   1      36.667  23.944  26.116  1.00  0.00     0.000 A 
ATOM     97  C   UNL A   1      37.192  22.370  24.370  1.00  0.00     0.000 A 
ATOM     98  C   UNL A   1      37.607  23.209  25.398  1.00  0.00     0.000 A 
ENDBRANCH  90  93
ENDBRANCH  86  88
ENDBRANCH  82  86
ENDBRANCH  77  80
ENDBRANCH  75  76
ENDBRANCH   1  75
TORSDOF 16
ENDMDL
