MODEL 1
REMARK VINA RESULT:     -10.2      0.000      0.000
REMARK SMILES Cc1ccc(C(=O)NCCCNC(=O)c2ccc(-c3c4nc(c(-c5c(F)cc(S(=O)(=O)[O-])cc5F)c5ccc([nH]5)c(-c5c(F)cc(S(=O)(=O)[O-])cc5F)c5nc(c(-c6c(F)cc(S(=O)(=O)[O-])cc6F)c6ccc3[nH]6)C=C5)C=C4)cc2)cc1N1C(=O)/C(=C\c2nc3ccccc3n2C)SC1=S
REMARK SMILES IDX 10 1 9 2 8 3 6 4 7 5 5 7 1 8 2 9 3 10 82 11 4 12 81 13 83 14
REMARK SMILES IDX 84 15 99 16 85 17 86 18 98 19 100 20 87 21 88 22 89 23 96 24
REMARK SMILES IDX 90 25 95 26 97 27 91 28 94 29 92 30 93 31 11 32 12 33 13 34
REMARK SMILES IDX 14 36 15 37 16 38 80 39 17 40 79 41 18 42 19 43 20 44 73 45
REMARK SMILES IDX 21 46 78 47 72 48 74 49 22 50 77 51 71 52 70 53 23 55 57 56
REMARK SMILES IDX 36 57 56 58 37 59 40 60 55 61 75 62 38 63 39 64 54 66 76 67
REMARK SMILES IDX 41 68 24 69 25 70 34 71 26 72 27 73 33 74 35 75 28 76 29 77
REMARK SMILES IDX 30 78 31 79 32 80 58 81 59 82 68 83 60 84 61 85 67 86 69 87
REMARK SMILES IDX 62 88 63 89 64 90 65 91 66 92 42 93 43 94 52 95 44 96 45 97
REMARK SMILES IDX 51 98 53 99 46 100 47 101 48 102 49 103 50 104
REMARK H PARENT 8 6 12 35 74 54 40 65
REMARK Flexibility Score: inf
ROOT
ATOM      1  C   UNL A   1      48.923  28.619  33.597  1.00  0.00     0.042 C 
ENDROOT
BRANCH   1   2
ATOM      2  C   UNL A   1      48.323  28.821  32.082  1.00  0.00     0.118 C 
BRANCH   2   3
ATOM      3  N   UNL A   1      46.967  29.396  31.834  1.00  0.00    -0.352 N 
ATOM      4  C   UNL A   1      45.669  28.930  31.845  1.00  0.00     0.251 C 
ATOM      5  O   UNL A   1      44.712  29.698  31.950  1.00  0.00    -0.269 OA
ATOM      6  H   UNL A   1      47.012  30.352  31.604  1.00  0.00     0.163 HD
BRANCH   4   7
ATOM      7  C   UNL A   1      45.387  27.490  31.735  1.00  0.00     0.041 A 
ATOM      8  C   UNL A   1      43.748  23.525  31.732  1.00  0.00     0.046 C 
ATOM      9  C   UNL A   1      44.432  24.860  31.741  1.00  0.00    -0.027 A 
ATOM     10  C   UNL A   1      44.427  25.619  30.555  1.00  0.00     0.006 A 
ATOM     11  C   UNL A   1      45.048  25.402  32.887  1.00  0.00     0.054 A 
ATOM     12  C   UNL A   1      44.877  26.942  30.556  1.00  0.00     0.014 A 
ATOM     13  C   UNL A   1      45.602  26.681  32.838  1.00  0.00     0.041 A 
BRANCH  11  14
ATOM     14  N   UNL A   1      44.832  24.883  34.191  1.00  0.00    -0.261 N 
ATOM     15  C   UNL A   1      45.680  23.870  34.613  1.00  0.00     0.270 C 
ATOM     16  C   UNL A   1      43.756  25.177  34.993  1.00  0.00     0.152 C 
ATOM     17  O   UNL A   1      46.630  23.451  33.955  1.00  0.00    -0.268 OA
ATOM     18  C   UNL A   1      45.260  23.326  35.937  1.00  0.00     0.084 C 
ATOM     19  S   UNL A   1      43.784  24.110  36.408  1.00  0.00    -0.054 SA
ATOM     20  S   UNL A   1      42.562  26.322  34.763  1.00  0.00    -0.051 S 
ATOM     21  C   UNL A   1      45.863  22.382  36.689  1.00  0.00     0.068 C 
BRANCH  21  22
ATOM     22  C   UNL A   1      47.113  21.805  36.328  1.00  0.00     0.134 A 
ATOM     23  N   UNL A   1      48.325  22.214  36.635  1.00  0.00    -0.229 NA
ATOM     24  N   UNL A   1      47.219  20.676  35.535  1.00  0.00    -0.328 N 
ATOM     25  C   UNL A   1      49.148  21.667  35.693  1.00  0.00     0.089 A 
ATOM     26  C   UNL A   1      48.480  20.681  34.974  1.00  0.00     0.068 A 
ATOM     27  C   UNL A   1      46.234  19.636  35.365  1.00  0.00     0.152 C 
ATOM     28  C   UNL A   1      50.475  21.988  35.379  1.00  0.00     0.030 A 
ATOM     29  C   UNL A   1      49.097  19.960  33.945  1.00  0.00     0.028 A 
ATOM     30  C   UNL A   1      51.098  21.308  34.330  1.00  0.00     0.002 A 
ATOM     31  C   UNL A   1      50.419  20.307  33.629  1.00  0.00     0.002 A 
ENDBRANCH  21  22
ENDBRANCH  11  14
ENDBRANCH   4   7
ENDBRANCH   2   3
ENDBRANCH   1   2
BRANCH   1  32
ATOM     32  C   UNL A   1      50.399  27.986  33.653  1.00  0.00     0.118 C 
BRANCH  32  33
ATOM     33  N   UNL A   1      51.090  26.812  32.830  1.00  0.00    -0.352 N 
ATOM     34  C   UNL A   1      51.146  26.194  31.478  1.00  0.00     0.251 C 
ATOM     35  H   UNL A   1      51.697  26.320  33.430  1.00  0.00     0.163 HD
ATOM     36  O   UNL A   1      52.327  26.018  31.111  1.00  0.00    -0.269 OA
BRANCH  34  37
ATOM     37  C   UNL A   1      50.092  25.754  30.326  1.00  0.00     0.039 A 
ATOM     38  C   UNL A   1      50.437  25.775  28.937  1.00  0.00     0.014 A 
ATOM     39  C   UNL A   1      48.769  25.391  30.498  1.00  0.00     0.014 A 
ATOM     40  C   UNL A   1      49.466  26.196  27.954  1.00  0.00     0.010 A 
ATOM     41  C   UNL A   1      47.798  25.768  29.525  1.00  0.00     0.010 A 
ATOM     42  C   UNL A   1      48.148  26.433  28.348  1.00  0.00    -0.014 A 
BRANCH  42  43
ATOM     43  C   UNL A   1      47.169  27.367  27.668  1.00  0.00     0.031 A 
ATOM     44  C   UNL A   1      47.042  28.738  28.152  1.00  0.00     0.074 A 
ATOM     45  C   UNL A   1      46.401  27.156  26.555  1.00  0.00     0.049 A 
ATOM     46  N   UNL A   1      45.944  29.305  28.528  1.00  0.00    -0.248 NA
ATOM     47  C   UNL A   1      48.209  29.599  28.177  1.00  0.00     0.031 C 
ATOM     48  C   UNL A   1      45.451  28.016  25.820  1.00  0.00     0.029 A 
ATOM     49  N   UNL A   1      46.267  25.996  25.817  1.00  0.00    -0.354 N 
ATOM     50  C   UNL A   1      46.210  30.660  28.529  1.00  0.00     0.074 A 
ATOM     51  C   UNL A   1      47.653  30.764  28.515  1.00  0.00     0.031 C 
ATOM     52  C   UNL A   1      44.597  27.238  25.111  1.00  0.00     0.029 A 
ATOM     53  C   UNL A   1      44.950  25.860  25.375  1.00  0.00     0.049 A 
ATOM     54  H   UNL A   1      46.993  25.359  25.629  1.00  0.00     0.167 HD
ATOM     55  C   UNL A   1      45.226  31.572  28.262  1.00  0.00     0.037 A 
ATOM     56  C   UNL A   1      44.177  24.852  25.888  1.00  0.00     0.037 A 
ATOM     57  C   UNL A   1      44.012  30.897  27.783  1.00  0.00     0.049 A 
ATOM     58  C   UNL A   1      43.075  25.399  26.745  1.00  0.00     0.074 A 
ATOM     59  C   UNL A   1      43.470  30.769  26.511  1.00  0.00     0.029 A 
ATOM     60  N   UNL A   1      43.358  29.959  28.577  1.00  0.00    -0.354 N 
ATOM     61  N   UNL A   1      43.065  26.632  27.157  1.00  0.00    -0.248 NA
ATOM     62  C   UNL A   1      41.910  24.650  27.206  1.00  0.00     0.031 C 
ATOM     63  C   UNL A   1      42.543  29.698  26.529  1.00  0.00     0.029 A 
ATOM     64  C   UNL A   1      42.498  29.188  27.816  1.00  0.00     0.049 A 
ATOM     65  H   UNL A   1      43.490  29.859  29.547  1.00  0.00     0.167 HD
ATOM     66  C   UNL A   1      41.945  26.874  27.890  1.00  0.00     0.074 A 
ATOM     67  C   UNL A   1      41.243  25.603  27.886  1.00  0.00     0.031 C 
ATOM     68  C   UNL A   1      41.717  28.112  28.417  1.00  0.00     0.037 A 
BRANCH  55  69
ATOM     69  C   UNL A   1      45.476  33.065  28.085  1.00  0.00     0.058 A 
ATOM     70  C   UNL A   1      45.006  34.009  29.024  1.00  0.00     0.135 A 
ATOM     71  C   UNL A   1      46.212  33.630  27.021  1.00  0.00     0.135 A 
ATOM     72  F   UNL A   1      44.406  33.632  30.161  1.00  0.00    -0.206 F 
ATOM     73  C   UNL A   1      45.162  35.390  28.865  1.00  0.00     0.059 A 
ATOM     74  C   UNL A   1      46.323  35.006  26.801  1.00  0.00     0.059 A 
ATOM     75  F   UNL A   1      46.937  32.868  26.188  1.00  0.00    -0.206 F 
ATOM     76  C   UNL A   1      45.800  35.883  27.736  1.00  0.00     0.060 A 
BRANCH  76  77
ATOM     77  S   UNL A   1      46.024  37.663  27.564  1.00  0.00     0.124 S 
ATOM     78  O   UNL A   1      47.062  37.748  26.542  1.00  0.00    -0.237 OA
ATOM     79  O   UNL A   1      44.693  38.097  27.154  1.00  0.00    -0.237 OA
ATOM     80  O   UNL A   1      46.431  38.088  28.900  1.00  0.00    -0.744 OA
ENDBRANCH  76  77
ENDBRANCH  55  69
BRANCH  56  81
ATOM     81  C   UNL A   1      44.910  23.546  26.144  1.00  0.00     0.058 A 
ATOM     82  C   UNL A   1      44.636  22.989  27.396  1.00  0.00     0.135 A 
ATOM     83  C   UNL A   1      44.820  22.599  25.143  1.00  0.00     0.135 A 
ATOM     84  F   UNL A   1      45.215  23.480  28.497  1.00  0.00    -0.206 F 
ATOM     85  C   UNL A   1      43.683  21.984  27.540  1.00  0.00     0.059 A 
ATOM     86  C   UNL A   1      43.955  21.513  25.320  1.00  0.00     0.059 A 
ATOM     87  F   UNL A   1      45.459  22.761  23.973  1.00  0.00    -0.206 F 
ATOM     88  C   UNL A   1      43.117  21.430  26.413  1.00  0.00     0.060 A 
BRANCH  88  89
ATOM     89  S   UNL A   1      41.240  20.740  26.526  1.00  0.00     0.124 S 
ATOM     90  O   UNL A   1      40.547  21.747  25.745  1.00  0.00    -0.237 OA
ATOM     91  O   UNL A   1      41.255  19.450  25.865  1.00  0.00    -0.237 OA
ATOM     92  O   UNL A   1      40.828  20.744  27.919  1.00  0.00    -0.744 OA
ENDBRANCH  88  89
ENDBRANCH  56  81
BRANCH  68  93
ATOM     93  C   UNL A   1      40.667  28.450  29.438  1.00  0.00     0.058 A 
ATOM     94  C   UNL A   1      40.805  28.216  30.816  1.00  0.00     0.135 A 
ATOM     95  C   UNL A   1      39.500  29.154  29.052  1.00  0.00     0.135 A 
ATOM     96  F   UNL A   1      41.924  27.692  31.335  1.00  0.00    -0.206 F 
ATOM     97  C   UNL A   1      39.811  28.555  31.730  1.00  0.00     0.059 A 
ATOM     98  C   UNL A   1      38.532  29.569  29.957  1.00  0.00     0.059 A 
ATOM     99  F   UNL A   1      39.258  29.477  27.773  1.00  0.00    -0.206 F 
ATOM    100  C   UNL A   1      38.674  29.225  31.290  1.00  0.00     0.060 A 
BRANCH 100 101
ATOM    101  S   UNL A   1      37.400  29.670  32.474  1.00  0.00     0.124 S 
ATOM    102  O   UNL A   1      36.261  29.912  31.593  1.00  0.00    -0.237 OA
ATOM    103  O   UNL A   1      37.310  28.473  33.307  1.00  0.00    -0.237 OA
ATOM    104  O   UNL A   1      37.948  30.848  33.138  1.00  0.00    -0.744 OA
ENDBRANCH 100 101
ENDBRANCH  68  93
ENDBRANCH  42  43
ENDBRANCH  34  37
ENDBRANCH  32  33
ENDBRANCH   1  32
TORSDOF 15
ENDMDL
MODEL 2
REMARK VINA RESULT:      -9.7      3.862      9.289
REMARK SMILES Cc1ccc(C(=O)NCCCNC(=O)c2ccc(-c3c4nc(c(-c5c(F)cc(S(=O)(=O)[O-])cc5F)c5ccc([nH]5)c(-c5c(F)cc(S(=O)(=O)[O-])cc5F)c5nc(c(-c6c(F)cc(S(=O)(=O)[O-])cc6F)c6ccc3[nH]6)C=C5)C=C4)cc2)cc1N1C(=O)/C(=C\c2nc3ccccc3n2C)SC1=S
REMARK SMILES IDX 10 1 9 2 8 3 6 4 7 5 5 7 1 8 2 9 3 10 82 11 4 12 81 13 83 14
REMARK SMILES IDX 84 15 99 16 85 17 86 18 98 19 100 20 87 21 88 22 89 23 96 24
REMARK SMILES IDX 90 25 95 26 97 27 91 28 94 29 92 30 93 31 11 32 12 33 13 34
REMARK SMILES IDX 14 36 15 37 16 38 80 39 17 40 79 41 18 42 19 43 20 44 73 45
REMARK SMILES IDX 21 46 78 47 72 48 74 49 22 50 77 51 71 52 70 53 23 55 57 56
REMARK SMILES IDX 36 57 56 58 37 59 40 60 55 61 75 62 38 63 39 64 54 66 76 67
REMARK SMILES IDX 41 68 24 69 25 70 34 71 26 72 27 73 33 74 35 75 28 76 29 77
REMARK SMILES IDX 30 78 31 79 32 80 58 81 59 82 68 83 60 84 61 85 67 86 69 87
REMARK SMILES IDX 62 88 63 89 64 90 65 91 66 92 42 93 43 94 52 95 44 96 45 97
REMARK SMILES IDX 51 98 53 99 46 100 47 101 48 102 49 103 50 104
REMARK H PARENT 8 6 12 35 74 54 40 65
REMARK Flexibility Score: inf
ROOT
ATOM      1  C   UNL A   1      36.121  31.863  28.121  1.00  0.00     0.042 C 
ENDROOT
BRANCH   1   2
ATOM      2  C   UNL A   1      36.519  30.307  27.778  1.00  0.00     0.118 C 
BRANCH   2   3
ATOM      3  N   UNL A   1      36.805  29.305  28.847  1.00  0.00    -0.352 N 
ATOM      4  C   UNL A   1      37.902  28.581  29.267  1.00  0.00     0.251 C 
ATOM      5  O   UNL A   1      37.953  28.090  30.395  1.00  0.00    -0.269 OA
ATOM      6  H   UNL A   1      36.008  29.113  29.391  1.00  0.00     0.163 HD
BRANCH   4   7
ATOM      7  C   UNL A   1      39.053  28.374  28.374  1.00  0.00     0.041 A 
ATOM      8  C   UNL A   1      41.806  27.336  25.252  1.00  0.00     0.046 C 
ATOM      9  C   UNL A   1      40.940  27.706  26.419  1.00  0.00    -0.027 A 
ATOM     10  C   UNL A   1      40.337  28.979  26.424  1.00  0.00     0.006 A 
ATOM     11  C   UNL A   1      40.675  26.829  27.490  1.00  0.00     0.054 A 
ATOM     12  C   UNL A   1      39.374  29.304  27.382  1.00  0.00     0.014 A 
ATOM     13  C   UNL A   1      39.801  27.217  28.505  1.00  0.00     0.041 A 
BRANCH  11  14
ATOM     14  N   UNL A   1      40.956  25.438  27.429  1.00  0.00    -0.261 N 
ATOM     15  C   UNL A   1      42.277  25.055  27.612  1.00  0.00     0.270 C 
ATOM     16  C   UNL A   1      40.068  24.466  27.036  1.00  0.00     0.152 C 
ATOM     17  O   UNL A   1      43.187  25.835  27.882  1.00  0.00    -0.268 OA
ATOM     18  C   UNL A   1      42.453  23.591  27.389  1.00  0.00     0.084 C 
ATOM     19  S   UNL A   1      40.932  22.928  26.876  1.00  0.00    -0.054 SA
ATOM     20  S   UNL A   1      38.433  24.607  26.728  1.00  0.00    -0.051 S 
ATOM     21  C   UNL A   1      43.570  22.846  27.528  1.00  0.00     0.068 C 
BRANCH  21  22
ATOM     22  C   UNL A   1      44.788  23.388  28.025  1.00  0.00     0.134 A 
ATOM     23  N   UNL A   1      45.090  23.735  29.258  1.00  0.00    -0.229 NA
ATOM     24  N   UNL A   1      45.877  23.658  27.214  1.00  0.00    -0.328 N 
ATOM     25  C   UNL A   1      46.122  24.621  29.148  1.00  0.00     0.089 A 
ATOM     26  C   UNL A   1      46.651  24.599  27.862  1.00  0.00     0.068 A 
ATOM     27  C   UNL A   1      46.199  23.035  25.955  1.00  0.00     0.152 C 
ATOM     28  C   UNL A   1      46.643  25.501  30.106  1.00  0.00     0.030 A 
ATOM     29  C   UNL A   1      47.723  25.416  27.480  1.00  0.00     0.028 A 
ATOM     30  C   UNL A   1      47.687  26.353  29.736  1.00  0.00     0.002 A 
ATOM     31  C   UNL A   1      48.219  26.306  28.445  1.00  0.00     0.002 A 
ENDBRANCH  21  22
ENDBRANCH  11  14
ENDBRANCH   4   7
ENDBRANCH   2   3
ENDBRANCH   1   2
BRANCH   1  32
ATOM     32  C   UNL A   1      34.790  32.035  29.004  1.00  0.00     0.118 C 
BRANCH  32  33
ATOM     33  N   UNL A   1      34.522  31.907  30.568  1.00  0.00    -0.352 N 
ATOM     34  C   UNL A   1      35.187  32.033  31.892  1.00  0.00     0.251 C 
ATOM     35  H   UNL A   1      33.580  31.656  30.708  1.00  0.00     0.163 HD
ATOM     36  O   UNL A   1      34.501  32.721  32.678  1.00  0.00    -0.269 OA
BRANCH  34  37
ATOM     37  C   UNL A   1      36.591  31.580  32.567  1.00  0.00     0.039 A 
ATOM     38  C   UNL A   1      37.087  32.191  33.763  1.00  0.00     0.014 A 
ATOM     39  C   UNL A   1      37.492  30.653  32.079  1.00  0.00     0.014 A 
ATOM     40  C   UNL A   1      38.501  32.446  33.915  1.00  0.00     0.010 A 
ATOM     41  C   UNL A   1      38.891  30.869  32.244  1.00  0.00     0.010 A 
ATOM     42  C   UNL A   1      39.394  31.958  32.960  1.00  0.00    -0.014 A 
BRANCH  42  43
ATOM     43  C   UNL A   1      40.747  32.547  32.621  1.00  0.00     0.031 A 
ATOM     44  C   UNL A   1      40.884  33.370  31.424  1.00  0.00     0.074 A 
ATOM     45  C   UNL A   1      41.912  32.507  33.337  1.00  0.00     0.049 A 
ATOM     46  N   UNL A   1      41.727  33.171  30.466  1.00  0.00    -0.248 NA
ATOM     47  C   UNL A   1      40.066  34.559  31.275  1.00  0.00     0.031 C 
ATOM     48  C   UNL A   1      43.255  33.074  33.091  1.00  0.00     0.029 A 
ATOM     49  N   UNL A   1      42.167  31.842  34.520  1.00  0.00    -0.354 N 
ATOM     50  C   UNL A   1      41.776  34.360  29.765  1.00  0.00     0.074 A 
ATOM     51  C   UNL A   1      40.595  35.090  30.171  1.00  0.00     0.031 C 
ATOM     52  C   UNL A   1      44.173  32.378  33.804  1.00  0.00     0.029 A 
ATOM     53  C   UNL A   1      43.466  31.335  34.515  1.00  0.00     0.049 A 
ATOM     54  H   UNL A   1      41.525  31.740  35.260  1.00  0.00     0.167 HD
ATOM     55  C   UNL A   1      42.919  34.755  29.126  1.00  0.00     0.037 A 
ATOM     56  C   UNL A   1      43.652  29.977  34.469  1.00  0.00     0.037 A 
ATOM     57  C   UNL A   1      44.044  33.884  29.493  1.00  0.00     0.049 A 
ATOM     58  C   UNL A   1      44.250  29.559  33.159  1.00  0.00     0.074 A 
ATOM     59  C   UNL A   1      45.118  34.077  30.351  1.00  0.00     0.029 A 
ATOM     60  N   UNL A   1      44.001  32.517  29.232  1.00  0.00    -0.354 N 
ATOM     61  N   UNL A   1      44.297  30.355  32.133  1.00  0.00    -0.248 NA
ATOM     62  C   UNL A   1      44.841  28.255  32.877  1.00  0.00     0.031 C 
ATOM     63  C   UNL A   1      45.670  32.810  30.665  1.00  0.00     0.029 A 
ATOM     64  C   UNL A   1      44.952  31.846  29.979  1.00  0.00     0.049 A 
ATOM     65  H   UNL A   1      43.378  32.089  28.603  1.00  0.00     0.167 HD
ATOM     66  C   UNL A   1      44.912  29.740  31.087  1.00  0.00     0.074 A 
ATOM     67  C   UNL A   1      45.247  28.425  31.604  1.00  0.00     0.031 C 
ATOM     68  C   UNL A   1      45.085  30.394  29.902  1.00  0.00     0.037 A 
BRANCH  55  69
ATOM     69  C   UNL A   1      43.101  36.121  28.475  1.00  0.00     0.058 A 
ATOM     70  C   UNL A   1      43.496  37.250  29.224  1.00  0.00     0.135 A 
ATOM     71  C   UNL A   1      42.936  36.375  27.095  1.00  0.00     0.135 A 
ATOM     72  F   UNL A   1      43.825  37.156  30.519  1.00  0.00    -0.206 F 
ATOM     73  C   UNL A   1      43.614  38.531  28.675  1.00  0.00     0.059 A 
ATOM     74  C   UNL A   1      42.979  37.654  26.534  1.00  0.00     0.059 A 
ATOM     75  F   UNL A   1      42.812  35.376  26.209  1.00  0.00    -0.206 F 
ATOM     76  C   UNL A   1      43.328  38.730  27.332  1.00  0.00     0.060 A 
BRANCH  76  77
ATOM     77  S   UNL A   1      43.518  40.380  26.632  1.00  0.00     0.124 S 
ATOM     78  O   UNL A   1      42.179  40.658  26.121  1.00  0.00    -0.237 OA
ATOM     79  O   UNL A   1      43.928  41.158  27.795  1.00  0.00    -0.237 OA
ATOM     80  O   UNL A   1      44.546  40.202  25.610  1.00  0.00    -0.744 OA
ENDBRANCH  76  77
ENDBRANCH  55  69
BRANCH  56  81
ATOM     81  C   UNL A   1      42.644  29.163  35.263  1.00  0.00     0.058 A 
ATOM     82  C   UNL A   1      41.858  28.323  34.472  1.00  0.00     0.135 A 
ATOM     83  C   UNL A   1      43.145  28.495  36.362  1.00  0.00     0.135 A 
ATOM     84  F   UNL A   1      40.836  28.818  33.766  1.00  0.00    -0.206 F 
ATOM     85  C   UNL A   1      42.179  26.976  34.318  1.00  0.00     0.059 A 
ATOM     86  C   UNL A   1      43.363  27.115  36.268  1.00  0.00     0.059 A 
ATOM     87  F   UNL A   1      43.524  29.157  37.467  1.00  0.00    -0.206 F 
ATOM     88  C   UNL A   1      43.194  26.438  35.078  1.00  0.00     0.060 A 
BRANCH  88  89
ATOM     89  S   UNL A   1      44.259  24.924  34.314  1.00  0.00     0.124 S 
ATOM     90  O   UNL A   1      45.592  25.298  34.751  1.00  0.00    -0.237 OA
ATOM     91  O   UNL A   1      43.781  23.729  34.984  1.00  0.00    -0.237 OA
ATOM     92  O   UNL A   1      44.126  24.946  32.868  1.00  0.00    -0.744 OA
ENDBRANCH  88  89
ENDBRANCH  56  81
BRANCH  68  93
ATOM     93  C   UNL A   1      45.515  29.764  28.607  1.00  0.00     0.058 A 
ATOM     94  C   UNL A   1      44.629  29.204  27.673  1.00  0.00     0.135 A 
ATOM     95  C   UNL A   1      46.872  29.818  28.206  1.00  0.00     0.135 A 
ATOM     96  F   UNL A   1      43.302  29.221  27.859  1.00  0.00    -0.206 F 
ATOM     97  C   UNL A   1      45.069  28.639  26.479  1.00  0.00     0.059 A 
ATOM     98  C   UNL A   1      47.322  29.330  26.986  1.00  0.00     0.059 A 
ATOM     99  F   UNL A   1      47.820  30.360  28.984  1.00  0.00    -0.206 F 
ATOM    100  C   UNL A   1      46.418  28.701  26.147  1.00  0.00     0.060 A 
BRANCH 100 101
ATOM    101  S   UNL A   1      46.979  27.981  24.600  1.00  0.00     0.124 S 
ATOM    102  O   UNL A   1      46.221  26.734  24.573  1.00  0.00    -0.237 OA
ATOM    103  O   UNL A   1      46.577  28.986  23.619  1.00  0.00    -0.237 OA
ATOM    104  O   UNL A   1      48.419  27.843  24.791  1.00  0.00    -0.744 OA
ENDBRANCH 100 101
ENDBRANCH  68  93
ENDBRANCH  42  43
ENDBRANCH  34  37
ENDBRANCH  32  33
ENDBRANCH   1  32
TORSDOF 15
ENDMDL
MODEL 3
REMARK VINA RESULT:      -9.6      4.544     10.112
REMARK SMILES Cc1ccc(C(=O)NCCCNC(=O)c2ccc(-c3c4nc(c(-c5c(F)cc(S(=O)(=O)[O-])cc5F)c5ccc([nH]5)c(-c5c(F)cc(S(=O)(=O)[O-])cc5F)c5nc(c(-c6c(F)cc(S(=O)(=O)[O-])cc6F)c6ccc3[nH]6)C=C5)C=C4)cc2)cc1N1C(=O)/C(=C\c2nc3ccccc3n2C)SC1=S
REMARK SMILES IDX 10 1 9 2 8 3 6 4 7 5 5 7 1 8 2 9 3 10 82 11 4 12 81 13 83 14
REMARK SMILES IDX 84 15 99 16 85 17 86 18 98 19 100 20 87 21 88 22 89 23 96 24
REMARK SMILES IDX 90 25 95 26 97 27 91 28 94 29 92 30 93 31 11 32 12 33 13 34
REMARK SMILES IDX 14 36 15 37 16 38 80 39 17 40 79 41 18 42 19 43 20 44 73 45
REMARK SMILES IDX 21 46 78 47 72 48 74 49 22 50 77 51 71 52 70 53 23 55 57 56
REMARK SMILES IDX 36 57 56 58 37 59 40 60 55 61 75 62 38 63 39 64 54 66 76 67
REMARK SMILES IDX 41 68 24 69 25 70 34 71 26 72 27 73 33 74 35 75 28 76 29 77
REMARK SMILES IDX 30 78 31 79 32 80 58 81 59 82 68 83 60 84 61 85 67 86 69 87
REMARK SMILES IDX 62 88 63 89 64 90 65 91 66 92 42 93 43 94 52 95 44 96 45 97
REMARK SMILES IDX 51 98 53 99 46 100 47 101 48 102 49 103 50 104
REMARK H PARENT 8 6 12 35 74 54 40 65
REMARK Flexibility Score: inf
ROOT
ATOM      1  C   UNL A   1      35.740  33.019  28.494  1.00  0.00     0.042 C 
ENDROOT
BRANCH   1   2
ATOM      2  C   UNL A   1      34.397  32.966  29.437  1.00  0.00     0.118 C 
BRANCH   2   3
ATOM      3  N   UNL A   1      34.282  33.751  30.702  1.00  0.00    -0.352 N 
ATOM      4  C   UNL A   1      35.098  34.031  31.779  1.00  0.00     0.251 C 
ATOM      5  O   UNL A   1      34.879  34.993  32.517  1.00  0.00    -0.269 OA
ATOM      6  H   UNL A   1      33.400  34.177  30.790  1.00  0.00     0.163 HD
BRANCH   4   7
ATOM      7  C   UNL A   1      36.264  33.186  32.079  1.00  0.00     0.041 A 
ATOM      8  C   UNL A   1      39.676  31.179  33.734  1.00  0.00     0.046 C 
ATOM      9  C   UNL A   1      38.526  31.851  33.044  1.00  0.00    -0.027 A 
ATOM     10  C   UNL A   1      37.250  31.265  33.154  1.00  0.00     0.006 A 
ATOM     11  C   UNL A   1      38.657  33.054  32.323  1.00  0.00     0.054 A 
ATOM     12  C   UNL A   1      36.116  31.943  32.698  1.00  0.00     0.014 A 
ATOM     13  C   UNL A   1      37.528  33.657  31.768  1.00  0.00     0.041 A 
BRANCH  11  14
ATOM     14  N   UNL A   1      39.804  33.885  32.421  1.00  0.00    -0.261 N 
ATOM     15  C   UNL A   1      40.708  33.838  31.370  1.00  0.00     0.270 C 
ATOM     16  C   UNL A   1      40.176  34.594  33.538  1.00  0.00     0.152 C 
ATOM     17  O   UNL A   1      40.538  33.175  30.349  1.00  0.00    -0.268 OA
ATOM     18  C   UNL A   1      41.924  34.650  31.662  1.00  0.00     0.084 C 
ATOM     19  S   UNL A   1      41.792  35.274  33.277  1.00  0.00    -0.054 SA
ATOM     20  S   UNL A   1      39.327  34.831  34.957  1.00  0.00    -0.051 S 
ATOM     21  C   UNL A   1      42.986  34.891  30.866  1.00  0.00     0.068 C 
BRANCH  21  22
ATOM     22  C   UNL A   1      43.045  34.439  29.517  1.00  0.00     0.134 A 
ATOM     23  N   UNL A   1      43.543  33.314  29.050  1.00  0.00    -0.229 NA
ATOM     24  N   UNL A   1      42.576  35.187  28.452  1.00  0.00    -0.328 N 
ATOM     25  C   UNL A   1      43.815  33.551  27.733  1.00  0.00     0.089 A 
ATOM     26  C   UNL A   1      43.214  34.734  27.315  1.00  0.00     0.068 A 
ATOM     27  C   UNL A   1      41.559  36.209  28.488  1.00  0.00     0.152 C 
ATOM     28  C   UNL A   1      44.596  32.807  26.840  1.00  0.00     0.030 A 
ATOM     29  C   UNL A   1      43.335  35.211  26.005  1.00  0.00     0.028 A 
ATOM     30  C   UNL A   1      44.763  33.285  25.538  1.00  0.00     0.002 A 
ATOM     31  C   UNL A   1      44.137  34.465  25.128  1.00  0.00     0.002 A 
ENDBRANCH  21  22
ENDBRANCH  11  14
ENDBRANCH   4   7
ENDBRANCH   2   3
ENDBRANCH   1   2
BRANCH   1  32
ATOM     32  C   UNL A   1      36.334  31.581  28.094  1.00  0.00     0.118 C 
BRANCH  32  33
ATOM     33  N   UNL A   1      36.692  30.294  28.960  1.00  0.00    -0.352 N 
ATOM     34  C   UNL A   1      37.802  29.355  29.272  1.00  0.00     0.251 C 
ATOM     35  H   UNL A   1      35.894  30.024  29.470  1.00  0.00     0.163 HD
ATOM     36  O   UNL A   1      37.917  29.187  30.505  1.00  0.00    -0.269 OA
BRANCH  34  37
ATOM     37  C   UNL A   1      38.946  28.549  28.451  1.00  0.00     0.039 A 
ATOM     38  C   UNL A   1      39.214  27.163  28.690  1.00  0.00     0.014 A 
ATOM     39  C   UNL A   1      39.825  29.065  27.518  1.00  0.00     0.014 A 
ATOM     40  C   UNL A   1      40.572  26.670  28.664  1.00  0.00     0.010 A 
ATOM     41  C   UNL A   1      41.162  28.573  27.454  1.00  0.00     0.010 A 
ATOM     42  C   UNL A   1      41.602  27.519  28.256  1.00  0.00    -0.014 A 
BRANCH  42  43
ATOM     43  C   UNL A   1      43.056  27.418  28.670  1.00  0.00     0.031 A 
ATOM     44  C   UNL A   1      43.843  28.640  28.801  1.00  0.00     0.074 A 
ATOM     45  C   UNL A   1      43.773  26.317  29.049  1.00  0.00     0.049 A 
ATOM     46  N   UNL A   1      44.959  28.884  28.198  1.00  0.00    -0.248 NA
ATOM     47  C   UNL A   1      43.409  29.677  29.717  1.00  0.00     0.031 C 
ATOM     48  C   UNL A   1      45.173  26.141  29.489  1.00  0.00     0.029 A 
ATOM     49  N   UNL A   1      43.368  24.997  29.070  1.00  0.00    -0.354 N 
ATOM     50  C   UNL A   1      45.527  29.937  28.886  1.00  0.00     0.074 A 
ATOM     51  C   UNL A   1      44.448  30.512  29.660  1.00  0.00     0.031 C 
ATOM     52  C   UNL A   1      45.550  24.855  29.285  1.00  0.00     0.029 A 
ATOM     53  C   UNL A   1      44.423  24.165  28.694  1.00  0.00     0.049 A 
ATOM     54  H   UNL A   1      42.465  24.687  29.314  1.00  0.00     0.167 HD
ATOM     55  C   UNL A   1      46.886  30.072  28.973  1.00  0.00     0.037 A 
ATOM     56  C   UNL A   1      44.349  23.492  27.502  1.00  0.00     0.037 A 
ATOM     57  C   UNL A   1      47.559  28.873  28.456  1.00  0.00     0.049 A 
ATOM     58  C   UNL A   1      45.357  24.015  26.523  1.00  0.00     0.074 A 
ATOM     59  C   UNL A   1      48.179  27.813  29.103  1.00  0.00     0.029 A 
ATOM     60  N   UNL A   1      47.372  28.464  27.139  1.00  0.00    -0.354 N 
ATOM     61  N   UNL A   1      45.987  25.136  26.710  1.00  0.00    -0.248 NA
ATOM     62  C   UNL A   1      45.752  23.356  25.283  1.00  0.00     0.031 C 
ATOM     63  C   UNL A   1      48.293  26.739  28.187  1.00  0.00     0.029 A 
ATOM     64  C   UNL A   1      47.768  27.149  26.974  1.00  0.00     0.049 A 
ATOM     65  H   UNL A   1      47.008  29.033  26.424  1.00  0.00     0.167 HD
ATOM     66  C   UNL A   1      46.860  25.361  25.691  1.00  0.00     0.074 A 
ATOM     67  C   UNL A   1      46.686  24.211  24.822  1.00  0.00     0.031 C 
ATOM     68  C   UNL A   1      47.643  26.479  25.683  1.00  0.00     0.037 A 
BRANCH  55  69
ATOM     69  C   UNL A   1      47.583  31.109  29.846  1.00  0.00     0.058 A 
ATOM     70  C   UNL A   1      47.765  30.907  31.232  1.00  0.00     0.135 A 
ATOM     71  C   UNL A   1      48.135  32.316  29.365  1.00  0.00     0.135 A 
ATOM     72  F   UNL A   1      47.421  29.756  31.826  1.00  0.00    -0.206 F 
ATOM     73  C   UNL A   1      48.344  31.859  32.076  1.00  0.00     0.059 A 
ATOM     74  C   UNL A   1      48.656  33.314  30.194  1.00  0.00     0.059 A 
ATOM     75  F   UNL A   1      48.276  32.547  28.051  1.00  0.00    -0.206 F 
ATOM     76  C   UNL A   1      48.764  33.073  31.553  1.00  0.00     0.060 A 
BRANCH  76  77
ATOM     77  S   UNL A   1      49.541  34.276  32.648  1.00  0.00     0.124 S 
ATOM     78  O   UNL A   1      48.393  35.019  33.159  1.00  0.00    -0.237 OA
ATOM     79  O   UNL A   1      50.220  33.416  33.610  1.00  0.00    -0.237 OA
ATOM     80  O   UNL A   1      50.422  35.030  31.759  1.00  0.00    -0.744 OA
ENDBRANCH  76  77
ENDBRANCH  55  69
BRANCH  56  81
ATOM     81  C   UNL A   1      42.965  22.983  27.136  1.00  0.00     0.058 A 
ATOM     82  C   UNL A   1      42.733  22.938  25.760  1.00  0.00     0.135 A 
ATOM     83  C   UNL A   1      42.574  21.810  27.750  1.00  0.00     0.135 A 
ATOM     84  F   UNL A   1      42.454  24.057  25.083  1.00  0.00    -0.206 F 
ATOM     85  C   UNL A   1      42.888  21.753  25.045  1.00  0.00     0.059 A 
ATOM     86  C   UNL A   1      42.608  20.621  27.011  1.00  0.00     0.059 A 
ATOM     87  F   UNL A   1      42.272  21.775  29.058  1.00  0.00    -0.206 F 
ATOM     88  C   UNL A   1      43.123  20.582  25.731  1.00  0.00     0.060 A 
BRANCH  88  89
ATOM     89  S   UNL A   1      44.206  19.153  24.841  1.00  0.00     0.124 S 
ATOM     90  O   UNL A   1      45.439  19.251  25.600  1.00  0.00    -0.237 OA
ATOM     91  O   UNL A   1      43.505  17.910  25.097  1.00  0.00    -0.237 OA
ATOM     92  O   UNL A   1      44.388  19.511  23.445  1.00  0.00    -0.744 OA
ENDBRANCH  88  89
ENDBRANCH  56  81
BRANCH  68  93
ATOM     93  C   UNL A   1      48.455  26.973  24.519  1.00  0.00     0.058 A 
ATOM     94  C   UNL A   1      49.833  26.750  24.370  1.00  0.00     0.135 A 
ATOM     95  C   UNL A   1      47.816  27.604  23.423  1.00  0.00     0.135 A 
ATOM     96  F   UNL A   1      50.534  26.036  25.262  1.00  0.00    -0.206 F 
ATOM     97  C   UNL A   1      50.546  27.216  23.269  1.00  0.00     0.059 A 
ATOM     98  C   UNL A   1      48.495  28.009  22.281  1.00  0.00     0.059 A 
ATOM     99  F   UNL A   1      46.497  27.845  23.415  1.00  0.00    -0.206 F 
ATOM    100  C   UNL A   1      49.869  27.851  22.232  1.00  0.00     0.060 A 
BRANCH 100 101
ATOM    101  S   UNL A   1      50.792  28.440  20.809  1.00  0.00     0.124 S 
ATOM    102  O   UNL A   1      52.153  28.055  21.169  1.00  0.00    -0.237 OA
ATOM    103  O   UNL A   1      50.193  27.688  19.709  1.00  0.00    -0.237 OA
ATOM    104  O   UNL A   1      50.522  29.874  20.799  1.00  0.00    -0.744 OA
ENDBRANCH 100 101
ENDBRANCH  68  93
ENDBRANCH  42  43
ENDBRANCH  34  37
ENDBRANCH  32  33
ENDBRANCH   1  32
TORSDOF 15
ENDMDL
