MODEL 1
REMARK VINA RESULT:     -12.1      0.000      0.000
REMARK SMILES O=C(CCn1cc(/C=C2/[NH+]=C(S)N(c3ccccc3)C2=O)c(-c2ccc(Br)cc2)n1)NCCCNC(=O)c1ccc(-c2c3nc(c(-c4c(F)cc(S(=O)(=O)[O-])cc4F)c4ccc([nH]4)c(-c4c(F)cc(S(=O)(=O)[O-])cc4F)c4nc(c(-c5c(F)cc(S(=O)(=O)[O-])cc5F)c5ccc2[nH]5)C=C4)C=C3)cc1
REMARK SMILES IDX 32 1 31 2 1 3 2 4 3 6 4 7 5 8 6 9 30 10 7 11 22 12 8 13 9 14
REMARK SMILES IDX 10 15 20 16 11 17 13 19 21 20 12 21 14 23 15 24 19 25 16 26
REMARK SMILES IDX 18 27 17 28 23 29 24 30 29 31 25 32 28 33 26 34 27 35 33 36
REMARK SMILES IDX 34 37 35 38 36 39 37 41 38 42 39 43 103 44 40 45 102 46
REMARK SMILES IDX 41 47 42 48 43 49 96 50 44 51 101 52 95 53 97 54 45 55
REMARK SMILES IDX 100 56 94 57 93 58 46 60 80 61 59 62 79 63 60 64 63 65 78 66
REMARK SMILES IDX 98 67 61 68 62 69 77 71 99 72 64 73 47 74 48 75 57 76 49 77
REMARK SMILES IDX 50 78 56 79 58 80 51 81 52 82 53 83 54 84 55 85 81 86 82 87
REMARK SMILES IDX 91 88 83 89 84 90 90 91 92 92 85 93 86 94 87 95 88 96 89 97
REMARK SMILES IDX 65 98 66 99 75 100 67 101 68 102 74 103 76 104 69 105 70 106
REMARK SMILES IDX 71 107 72 108 73 109
REMARK H PARENT 31 5 10 18 12 22 35 40 97 59 63 70
REMARK Flexibility Score: inf
ROOT
ATOM      1  C   UNL A   1      40.620  21.478  27.069  1.00  0.00     0.117 C 
ENDROOT
BRANCH   1   2
ATOM      2  N   UNL A   1      39.911  22.557  26.392  1.00  0.00    -0.356 N 
ATOM      3  O   UNL A   1      37.945  21.437  26.013  1.00  0.00    -0.275 OA
ATOM      4  C   UNL A   1      38.608  22.468  25.968  1.00  0.00     0.221 C 
ATOM      5  H   UNL A   1      40.395  23.398  26.230  1.00  0.00     0.163 HD
BRANCH   4   6
ATOM      6  C   UNL A   1      38.030  23.780  25.480  1.00  0.00     0.123 C 
BRANCH   6   7
ATOM      7  C   UNL A   1      36.731  24.116  26.216  1.00  0.00     0.154 C 
BRANCH   7   8
ATOM      8  N   UNL A   1      35.525  24.127  25.397  1.00  0.00    -0.271 N 
ATOM      9  C   UNL A   1      35.037  23.105  24.620  1.00  0.00     0.117 A 
ATOM     10  N   UNL A   1      34.729  25.214  25.393  1.00  0.00    -0.172 NA
ATOM     11  C   UNL A   1      33.909  23.597  23.998  1.00  0.00     0.025 A 
ATOM     12  C   UNL A   1      33.782  24.930  24.484  1.00  0.00     0.100 A 
BRANCH  11  13
ATOM     13  C   UNL A   1      32.946  22.858  23.234  1.00  0.00     0.072 C 
ATOM     14  C   UNL A   1      32.582  21.564  23.345  1.00  0.00     0.217 C 
ATOM     15  N   UNL A   1      32.130  20.855  22.258  1.00  0.00    -0.228 N 
ATOM     16  C   UNL A   1      32.801  20.593  24.465  1.00  0.00     0.386 C 
ATOM     17  C   UNL A   1      32.328  19.611  22.582  1.00  0.00     0.321 C 
ATOM     18  H   UNL A   1      31.743  21.208  21.424  1.00  0.00     0.313 HD
ATOM     19  N   UNL A   1      32.796  19.362  23.846  1.00  0.00    -0.149 N 
ATOM     20  O   UNL A   1      32.848  20.919  25.651  1.00  0.00    -0.236 OA
BRANCH  17  21
ATOM     21  S   UNL A   1      31.881  18.402  21.419  1.00  0.00    -0.055 SA
ATOM     22  H   UNL A   1      31.492  19.007  20.264  1.00  0.00     0.116 HD
ENDBRANCH  17  21
BRANCH  19  23
ATOM     23  C   UNL A   1      33.234  18.138  24.463  1.00  0.00     0.137 A 
ATOM     24  C   UNL A   1      32.444  17.436  25.394  1.00  0.00     0.052 A 
ATOM     25  C   UNL A   1      34.429  17.508  24.068  1.00  0.00     0.052 A 
ATOM     26  C   UNL A   1      32.835  16.199  25.925  1.00  0.00     0.004 A 
ATOM     27  C   UNL A   1      34.803  16.250  24.563  1.00  0.00     0.004 A 
ATOM     28  C   UNL A   1      34.005  15.598  25.491  1.00  0.00     0.000 A 
ENDBRANCH  19  23
ENDBRANCH  11  13
BRANCH  12  29
ATOM     29  C   UNL A   1      32.725  25.866  24.141  1.00  0.00     0.003 A 
ATOM     30  C   UNL A   1      31.716  26.159  25.064  1.00  0.00     0.011 A 
ATOM     31  C   UNL A   1      32.614  26.331  22.827  1.00  0.00     0.011 A 
ATOM     32  C   UNL A   1      30.636  26.959  24.688  1.00  0.00     0.016 A 
ATOM     33  C   UNL A   1      31.544  27.155  22.462  1.00  0.00     0.016 A 
ATOM     34  C   UNL A   1      30.594  27.516  23.413  1.00  0.00     0.018 A 
ATOM     35  Br  UNL A   1      29.303  28.835  22.997  1.00  0.00    -0.051 Br
ENDBRANCH  12  29
ENDBRANCH   7   8
ENDBRANCH   6   7
ENDBRANCH   4   6
ENDBRANCH   1   2
BRANCH   1  36
ATOM     36  C   UNL A   1      41.037  20.326  26.150  1.00  0.00     0.042 C 
BRANCH  36  37
ATOM     37  C   UNL A   1      42.479  19.924  26.367  1.00  0.00     0.118 C 
BRANCH  37  38
ATOM     38  N   UNL A   1      43.320  19.744  25.215  1.00  0.00    -0.352 N 
ATOM     39  C   UNL A   1      44.084  20.706  24.584  1.00  0.00     0.251 C 
ATOM     40  H   UNL A   1      43.355  18.837  24.834  1.00  0.00     0.163 HD
ATOM     41  O   UNL A   1      44.705  20.373  23.574  1.00  0.00    -0.269 OA
BRANCH  39  42
ATOM     42  C   UNL A   1      44.240  22.102  25.119  1.00  0.00     0.039 A 
ATOM     43  C   UNL A   1      45.211  22.315  26.105  1.00  0.00     0.014 A 
ATOM     44  C   UNL A   1      43.388  23.167  24.805  1.00  0.00     0.014 A 
ATOM     45  C   UNL A   1      45.200  23.500  26.844  1.00  0.00     0.010 A 
ATOM     46  C   UNL A   1      43.392  24.348  25.506  1.00  0.00     0.010 A 
ATOM     47  C   UNL A   1      44.219  24.471  26.596  1.00  0.00    -0.014 A 
BRANCH  47  48
ATOM     48  C   UNL A   1      44.121  25.691  27.388  1.00  0.00     0.031 A 
ATOM     49  C   UNL A   1      45.310  26.529  27.236  1.00  0.00     0.074 A 
ATOM     50  C   UNL A   1      43.017  26.098  28.053  1.00  0.00     0.049 A 
ATOM     51  N   UNL A   1      46.197  26.787  28.130  1.00  0.00    -0.248 NA
ATOM     52  C   UNL A   1      45.656  26.969  25.874  1.00  0.00     0.031 C 
ATOM     53  C   UNL A   1      41.725  25.422  28.000  1.00  0.00     0.029 A 
ATOM     54  N   UNL A   1      42.748  27.195  28.836  1.00  0.00    -0.354 N 
ATOM     55  C   UNL A   1      47.022  27.708  27.518  1.00  0.00     0.074 A 
ATOM     56  C   UNL A   1      46.822  27.576  26.096  1.00  0.00     0.031 C 
ATOM     57  C   UNL A   1      40.793  26.135  28.646  1.00  0.00     0.029 A 
ATOM     58  C   UNL A   1      41.387  27.368  29.106  1.00  0.00     0.049 A 
ATOM     59  H   UNL A   1      43.446  27.802  29.172  1.00  0.00     0.167 HD
ATOM     60  C   UNL A   1      47.476  28.771  28.228  1.00  0.00     0.037 A 
ATOM     61  C   UNL A   1      40.718  28.452  29.578  1.00  0.00     0.037 A 
ATOM     62  C   UNL A   1      47.395  28.555  29.650  1.00  0.00     0.049 A 
ATOM     63  C   UNL A   1      41.699  29.303  30.298  1.00  0.00     0.074 A 
ATOM     64  C   UNL A   1      47.823  27.528  30.470  1.00  0.00     0.029 A 
ATOM     65  N   UNL A   1      46.458  29.262  30.368  1.00  0.00    -0.354 N 
ATOM     66  N   UNL A   1      42.243  28.985  31.444  1.00  0.00    -0.248 NA
ATOM     67  C   UNL A   1      42.438  30.298  29.533  1.00  0.00     0.031 C 
ATOM     68  C   UNL A   1      46.842  27.418  31.488  1.00  0.00     0.029 A 
ATOM     69  C   UNL A   1      45.903  28.439  31.321  1.00  0.00     0.049 A 
ATOM     70  H   UNL A   1      46.224  30.207  30.224  1.00  0.00     0.167 HD
ATOM     71  C   UNL A   1      43.580  29.329  31.304  1.00  0.00     0.074 A 
ATOM     72  C   UNL A   1      43.605  30.260  30.181  1.00  0.00     0.031 C 
ATOM     73  C   UNL A   1      44.574  28.602  31.901  1.00  0.00     0.037 A 
BRANCH  60  74
ATOM     74  C   UNL A   1      47.597  30.111  27.581  1.00  0.00     0.058 A 
ATOM     75  C   UNL A   1      48.844  30.734  27.479  1.00  0.00     0.135 A 
ATOM     76  C   UNL A   1      46.469  30.887  27.221  1.00  0.00     0.135 A 
ATOM     77  F   UNL A   1      49.957  30.090  27.865  1.00  0.00    -0.206 F 
ATOM     78  C   UNL A   1      48.967  32.046  27.028  1.00  0.00     0.059 A 
ATOM     79  C   UNL A   1      46.573  32.165  26.700  1.00  0.00     0.059 A 
ATOM     80  F   UNL A   1      45.217  30.460  27.441  1.00  0.00    -0.206 F 
ATOM     81  C   UNL A   1      47.825  32.748  26.638  1.00  0.00     0.060 A 
BRANCH  81  82
ATOM     82  S   UNL A   1      47.971  34.461  26.113  1.00  0.00     0.124 S 
ATOM     83  O   UNL A   1      47.019  34.500  25.009  1.00  0.00    -0.237 OA
ATOM     84  O   UNL A   1      47.588  35.186  27.319  1.00  0.00    -0.237 OA
ATOM     85  O   UNL A   1      49.379  34.576  25.741  1.00  0.00    -0.744 OA
ENDBRANCH  81  82
ENDBRANCH  60  74
BRANCH  61  86
ATOM     86  C   UNL A   1      39.311  28.841  29.229  1.00  0.00     0.058 A 
ATOM     87  C   UNL A   1      38.296  28.981  30.191  1.00  0.00     0.135 A 
ATOM     88  C   UNL A   1      38.959  29.280  27.927  1.00  0.00     0.135 A 
ATOM     89  F   UNL A   1      38.528  28.648  31.469  1.00  0.00    -0.206 F 
ATOM     90  C   UNL A   1      37.035  29.527  29.883  1.00  0.00     0.059 A 
ATOM     91  C   UNL A   1      37.705  29.773  27.587  1.00  0.00     0.059 A 
ATOM     92  F   UNL A   1      39.859  29.348  26.937  1.00  0.00    -0.206 F 
ATOM     93  C   UNL A   1      36.753  29.928  28.577  1.00  0.00     0.060 A 
BRANCH  93  94
ATOM     94  S   UNL A   1      35.218  30.804  28.189  1.00  0.00     0.124 S 
ATOM     95  O   UNL A   1      35.679  31.852  27.286  1.00  0.00    -0.237 OA
ATOM     96  O   UNL A   1      34.410  29.747  27.587  1.00  0.00    -0.237 OA
ATOM     97  O   UNL A   1      34.752  31.269  29.494  1.00  0.00    -0.744 OA
ENDBRANCH  93  94
ENDBRANCH  61  86
BRANCH  73  98
ATOM     98  C   UNL A   1      44.258  27.738  33.116  1.00  0.00     0.058 A 
ATOM     99  C   UNL A   1      43.930  26.369  33.110  1.00  0.00     0.135 A 
ATOM    100  C   UNL A   1      44.426  28.327  34.389  1.00  0.00     0.135 A 
ATOM    101  F   UNL A   1      43.851  25.670  31.968  1.00  0.00    -0.206 F 
ATOM    102  C   UNL A   1      43.734  25.648  34.298  1.00  0.00     0.059 A 
ATOM    103  C   UNL A   1      44.307  27.611  35.578  1.00  0.00     0.059 A 
ATOM    104  F   UNL A   1      44.761  29.624  34.495  1.00  0.00    -0.206 F 
ATOM    105  C   UNL A   1      43.951  26.270  35.527  1.00  0.00     0.060 A 
BRANCH 105 106
ATOM    106  S   UNL A   1      43.735  25.346  37.066  1.00  0.00     0.124 S 
ATOM    107  O   UNL A   1      44.569  24.166  36.857  1.00  0.00    -0.237 OA
ATOM    108  O   UNL A   1      44.220  26.292  38.064  1.00  0.00    -0.237 OA
ATOM    109  O   UNL A   1      42.298  25.090  37.108  1.00  0.00    -0.744 OA
ENDBRANCH 105 106
ENDBRANCH  73  98
ENDBRANCH  47  48
ENDBRANCH  39  42
ENDBRANCH  37  38
ENDBRANCH  36  37
ENDBRANCH   1  36
TORSDOF 19
ENDMDL
MODEL 2
REMARK VINA RESULT:     -12.1      2.725      5.012
REMARK SMILES O=C(CCn1cc(/C=C2/[NH+]=C(S)N(c3ccccc3)C2=O)c(-c2ccc(Br)cc2)n1)NCCCNC(=O)c1ccc(-c2c3nc(c(-c4c(F)cc(S(=O)(=O)[O-])cc4F)c4ccc([nH]4)c(-c4c(F)cc(S(=O)(=O)[O-])cc4F)c4nc(c(-c5c(F)cc(S(=O)(=O)[O-])cc5F)c5ccc2[nH]5)C=C4)C=C3)cc1
REMARK SMILES IDX 32 1 31 2 1 3 2 4 3 6 4 7 5 8 6 9 30 10 7 11 22 12 8 13 9 14
REMARK SMILES IDX 10 15 20 16 11 17 13 19 21 20 12 21 14 23 15 24 19 25 16 26
REMARK SMILES IDX 18 27 17 28 23 29 24 30 29 31 25 32 28 33 26 34 27 35 33 36
REMARK SMILES IDX 34 37 35 38 36 39 37 41 38 42 39 43 103 44 40 45 102 46
REMARK SMILES IDX 41 47 42 48 43 49 96 50 44 51 101 52 95 53 97 54 45 55
REMARK SMILES IDX 100 56 94 57 93 58 46 60 80 61 59 62 79 63 60 64 63 65 78 66
REMARK SMILES IDX 98 67 61 68 62 69 77 71 99 72 64 73 47 74 48 75 57 76 49 77
REMARK SMILES IDX 50 78 56 79 58 80 51 81 52 82 53 83 54 84 55 85 81 86 82 87
REMARK SMILES IDX 91 88 83 89 84 90 90 91 92 92 85 93 86 94 87 95 88 96 89 97
REMARK SMILES IDX 65 98 66 99 75 100 67 101 68 102 74 103 76 104 69 105 70 106
REMARK SMILES IDX 71 107 72 108 73 109
REMARK H PARENT 31 5 10 18 12 22 35 40 97 59 63 70
REMARK Flexibility Score: inf
ROOT
ATOM      1  C   UNL A   1      36.105  20.485  25.156  1.00  0.00     0.117 C 
ENDROOT
BRANCH   1   2
ATOM      2  N   UNL A   1      34.762  19.988  24.881  1.00  0.00    -0.356 N 
ATOM      3  O   UNL A   1      35.330  17.810  24.439  1.00  0.00    -0.275 OA
ATOM      4  C   UNL A   1      34.475  18.675  24.599  1.00  0.00     0.221 C 
ATOM      5  H   UNL A   1      34.018  20.632  24.898  1.00  0.00     0.163 HD
BRANCH   4   6
ATOM      6  C   UNL A   1      32.994  18.367  24.552  1.00  0.00     0.123 C 
BRANCH   6   7
ATOM      7  C   UNL A   1      32.260  19.333  23.619  1.00  0.00     0.154 C 
BRANCH   7   8
ATOM      8  N   UNL A   1      32.223  20.724  24.051  1.00  0.00    -0.271 N 
ATOM      9  C   UNL A   1      31.631  21.229  25.182  1.00  0.00     0.117 A 
ATOM     10  N   UNL A   1      32.860  21.666  23.327  1.00  0.00    -0.172 NA
ATOM     11  C   UNL A   1      31.813  22.595  25.137  1.00  0.00     0.025 A 
ATOM     12  C   UNL A   1      32.552  22.821  23.941  1.00  0.00     0.100 A 
BRANCH  11  13
ATOM     13  C   UNL A   1      31.540  23.542  26.179  1.00  0.00     0.072 C 
ATOM     14  C   UNL A   1      31.029  24.787  26.087  1.00  0.00     0.217 C 
ATOM     15  N   UNL A   1      31.348  25.758  27.005  1.00  0.00    -0.228 N 
ATOM     16  C   UNL A   1      30.296  25.447  24.959  1.00  0.00     0.386 C 
ATOM     17  C   UNL A   1      31.104  26.876  26.386  1.00  0.00     0.321 C 
ATOM     18  H   UNL A   1      31.682  25.636  27.923  1.00  0.00     0.313 HD
ATOM     19  N   UNL A   1      30.550  26.790  25.136  1.00  0.00    -0.149 N 
ATOM     20  O   UNL A   1      29.568  24.843  24.172  1.00  0.00    -0.236 OA
BRANCH  17  21
ATOM     21  S   UNL A   1      31.412  28.350  27.251  1.00  0.00    -0.055 SA
ATOM     22  H   UNL A   1      30.250  29.044  27.392  1.00  0.00     0.116 HD
ENDBRANCH  17  21
BRANCH  19  23
ATOM     23  C   UNL A   1      30.283  27.807  24.153  1.00  0.00     0.137 A 
ATOM     24  C   UNL A   1      31.302  28.602  23.592  1.00  0.00     0.052 A 
ATOM     25  C   UNL A   1      28.998  27.971  23.603  1.00  0.00     0.052 A 
ATOM     26  C   UNL A   1      31.050  29.529  22.570  1.00  0.00     0.004 A 
ATOM     27  C   UNL A   1      28.749  28.865  22.552  1.00  0.00     0.004 A 
ATOM     28  C   UNL A   1      29.777  29.643  22.037  1.00  0.00     0.000 A 
ENDBRANCH  19  23
ENDBRANCH  11  13
BRANCH  12  29
ATOM     29  C   UNL A   1      33.016  24.109  23.455  1.00  0.00     0.003 A 
ATOM     30  C   UNL A   1      33.805  24.927  24.271  1.00  0.00     0.011 A 
ATOM     31  C   UNL A   1      32.523  24.611  22.248  1.00  0.00     0.011 A 
ATOM     32  C   UNL A   1      34.144  26.214  23.851  1.00  0.00     0.016 A 
ATOM     33  C   UNL A   1      32.887  25.892  21.818  1.00  0.00     0.016 A 
ATOM     34  C   UNL A   1      33.748  26.662  22.594  1.00  0.00     0.018 A 
ATOM     35  Br  UNL A   1      34.451  28.274  21.897  1.00  0.00    -0.051 Br
ENDBRANCH  12  29
ENDBRANCH   7   8
ENDBRANCH   6   7
ENDBRANCH   4   6
ENDBRANCH   1   2
BRANCH   1  36
ATOM     36  C   UNL A   1      36.274  21.992  24.940  1.00  0.00     0.042 C 
BRANCH  36  37
ATOM     37  C   UNL A   1      37.511  22.526  25.627  1.00  0.00     0.118 C 
BRANCH  37  38
ATOM     38  N   UNL A   1      38.735  21.780  25.510  1.00  0.00    -0.352 N 
ATOM     39  C   UNL A   1      39.958  22.095  26.069  1.00  0.00     0.251 C 
ATOM     40  H   UNL A   1      38.697  20.956  24.973  1.00  0.00     0.163 HD
ATOM     41  O   UNL A   1      40.911  21.357  25.815  1.00  0.00    -0.269 OA
BRANCH  39  42
ATOM     42  C   UNL A   1      40.148  23.245  27.018  1.00  0.00     0.039 A 
ATOM     43  C   UNL A   1      39.355  24.384  26.824  1.00  0.00     0.014 A 
ATOM     44  C   UNL A   1      41.156  23.312  27.985  1.00  0.00     0.014 A 
ATOM     45  C   UNL A   1      39.687  25.577  27.469  1.00  0.00     0.010 A 
ATOM     46  C   UNL A   1      41.468  24.474  28.647  1.00  0.00     0.010 A 
ATOM     47  C   UNL A   1      40.810  25.631  28.307  1.00  0.00    -0.014 A 
BRANCH  47  48
ATOM     48  C   UNL A   1      41.240  26.869  28.946  1.00  0.00     0.031 A 
ATOM     49  C   UNL A   1      42.438  27.415  28.311  1.00  0.00     0.074 A 
ATOM     50  C   UNL A   1      40.545  27.533  29.897  1.00  0.00     0.049 A 
ATOM     51  N   UNL A   1      43.616  27.500  28.819  1.00  0.00    -0.248 NA
ATOM     52  C   UNL A   1      42.360  27.721  26.872  1.00  0.00     0.031 C 
ATOM     53  C   UNL A   1      39.213  27.159  30.358  1.00  0.00     0.029 A 
ATOM     54  N   UNL A   1      40.791  28.688  30.599  1.00  0.00    -0.354 N 
ATOM     55  C   UNL A   1      44.335  28.194  27.867  1.00  0.00     0.074 A 
ATOM     56  C   UNL A   1      43.623  28.061  26.619  1.00  0.00     0.031 C 
ATOM     57  C   UNL A   1      38.728  28.083  31.198  1.00  0.00     0.029 A 
ATOM     58  C   UNL A   1      39.676  29.168  31.293  1.00  0.00     0.049 A 
ATOM     59  H   UNL A   1      41.668  29.136  30.611  1.00  0.00     0.167 HD
ATOM     60  C   UNL A   1      45.209  29.153  28.260  1.00  0.00     0.037 A 
ATOM     61  C   UNL A   1      39.443  30.390  31.840  1.00  0.00     0.037 A 
ATOM     62  C   UNL A   1      45.596  29.009  29.641  1.00  0.00     0.049 A 
ATOM     63  C   UNL A   1      40.762  31.025  32.089  1.00  0.00     0.074 A 
ATOM     64  C   UNL A   1      46.076  27.941  30.375  1.00  0.00     0.029 A 
ATOM     65  N   UNL A   1      45.132  29.931  30.551  1.00  0.00    -0.354 N 
ATOM     66  N   UNL A   1      41.603  30.634  33.011  1.00  0.00    -0.248 NA
ATOM     67  C   UNL A   1      41.362  31.805  31.015  1.00  0.00     0.031 C 
ATOM     68  C   UNL A   1      45.517  28.087  31.671  1.00  0.00     0.029 A 
ATOM     69  C   UNL A   1      44.799  29.284  31.719  1.00  0.00     0.049 A 
ATOM     70  H   UNL A   1      45.052  30.899  30.392  1.00  0.00     0.167 HD
ATOM     71  C   UNL A   1      42.843  30.667  32.391  1.00  0.00     0.074 A 
ATOM     72  C   UNL A   1      42.652  31.531  31.231  1.00  0.00     0.031 C 
ATOM     73  C   UNL A   1      43.821  29.758  32.693  1.00  0.00     0.037 A 
BRANCH  60  74
ATOM     74  C   UNL A   1      45.354  30.410  27.468  1.00  0.00     0.058 A 
ATOM     75  C   UNL A   1      46.607  30.798  26.986  1.00  0.00     0.135 A 
ATOM     76  C   UNL A   1      44.303  31.348  27.329  1.00  0.00     0.135 A 
ATOM     77  F   UNL A   1      47.672  29.995  27.140  1.00  0.00    -0.206 F 
ATOM     78  C   UNL A   1      46.803  32.039  26.384  1.00  0.00     0.059 A 
ATOM     79  C   UNL A   1      44.456  32.554  26.668  1.00  0.00     0.059 A 
ATOM     80  F   UNL A   1      43.107  31.160  27.905  1.00  0.00    -0.206 F 
ATOM     81  C   UNL A   1      45.719  32.905  26.228  1.00  0.00     0.060 A 
BRANCH  81  82
ATOM     82  S   UNL A   1      45.977  34.531  25.507  1.00  0.00     0.124 S 
ATOM     83  O   UNL A   1      47.418  34.515  25.281  1.00  0.00    -0.237 OA
ATOM     84  O   UNL A   1      45.138  34.475  24.315  1.00  0.00    -0.237 OA
ATOM     85  O   UNL A   1      45.509  35.437  26.553  1.00  0.00    -0.744 OA
ENDBRANCH  81  82
ENDBRANCH  60  74
BRANCH  61  86
ATOM     86  C   UNL A   1      38.109  31.069  31.947  1.00  0.00     0.058 A 
ATOM     87  C   UNL A   1      37.482  31.332  33.177  1.00  0.00     0.135 A 
ATOM     88  C   UNL A   1      37.483  31.663  30.822  1.00  0.00     0.135 A 
ATOM     89  F   UNL A   1      38.012  30.867  34.318  1.00  0.00    -0.206 F 
ATOM     90  C   UNL A   1      36.329  32.134  33.279  1.00  0.00     0.059 A 
ATOM     91  C   UNL A   1      36.315  32.414  30.891  1.00  0.00     0.059 A 
ATOM     92  F   UNL A   1      38.037  31.628  29.603  1.00  0.00    -0.206 F 
ATOM     93  C   UNL A   1      35.758  32.678  32.128  1.00  0.00     0.060 A 
BRANCH  93  94
ATOM     94  S   UNL A   1      34.394  33.861  32.242  1.00  0.00     0.124 S 
ATOM     95  O   UNL A   1      35.058  35.049  32.764  1.00  0.00    -0.237 OA
ATOM     96  O   UNL A   1      33.940  33.935  30.857  1.00  0.00    -0.237 OA
ATOM     97  O   UNL A   1      33.460  33.217  33.164  1.00  0.00    -0.744 OA
ENDBRANCH  93  94
ENDBRANCH  61  86
BRANCH  73  98
ATOM     98  C   UNL A   1      43.792  29.027  34.031  1.00  0.00     0.058 A 
ATOM     99  C   UNL A   1      43.003  27.909  34.359  1.00  0.00     0.135 A 
ATOM    100  C   UNL A   1      44.734  29.427  35.005  1.00  0.00     0.135 A 
ATOM    101  F   UNL A   1      42.151  27.366  33.477  1.00  0.00    -0.206 F 
ATOM    102  C   UNL A   1      43.113  27.263  35.599  1.00  0.00     0.059 A 
ATOM    103  C   UNL A   1      44.908  28.754  36.212  1.00  0.00     0.059 A 
ATOM    104  F   UNL A   1      45.547  30.471  34.772  1.00  0.00    -0.206 F 
ATOM    105  C   UNL A   1      44.086  27.674  36.509  1.00  0.00     0.060 A 
BRANCH 105 106
ATOM    106  S   UNL A   1      44.263  26.831  38.098  1.00  0.00     0.124 S 
ATOM    107  O   UNL A   1      44.704  27.901  38.987  1.00  0.00    -0.237 OA
ATOM    108  O   UNL A   1      42.913  26.330  38.333  1.00  0.00    -0.237 OA
ATOM    109  O   UNL A   1      45.262  25.800  37.825  1.00  0.00    -0.744 OA
ENDBRANCH 105 106
ENDBRANCH  73  98
ENDBRANCH  47  48
ENDBRANCH  39  42
ENDBRANCH  37  38
ENDBRANCH  36  37
ENDBRANCH   1  36
TORSDOF 19
ENDMDL
MODEL 3
REMARK VINA RESULT:     -12.0      1.217      2.087
REMARK SMILES O=C(CCn1cc(/C=C2/[NH+]=C(S)N(c3ccccc3)C2=O)c(-c2ccc(Br)cc2)n1)NCCCNC(=O)c1ccc(-c2c3nc(c(-c4c(F)cc(S(=O)(=O)[O-])cc4F)c4ccc([nH]4)c(-c4c(F)cc(S(=O)(=O)[O-])cc4F)c4nc(c(-c5c(F)cc(S(=O)(=O)[O-])cc5F)c5ccc2[nH]5)C=C4)C=C3)cc1
REMARK SMILES IDX 32 1 31 2 1 3 2 4 3 6 4 7 5 8 6 9 30 10 7 11 22 12 8 13 9 14
REMARK SMILES IDX 10 15 20 16 11 17 13 19 21 20 12 21 14 23 15 24 19 25 16 26
REMARK SMILES IDX 18 27 17 28 23 29 24 30 29 31 25 32 28 33 26 34 27 35 33 36
REMARK SMILES IDX 34 37 35 38 36 39 37 41 38 42 39 43 103 44 40 45 102 46
REMARK SMILES IDX 41 47 42 48 43 49 96 50 44 51 101 52 95 53 97 54 45 55
REMARK SMILES IDX 100 56 94 57 93 58 46 60 80 61 59 62 79 63 60 64 63 65 78 66
REMARK SMILES IDX 98 67 61 68 62 69 77 71 99 72 64 73 47 74 48 75 57 76 49 77
REMARK SMILES IDX 50 78 56 79 58 80 51 81 52 82 53 83 54 84 55 85 81 86 82 87
REMARK SMILES IDX 91 88 83 89 84 90 90 91 92 92 85 93 86 94 87 95 88 96 89 97
REMARK SMILES IDX 65 98 66 99 75 100 67 101 68 102 74 103 76 104 69 105 70 106
REMARK SMILES IDX 71 107 72 108 73 109
REMARK H PARENT 31 5 10 18 12 22 35 40 97 59 63 70
REMARK Flexibility Score: inf
ROOT
ATOM      1  C   UNL A   1      40.402  21.107  27.044  1.00  0.00     0.117 C 
ENDROOT
BRANCH   1   2
ATOM      2  N   UNL A   1      39.312  21.714  26.290  1.00  0.00    -0.356 N 
ATOM      3  O   UNL A   1      39.390  23.790  27.262  1.00  0.00    -0.275 OA
ATOM      4  C   UNL A   1      38.930  23.026  26.420  1.00  0.00     0.221 C 
ATOM      5  H   UNL A   1      38.821  21.149  25.651  1.00  0.00     0.163 HD
BRANCH   4   6
ATOM      6  C   UNL A   1      37.915  23.475  25.390  1.00  0.00     0.123 C 
BRANCH   6   7
ATOM      7  C   UNL A   1      36.686  24.093  26.061  1.00  0.00     0.154 C 
BRANCH   7   8
ATOM      8  N   UNL A   1      35.470  24.111  25.260  1.00  0.00    -0.271 N 
ATOM      9  C   UNL A   1      34.967  23.094  24.487  1.00  0.00     0.117 A 
ATOM     10  N   UNL A   1      34.679  25.203  25.268  1.00  0.00    -0.172 NA
ATOM     11  C   UNL A   1      33.833  23.592  23.882  1.00  0.00     0.025 A 
ATOM     12  C   UNL A   1      33.718  24.924  24.372  1.00  0.00     0.100 A 
BRANCH  11  13
ATOM     13  C   UNL A   1      32.856  22.859  23.129  1.00  0.00     0.072 C 
ATOM     14  C   UNL A   1      32.506  21.559  23.224  1.00  0.00     0.217 C 
ATOM     15  N   UNL A   1      32.031  20.868  22.136  1.00  0.00    -0.228 N 
ATOM     16  C   UNL A   1      32.765  20.569  24.318  1.00  0.00     0.386 C 
ATOM     17  C   UNL A   1      32.250  19.620  22.429  1.00  0.00     0.321 C 
ATOM     18  H   UNL A   1      31.618  21.234  21.321  1.00  0.00     0.313 HD
ATOM     19  N   UNL A   1      32.755  19.350  23.675  1.00  0.00    -0.149 N 
ATOM     20  O   UNL A   1      32.842  20.871  25.508  1.00  0.00    -0.236 OA
BRANCH  17  21
ATOM     21  S   UNL A   1      31.782  18.430  21.254  1.00  0.00    -0.055 SA
ATOM     22  H   UNL A   1      31.467  17.268  21.887  1.00  0.00     0.116 HD
ENDBRANCH  17  21
BRANCH  19  23
ATOM     23  C   UNL A   1      33.221  18.118  24.254  1.00  0.00     0.137 A 
ATOM     24  C   UNL A   1      34.564  17.703  24.167  1.00  0.00     0.052 A 
ATOM     25  C   UNL A   1      32.379  17.324  25.054  1.00  0.00     0.052 A 
ATOM     26  C   UNL A   1      35.033  16.547  24.810  1.00  0.00     0.004 A 
ATOM     27  C   UNL A   1      32.853  16.192  25.734  1.00  0.00     0.004 A 
ATOM     28  C   UNL A   1      34.180  15.806  25.610  1.00  0.00     0.000 A 
ENDBRANCH  19  23
ENDBRANCH  11  13
BRANCH  12  29
ATOM     29  C   UNL A   1      32.661  25.866  24.045  1.00  0.00     0.003 A 
ATOM     30  C   UNL A   1      32.930  26.973  23.232  1.00  0.00     0.011 A 
ATOM     31  C   UNL A   1      31.424  25.767  24.688  1.00  0.00     0.011 A 
ATOM     32  C   UNL A   1      31.946  27.941  23.023  1.00  0.00     0.016 A 
ATOM     33  C   UNL A   1      30.432  26.725  24.454  1.00  0.00     0.016 A 
ATOM     34  C   UNL A   1      30.678  27.773  23.572  1.00  0.00     0.018 A 
ATOM     35  Br  UNL A   1      29.261  28.913  23.050  1.00  0.00    -0.051 Br
ENDBRANCH  12  29
ENDBRANCH   7   8
ENDBRANCH   6   7
ENDBRANCH   4   6
ENDBRANCH   1   2
BRANCH   1  36
ATOM     36  C   UNL A   1      41.178  20.033  26.275  1.00  0.00     0.042 C 
BRANCH  36  37
ATOM     37  C   UNL A   1      42.670  20.279  26.312  1.00  0.00     0.118 C 
BRANCH  37  38
ATOM     38  N   UNL A   1      43.303  20.825  25.142  1.00  0.00    -0.352 N 
ATOM     39  C   UNL A   1      43.521  22.159  24.861  1.00  0.00     0.251 C 
ATOM     40  H   UNL A   1      43.615  20.178  24.469  1.00  0.00     0.163 HD
ATOM     41  O   UNL A   1      44.037  22.440  23.778  1.00  0.00    -0.269 OA
BRANCH  39  42
ATOM     42  C   UNL A   1      43.222  23.258  25.842  1.00  0.00     0.039 A 
ATOM     43  C   UNL A   1      42.454  24.339  25.392  1.00  0.00     0.014 A 
ATOM     44  C   UNL A   1      43.778  23.345  27.124  1.00  0.00     0.014 A 
ATOM     45  C   UNL A   1      42.396  25.511  26.149  1.00  0.00     0.010 A 
ATOM     46  C   UNL A   1      43.698  24.483  27.888  1.00  0.00     0.010 A 
ATOM     47  C   UNL A   1      43.107  25.602  27.354  1.00  0.00    -0.014 A 
BRANCH  47  48
ATOM     48  C   UNL A   1      43.138  26.828  28.144  1.00  0.00     0.031 A 
ATOM     49  C   UNL A   1      44.380  27.569  27.939  1.00  0.00     0.074 A 
ATOM     50  C   UNL A   1      42.097  27.320  28.853  1.00  0.00     0.049 A 
ATOM     51  N   UNL A   1      45.322  27.759  28.794  1.00  0.00    -0.248 NA
ATOM     52  C   UNL A   1      44.703  27.980  26.562  1.00  0.00     0.031 C 
ATOM     53  C   UNL A   1      40.756  26.746  28.857  1.00  0.00     0.029 A 
ATOM     54  N   UNL A   1      41.947  28.435  29.641  1.00  0.00    -0.354 N 
ATOM     55  C   UNL A   1      46.189  28.613  28.144  1.00  0.00     0.074 A 
ATOM     56  C   UNL A   1      45.920  28.495  26.732  1.00  0.00     0.031 C 
ATOM     57  C   UNL A   1      39.910  27.530  29.538  1.00  0.00     0.029 A 
ATOM     58  C   UNL A   1      40.617  28.713  29.968  1.00  0.00     0.049 A 
ATOM     59  H   UNL A   1      42.704  28.986  29.946  1.00  0.00     0.167 HD
ATOM     60  C   UNL A   1      46.754  29.638  28.830  1.00  0.00     0.037 A 
ATOM     61  C   UNL A   1      40.054  29.847  30.462  1.00  0.00     0.037 A 
ATOM     62  C   UNL A   1      46.716  29.430  30.255  1.00  0.00     0.049 A 
ATOM     63  C   UNL A   1      41.128  30.620  31.137  1.00  0.00     0.074 A 
ATOM     64  C   UNL A   1      47.097  28.374  31.061  1.00  0.00     0.029 A 
ATOM     65  N   UNL A   1      45.868  30.209  31.008  1.00  0.00    -0.354 N 
ATOM     66  N   UNL A   1      41.693  30.262  32.260  1.00  0.00    -0.248 NA
ATOM     67  C   UNL A   1      41.909  31.554  30.338  1.00  0.00     0.031 C 
ATOM     68  C   UNL A   1      46.154  28.341  32.120  1.00  0.00     0.029 A 
ATOM     69  C   UNL A   1      45.291  29.432  31.987  1.00  0.00     0.049 A 
ATOM     70  H   UNL A   1      45.702  31.169  30.870  1.00  0.00     0.167 HD
ATOM     71  C   UNL A   1      43.046  30.500  32.064  1.00  0.00     0.074 A 
ATOM     72  C   UNL A   1      43.096  31.426  30.937  1.00  0.00     0.031 C 
ATOM     73  C   UNL A   1      44.005  29.699  32.622  1.00  0.00     0.037 A 
BRANCH  60  74
ATOM     74  C   UNL A   1      46.951  30.964  28.173  1.00  0.00     0.058 A 
ATOM     75  C   UNL A   1      45.848  31.714  27.756  1.00  0.00     0.135 A 
ATOM     76  C   UNL A   1      48.225  31.433  27.772  1.00  0.00     0.135 A 
ATOM     77  F   UNL A   1      44.602  31.300  28.035  1.00  0.00    -0.206 F 
ATOM     78  C   UNL A   1      46.000  32.874  27.000  1.00  0.00     0.059 A 
ATOM     79  C   UNL A   1      48.405  32.622  27.088  1.00  0.00     0.059 A 
ATOM     80  F   UNL A   1      49.337  30.709  27.963  1.00  0.00    -0.206 F 
ATOM     81  C   UNL A   1      47.283  33.318  26.677  1.00  0.00     0.060 A 
BRANCH  81  82
ATOM     82  S   UNL A   1      47.485  34.781  25.651  1.00  0.00     0.124 S 
ATOM     83  O   UNL A   1      47.365  35.842  26.645  1.00  0.00    -0.237 OA
ATOM     84  O   UNL A   1      48.814  34.578  25.085  1.00  0.00    -0.237 OA
ATOM     85  O   UNL A   1      46.382  34.675  24.700  1.00  0.00    -0.744 OA
ENDBRANCH  81  82
ENDBRANCH  60  74
BRANCH  61  86
ATOM     86  C   UNL A   1      38.668  30.344  30.171  1.00  0.00     0.058 A 
ATOM     87  C   UNL A   1      37.862  30.971  31.136  1.00  0.00     0.135 A 
ATOM     88  C   UNL A   1      38.154  30.386  28.850  1.00  0.00     0.135 A 
ATOM     89  F   UNL A   1      38.270  31.042  32.412  1.00  0.00    -0.206 F 
ATOM     90  C   UNL A   1      36.646  31.601  30.810  1.00  0.00     0.059 A 
ATOM     91  C   UNL A   1      36.931  30.954  28.512  1.00  0.00     0.059 A 
ATOM     92  F   UNL A   1      38.867  29.962  27.799  1.00  0.00    -0.206 F 
ATOM     93  C   UNL A   1      36.194  31.594  29.490  1.00  0.00     0.060 A 
BRANCH  93  94
ATOM     94  S   UNL A   1      34.737  32.551  29.006  1.00  0.00     0.124 S 
ATOM     95  O   UNL A   1      34.006  31.604  28.174  1.00  0.00    -0.237 OA
ATOM     96  O   UNL A   1      34.138  32.866  30.299  1.00  0.00    -0.237 OA
ATOM     97  O   UNL A   1      35.303  33.696  28.294  1.00  0.00    -0.744 OA
ENDBRANCH  93  94
ENDBRANCH  61  86
BRANCH  73  98
ATOM     98  C   UNL A   1      43.674  28.863  33.853  1.00  0.00     0.058 A 
ATOM     99  C   UNL A   1      43.841  29.245  35.197  1.00  0.00     0.135 A 
ATOM    100  C   UNL A   1      43.021  27.629  33.638  1.00  0.00     0.135 A 
ATOM    101  F   UNL A   1      44.348  30.442  35.530  1.00  0.00    -0.206 F 
ATOM    102  C   UNL A   1      43.429  28.425  36.258  1.00  0.00     0.059 A 
ATOM    103  C   UNL A   1      42.538  26.835  34.677  1.00  0.00     0.059 A 
ATOM    104  F   UNL A   1      42.795  27.191  32.388  1.00  0.00    -0.206 F 
ATOM    105  C   UNL A   1      42.754  27.235  35.989  1.00  0.00     0.060 A 
BRANCH 105 106
ATOM    106  S   UNL A   1      42.186  26.183  37.345  1.00  0.00     0.124 S 
ATOM    107  O   UNL A   1      40.795  26.592  37.513  1.00  0.00    -0.237 OA
ATOM    108  O   UNL A   1      42.390  24.844  36.803  1.00  0.00    -0.237 OA
ATOM    109  O   UNL A   1      43.075  26.542  38.447  1.00  0.00    -0.744 OA
ENDBRANCH 105 106
ENDBRANCH  73  98
ENDBRANCH  47  48
ENDBRANCH  39  42
ENDBRANCH  37  38
ENDBRANCH  36  37
ENDBRANCH   1  36
TORSDOF 19
ENDMDL
