MODEL 1
REMARK VINA RESULT:     -12.0      0.000      0.000
REMARK SMILES Nc1ccc(N2CC3(CCC3)C2)c(C(=O)NCCCNC(=O)c2ccc(-c3c4nc(c(-c5c(F)cc(S(=O)(=O)[O-])cc5F)c5ccc([nH]5)c(-c5c(F)cc(S(=O)(=O)[O-])cc5F)c5nc(c(-c6c(F)cc(S(=O)(=O)[O-])cc6F)c6ccc3[nH]6)C=C5)C=C4)cc2)c1
REMARK SMILES IDX 19 1 18 2 17 3 16 4 14 5 15 6 13 8 2 9 3 10 89 11 4 12 5 13
REMARK SMILES IDX 1 14 6 17 7 18 12 19 8 20 9 21 11 22 10 23 20 24 21 25 22 27
REMARK SMILES IDX 23 28 24 29 88 30 25 31 87 32 26 33 27 34 28 35 81 36 29 37
REMARK SMILES IDX 86 38 80 39 82 40 30 41 85 42 79 43 78 44 31 46 65 47 44 48
REMARK SMILES IDX 64 49 45 50 48 51 63 52 83 53 46 54 47 55 62 57 84 58 49 59
REMARK SMILES IDX 32 60 33 61 42 62 34 63 35 64 41 65 43 66 36 67 37 68 38 69
REMARK SMILES IDX 39 70 40 71 66 72 67 73 76 74 68 75 69 76 75 77 77 78 70 79
REMARK SMILES IDX 71 80 72 81 73 82 74 83 50 84 51 85 60 86 52 87 53 88 59 89
REMARK SMILES IDX 61 90 54 91 55 92 56 93 57 94 58 95
REMARK H PARENT 16 7 1 15 1 16 20 26 82 45 48 56
REMARK Flexibility Score: inf
ROOT
ATOM      1  C   UNL A   1      33.547  28.358  27.341  1.00  0.00     0.118 C 
ENDROOT
BRANCH   1   2
ATOM      2  C   UNL A   1      33.767  28.087  25.852  1.00  0.00     0.042 C 
BRANCH   2   3
ATOM      3  C   UNL A   1      33.491  29.312  24.980  1.00  0.00     0.118 C 
BRANCH   3   4
ATOM      4  N   UNL A   1      33.819  29.022  23.600  1.00  0.00    -0.352 N 
ATOM      5  C   UNL A   1      33.461  28.078  22.674  1.00  0.00     0.253 C 
ATOM      6  O   UNL A   1      34.103  28.188  21.632  1.00  0.00    -0.269 OA
ATOM      7  H   UNL A   1      34.462  29.671  23.233  1.00  0.00     0.163 HD
BRANCH   5   8
ATOM      8  C   UNL A   1      32.362  27.064  22.846  1.00  0.00     0.065 A 
ATOM      9  C   UNL A   1      31.774  24.724  23.316  1.00  0.00     0.032 A 
ATOM     10  C   UNL A   1      30.488  25.118  23.654  1.00  0.00     0.027 A 
ATOM     11  C   UNL A   1      32.667  25.691  22.854  1.00  0.00     0.041 A 
ATOM     12  C   UNL A   1      30.117  26.458  23.543  1.00  0.00     0.029 A 
ATOM     13  C   UNL A   1      31.026  27.451  23.118  1.00  0.00     0.050 A 
BRANCH   9  14
ATOM     14  N   UNL A   1      32.143  23.392  23.364  1.00  0.00    -0.399 N 
ATOM     15  H   UNL A   1      32.998  23.132  23.778  1.00  0.00     0.156 HD
ATOM     16  H   UNL A   1      31.551  22.702  22.984  1.00  0.00     0.156 HD
ENDBRANCH   9  14
BRANCH  13  17
ATOM     17  N   UNL A   1      30.495  28.744  22.989  1.00  0.00    -0.370 N 
ATOM     18  C   UNL A   1      29.888  29.386  21.859  1.00  0.00     0.125 C 
ATOM     19  C   UNL A   1      30.126  29.765  23.923  1.00  0.00     0.125 C 
ATOM     20  C   UNL A   1      29.174  30.246  22.860  1.00  0.00     0.005 C 
ATOM     21  C   UNL A   1      28.982  31.725  22.658  1.00  0.00     0.011 C 
ATOM     22  C   UNL A   1      27.682  30.051  23.037  1.00  0.00     0.011 C 
ATOM     23  C   UNL A   1      27.626  31.554  23.398  1.00  0.00     0.001 C 
ENDBRANCH  13  17
ENDBRANCH   5   8
ENDBRANCH   3   4
ENDBRANCH   2   3
ENDBRANCH   1   2
BRANCH   1  24
ATOM     24  N   UNL A   1      33.485  29.786  27.629  1.00  0.00    -0.352 N 
ATOM     25  C   UNL A   1      34.405  30.593  28.252  1.00  0.00     0.251 C 
ATOM     26  H   UNL A   1      32.662  30.238  27.333  1.00  0.00     0.163 HD
ATOM     27  O   UNL A   1      34.075  31.707  28.643  1.00  0.00    -0.269 OA
BRANCH  25  28
ATOM     28  C   UNL A   1      35.786  30.108  28.451  1.00  0.00     0.039 A 
ATOM     29  C   UNL A   1      36.664  30.081  27.364  1.00  0.00     0.014 A 
ATOM     30  C   UNL A   1      36.206  29.673  29.710  1.00  0.00     0.014 A 
ATOM     31  C   UNL A   1      37.988  29.681  27.559  1.00  0.00     0.010 A 
ATOM     32  C   UNL A   1      37.542  29.348  29.917  1.00  0.00     0.010 A 
ATOM     33  C   UNL A   1      38.447  29.350  28.843  1.00  0.00    -0.014 A 
BRANCH  33  34
ATOM     34  C   UNL A   1      39.869  29.010  29.103  1.00  0.00     0.031 A 
ATOM     35  C   UNL A   1      40.811  30.068  29.610  1.00  0.00     0.074 A 
ATOM     36  C   UNL A   1      40.328  27.783  28.789  1.00  0.00     0.049 A 
ATOM     37  N   UNL A   1      42.108  30.011  29.769  1.00  0.00    -0.248 NA
ATOM     38  C   UNL A   1      40.219  31.370  29.959  1.00  0.00     0.031 C 
ATOM     39  C   UNL A   1      39.517  26.688  28.253  1.00  0.00     0.029 A 
ATOM     40  N   UNL A   1      41.594  27.256  28.853  1.00  0.00    -0.354 N 
ATOM     41  C   UNL A   1      42.489  31.272  30.213  1.00  0.00     0.074 A 
ATOM     42  C   UNL A   1      41.295  32.087  30.253  1.00  0.00     0.031 C 
ATOM     43  C   UNL A   1      40.300  25.618  28.047  1.00  0.00     0.029 A 
ATOM     44  C   UNL A   1      41.677  25.963  28.388  1.00  0.00     0.049 A 
ATOM     45  H   UNL A   1      42.368  27.755  29.198  1.00  0.00     0.167 HD
ATOM     46  C   UNL A   1      43.721  31.704  30.573  1.00  0.00     0.037 A 
ATOM     47  C   UNL A   1      42.744  25.155  28.233  1.00  0.00     0.037 A 
ATOM     48  C   UNL A   1      44.900  30.876  30.548  1.00  0.00     0.049 A 
ATOM     49  C   UNL A   1      44.108  25.664  28.620  1.00  0.00     0.074 A 
ATOM     50  C   UNL A   1      46.185  31.199  30.945  1.00  0.00     0.029 A 
ATOM     51  N   UNL A   1      44.938  29.565  30.094  1.00  0.00    -0.354 N 
ATOM     52  N   UNL A   1      44.443  26.839  29.097  1.00  0.00    -0.248 NA
ATOM     53  C   UNL A   1      45.237  24.739  28.453  1.00  0.00     0.031 C 
ATOM     54  C   UNL A   1      47.011  30.103  30.683  1.00  0.00     0.029 A 
ATOM     55  C   UNL A   1      46.230  29.073  30.179  1.00  0.00     0.049 A 
ATOM     56  H   UNL A   1      44.163  29.058  29.762  1.00  0.00     0.167 HD
ATOM     57  C   UNL A   1      45.814  26.783  29.318  1.00  0.00     0.074 A 
ATOM     58  C   UNL A   1      46.246  25.457  28.928  1.00  0.00     0.031 C 
ATOM     59  C   UNL A   1      46.640  27.743  29.803  1.00  0.00     0.037 A 
BRANCH  46  60
ATOM     60  C   UNL A   1      43.862  33.133  31.022  1.00  0.00     0.058 A 
ATOM     61  C   UNL A   1      44.029  34.184  30.104  1.00  0.00     0.135 A 
ATOM     62  C   UNL A   1      43.788  33.464  32.385  1.00  0.00     0.135 A 
ATOM     63  F   UNL A   1      44.121  33.925  28.790  1.00  0.00    -0.206 F 
ATOM     64  C   UNL A   1      44.149  35.505  30.523  1.00  0.00     0.059 A 
ATOM     65  C   UNL A   1      43.873  34.782  32.825  1.00  0.00     0.059 A 
ATOM     66  F   UNL A   1      43.630  32.501  33.307  1.00  0.00    -0.206 F 
ATOM     67  C   UNL A   1      44.068  35.794  31.887  1.00  0.00     0.060 A 
BRANCH  67  68
ATOM     68  S   UNL A   1      44.216  37.515  32.410  1.00  0.00     0.124 S 
ATOM     69  O   UNL A   1      43.267  37.565  33.517  1.00  0.00    -0.237 OA
ATOM     70  O   UNL A   1      45.625  37.608  32.780  1.00  0.00    -0.237 OA
ATOM     71  O   UNL A   1      43.833  38.268  31.220  1.00  0.00    -0.744 OA
ENDBRANCH  67  68
ENDBRANCH  46  60
BRANCH  47  72
ATOM     72  C   UNL A   1      42.564  23.780  27.693  1.00  0.00     0.058 A 
ATOM     73  C   UNL A   1      42.422  22.681  28.553  1.00  0.00     0.135 A 
ATOM     74  C   UNL A   1      42.514  23.537  26.311  1.00  0.00     0.135 A 
ATOM     75  F   UNL A   1      42.469  22.859  29.883  1.00  0.00    -0.206 F 
ATOM     76  C   UNL A   1      42.253  21.389  28.066  1.00  0.00     0.059 A 
ATOM     77  C   UNL A   1      42.319  22.257  25.799  1.00  0.00     0.059 A 
ATOM     78  F   UNL A   1      42.627  24.555  25.445  1.00  0.00    -0.206 F 
ATOM     79  C   UNL A   1      42.199  21.188  26.686  1.00  0.00     0.060 A 
BRANCH  79  80
ATOM     80  S   UNL A   1      41.933  19.513  26.065  1.00  0.00     0.124 S 
ATOM     81  O   UNL A   1      40.510  19.540  25.747  1.00  0.00    -0.237 OA
ATOM     82  O   UNL A   1      42.842  19.463  24.925  1.00  0.00    -0.237 OA
ATOM     83  O   UNL A   1      42.311  18.671  27.196  1.00  0.00    -0.744 OA
ENDBRANCH  79  80
ENDBRANCH  47  72
BRANCH  59  84
ATOM     84  C   UNL A   1      48.091  27.389  29.990  1.00  0.00     0.058 A 
ATOM     85  C   UNL A   1      49.069  27.755  29.053  1.00  0.00     0.135 A 
ATOM     86  C   UNL A   1      48.515  26.752  31.168  1.00  0.00     0.135 A 
ATOM     87  F   UNL A   1      48.716  28.358  27.907  1.00  0.00    -0.206 F 
ATOM     88  C   UNL A   1      50.418  27.494  29.274  1.00  0.00     0.059 A 
ATOM     89  C   UNL A   1      49.860  26.509  31.423  1.00  0.00     0.059 A 
ATOM     90  F   UNL A   1      47.620  26.389  32.101  1.00  0.00    -0.206 F 
ATOM     91  C   UNL A   1      50.805  26.879  30.468  1.00  0.00     0.060 A 
BRANCH  91  92
ATOM     92  S   UNL A   1      52.564  26.608  30.769  1.00  0.00     0.124 S 
ATOM     93  O   UNL A   1      52.983  27.915  31.264  1.00  0.00    -0.237 OA
ATOM     94  O   UNL A   1      52.548  25.532  31.756  1.00  0.00    -0.237 OA
ATOM     95  O   UNL A   1      53.082  26.238  29.455  1.00  0.00    -0.744 OA
ENDBRANCH  91  92
ENDBRANCH  59  84
ENDBRANCH  33  34
ENDBRANCH  25  28
ENDBRANCH   1  24
TORSDOF 15
ENDMDL
MODEL 2
REMARK VINA RESULT:     -11.9      5.518     11.070
REMARK SMILES Nc1ccc(N2CC3(CCC3)C2)c(C(=O)NCCCNC(=O)c2ccc(-c3c4nc(c(-c5c(F)cc(S(=O)(=O)[O-])cc5F)c5ccc([nH]5)c(-c5c(F)cc(S(=O)(=O)[O-])cc5F)c5nc(c(-c6c(F)cc(S(=O)(=O)[O-])cc6F)c6ccc3[nH]6)C=C5)C=C4)cc2)c1
REMARK SMILES IDX 19 1 18 2 17 3 16 4 14 5 15 6 13 8 2 9 3 10 89 11 4 12 5 13
REMARK SMILES IDX 1 14 6 17 7 18 12 19 8 20 9 21 11 22 10 23 20 24 21 25 22 27
REMARK SMILES IDX 23 28 24 29 88 30 25 31 87 32 26 33 27 34 28 35 81 36 29 37
REMARK SMILES IDX 86 38 80 39 82 40 30 41 85 42 79 43 78 44 31 46 65 47 44 48
REMARK SMILES IDX 64 49 45 50 48 51 63 52 83 53 46 54 47 55 62 57 84 58 49 59
REMARK SMILES IDX 32 60 33 61 42 62 34 63 35 64 41 65 43 66 36 67 37 68 38 69
REMARK SMILES IDX 39 70 40 71 66 72 67 73 76 74 68 75 69 76 75 77 77 78 70 79
REMARK SMILES IDX 71 80 72 81 73 82 74 83 50 84 51 85 60 86 52 87 53 88 59 89
REMARK SMILES IDX 61 90 54 91 55 92 56 93 57 94 58 95
REMARK H PARENT 16 7 1 15 1 16 20 26 82 45 48 56
REMARK Flexibility Score: inf
ROOT
ATOM      1  C   UNL A   1      38.247  24.185  26.397  1.00  0.00     0.118 C 
ENDROOT
BRANCH   1   2
ATOM      2  C   UNL A   1      37.385  23.565  25.296  1.00  0.00     0.042 C 
BRANCH   2   3
ATOM      3  C   UNL A   1      36.999  22.116  25.591  1.00  0.00     0.118 C 
BRANCH   3   4
ATOM      4  N   UNL A   1      35.951  22.075  26.589  1.00  0.00    -0.352 N 
ATOM      5  C   UNL A   1      34.607  22.342  26.625  1.00  0.00     0.253 C 
ATOM      6  O   UNL A   1      34.152  22.255  27.763  1.00  0.00    -0.269 OA
ATOM      7  H   UNL A   1      36.290  21.777  27.464  1.00  0.00     0.163 HD
BRANCH   5   8
ATOM      8  C   UNL A   1      33.745  22.630  25.425  1.00  0.00     0.065 A 
ATOM      9  C   UNL A   1      32.884  24.326  23.868  1.00  0.00     0.032 A 
ATOM     10  C   UNL A   1      32.575  23.328  22.956  1.00  0.00     0.027 A 
ATOM     11  C   UNL A   1      33.399  23.956  25.111  1.00  0.00     0.041 A 
ATOM     12  C   UNL A   1      32.796  21.991  23.284  1.00  0.00     0.029 A 
ATOM     13  C   UNL A   1      33.357  21.609  24.522  1.00  0.00     0.050 A 
BRANCH   9  14
ATOM     14  N   UNL A   1      32.618  25.653  23.584  1.00  0.00    -0.399 N 
ATOM     15  H   UNL A   1      33.352  26.309  23.562  1.00  0.00     0.156 HD
ATOM     16  H   UNL A   1      31.694  25.943  23.402  1.00  0.00     0.156 HD
ENDBRANCH   9  14
BRANCH  13  17
ATOM     17  N   UNL A   1      33.459  20.226  24.742  1.00  0.00    -0.370 N 
ATOM     18  C   UNL A   1      32.433  19.239  24.915  1.00  0.00     0.125 C 
ATOM     19  C   UNL A   1      34.524  19.275  24.621  1.00  0.00     0.125 C 
ATOM     20  C   UNL A   1      33.443  18.249  24.413  1.00  0.00     0.005 C 
ATOM     21  C   UNL A   1      33.599  16.882  25.022  1.00  0.00     0.011 C 
ATOM     22  C   UNL A   1      33.231  17.641  23.042  1.00  0.00     0.011 C 
ATOM     23  C   UNL A   1      33.952  16.388  23.592  1.00  0.00     0.001 C 
ENDBRANCH  13  17
ENDBRANCH   5   8
ENDBRANCH   3   4
ENDBRANCH   2   3
ENDBRANCH   1   2
BRANCH   1  24
ATOM     24  N   UNL A   1      39.663  23.889  26.207  1.00  0.00    -0.352 N 
ATOM     25  C   UNL A   1      40.766  24.611  26.594  1.00  0.00     0.251 C 
ATOM     26  H   UNL A   1      39.856  23.049  25.733  1.00  0.00     0.163 HD
ATOM     27  O   UNL A   1      41.866  24.345  26.121  1.00  0.00    -0.269 OA
BRANCH  25  28
ATOM     28  C   UNL A   1      40.616  25.706  27.573  1.00  0.00     0.039 A 
ATOM     29  C   UNL A   1      39.652  25.597  28.578  1.00  0.00     0.014 A 
ATOM     30  C   UNL A   1      41.423  26.844  27.488  1.00  0.00     0.014 A 
ATOM     31  C   UNL A   1      39.546  26.601  29.543  1.00  0.00     0.010 A 
ATOM     32  C   UNL A   1      41.367  27.804  28.491  1.00  0.00     0.010 A 
ATOM     33  C   UNL A   1      40.429  27.693  29.530  1.00  0.00    -0.014 A 
BRANCH  33  34
ATOM     34  C   UNL A   1      40.407  28.730  30.591  1.00  0.00     0.031 A 
ATOM     35  C   UNL A   1      41.302  28.592  31.793  1.00  0.00     0.074 A 
ATOM     36  C   UNL A   1      39.514  29.737  30.519  1.00  0.00     0.049 A 
ATOM     37  N   UNL A   1      41.335  29.311  32.885  1.00  0.00    -0.248 NA
ATOM     38  C   UNL A   1      42.269  27.483  31.774  1.00  0.00     0.031 C 
ATOM     39  C   UNL A   1      38.567  29.952  29.422  1.00  0.00     0.029 A 
ATOM     40  N   UNL A   1      39.239  30.757  31.396  1.00  0.00    -0.354 N 
ATOM     41  C   UNL A   1      42.307  28.729  33.691  1.00  0.00     0.074 A 
ATOM     42  C   UNL A   1      42.805  27.570  32.983  1.00  0.00     0.031 C 
ATOM     43  C   UNL A   1      37.825  31.039  29.686  1.00  0.00     0.029 A 
ATOM     44  C   UNL A   1      38.206  31.570  30.991  1.00  0.00     0.049 A 
ATOM     45  H   UNL A   1      39.734  30.893  32.236  1.00  0.00     0.167 HD
ATOM     46  C   UNL A   1      42.754  29.136  34.902  1.00  0.00     0.037 A 
ATOM     47  C   UNL A   1      37.617  32.612  31.610  1.00  0.00     0.037 A 
ATOM     48  C   UNL A   1      42.262  30.304  35.587  1.00  0.00     0.049 A 
ATOM     49  C   UNL A   1      38.118  33.035  32.965  1.00  0.00     0.074 A 
ATOM     50  C   UNL A   1      42.688  30.836  36.792  1.00  0.00     0.029 A 
ATOM     51  N   UNL A   1      41.233  31.116  35.132  1.00  0.00    -0.354 N 
ATOM     52  N   UNL A   1      39.080  32.511  33.687  1.00  0.00    -0.248 NA
ATOM     53  C   UNL A   1      37.458  34.189  33.590  1.00  0.00     0.031 C 
ATOM     54  C   UNL A   1      41.881  31.937  37.091  1.00  0.00     0.029 A 
ATOM     55  C   UNL A   1      40.993  32.130  36.044  1.00  0.00     0.049 A 
ATOM     56  H   UNL A   1      40.745  30.990  34.286  1.00  0.00     0.167 HD
ATOM     57  C   UNL A   1      39.162  33.292  34.834  1.00  0.00     0.074 A 
ATOM     58  C   UNL A   1      38.158  34.326  34.709  1.00  0.00     0.031 C 
ATOM     59  C   UNL A   1      39.998  33.164  35.894  1.00  0.00     0.037 A 
BRANCH  46  60
ATOM     60  C   UNL A   1      43.826  28.316  35.568  1.00  0.00     0.058 A 
ATOM     61  C   UNL A   1      45.189  28.528  35.305  1.00  0.00     0.135 A 
ATOM     62  C   UNL A   1      43.490  27.331  36.512  1.00  0.00     0.135 A 
ATOM     63  F   UNL A   1      45.569  29.445  34.401  1.00  0.00    -0.206 F 
ATOM     64  C   UNL A   1      46.178  27.774  35.930  1.00  0.00     0.059 A 
ATOM     65  C   UNL A   1      44.462  26.588  37.173  1.00  0.00     0.059 A 
ATOM     66  F   UNL A   1      42.202  27.086  36.802  1.00  0.00    -0.206 F 
ATOM     67  C   UNL A   1      45.803  26.807  36.864  1.00  0.00     0.060 A 
BRANCH  67  68
ATOM     68  S   UNL A   1      47.100  25.846  37.671  1.00  0.00     0.124 S 
ATOM     69  O   UNL A   1      46.546  25.677  39.012  1.00  0.00    -0.237 OA
ATOM     70  O   UNL A   1      47.150  24.640  36.852  1.00  0.00    -0.237 OA
ATOM     71  O   UNL A   1      48.272  26.710  37.581  1.00  0.00    -0.744 OA
ENDBRANCH  67  68
ENDBRANCH  46  60
BRANCH  47  72
ATOM     72  C   UNL A   1      36.494  33.332  30.948  1.00  0.00     0.058 A 
ATOM     73  C   UNL A   1      35.180  33.211  31.424  1.00  0.00     0.135 A 
ATOM     74  C   UNL A   1      36.712  34.165  29.840  1.00  0.00     0.135 A 
ATOM     75  F   UNL A   1      34.918  32.421  32.477  1.00  0.00    -0.206 F 
ATOM     76  C   UNL A   1      34.119  33.876  30.817  1.00  0.00     0.059 A 
ATOM     77  C   UNL A   1      35.672  34.863  29.232  1.00  0.00     0.059 A 
ATOM     78  F   UNL A   1      37.952  34.330  29.355  1.00  0.00    -0.206 F 
ATOM     79  C   UNL A   1      34.377  34.703  29.724  1.00  0.00     0.060 A 
BRANCH  79  80
ATOM     80  S   UNL A   1      32.999  35.598  28.974  1.00  0.00     0.124 S 
ATOM     81  O   UNL A   1      33.696  36.638  28.226  1.00  0.00    -0.237 OA
ATOM     82  O   UNL A   1      32.358  34.558  28.176  1.00  0.00    -0.237 OA
ATOM     83  O   UNL A   1      32.229  36.057  30.125  1.00  0.00    -0.744 OA
ENDBRANCH  79  80
ENDBRANCH  47  72
BRANCH  59  84
ATOM     84  C   UNL A   1      39.904  34.193  36.988  1.00  0.00     0.058 A 
ATOM     85  C   UNL A   1      40.487  35.464  36.862  1.00  0.00     0.135 A 
ATOM     86  C   UNL A   1      39.145  33.931  38.140  1.00  0.00     0.135 A 
ATOM     87  F   UNL A   1      41.231  35.763  35.785  1.00  0.00    -0.206 F 
ATOM     88  C   UNL A   1      40.327  36.435  37.845  1.00  0.00     0.059 A 
ATOM     89  C   UNL A   1      38.946  34.897  39.121  1.00  0.00     0.059 A 
ATOM     90  F   UNL A   1      38.559  32.733  38.306  1.00  0.00    -0.206 F 
ATOM     91  C   UNL A   1      39.546  36.146  38.966  1.00  0.00     0.060 A 
BRANCH  91  92
ATOM     92  S   UNL A   1      39.292  37.439  40.200  1.00  0.00     0.124 S 
ATOM     93  O   UNL A   1      38.674  36.690  41.290  1.00  0.00    -0.237 OA
ATOM     94  O   UNL A   1      40.652  37.907  40.444  1.00  0.00    -0.237 OA
ATOM     95  O   UNL A   1      38.419  38.392  39.520  1.00  0.00    -0.744 OA
ENDBRANCH  91  92
ENDBRANCH  59  84
ENDBRANCH  33  34
ENDBRANCH  25  28
ENDBRANCH   1  24
TORSDOF 15
ENDMDL
MODEL 3
REMARK VINA RESULT:     -11.9      0.919      2.679
REMARK SMILES Nc1ccc(N2CC3(CCC3)C2)c(C(=O)NCCCNC(=O)c2ccc(-c3c4nc(c(-c5c(F)cc(S(=O)(=O)[O-])cc5F)c5ccc([nH]5)c(-c5c(F)cc(S(=O)(=O)[O-])cc5F)c5nc(c(-c6c(F)cc(S(=O)(=O)[O-])cc6F)c6ccc3[nH]6)C=C5)C=C4)cc2)c1
REMARK SMILES IDX 19 1 18 2 17 3 16 4 14 5 15 6 13 8 2 9 3 10 89 11 4 12 5 13
REMARK SMILES IDX 1 14 6 17 7 18 12 19 8 20 9 21 11 22 10 23 20 24 21 25 22 27
REMARK SMILES IDX 23 28 24 29 88 30 25 31 87 32 26 33 27 34 28 35 81 36 29 37
REMARK SMILES IDX 86 38 80 39 82 40 30 41 85 42 79 43 78 44 31 46 65 47 44 48
REMARK SMILES IDX 64 49 45 50 48 51 63 52 83 53 46 54 47 55 62 57 84 58 49 59
REMARK SMILES IDX 32 60 33 61 42 62 34 63 35 64 41 65 43 66 36 67 37 68 38 69
REMARK SMILES IDX 39 70 40 71 66 72 67 73 76 74 68 75 69 76 75 77 77 78 70 79
REMARK SMILES IDX 71 80 72 81 73 82 74 83 50 84 51 85 60 86 52 87 53 88 59 89
REMARK SMILES IDX 61 90 54 91 55 92 56 93 57 94 58 95
REMARK H PARENT 16 7 1 15 1 16 20 26 82 45 48 56
REMARK Flexibility Score: inf
ROOT
ATOM      1  C   UNL A   1      33.610  28.406  27.260  1.00  0.00     0.118 C 
ENDROOT
BRANCH   1   2
ATOM      2  C   UNL A   1      33.832  28.159  25.767  1.00  0.00     0.042 C 
BRANCH   2   3
ATOM      3  C   UNL A   1      33.892  26.674  25.415  1.00  0.00     0.118 C 
BRANCH   3   4
ATOM      4  N   UNL A   1      33.898  26.504  23.976  1.00  0.00    -0.352 N 
ATOM      5  C   UNL A   1      33.007  26.696  22.953  1.00  0.00     0.253 C 
ATOM      6  O   UNL A   1      33.451  26.302  21.877  1.00  0.00    -0.269 OA
ATOM      7  H   UNL A   1      34.764  26.166  23.651  1.00  0.00     0.163 HD
BRANCH   5   8
ATOM      8  C   UNL A   1      31.672  27.378  23.080  1.00  0.00     0.065 A 
ATOM      9  C   UNL A   1      30.250  29.264  22.396  1.00  0.00     0.032 A 
ATOM     10  C   UNL A   1      29.127  28.562  22.806  1.00  0.00     0.027 A 
ATOM     11  C   UNL A   1      31.506  28.691  22.603  1.00  0.00     0.041 A 
ATOM     12  C   UNL A   1      29.266  27.305  23.394  1.00  0.00     0.029 A 
ATOM     13  C   UNL A   1      30.528  26.697  23.567  1.00  0.00     0.050 A 
BRANCH   9  14
ATOM     14  N   UNL A   1      30.136  30.536  21.865  1.00  0.00    -0.399 N 
ATOM     15  H   UNL A   1      30.458  30.719  20.952  1.00  0.00     0.156 HD
ATOM     16  H   UNL A   1      29.733  31.259  22.399  1.00  0.00     0.156 HD
ENDBRANCH   9  14
BRANCH  13  17
ATOM     17  N   UNL A   1      30.522  25.462  24.234  1.00  0.00    -0.370 N 
ATOM     18  C   UNL A   1      30.707  24.135  23.724  1.00  0.00     0.125 C 
ATOM     19  C   UNL A   1      30.595  25.075  25.611  1.00  0.00     0.125 C 
ATOM     20  C   UNL A   1      31.166  23.777  25.107  1.00  0.00     0.005 C 
ATOM     21  C   UNL A   1      30.769  22.489  25.778  1.00  0.00     0.011 C 
ATOM     22  C   UNL A   1      32.633  23.464  25.317  1.00  0.00     0.011 C 
ATOM     23  C   UNL A   1      32.170  22.518  26.450  1.00  0.00     0.001 C 
ENDBRANCH  13  17
ENDBRANCH   5   8
ENDBRANCH   3   4
ENDBRANCH   2   3
ENDBRANCH   1   2
BRANCH   1  24
ATOM     24  N   UNL A   1      33.549  29.830  27.570  1.00  0.00    -0.352 N 
ATOM     25  C   UNL A   1      34.465  30.625  28.215  1.00  0.00     0.251 C 
ATOM     26  H   UNL A   1      32.731  30.289  27.273  1.00  0.00     0.163 HD
ATOM     27  O   UNL A   1      34.133  31.733  28.621  1.00  0.00    -0.269 OA
BRANCH  25  28
ATOM     28  C   UNL A   1      35.842  30.132  28.421  1.00  0.00     0.039 A 
ATOM     29  C   UNL A   1      36.738  30.140  27.349  1.00  0.00     0.014 A 
ATOM     30  C   UNL A   1      36.241  29.655  29.672  1.00  0.00     0.014 A 
ATOM     31  C   UNL A   1      38.058  29.733  27.552  1.00  0.00     0.010 A 
ATOM     32  C   UNL A   1      37.573  29.323  29.890  1.00  0.00     0.010 A 
ATOM     33  C   UNL A   1      38.496  29.359  28.833  1.00  0.00    -0.014 A 
BRANCH  33  34
ATOM     34  C   UNL A   1      39.913  29.010  29.105  1.00  0.00     0.031 A 
ATOM     35  C   UNL A   1      40.857  30.061  29.623  1.00  0.00     0.074 A 
ATOM     36  C   UNL A   1      40.368  27.781  28.792  1.00  0.00     0.049 A 
ATOM     37  N   UNL A   1      42.152  29.996  29.793  1.00  0.00    -0.248 NA
ATOM     38  C   UNL A   1      40.271  31.366  29.969  1.00  0.00     0.031 C 
ATOM     39  C   UNL A   1      39.555  26.692  28.245  1.00  0.00     0.029 A 
ATOM     40  N   UNL A   1      41.630  27.245  28.866  1.00  0.00    -0.354 N 
ATOM     41  C   UNL A   1      42.537  31.253  30.244  1.00  0.00     0.074 A 
ATOM     42  C   UNL A   1      41.348  32.075  30.274  1.00  0.00     0.031 C 
ATOM     43  C   UNL A   1      40.333  25.617  28.045  1.00  0.00     0.029 A 
ATOM     44  C   UNL A   1      41.709  25.954  28.399  1.00  0.00     0.049 A 
ATOM     45  H   UNL A   1      42.404  27.739  29.219  1.00  0.00     0.167 HD
ATOM     46  C   UNL A   1      43.769  31.676  30.616  1.00  0.00     0.037 A 
ATOM     47  C   UNL A   1      42.773  25.139  28.251  1.00  0.00     0.037 A 
ATOM     48  C   UNL A   1      44.943  30.841  30.599  1.00  0.00     0.049 A 
ATOM     49  C   UNL A   1      44.136  25.638  28.653  1.00  0.00     0.074 A 
ATOM     50  C   UNL A   1      46.226  31.155  31.010  1.00  0.00     0.029 A 
ATOM     51  N   UNL A   1      44.977  29.531  30.143  1.00  0.00    -0.354 N 
ATOM     52  N   UNL A   1      44.473  26.811  29.136  1.00  0.00    -0.248 NA
ATOM     53  C   UNL A   1      45.260  24.706  28.494  1.00  0.00     0.031 C 
ATOM     54  C   UNL A   1      47.047  30.054  30.752  1.00  0.00     0.029 A 
ATOM     55  C   UNL A   1      46.265  29.031  30.239  1.00  0.00     0.049 A 
ATOM     56  H   UNL A   1      44.201  29.030  29.803  1.00  0.00     0.167 HD
ATOM     57  C   UNL A   1      45.842  26.745  29.368  1.00  0.00     0.074 A 
ATOM     58  C   UNL A   1      46.269  25.418  28.979  1.00  0.00     0.031 C 
ATOM     59  C   UNL A   1      46.670  27.699  29.863  1.00  0.00     0.037 A 
BRANCH  46  60
ATOM     60  C   UNL A   1      43.914  33.104  31.070  1.00  0.00     0.058 A 
ATOM     61  C   UNL A   1      43.816  33.462  32.424  1.00  0.00     0.135 A 
ATOM     62  C   UNL A   1      44.196  34.123  30.144  1.00  0.00     0.135 A 
ATOM     63  F   UNL A   1      43.533  32.533  33.351  1.00  0.00    -0.206 F 
ATOM     64  C   UNL A   1      43.961  34.782  32.841  1.00  0.00     0.059 A 
ATOM     65  C   UNL A   1      44.378  35.443  30.542  1.00  0.00     0.059 A 
ATOM     66  F   UNL A   1      44.301  33.837  28.836  1.00  0.00    -0.206 F 
ATOM     67  C   UNL A   1      44.243  35.765  31.891  1.00  0.00     0.060 A 
BRANCH  67  68
ATOM     68  S   UNL A   1      44.437  37.470  32.452  1.00  0.00     0.124 S 
ATOM     69  O   UNL A   1      44.220  38.211  31.213  1.00  0.00    -0.237 OA
ATOM     70  O   UNL A   1      43.383  37.590  33.454  1.00  0.00    -0.237 OA
ATOM     71  O   UNL A   1      45.800  37.505  32.973  1.00  0.00    -0.744 OA
ENDBRANCH  67  68
ENDBRANCH  46  60
BRANCH  47  72
ATOM     72  C   UNL A   1      42.588  23.766  27.707  1.00  0.00     0.058 A 
ATOM     73  C   UNL A   1      42.477  22.660  28.563  1.00  0.00     0.135 A 
ATOM     74  C   UNL A   1      42.505  23.533  26.325  1.00  0.00     0.135 A 
ATOM     75  F   UNL A   1      42.557  22.830  29.892  1.00  0.00    -0.206 F 
ATOM     76  C   UNL A   1      42.305  21.370  28.071  1.00  0.00     0.059 A 
ATOM     77  C   UNL A   1      42.306  22.255  25.809  1.00  0.00     0.059 A 
ATOM     78  F   UNL A   1      42.588  24.557  25.463  1.00  0.00    -0.206 F 
ATOM     79  C   UNL A   1      42.217  21.179  26.691  1.00  0.00     0.060 A 
BRANCH  79  80
ATOM     80  S   UNL A   1      41.947  19.506  26.066  1.00  0.00     0.124 S 
ATOM     81  O   UNL A   1      42.816  19.485  24.896  1.00  0.00    -0.237 OA
ATOM     82  O   UNL A   1      42.375  18.686  27.195  1.00  0.00    -0.237 OA
ATOM     83  O   UNL A   1      40.514  19.478  25.789  1.00  0.00    -0.744 OA
ENDBRANCH  79  80
ENDBRANCH  47  72
BRANCH  59  84
ATOM     84  C   UNL A   1      48.116  27.336  30.063  1.00  0.00     0.058 A 
ATOM     85  C   UNL A   1      49.100  27.662  29.117  1.00  0.00     0.135 A 
ATOM     86  C   UNL A   1      48.533  26.731  31.260  1.00  0.00     0.135 A 
ATOM     87  F   UNL A   1      48.754  28.233  27.951  1.00  0.00    -0.206 F 
ATOM     88  C   UNL A   1      50.445  27.393  29.347  1.00  0.00     0.059 A 
ATOM     89  C   UNL A   1      49.875  26.481  31.525  1.00  0.00     0.059 A 
ATOM     90  F   UNL A   1      47.633  26.406  32.203  1.00  0.00    -0.206 F 
ATOM     91  C   UNL A   1      50.824  26.812  30.559  1.00  0.00     0.060 A 
BRANCH  91  92
ATOM     92  S   UNL A   1      52.580  26.531  30.871  1.00  0.00     0.124 S 
ATOM     93  O   UNL A   1      52.975  27.791  31.492  1.00  0.00    -0.237 OA
ATOM     94  O   UNL A   1      52.557  25.369  31.754  1.00  0.00    -0.237 OA
ATOM     95  O   UNL A   1      53.128  26.289  29.540  1.00  0.00    -0.744 OA
ENDBRANCH  91  92
ENDBRANCH  59  84
ENDBRANCH  33  34
ENDBRANCH  25  28
ENDBRANCH   1  24
TORSDOF 15
ENDMDL
