MODEL 1
REMARK VINA RESULT:     -10.9      0.000      0.000
REMARK SMILES O=C(NCCCNC(=O)[C@H](Cc1ccccn1)[C@H]1CCS(=O)(=O)C1)c1ccc(-c2c3nc(c(-c4c(F)cc(S(=O)(=O)[O-])cc4F)c4ccc([nH]4)c(-c4c(F)cc(S(=O)(=O)[O-])cc4F)c4nc(c(-c5c(F)cc(S(=O)(=O)[O-])cc5F)c5ccc2[nH]5)C=C4)C=C3)cc1
REMARK SMILES IDX 4 1 3 2 1 3 2 4 25 6 26 7 90 8 27 9 89 10 28 11 29 12 30 13
REMARK SMILES IDX 83 14 31 15 88 16 82 17 84 18 32 19 87 20 81 21 80 22 33 24
REMARK SMILES IDX 67 25 46 26 66 27 47 28 50 29 65 30 85 31 48 32 49 33 64 35
REMARK SMILES IDX 86 36 51 37 34 38 35 39 44 40 36 41 37 42 43 43 45 44 38 45
REMARK SMILES IDX 39 46 40 47 41 48 42 49 68 50 69 51 78 52 70 53 71 54 77 55
REMARK SMILES IDX 79 56 72 57 73 58 74 59 75 60 76 61 52 62 53 63 62 64 54 65
REMARK SMILES IDX 55 66 61 67 63 68 56 69 57 70 58 71 59 72 60 73 5 74 6 75
REMARK SMILES IDX 7 76 8 77 9 79 10 80 11 81 12 82 13 83 17 84 14 85 16 86
REMARK SMILES IDX 15 87 18 88 19 89 24 90 20 91 21 92 22 93 23 94
REMARK H PARENT 3 5 84 23 50 34 7 78
REMARK Flexibility Score: inf
ROOT
ATOM      1  C   UNL A   1      33.850  28.287  27.057  1.00  0.00     0.118 C 
ENDROOT
BRANCH   1   2
ATOM      2  N   UNL A   1      33.795  29.657  27.553  1.00  0.00    -0.352 N 
ATOM      3  O   UNL A   1      34.482  31.532  28.594  1.00  0.00    -0.269 OA
ATOM      4  C   UNL A   1      34.771  30.423  28.153  1.00  0.00     0.251 C 
ATOM      5  H   UNL A   1      32.925  30.105  27.443  1.00  0.00     0.163 HD
BRANCH   4   6
ATOM      6  C   UNL A   1      36.148  29.897  28.307  1.00  0.00     0.039 A 
ATOM      7  C   UNL A   1      36.567  29.319  29.504  1.00  0.00     0.014 A 
ATOM      8  C   UNL A   1      37.041  30.000  27.236  1.00  0.00     0.014 A 
ATOM      9  C   UNL A   1      37.916  29.040  29.701  1.00  0.00     0.010 A 
ATOM     10  C   UNL A   1      38.377  29.615  27.402  1.00  0.00     0.010 A 
ATOM     11  C   UNL A   1      38.841  29.184  28.655  1.00  0.00    -0.014 A 
BRANCH  11  12
ATOM     12  C   UNL A   1      40.275  28.864  28.901  1.00  0.00     0.031 A 
ATOM     13  C   UNL A   1      40.858  27.529  28.507  1.00  0.00     0.074 A 
ATOM     14  C   UNL A   1      41.072  29.809  29.440  1.00  0.00     0.049 A 
ATOM     15  N   UNL A   1      42.097  27.114  28.592  1.00  0.00    -0.248 NA
ATOM     16  C   UNL A   1      39.933  26.528  27.953  1.00  0.00     0.031 C 
ATOM     17  C   UNL A   1      40.626  31.136  29.876  1.00  0.00     0.029 A 
ATOM     18  N   UNL A   1      42.420  29.816  29.692  1.00  0.00    -0.354 N 
ATOM     19  C   UNL A   1      42.099  25.803  28.127  1.00  0.00     0.074 A 
ATOM     20  C   UNL A   1      40.729  25.480  27.788  1.00  0.00     0.031 C 
ATOM     21  C   UNL A   1      41.687  31.846  30.285  1.00  0.00     0.029 A 
ATOM     22  C   UNL A   1      42.878  31.007  30.206  1.00  0.00     0.049 A 
ATOM     23  H   UNL A   1      43.005  29.042  29.521  1.00  0.00     0.167 HD
ATOM     24  C   UNL A   1      43.145  24.952  27.986  1.00  0.00     0.037 A 
ATOM     25  C   UNL A   1      44.114  31.384  30.585  1.00  0.00     0.037 A 
ATOM     26  C   UNL A   1      44.510  25.285  28.311  1.00  0.00     0.049 A 
ATOM     27  C   UNL A   1      45.251  30.412  30.438  1.00  0.00     0.074 A 
ATOM     28  C   UNL A   1      45.645  24.507  28.161  1.00  0.00     0.029 A 
ATOM     29  N   UNL A   1      44.926  26.491  28.861  1.00  0.00    -0.354 N 
ATOM     30  N   UNL A   1      45.238  29.194  29.952  1.00  0.00    -0.248 NA
ATOM     31  C   UNL A   1      46.572  30.869  30.886  1.00  0.00     0.031 C 
ATOM     32  C   UNL A   1      46.735  25.216  28.677  1.00  0.00     0.029 A 
ATOM     33  C   UNL A   1      46.294  26.464  29.083  1.00  0.00     0.049 A 
ATOM     34  H   UNL A   1      44.336  27.252  29.064  1.00  0.00     0.167 HD
ATOM     35  C   UNL A   1      46.555  28.750  30.007  1.00  0.00     0.074 A 
ATOM     36  C   UNL A   1      47.337  29.837  30.559  1.00  0.00     0.031 C 
ATOM     37  C   UNL A   1      47.068  27.554  29.627  1.00  0.00     0.037 A 
BRANCH  24  38
ATOM     38  C   UNL A   1      42.859  23.560  27.479  1.00  0.00     0.058 A 
ATOM     39  C   UNL A   1      42.998  23.214  26.125  1.00  0.00     0.135 A 
ATOM     40  C   UNL A   1      42.486  22.543  28.375  1.00  0.00     0.135 A 
ATOM     41  F   UNL A   1      43.340  24.145  25.221  1.00  0.00    -0.206 F 
ATOM     42  C   UNL A   1      42.746  21.922  25.673  1.00  0.00     0.059 A 
ATOM     43  C   UNL A   1      42.259  21.236  27.949  1.00  0.00     0.059 A 
ATOM     44  F   UNL A   1      42.342  22.812  29.682  1.00  0.00    -0.206 F 
ATOM     45  C   UNL A   1      42.378  20.939  26.593  1.00  0.00     0.060 A 
BRANCH  45  46
ATOM     46  S   UNL A   1      42.052  19.269  25.989  1.00  0.00     0.124 S 
ATOM     47  O   UNL A   1      40.611  19.317  25.763  1.00  0.00    -0.237 OA
ATOM     48  O   UNL A   1      42.879  19.205  24.789  1.00  0.00    -0.237 OA
ATOM     49  O   UNL A   1      42.484  18.416  27.092  1.00  0.00    -0.744 OA
ENDBRANCH  45  46
ENDBRANCH  24  38
BRANCH  25  50
ATOM     50  C   UNL A   1      44.337  32.749  31.133  1.00  0.00     0.058 A 
ATOM     51  C   UNL A   1      44.681  33.819  30.293  1.00  0.00     0.135 A 
ATOM     52  C   UNL A   1      44.199  33.013  32.505  1.00  0.00     0.135 A 
ATOM     53  F   UNL A   1      44.829  33.617  28.975  1.00  0.00    -0.206 F 
ATOM     54  C   UNL A   1      44.899  35.097  30.796  1.00  0.00     0.059 A 
ATOM     55  C   UNL A   1      44.380  34.289  33.027  1.00  0.00     0.059 A 
ATOM     56  F   UNL A   1      43.854  32.028  33.349  1.00  0.00    -0.206 F 
ATOM     57  C   UNL A   1      44.743  35.323  32.164  1.00  0.00     0.060 A 
BRANCH  57  58
ATOM     58  S   UNL A   1      44.986  36.995  32.799  1.00  0.00     0.124 S 
ATOM     59  O   UNL A   1      46.238  37.374  32.154  1.00  0.00    -0.237 OA
ATOM     60  O   UNL A   1      43.788  37.679  32.323  1.00  0.00    -0.237 OA
ATOM     61  O   UNL A   1      45.054  36.799  34.244  1.00  0.00    -0.744 OA
ENDBRANCH  57  58
ENDBRANCH  25  50
BRANCH  37  62
ATOM     62  C   UNL A   1      48.558  27.373  29.746  1.00  0.00     0.058 A 
ATOM     63  C   UNL A   1      49.446  27.825  28.757  1.00  0.00     0.135 A 
ATOM     64  C   UNL A   1      49.106  26.755  30.881  1.00  0.00     0.135 A 
ATOM     65  F   UNL A   1      48.978  28.418  27.647  1.00  0.00    -0.206 F 
ATOM     66  C   UNL A   1      50.821  27.637  28.872  1.00  0.00     0.059 A 
ATOM     67  C   UNL A   1      50.478  26.587  31.035  1.00  0.00     0.059 A 
ATOM     68  F   UNL A   1      48.305  26.313  31.864  1.00  0.00    -0.206 F 
ATOM     69  C   UNL A   1      51.327  27.014  30.015  1.00  0.00     0.060 A 
BRANCH  69  70
ATOM     70  S   UNL A   1      53.111  26.784  30.159  1.00  0.00     0.124 S 
ATOM     71  O   UNL A   1      53.194  25.774  31.207  1.00  0.00    -0.237 OA
ATOM     72  O   UNL A   1      53.477  26.338  28.818  1.00  0.00    -0.237 OA
ATOM     73  O   UNL A   1      53.597  28.111  30.524  1.00  0.00    -0.744 OA
ENDBRANCH  69  70
ENDBRANCH  37  62
ENDBRANCH  11  12
ENDBRANCH   4   6
ENDBRANCH   1   2
BRANCH   1  74
ATOM     74  C   UNL A   1      33.790  28.180  25.536  1.00  0.00     0.042 C 
BRANCH  74  75
ATOM     75  C   UNL A   1      32.585  27.412  25.003  1.00  0.00     0.117 C 
BRANCH  75  76
ATOM     76  N   UNL A   1      32.860  26.825  23.698  1.00  0.00    -0.356 N 
ATOM     77  C   UNL A   1      33.658  25.789  23.328  1.00  0.00     0.223 C 
ATOM     78  H   UNL A   1      32.381  27.254  22.952  1.00  0.00     0.163 HD
ATOM     79  O   UNL A   1      33.926  25.660  22.132  1.00  0.00    -0.275 OA
BRANCH  77  80
ATOM     80  C   UNL A   1      34.206  24.811  24.361  1.00  0.00     0.088 C 
BRANCH  80  81
ATOM     81  C   UNL A   1      35.380  24.078  23.647  1.00  0.00     0.070 C 
BRANCH  81  82
ATOM     82  C   UNL A   1      36.381  23.326  24.472  1.00  0.00     0.041 A 
ATOM     83  C   UNL A   1      37.079  23.971  25.494  1.00  0.00     0.024 A 
ATOM     84  N   UNL A   1      36.629  22.045  24.113  1.00  0.00    -0.261 NA
ATOM     85  C   UNL A   1      38.124  23.297  26.120  1.00  0.00     0.003 A 
ATOM     86  C   UNL A   1      37.618  21.399  24.775  1.00  0.00     0.111 A 
ATOM     87  C   UNL A   1      38.404  21.986  25.753  1.00  0.00     0.020 A 
ENDBRANCH  81  82
ENDBRANCH  80  81
BRANCH  80  88
ATOM     88  C   UNL A   1      33.048  24.071  25.132  1.00  0.00     0.018 C 
ATOM     89  C   UNL A   1      32.935  22.549  24.843  1.00  0.00     0.021 C 
ATOM     90  C   UNL A   1      32.995  24.148  26.656  1.00  0.00     0.141 C 
ATOM     91  C   UNL A   1      31.831  21.962  25.717  1.00  0.00     0.137 C 
ATOM     92  S   UNL A   1      31.781  22.960  27.186  1.00  0.00     0.150 S 
ATOM     93  O   UNL A   1      30.487  23.604  27.252  1.00  0.00    -0.229 OA
ATOM     94  O   UNL A   1      32.319  22.206  28.303  1.00  0.00    -0.229 OA
ENDBRANCH  80  88
ENDBRANCH  77  80
ENDBRANCH  75  76
ENDBRANCH  74  75
ENDBRANCH   1  74
TORSDOF 16
ENDMDL
MODEL 2
REMARK VINA RESULT:     -10.9      2.182      3.460
REMARK SMILES O=C(NCCCNC(=O)[C@H](Cc1ccccn1)[C@H]1CCS(=O)(=O)C1)c1ccc(-c2c3nc(c(-c4c(F)cc(S(=O)(=O)[O-])cc4F)c4ccc([nH]4)c(-c4c(F)cc(S(=O)(=O)[O-])cc4F)c4nc(c(-c5c(F)cc(S(=O)(=O)[O-])cc5F)c5ccc2[nH]5)C=C4)C=C3)cc1
REMARK SMILES IDX 4 1 3 2 1 3 2 4 25 6 26 7 90 8 27 9 89 10 28 11 29 12 30 13
REMARK SMILES IDX 83 14 31 15 88 16 82 17 84 18 32 19 87 20 81 21 80 22 33 24
REMARK SMILES IDX 67 25 46 26 66 27 47 28 50 29 65 30 85 31 48 32 49 33 64 35
REMARK SMILES IDX 86 36 51 37 34 38 35 39 44 40 36 41 37 42 43 43 45 44 38 45
REMARK SMILES IDX 39 46 40 47 41 48 42 49 68 50 69 51 78 52 70 53 71 54 77 55
REMARK SMILES IDX 79 56 72 57 73 58 74 59 75 60 76 61 52 62 53 63 62 64 54 65
REMARK SMILES IDX 55 66 61 67 63 68 56 69 57 70 58 71 59 72 60 73 5 74 6 75
REMARK SMILES IDX 7 76 8 77 9 79 10 80 11 81 12 82 13 83 17 84 14 85 16 86
REMARK SMILES IDX 15 87 18 88 19 89 24 90 20 91 21 92 22 93 23 94
REMARK H PARENT 3 5 84 23 50 34 7 78
REMARK Flexibility Score: inf
ROOT
ATOM      1  C   UNL A   1      33.701  28.370  27.145  1.00  0.00     0.118 C 
ENDROOT
BRANCH   1   2
ATOM      2  N   UNL A   1      33.627  29.747  27.619  1.00  0.00    -0.352 N 
ATOM      3  O   UNL A   1      34.285  31.643  28.640  1.00  0.00    -0.269 OA
ATOM      4  C   UNL A   1      34.589  30.530  28.220  1.00  0.00     0.251 C 
ATOM      5  H   UNL A   1      32.755  30.185  27.491  1.00  0.00     0.163 HD
BRANCH   4   6
ATOM      6  C   UNL A   1      35.968  30.019  28.400  1.00  0.00     0.039 A 
ATOM      7  C   UNL A   1      36.384  29.485  29.619  1.00  0.00     0.014 A 
ATOM      8  C   UNL A   1      36.867  30.090  27.331  1.00  0.00     0.014 A 
ATOM      9  C   UNL A   1      37.733  29.221  29.833  1.00  0.00     0.010 A 
ATOM     10  C   UNL A   1      38.205  29.719  27.518  1.00  0.00     0.010 A 
ATOM     11  C   UNL A   1      38.664  29.335  28.788  1.00  0.00    -0.014 A 
BRANCH  11  12
ATOM     12  C   UNL A   1      40.098  29.032  29.053  1.00  0.00     0.031 A 
ATOM     13  C   UNL A   1      40.700  27.702  28.673  1.00  0.00     0.074 A 
ATOM     14  C   UNL A   1      40.877  29.989  29.597  1.00  0.00     0.049 A 
ATOM     15  N   UNL A   1      41.943  27.301  28.776  1.00  0.00    -0.248 NA
ATOM     16  C   UNL A   1      39.794  26.688  28.113  1.00  0.00     0.031 C 
ATOM     17  C   UNL A   1      40.411  31.313  30.020  1.00  0.00     0.029 A 
ATOM     18  N   UNL A   1      42.222  30.012  29.865  1.00  0.00    -0.354 N 
ATOM     19  C   UNL A   1      41.965  25.988  28.318  1.00  0.00     0.074 A 
ATOM     20  C   UNL A   1      40.603  25.648  27.964  1.00  0.00     0.031 C 
ATOM     21  C   UNL A   1      41.459  32.037  30.438  1.00  0.00     0.029 A 
ATOM     22  C   UNL A   1      42.660  31.211  30.378  1.00  0.00     0.049 A 
ATOM     23  H   UNL A   1      42.817  29.245  29.705  1.00  0.00     0.167 HD
ATOM     24  C   UNL A   1      43.023  25.148  28.194  1.00  0.00     0.037 A 
ATOM     25  C   UNL A   1      43.887  31.604  30.771  1.00  0.00     0.037 A 
ATOM     26  C   UNL A   1      44.380  25.499  28.534  1.00  0.00     0.049 A 
ATOM     27  C   UNL A   1      45.037  30.645  30.642  1.00  0.00     0.074 A 
ATOM     28  C   UNL A   1      45.525  24.732  28.402  1.00  0.00     0.029 A 
ATOM     29  N   UNL A   1      44.775  26.711  29.082  1.00  0.00    -0.354 N 
ATOM     30  N   UNL A   1      45.043  29.423  30.163  1.00  0.00    -0.248 NA
ATOM     31  C   UNL A   1      46.347  31.118  31.105  1.00  0.00     0.031 C 
ATOM     32  C   UNL A   1      46.601  25.456  28.927  1.00  0.00     0.029 A 
ATOM     33  C   UNL A   1      46.141  26.702  29.321  1.00  0.00     0.049 A 
ATOM     34  H   UNL A   1      44.174  27.467  29.274  1.00  0.00     0.167 HD
ATOM     35  C   UNL A   1      46.364  28.995  30.236  1.00  0.00     0.074 A 
ATOM     36  C   UNL A   1      47.128  30.094  30.792  1.00  0.00     0.031 C 
ATOM     37  C   UNL A   1      46.895  27.803  29.869  1.00  0.00     0.037 A 
BRANCH  24  38
ATOM     38  C   UNL A   1      42.759  23.751  27.691  1.00  0.00     0.058 A 
ATOM     39  C   UNL A   1      42.529  22.673  28.561  1.00  0.00     0.135 A 
ATOM     40  C   UNL A   1      42.687  23.497  26.310  1.00  0.00     0.135 A 
ATOM     41  F   UNL A   1      42.597  22.851  29.890  1.00  0.00    -0.206 F 
ATOM     42  C   UNL A   1      42.271  21.391  28.083  1.00  0.00     0.059 A 
ATOM     43  C   UNL A   1      42.399  22.229  25.809  1.00  0.00     0.059 A 
ATOM     44  F   UNL A   1      42.893  24.488  25.428  1.00  0.00    -0.206 F 
ATOM     45  C   UNL A   1      42.207  21.179  26.705  1.00  0.00     0.060 A 
BRANCH  45  46
ATOM     46  S   UNL A   1      41.873  19.510  26.103  1.00  0.00     0.124 S 
ATOM     47  O   UNL A   1      42.289  18.701  27.244  1.00  0.00    -0.237 OA
ATOM     48  O   UNL A   1      40.437  19.553  25.848  1.00  0.00    -0.237 OA
ATOM     49  O   UNL A   1      42.716  19.400  24.916  1.00  0.00    -0.744 OA
ENDBRANCH  45  46
ENDBRANCH  24  38
BRANCH  25  50
ATOM     50  C   UNL A   1      44.088  32.974  31.314  1.00  0.00     0.058 A 
ATOM     51  C   UNL A   1      44.026  33.222  32.694  1.00  0.00     0.135 A 
ATOM     52  C   UNL A   1      44.358  34.060  30.466  1.00  0.00     0.135 A 
ATOM     53  F   UNL A   1      43.767  32.219  33.546  1.00  0.00    -0.206 F 
ATOM     54  C   UNL A   1      44.205  34.501  33.212  1.00  0.00     0.059 A 
ATOM     55  C   UNL A   1      44.572  35.341  30.962  1.00  0.00     0.059 A 
ATOM     56  F   UNL A   1      44.445  33.872  29.140  1.00  0.00    -0.206 F 
ATOM     57  C   UNL A   1      44.481  35.553  32.337  1.00  0.00     0.060 A 
BRANCH  57  58
ATOM     58  S   UNL A   1      44.754  37.201  33.024  1.00  0.00     0.124 S 
ATOM     59  O   UNL A   1      45.601  36.902  34.172  1.00  0.00    -0.237 OA
ATOM     60  O   UNL A   1      45.401  37.890  31.913  1.00  0.00    -0.237 OA
ATOM     61  O   UNL A   1      43.405  37.661  33.336  1.00  0.00    -0.744 OA
ENDBRANCH  57  58
ENDBRANCH  25  50
BRANCH  37  62
ATOM     62  C   UNL A   1      48.386  27.639  30.007  1.00  0.00     0.058 A 
ATOM     63  C   UNL A   1      48.974  27.082  31.153  1.00  0.00     0.135 A 
ATOM     64  C   UNL A   1      49.238  28.028  28.960  1.00  0.00     0.135 A 
ATOM     65  F   UNL A   1      48.208  26.698  32.188  1.00  0.00    -0.206 F 
ATOM     66  C   UNL A   1      50.355  26.951  31.273  1.00  0.00     0.059 A 
ATOM     67  C   UNL A   1      50.618  27.876  29.043  1.00  0.00     0.059 A 
ATOM     68  F   UNL A   1      48.731  28.557  27.836  1.00  0.00    -0.206 F 
ATOM     69  C   UNL A   1      51.169  27.353  30.212  1.00  0.00     0.060 A 
BRANCH  69  70
ATOM     70  S   UNL A   1      52.957  27.170  30.374  1.00  0.00     0.124 S 
ATOM     71  O   UNL A   1      53.375  27.118  28.978  1.00  0.00    -0.237 OA
ATOM     72  O   UNL A   1      53.330  28.379  31.103  1.00  0.00    -0.237 OA
ATOM     73  O   UNL A   1      53.105  25.925  31.121  1.00  0.00    -0.744 OA
ENDBRANCH  69  70
ENDBRANCH  37  62
ENDBRANCH  11  12
ENDBRANCH   4   6
ENDBRANCH   1   2
BRANCH   1  74
ATOM     74  C   UNL A   1      32.448  27.905  26.409  1.00  0.00     0.042 C 
BRANCH  74  75
ATOM     75  C   UNL A   1      31.747  28.992  25.601  1.00  0.00     0.117 C 
BRANCH  75  76
ATOM     76  N   UNL A   1      32.480  29.312  24.383  1.00  0.00    -0.356 N 
ATOM     77  C   UNL A   1      32.523  28.695  23.173  1.00  0.00     0.223 C 
ATOM     78  H   UNL A   1      33.041  30.118  24.448  1.00  0.00     0.163 HD
ATOM     79  O   UNL A   1      33.426  29.008  22.394  1.00  0.00    -0.275 OA
BRANCH  77  80
ATOM     80  C   UNL A   1      31.486  27.648  22.786  1.00  0.00     0.088 C 
BRANCH  80  81
ATOM     81  C   UNL A   1      32.247  26.634  21.881  1.00  0.00     0.070 C 
BRANCH  81  82
ATOM     82  C   UNL A   1      32.218  25.177  22.233  1.00  0.00     0.041 A 
ATOM     83  C   UNL A   1      31.176  24.657  23.002  1.00  0.00     0.024 A 
ATOM     84  N   UNL A   1      33.285  24.435  21.853  1.00  0.00    -0.261 NA
ATOM     85  C   UNL A   1      31.271  23.346  23.460  1.00  0.00     0.003 A 
ATOM     86  C   UNL A   1      33.324  23.149  22.272  1.00  0.00     0.111 A 
ATOM     87  C   UNL A   1      32.367  22.576  23.092  1.00  0.00     0.020 A 
ENDBRANCH  81  82
ENDBRANCH  80  81
BRANCH  80  88
ATOM     88  C   UNL A   1      30.110  28.310  22.397  1.00  0.00     0.018 C 
ATOM     89  C   UNL A   1      28.922  27.952  23.332  1.00  0.00     0.021 C 
ATOM     90  C   UNL A   1      30.017  29.828  22.270  1.00  0.00     0.141 C 
ATOM     91  C   UNL A   1      27.687  28.727  22.880  1.00  0.00     0.137 C 
ATOM     92  S   UNL A   1      28.289  30.227  22.144  1.00  0.00     0.150 S 
ATOM     93  O   UNL A   1      27.906  30.233  20.748  1.00  0.00    -0.229 OA
ATOM     94  O   UNL A   1      28.001  31.347  23.021  1.00  0.00    -0.229 OA
ENDBRANCH  80  88
ENDBRANCH  77  80
ENDBRANCH  75  76
ENDBRANCH  74  75
ENDBRANCH   1  74
TORSDOF 16
ENDMDL
MODEL 3
REMARK VINA RESULT:     -10.9      5.355     10.149
REMARK SMILES O=C(NCCCNC(=O)[C@H](Cc1ccccn1)[C@H]1CCS(=O)(=O)C1)c1ccc(-c2c3nc(c(-c4c(F)cc(S(=O)(=O)[O-])cc4F)c4ccc([nH]4)c(-c4c(F)cc(S(=O)(=O)[O-])cc4F)c4nc(c(-c5c(F)cc(S(=O)(=O)[O-])cc5F)c5ccc2[nH]5)C=C4)C=C3)cc1
REMARK SMILES IDX 4 1 3 2 1 3 2 4 25 6 26 7 90 8 27 9 89 10 28 11 29 12 30 13
REMARK SMILES IDX 83 14 31 15 88 16 82 17 84 18 32 19 87 20 81 21 80 22 33 24
REMARK SMILES IDX 67 25 46 26 66 27 47 28 50 29 65 30 85 31 48 32 49 33 64 35
REMARK SMILES IDX 86 36 51 37 34 38 35 39 44 40 36 41 37 42 43 43 45 44 38 45
REMARK SMILES IDX 39 46 40 47 41 48 42 49 68 50 69 51 78 52 70 53 71 54 77 55
REMARK SMILES IDX 79 56 72 57 73 58 74 59 75 60 76 61 52 62 53 63 62 64 54 65
REMARK SMILES IDX 55 66 61 67 63 68 56 69 57 70 58 71 59 72 60 73 5 74 6 75
REMARK SMILES IDX 7 76 8 77 9 79 10 80 11 81 12 82 13 83 17 84 14 85 16 86
REMARK SMILES IDX 15 87 18 88 19 89 24 90 20 91 21 92 22 93 23 94
REMARK H PARENT 3 5 84 23 50 34 7 78
REMARK Flexibility Score: inf
ROOT
ATOM      1  C   UNL A   1      38.436  23.917  26.563  1.00  0.00     0.118 C 
ENDROOT
BRANCH   1   2
ATOM      2  N   UNL A   1      39.843  23.957  26.184  1.00  0.00    -0.352 N 
ATOM      3  O   UNL A   1      41.950  24.739  26.056  1.00  0.00    -0.269 OA
ATOM      4  C   UNL A   1      40.843  24.818  26.581  1.00  0.00     0.251 C 
ATOM      5  H   UNL A   1      40.122  23.262  25.546  1.00  0.00     0.163 HD
BRANCH   4   6
ATOM      6  C   UNL A   1      40.576  25.861  27.599  1.00  0.00     0.039 A 
ATOM      7  C   UNL A   1      41.276  27.066  27.595  1.00  0.00     0.014 A 
ATOM      8  C   UNL A   1      39.616  25.620  28.587  1.00  0.00     0.014 A 
ATOM      9  C   UNL A   1      41.172  27.929  28.682  1.00  0.00     0.010 A 
ATOM     10  C   UNL A   1      39.434  26.544  29.624  1.00  0.00     0.010 A 
ATOM     11  C   UNL A   1      40.251  27.682  29.712  1.00  0.00    -0.014 A 
BRANCH  11  12
ATOM     12  C   UNL A   1      40.159  28.635  30.853  1.00  0.00     0.031 A 
ATOM     13  C   UNL A   1      41.098  28.541  32.029  1.00  0.00     0.074 A 
ATOM     14  C   UNL A   1      39.249  29.630  30.799  1.00  0.00     0.049 A 
ATOM     15  N   UNL A   1      41.193  29.328  33.072  1.00  0.00    -0.248 NA
ATOM     16  C   UNL A   1      42.046  27.417  32.045  1.00  0.00     0.031 C 
ATOM     17  C   UNL A   1      38.275  29.823  29.721  1.00  0.00     0.029 A 
ATOM     18  N   UNL A   1      39.009  30.678  31.651  1.00  0.00    -0.354 N 
ATOM     19  C   UNL A   1      42.191  28.786  33.876  1.00  0.00     0.074 A 
ATOM     20  C   UNL A   1      42.651  27.583  33.214  1.00  0.00     0.031 C 
ATOM     21  C   UNL A   1      37.585  30.949  29.946  1.00  0.00     0.029 A 
ATOM     22  C   UNL A   1      38.016  31.524  31.215  1.00  0.00     0.049 A 
ATOM     23  H   UNL A   1      39.499  30.811  32.495  1.00  0.00     0.167 HD
ATOM     24  C   UNL A   1      42.685  29.252  35.050  1.00  0.00     0.037 A 
ATOM     25  C   UNL A   1      37.497  32.634  31.776  1.00  0.00     0.037 A 
ATOM     26  C   UNL A   1      42.234  30.460  35.695  1.00  0.00     0.049 A 
ATOM     27  C   UNL A   1      38.049  33.116  33.088  1.00  0.00     0.074 A 
ATOM     28  C   UNL A   1      42.702  31.038  36.863  1.00  0.00     0.029 A 
ATOM     29  N   UNL A   1      41.203  31.270  35.238  1.00  0.00    -0.354 N 
ATOM     30  N   UNL A   1      39.024  32.613  33.807  1.00  0.00    -0.248 NA
ATOM     31  C   UNL A   1      37.433  34.318  33.662  1.00  0.00     0.031 C 
ATOM     32  C   UNL A   1      41.916  32.161  37.144  1.00  0.00     0.029 A 
ATOM     33  C   UNL A   1      41.003  32.325  36.115  1.00  0.00     0.049 A 
ATOM     34  H   UNL A   1      40.689  31.118  34.412  1.00  0.00     0.167 HD
ATOM     35  C   UNL A   1      39.160  33.458  34.904  1.00  0.00     0.074 A 
ATOM     36  C   UNL A   1      38.176  34.509  34.743  1.00  0.00     0.031 C 
ATOM     37  C   UNL A   1      40.025  33.372  35.944  1.00  0.00     0.037 A 
BRANCH  24  38
ATOM     38  C   UNL A   1      43.759  28.444  35.734  1.00  0.00     0.058 A 
ATOM     39  C   UNL A   1      45.125  28.648  35.482  1.00  0.00     0.135 A 
ATOM     40  C   UNL A   1      43.413  27.479  36.697  1.00  0.00     0.135 A 
ATOM     41  F   UNL A   1      45.516  29.546  34.565  1.00  0.00    -0.206 F 
ATOM     42  C   UNL A   1      46.106  27.905  36.133  1.00  0.00     0.059 A 
ATOM     43  C   UNL A   1      44.379  26.746  37.383  1.00  0.00     0.059 A 
ATOM     44  F   UNL A   1      42.123  27.242  36.984  1.00  0.00    -0.206 F 
ATOM     45  C   UNL A   1      45.723  26.956  37.083  1.00  0.00     0.060 A 
BRANCH  45  46
ATOM     46  S   UNL A   1      47.009  26.000  37.915  1.00  0.00     0.124 S 
ATOM     47  O   UNL A   1      46.211  25.074  38.714  1.00  0.00    -0.237 OA
ATOM     48  O   UNL A   1      47.732  25.409  36.795  1.00  0.00    -0.237 OA
ATOM     49  O   UNL A   1      47.745  27.006  38.675  1.00  0.00    -0.744 OA
ENDBRANCH  45  46
ENDBRANCH  24  38
BRANCH  25  50
ATOM     50  C   UNL A   1      36.400  33.367  31.089  1.00  0.00     0.058 A 
ATOM     51  C   UNL A   1      35.088  33.335  31.585  1.00  0.00     0.135 A 
ATOM     52  C   UNL A   1      36.643  34.123  29.932  1.00  0.00     0.135 A 
ATOM     53  F   UNL A   1      34.802  32.624  32.686  1.00  0.00    -0.206 F 
ATOM     54  C   UNL A   1      34.052  34.011  30.947  1.00  0.00     0.059 A 
ATOM     55  C   UNL A   1      35.632  34.833  29.295  1.00  0.00     0.059 A 
ATOM     56  F   UNL A   1      37.885  34.200  29.428  1.00  0.00    -0.206 F 
ATOM     57  C   UNL A   1      34.336  34.760  29.804  1.00  0.00     0.060 A 
BRANCH  57  58
ATOM     58  S   UNL A   1      32.993  35.667  29.009  1.00  0.00     0.124 S 
ATOM     59  O   UNL A   1      32.214  36.106  30.161  1.00  0.00    -0.237 OA
ATOM     60  O   UNL A   1      33.715  36.712  28.289  1.00  0.00    -0.237 OA
ATOM     61  O   UNL A   1      32.360  34.659  28.165  1.00  0.00    -0.744 OA
ENDBRANCH  57  58
ENDBRANCH  25  50
BRANCH  37  62
ATOM     62  C   UNL A   1      39.986  34.476  36.968  1.00  0.00     0.058 A 
ATOM     63  C   UNL A   1      39.144  34.424  38.090  1.00  0.00     0.135 A 
ATOM     64  C   UNL A   1      40.824  35.594  36.832  1.00  0.00     0.135 A 
ATOM     65  F   UNL A   1      38.317  33.382  38.268  1.00  0.00    -0.206 F 
ATOM     66  C   UNL A   1      39.106  35.460  39.020  1.00  0.00     0.059 A 
ATOM     67  C   UNL A   1      40.829  36.625  37.766  1.00  0.00     0.059 A 
ATOM     68  F   UNL A   1      41.658  35.693  35.785  1.00  0.00    -0.206 F 
ATOM     69  C   UNL A   1      39.952  36.558  38.848  1.00  0.00     0.060 A 
BRANCH  69  70
ATOM     70  S   UNL A   1      39.902  37.889  40.065  1.00  0.00     0.124 S 
ATOM     71  O   UNL A   1      41.169  38.566  39.813  1.00  0.00    -0.237 OA
ATOM     72  O   UNL A   1      38.702  38.624  39.675  1.00  0.00    -0.237 OA
ATOM     73  O   UNL A   1      39.809  37.183  41.339  1.00  0.00    -0.744 OA
ENDBRANCH  69  70
ENDBRANCH  37  62
ENDBRANCH  11  12
ENDBRANCH   4   6
ENDBRANCH   1   2
BRANCH   1  74
ATOM     74  C   UNL A   1      37.493  23.625  25.400  1.00  0.00     0.042 C 
BRANCH  74  75
ATOM     75  C   UNL A   1      37.011  22.180  25.322  1.00  0.00     0.117 C 
BRANCH  75  76
ATOM     76  N   UNL A   1      36.078  21.868  26.397  1.00  0.00    -0.356 N 
ATOM     77  C   UNL A   1      34.803  21.398  26.371  1.00  0.00     0.223 C 
ATOM     78  H   UNL A   1      36.434  22.024  27.301  1.00  0.00     0.163 HD
ATOM     79  O   UNL A   1      34.135  21.473  27.405  1.00  0.00    -0.275 OA
BRANCH  77  80
ATOM     80  C   UNL A   1      34.213  20.793  25.103  1.00  0.00     0.088 C 
BRANCH  80  81
ATOM     81  C   UNL A   1      33.031  21.731  24.714  1.00  0.00     0.070 C 
BRANCH  81  82
ATOM     82  C   UNL A   1      33.253  23.213  24.692  1.00  0.00     0.041 A 
ATOM     83  C   UNL A   1      34.103  23.786  23.744  1.00  0.00     0.024 A 
ATOM     84  N   UNL A   1      32.670  23.933  25.680  1.00  0.00    -0.261 NA
ATOM     85  C   UNL A   1      34.425  25.135  23.862  1.00  0.00     0.003 A 
ATOM     86  C   UNL A   1      32.964  25.253  25.738  1.00  0.00     0.111 A 
ATOM     87  C   UNL A   1      33.849  25.885  24.880  1.00  0.00     0.020 A 
ENDBRANCH  81  82
ENDBRANCH  80  81
BRANCH  80  88
ATOM     88  C   UNL A   1      34.090  19.225  25.209  1.00  0.00     0.018 C 
ATOM     89  C   UNL A   1      32.642  18.672  25.117  1.00  0.00     0.021 C 
ATOM     90  C   UNL A   1      34.869  18.346  24.235  1.00  0.00     0.141 C 
ATOM     91  C   UNL A   1      32.693  17.148  25.152  1.00  0.00     0.137 C 
ATOM     92  S   UNL A   1      34.252  16.689  24.434  1.00  0.00     0.150 S 
ATOM     93  O   UNL A   1      35.034  16.012  25.446  1.00  0.00    -0.229 OA
ATOM     94  O   UNL A   1      34.030  16.110  23.122  1.00  0.00    -0.229 OA
ENDBRANCH  80  88
ENDBRANCH  77  80
ENDBRANCH  75  76
ENDBRANCH  74  75
ENDBRANCH   1  74
TORSDOF 16
ENDMDL
