MODEL 1
REMARK VINA RESULT:     -14.9      0.000      0.000
REMARK SMILES Cc1c(C(=O)NCCCNC(=O)c2ccc(-c3c4nc(c(-c5c(F)cc(S(=O)(=O)[O-])cc5F)c5ccc([nH]5)c(-c5c(F)cc(S(=O)(=O)[O-])cc5F)c5nc(c(-c6c(F)cc(S(=O)(=O)[O-])cc6F)c6ccc3[nH]6)C=C5)C=C4)cc2)cccc1-n1c(C)cc(/C=C2/C(=O)NC(=S)N=C2O)c1C
REMARK SMILES IDX 8 1 7 2 6 3 4 4 5 5 3 7 1 8 2 9 82 10 79 11 81 12 80 13
REMARK SMILES IDX 83 14 84 15 98 16 85 17 86 18 87 19 99 20 88 21 89 22 90 23
REMARK SMILES IDX 96 24 91 25 92 26 95 27 93 28 94 30 97 31 9 33 10 34 11 35
REMARK SMILES IDX 12 37 13 38 14 39 78 40 15 41 77 42 16 43 17 44 18 45 71 46
REMARK SMILES IDX 19 47 76 48 70 49 72 50 20 51 75 52 69 53 68 54 21 56 55 57
REMARK SMILES IDX 34 58 54 59 35 60 38 61 53 62 73 63 36 64 37 65 52 67 74 68
REMARK SMILES IDX 39 69 22 70 23 71 32 72 24 73 25 74 31 75 33 76 26 77 27 78
REMARK SMILES IDX 28 79 29 80 30 81 56 82 57 83 66 84 58 85 59 86 65 87 67 88
REMARK SMILES IDX 60 89 61 90 62 91 63 92 64 93 40 94 41 95 50 96 42 97 43 98
REMARK SMILES IDX 49 99 51 100 44 101 45 102 46 103 47 104 48 105
REMARK H PARENT 6 6 92 29 97 32 10 36 72 55 38 66
REMARK Flexibility Score: inf
ROOT
ATOM      1  C   UNL A   1      33.502  29.968  26.377  1.00  0.00     0.042 C 
ENDROOT
BRANCH   1   2
ATOM      2  C   UNL A   1      31.985  30.088  26.564  1.00  0.00     0.118 C 
BRANCH   2   3
ATOM      3  N   UNL A   1      31.319  30.378  25.301  1.00  0.00    -0.352 N 
ATOM      4  C   UNL A   1      30.802  29.631  24.274  1.00  0.00     0.251 C 
ATOM      5  O   UNL A   1      30.273  30.265  23.354  1.00  0.00    -0.269 OA
ATOM      6  H   UNL A   1      31.216  31.345  25.147  1.00  0.00     0.163 HD
BRANCH   4   7
ATOM      7  C   UNL A   1      30.759  28.134  24.177  1.00  0.00     0.044 A 
ATOM      8  C   UNL A   1      33.241  27.712  23.780  1.00  0.00     0.047 C 
ATOM      9  C   UNL A   1      31.832  27.252  23.936  1.00  0.00    -0.014 A 
ATOM     10  C   UNL A   1      31.556  25.871  23.783  1.00  0.00     0.049 A 
ATOM     11  C   UNL A   1      29.449  27.602  24.146  1.00  0.00     0.014 A 
ATOM     12  C   UNL A   1      30.256  25.364  23.758  1.00  0.00     0.027 A 
ATOM     13  C   UNL A   1      29.197  26.243  23.927  1.00  0.00     0.003 A 
BRANCH  10  14
ATOM     14  N   UNL A   1      32.614  24.961  23.545  1.00  0.00    -0.318 N 
ATOM     15  C   UNL A   1      33.081  24.605  22.291  1.00  0.00     0.020 A 
ATOM     16  C   UNL A   1      33.129  24.077  24.492  1.00  0.00     0.027 A 
ATOM     17  C   UNL A   1      32.538  25.161  21.019  1.00  0.00     0.065 C 
ATOM     18  C   UNL A   1      34.051  23.642  22.475  1.00  0.00     0.031 A 
ATOM     19  C   UNL A   1      34.096  23.312  23.857  1.00  0.00    -0.003 A 
ATOM     20  C   UNL A   1      32.555  24.018  25.874  1.00  0.00     0.065 C 
BRANCH  19  21
ATOM     21  C   UNL A   1      34.867  22.219  24.359  1.00  0.00     0.029 C 
ATOM     22  C   UNL A   1      34.567  20.928  24.594  1.00  0.00     0.102 C 
ATOM     23  C   UNL A   1      35.706  20.056  24.979  1.00  0.00     0.262 C 
ATOM     24  C   UNL A   1      33.301  20.207  24.458  1.00  0.00     0.226 C 
ATOM     25  O   UNL A   1      36.785  20.463  25.392  1.00  0.00    -0.269 OA
ATOM     26  N   UNL A   1      35.460  18.719  24.812  1.00  0.00    -0.297 N 
ATOM     27  N   UNL A   1      33.147  18.936  24.383  1.00  0.00    -0.184 NA
ATOM     28  C   UNL A   1      34.262  18.147  24.464  1.00  0.00     0.203 C 
ATOM     29  H   UNL A   1      36.218  18.108  24.957  1.00  0.00     0.172 HD
ATOM     30  S   UNL A   1      34.236  16.487  24.228  1.00  0.00    -0.038 S 
BRANCH  24  31
ATOM     31  O   UNL A   1      32.190  20.944  24.488  1.00  0.00    -0.493 OA
ATOM     32  H   UNL A   1      31.379  20.559  24.753  1.00  0.00     0.295 HD
ENDBRANCH  24  31
ENDBRANCH  19  21
ENDBRANCH  10  14
ENDBRANCH   4   7
ENDBRANCH   2   3
ENDBRANCH   1   2
BRANCH   1  33
ATOM     33  C   UNL A   1      34.321  29.627  27.604  1.00  0.00     0.118 C 
BRANCH  33  34
ATOM     34  N   UNL A   1      34.986  30.817  28.150  1.00  0.00    -0.352 N 
ATOM     35  C   UNL A   1      36.269  30.923  28.666  1.00  0.00     0.251 C 
ATOM     36  H   UNL A   1      34.453  31.645  28.148  1.00  0.00     0.163 HD
ATOM     37  O   UNL A   1      36.713  31.970  29.087  1.00  0.00    -0.269 OA
BRANCH  35  38
ATOM     38  C   UNL A   1      37.072  29.686  28.648  1.00  0.00     0.039 A 
ATOM     39  C   UNL A   1      37.162  28.947  29.829  1.00  0.00     0.014 A 
ATOM     40  C   UNL A   1      37.999  29.544  27.623  1.00  0.00     0.014 A 
ATOM     41  C   UNL A   1      38.317  28.207  30.077  1.00  0.00     0.010 A 
ATOM     42  C   UNL A   1      39.188  28.913  27.927  1.00  0.00     0.010 A 
ATOM     43  C   UNL A   1      39.370  28.277  29.170  1.00  0.00    -0.014 A 
BRANCH  43  44
ATOM     44  C   UNL A   1      40.727  27.785  29.409  1.00  0.00     0.031 A 
ATOM     45  C   UNL A   1      41.086  26.420  28.936  1.00  0.00     0.074 A 
ATOM     46  C   UNL A   1      41.697  28.582  29.912  1.00  0.00     0.049 A 
ATOM     47  N   UNL A   1      42.233  25.859  29.100  1.00  0.00    -0.248 NA
ATOM     48  C   UNL A   1      40.114  25.537  28.294  1.00  0.00     0.031 C 
ATOM     49  C   UNL A   1      43.139  28.410  29.741  1.00  0.00     0.029 A 
ATOM     50  N   UNL A   1      41.590  29.601  30.855  1.00  0.00    -0.354 N 
ATOM     51  C   UNL A   1      42.243  24.673  28.403  1.00  0.00     0.074 A 
ATOM     52  C   UNL A   1      40.876  24.484  27.992  1.00  0.00     0.031 C 
ATOM     53  C   UNL A   1      43.784  29.109  30.684  1.00  0.00     0.029 A 
ATOM     54  C   UNL A   1      42.789  29.626  31.600  1.00  0.00     0.049 A 
ATOM     55  H   UNL A   1      40.816  30.198  30.979  1.00  0.00     0.167 HD
ATOM     56  C   UNL A   1      43.435  24.042  28.203  1.00  0.00     0.037 A 
ATOM     57  C   UNL A   1      42.795  29.399  32.949  1.00  0.00     0.037 A 
ATOM     58  C   UNL A   1      44.453  24.576  29.112  1.00  0.00     0.049 A 
ATOM     59  C   UNL A   1      43.528  28.148  33.391  1.00  0.00     0.074 A 
ATOM     60  C   UNL A   1      45.519  25.452  29.011  1.00  0.00     0.029 A 
ATOM     61  N   UNL A   1      44.273  24.352  30.465  1.00  0.00    -0.354 N 
ATOM     62  N   UNL A   1      44.169  27.339  32.592  1.00  0.00    -0.248 NA
ATOM     63  C   UNL A   1      43.511  27.660  34.773  1.00  0.00     0.031 C 
ATOM     64  C   UNL A   1      45.934  25.793  30.335  1.00  0.00     0.029 A 
ATOM     65  C   UNL A   1      45.131  25.110  31.232  1.00  0.00     0.049 A 
ATOM     66  H   UNL A   1      43.610  23.726  30.836  1.00  0.00     0.167 HD
ATOM     67  C   UNL A   1      44.499  26.201  33.280  1.00  0.00     0.074 A 
ATOM     68  C   UNL A   1      44.120  26.468  34.653  1.00  0.00     0.031 C 
ATOM     69  C   UNL A   1      44.978  25.078  32.677  1.00  0.00     0.037 A 
BRANCH  56  70
ATOM     70  C   UNL A   1      43.742  23.010  27.131  1.00  0.00     0.058 A 
ATOM     71  C   UNL A   1      43.054  21.772  27.127  1.00  0.00     0.135 A 
ATOM     72  C   UNL A   1      44.759  23.101  26.155  1.00  0.00     0.135 A 
ATOM     73  F   UNL A   1      42.050  21.529  27.981  1.00  0.00    -0.206 F 
ATOM     74  C   UNL A   1      43.383  20.712  26.274  1.00  0.00     0.059 A 
ATOM     75  C   UNL A   1      45.091  22.065  25.282  1.00  0.00     0.059 A 
ATOM     76  F   UNL A   1      45.519  24.184  25.999  1.00  0.00    -0.206 F 
ATOM     77  C   UNL A   1      44.417  20.861  25.364  1.00  0.00     0.060 A 
BRANCH  77  78
ATOM     78  S   UNL A   1      44.900  19.475  24.324  1.00  0.00     0.124 S 
ATOM     79  O   UNL A   1      44.134  18.380  24.909  1.00  0.00    -0.237 OA
ATOM     80  O   UNL A   1      44.472  19.917  23.001  1.00  0.00    -0.237 OA
ATOM     81  O   UNL A   1      46.346  19.393  24.514  1.00  0.00    -0.744 OA
ENDBRANCH  77  78
ENDBRANCH  56  70
BRANCH  57  82
ATOM     82  C   UNL A   1      41.588  29.956  33.617  1.00  0.00     0.058 A 
ATOM     83  C   UNL A   1      41.553  31.348  33.821  1.00  0.00     0.135 A 
ATOM     84  C   UNL A   1      40.370  29.262  33.573  1.00  0.00     0.135 A 
ATOM     85  F   UNL A   1      42.697  32.047  33.897  1.00  0.00    -0.206 F 
ATOM     86  C   UNL A   1      40.358  32.052  33.761  1.00  0.00     0.059 A 
ATOM     87  C   UNL A   1      39.159  29.949  33.527  1.00  0.00     0.059 A 
ATOM     88  F   UNL A   1      40.354  27.934  33.393  1.00  0.00    -0.206 F 
ATOM     89  C   UNL A   1      39.180  31.345  33.527  1.00  0.00     0.060 A 
BRANCH  89  90
ATOM     90  S   UNL A   1      37.744  32.285  32.962  1.00  0.00     0.124 S 
ATOM     91  O   UNL A   1      36.815  31.228  32.583  1.00  0.00    -0.237 OA
ATOM     92  O   UNL A   1      37.400  33.030  34.173  1.00  0.00    -0.237 OA
ATOM     93  O   UNL A   1      38.276  33.085  31.866  1.00  0.00    -0.744 OA
ENDBRANCH  89  90
ENDBRANCH  57  82
BRANCH  69  94
ATOM     94  C   UNL A   1      45.293  23.828  33.439  1.00  0.00     0.058 A 
ATOM     95  C   UNL A   1      44.290  22.916  33.797  1.00  0.00     0.135 A 
ATOM     96  C   UNL A   1      46.586  23.577  33.942  1.00  0.00     0.135 A 
ATOM     97  F   UNL A   1      43.032  23.080  33.358  1.00  0.00    -0.206 F 
ATOM     98  C   UNL A   1      44.550  21.820  34.622  1.00  0.00     0.059 A 
ATOM     99  C   UNL A   1      46.861  22.517  34.800  1.00  0.00     0.059 A 
ATOM    100  F   UNL A   1      47.624  24.355  33.595  1.00  0.00    -0.206 F 
ATOM    101  C   UNL A   1      45.836  21.636  35.128  1.00  0.00     0.060 A 
BRANCH 101 102
ATOM    102  S   UNL A   1      46.165  20.263  36.251  1.00  0.00     0.124 S 
ATOM    103  O   UNL A   1      47.617  20.127  36.177  1.00  0.00    -0.237 OA
ATOM    104  O   UNL A   1      45.645  20.788  37.511  1.00  0.00    -0.237 OA
ATOM    105  O   UNL A   1      45.409  19.162  35.667  1.00  0.00    -0.744 OA
ENDBRANCH 101 102
ENDBRANCH  69  94
ENDBRANCH  43  44
ENDBRANCH  35  38
ENDBRANCH  33  34
ENDBRANCH   1  33
TORSDOF 16
ENDMDL
MODEL 2
REMARK VINA RESULT:     -14.7      1.477      2.319
REMARK SMILES Cc1c(C(=O)NCCCNC(=O)c2ccc(-c3c4nc(c(-c5c(F)cc(S(=O)(=O)[O-])cc5F)c5ccc([nH]5)c(-c5c(F)cc(S(=O)(=O)[O-])cc5F)c5nc(c(-c6c(F)cc(S(=O)(=O)[O-])cc6F)c6ccc3[nH]6)C=C5)C=C4)cc2)cccc1-n1c(C)cc(/C=C2/C(=O)NC(=S)N=C2O)c1C
REMARK SMILES IDX 8 1 7 2 6 3 4 4 5 5 3 7 1 8 2 9 82 10 79 11 81 12 80 13
REMARK SMILES IDX 83 14 84 15 98 16 85 17 86 18 87 19 99 20 88 21 89 22 90 23
REMARK SMILES IDX 96 24 91 25 92 26 95 27 93 28 94 30 97 31 9 33 10 34 11 35
REMARK SMILES IDX 12 37 13 38 14 39 78 40 15 41 77 42 16 43 17 44 18 45 71 46
REMARK SMILES IDX 19 47 76 48 70 49 72 50 20 51 75 52 69 53 68 54 21 56 55 57
REMARK SMILES IDX 34 58 54 59 35 60 38 61 53 62 73 63 36 64 37 65 52 67 74 68
REMARK SMILES IDX 39 69 22 70 23 71 32 72 24 73 25 74 31 75 33 76 26 77 27 78
REMARK SMILES IDX 28 79 29 80 30 81 56 82 57 83 66 84 58 85 59 86 65 87 67 88
REMARK SMILES IDX 60 89 61 90 62 91 63 92 64 93 40 94 41 95 50 96 42 97 43 98
REMARK SMILES IDX 49 99 51 100 44 101 45 102 46 103 47 104 48 105
REMARK H PARENT 6 6 92 29 97 32 10 36 72 55 38 66
REMARK Flexibility Score: inf
ROOT
ATOM      1  C   UNL A   1      32.796  30.830  26.375  1.00  0.00     0.042 C 
ENDROOT
BRANCH   1   2
ATOM      2  C   UNL A   1      31.499  30.081  26.045  1.00  0.00     0.118 C 
BRANCH   2   3
ATOM      3  N   UNL A   1      31.407  29.787  24.621  1.00  0.00    -0.352 N 
ATOM      4  C   UNL A   1      31.792  28.752  23.809  1.00  0.00     0.251 C 
ATOM      5  O   UNL A   1      31.501  28.862  22.613  1.00  0.00    -0.269 OA
ATOM      6  H   UNL A   1      30.960  30.508  24.120  1.00  0.00     0.163 HD
BRANCH   4   7
ATOM      7  C   UNL A   1      32.474  27.481  24.226  1.00  0.00     0.044 A 
ATOM      8  C   UNL A   1      30.662  25.834  23.521  1.00  0.00     0.047 C 
ATOM      9  C   UNL A   1      31.983  26.165  24.128  1.00  0.00    -0.014 A 
ATOM     10  C   UNL A   1      32.752  25.109  24.676  1.00  0.00     0.049 A 
ATOM     11  C   UNL A   1      33.663  27.688  24.964  1.00  0.00     0.014 A 
ATOM     12  C   UNL A   1      33.925  25.332  25.399  1.00  0.00     0.027 A 
ATOM     13  C   UNL A   1      34.372  26.635  25.554  1.00  0.00     0.003 A 
BRANCH  10  14
ATOM     14  N   UNL A   1      32.286  23.775  24.588  1.00  0.00    -0.318 N 
ATOM     15  C   UNL A   1      31.503  23.149  25.543  1.00  0.00     0.020 A 
ATOM     16  C   UNL A   1      32.782  22.817  23.704  1.00  0.00     0.027 A 
ATOM     17  C   UNL A   1      31.025  23.817  26.787  1.00  0.00     0.065 C 
ATOM     18  C   UNL A   1      31.330  21.842  25.137  1.00  0.00     0.031 A 
ATOM     19  C   UNL A   1      32.122  21.628  23.976  1.00  0.00    -0.003 A 
ATOM     20  C   UNL A   1      33.901  23.149  22.767  1.00  0.00     0.065 C 
BRANCH  19  21
ATOM     21  C   UNL A   1      32.312  20.331  23.406  1.00  0.00     0.029 C 
ATOM     22  C   UNL A   1      32.667  19.148  23.940  1.00  0.00     0.102 C 
ATOM     23  C   UNL A   1      32.604  17.978  23.027  1.00  0.00     0.262 C 
ATOM     24  C   UNL A   1      33.037  18.797  25.311  1.00  0.00     0.226 C 
ATOM     25  O   UNL A   1      32.566  18.051  21.804  1.00  0.00    -0.269 OA
ATOM     26  N   UNL A   1      32.568  16.772  23.675  1.00  0.00    -0.297 N 
ATOM     27  N   UNL A   1      33.049  17.623  25.826  1.00  0.00    -0.184 NA
ATOM     28  C   UNL A   1      32.713  16.566  25.024  1.00  0.00     0.203 C 
ATOM     29  H   UNL A   1      32.423  15.974  23.117  1.00  0.00     0.172 HD
ATOM     30  S   UNL A   1      32.535  14.998  25.592  1.00  0.00    -0.038 S 
BRANCH  24  31
ATOM     31  O   UNL A   1      33.475  19.793  26.083  1.00  0.00    -0.493 OA
ATOM     32  H   UNL A   1      34.025  19.610  26.818  1.00  0.00     0.295 HD
ENDBRANCH  24  31
ENDBRANCH  19  21
ENDBRANCH  10  14
ENDBRANCH   4   7
ENDBRANCH   2   3
ENDBRANCH   1   2
BRANCH   1  33
ATOM     33  C   UNL A   1      33.559  30.376  27.601  1.00  0.00     0.118 C 
BRANCH  33  34
ATOM     34  N   UNL A   1      34.022  31.520  28.396  1.00  0.00    -0.352 N 
ATOM     35  C   UNL A   1      35.194  31.639  29.127  1.00  0.00     0.251 C 
ATOM     36  H   UNL A   1      33.423  32.302  28.412  1.00  0.00     0.163 HD
ATOM     37  O   UNL A   1      35.471  32.644  29.746  1.00  0.00    -0.269 OA
BRANCH  35  38
ATOM     38  C   UNL A   1      36.098  30.474  29.084  1.00  0.00     0.039 A 
ATOM     39  C   UNL A   1      36.255  29.725  30.251  1.00  0.00     0.014 A 
ATOM     40  C   UNL A   1      37.030  30.429  28.055  1.00  0.00     0.014 A 
ATOM     41  C   UNL A   1      37.468  29.080  30.484  1.00  0.00     0.010 A 
ATOM     42  C   UNL A   1      38.269  29.896  28.345  1.00  0.00     0.010 A 
ATOM     43  C   UNL A   1      38.509  29.254  29.576  1.00  0.00    -0.014 A 
BRANCH  43  44
ATOM     44  C   UNL A   1      39.903  28.874  29.803  1.00  0.00     0.031 A 
ATOM     45  C   UNL A   1      40.384  27.571  29.268  1.00  0.00     0.074 A 
ATOM     46  C   UNL A   1      40.796  29.729  30.353  1.00  0.00     0.049 A 
ATOM     47  N   UNL A   1      41.577  27.107  29.415  1.00  0.00    -0.248 NA
ATOM     48  C   UNL A   1      39.499  26.638  28.575  1.00  0.00     0.031 C 
ATOM     49  C   UNL A   1      42.248  29.695  30.187  1.00  0.00     0.029 A 
ATOM     50  N   UNL A   1      40.593  30.687  31.343  1.00  0.00    -0.354 N 
ATOM     51  C   UNL A   1      41.696  25.962  28.661  1.00  0.00     0.074 A 
ATOM     52  C   UNL A   1      40.353  25.674  28.229  1.00  0.00     0.031 C 
ATOM     53  C   UNL A   1      42.824  30.401  31.168  1.00  0.00     0.029 A 
ATOM     54  C   UNL A   1      41.782  30.782  32.100  1.00  0.00     0.049 A 
ATOM     55  H   UNL A   1      39.768  31.206  31.489  1.00  0.00     0.167 HD
ATOM     56  C   UNL A   1      42.940  25.451  28.441  1.00  0.00     0.037 A 
ATOM     57  C   UNL A   1      41.802  30.491  33.436  1.00  0.00     0.037 A 
ATOM     58  C   UNL A   1      43.903  26.028  29.384  1.00  0.00     0.049 A 
ATOM     59  C   UNL A   1      42.642  29.289  33.823  1.00  0.00     0.074 A 
ATOM     60  C   UNL A   1      44.886  27.000  29.335  1.00  0.00     0.029 A 
ATOM     61  N   UNL A   1      43.737  25.724  30.723  1.00  0.00    -0.354 N 
ATOM     62  N   UNL A   1      43.356  28.581  32.991  1.00  0.00    -0.248 NA
ATOM     63  C   UNL A   1      42.663  28.734  35.180  1.00  0.00     0.031 C 
ATOM     64  C   UNL A   1      45.263  27.311  30.678  1.00  0.00     0.029 A 
ATOM     65  C   UNL A   1      44.520  26.516  31.533  1.00  0.00     0.049 A 
ATOM     66  H   UNL A   1      43.131  25.023  31.057  1.00  0.00     0.167 HD
ATOM     67  C   UNL A   1      43.784  27.445  33.627  1.00  0.00     0.074 A 
ATOM     68  C   UNL A   1      43.376  27.609  35.007  1.00  0.00     0.031 C 
ATOM     69  C   UNL A   1      44.364  26.400  32.974  1.00  0.00     0.037 A 
BRANCH  56  70
ATOM     70  C   UNL A   1      43.344  24.504  27.323  1.00  0.00     0.058 A 
ATOM     71  C   UNL A   1      43.034  23.126  27.422  1.00  0.00     0.135 A 
ATOM     72  C   UNL A   1      44.123  24.835  26.193  1.00  0.00     0.135 A 
ATOM     73  F   UNL A   1      42.289  22.647  28.428  1.00  0.00    -0.206 F 
ATOM     74  C   UNL A   1      43.501  22.166  26.516  1.00  0.00     0.059 A 
ATOM     75  C   UNL A   1      44.584  23.899  25.267  1.00  0.00     0.059 A 
ATOM     76  F   UNL A   1      44.518  26.079  25.924  1.00  0.00    -0.206 F 
ATOM     77  C   UNL A   1      44.292  22.560  25.448  1.00  0.00     0.060 A 
BRANCH  77  78
ATOM     78  S   UNL A   1      44.965  21.322  24.329  1.00  0.00     0.124 S 
ATOM     79  O   UNL A   1      44.223  20.128  24.722  1.00  0.00    -0.237 OA
ATOM     80  O   UNL A   1      44.635  21.877  23.020  1.00  0.00    -0.237 OA
ATOM     81  O   UNL A   1      46.388  21.304  24.656  1.00  0.00    -0.744 OA
ENDBRANCH  77  78
ENDBRANCH  56  70
BRANCH  57  82
ATOM     82  C   UNL A   1      40.547  30.904  34.119  1.00  0.00     0.058 A 
ATOM     83  C   UNL A   1      40.407  32.269  34.432  1.00  0.00     0.135 A 
ATOM     84  C   UNL A   1      39.384  30.132  33.993  1.00  0.00     0.135 A 
ATOM     85  F   UNL A   1      41.497  33.039  34.590  1.00  0.00    -0.206 F 
ATOM     86  C   UNL A   1      39.166  32.889  34.402  1.00  0.00     0.059 A 
ATOM     87  C   UNL A   1      38.127  30.732  33.974  1.00  0.00     0.059 A 
ATOM     88  F   UNL A   1      39.466  28.824  33.707  1.00  0.00    -0.206 F 
ATOM     89  C   UNL A   1      38.047  32.122  34.087  1.00  0.00     0.060 A 
BRANCH  89  90
ATOM     90  S   UNL A   1      36.555  33.000  33.567  1.00  0.00     0.124 S 
ATOM     91  O   UNL A   1      35.855  31.984  32.791  1.00  0.00    -0.237 OA
ATOM     92  O   UNL A   1      35.960  33.335  34.860  1.00  0.00    -0.237 OA
ATOM     93  O   UNL A   1      37.078  34.130  32.808  1.00  0.00    -0.744 OA
ENDBRANCH  89  90
ENDBRANCH  57  82
BRANCH  69  94
ATOM     94  C   UNL A   1      44.786  25.146  33.677  1.00  0.00     0.058 A 
ATOM     95  C   UNL A   1      46.137  24.781  33.777  1.00  0.00     0.135 A 
ATOM     96  C   UNL A   1      43.841  24.215  34.153  1.00  0.00     0.135 A 
ATOM     97  F   UNL A   1      47.100  25.613  33.349  1.00  0.00    -0.206 F 
ATOM     98  C   UNL A   1      46.530  23.553  34.308  1.00  0.00     0.059 A 
ATOM     99  C   UNL A   1      44.207  22.967  34.647  1.00  0.00     0.059 A 
ATOM    100  F   UNL A   1      42.531  24.506  34.164  1.00  0.00    -0.206 F 
ATOM    101  C   UNL A   1      45.557  22.647  34.730  1.00  0.00     0.060 A 
BRANCH 101 102
ATOM    102  S   UNL A   1      46.054  21.028  35.352  1.00  0.00     0.124 S 
ATOM    103  O   UNL A   1      46.307  21.290  36.766  1.00  0.00    -0.237 OA
ATOM    104  O   UNL A   1      44.868  20.229  35.062  1.00  0.00    -0.237 OA
ATOM    105  O   UNL A   1      47.237  20.712  34.560  1.00  0.00    -0.744 OA
ENDBRANCH 101 102
ENDBRANCH  69  94
ENDBRANCH  43  44
ENDBRANCH  35  38
ENDBRANCH  33  34
ENDBRANCH   1  33
TORSDOF 16
ENDMDL
MODEL 3
REMARK VINA RESULT:     -14.5      4.477     11.304
REMARK SMILES Cc1c(C(=O)NCCCNC(=O)c2ccc(-c3c4nc(c(-c5c(F)cc(S(=O)(=O)[O-])cc5F)c5ccc([nH]5)c(-c5c(F)cc(S(=O)(=O)[O-])cc5F)c5nc(c(-c6c(F)cc(S(=O)(=O)[O-])cc6F)c6ccc3[nH]6)C=C5)C=C4)cc2)cccc1-n1c(C)cc(/C=C2/C(=O)NC(=S)N=C2O)c1C
REMARK SMILES IDX 8 1 7 2 6 3 4 4 5 5 3 7 1 8 2 9 82 10 79 11 81 12 80 13
REMARK SMILES IDX 83 14 84 15 98 16 85 17 86 18 87 19 99 20 88 21 89 22 90 23
REMARK SMILES IDX 96 24 91 25 92 26 95 27 93 28 94 30 97 31 9 33 10 34 11 35
REMARK SMILES IDX 12 37 13 38 14 39 78 40 15 41 77 42 16 43 17 44 18 45 71 46
REMARK SMILES IDX 19 47 76 48 70 49 72 50 20 51 75 52 69 53 68 54 21 56 55 57
REMARK SMILES IDX 34 58 54 59 35 60 38 61 53 62 73 63 36 64 37 65 52 67 74 68
REMARK SMILES IDX 39 69 22 70 23 71 32 72 24 73 25 74 31 75 33 76 26 77 27 78
REMARK SMILES IDX 28 79 29 80 30 81 56 82 57 83 66 84 58 85 59 86 65 87 67 88
REMARK SMILES IDX 60 89 61 90 62 91 63 92 64 93 40 94 41 95 50 96 42 97 43 98
REMARK SMILES IDX 49 99 51 100 44 101 45 102 46 103 47 104 48 105
REMARK H PARENT 6 6 92 29 97 32 10 36 72 55 38 66
REMARK Flexibility Score: inf
ROOT
ATOM      1  C   UNL A   1      36.796  21.999  25.766  1.00  0.00     0.042 C 
ENDROOT
BRANCH   1   2
ATOM      2  C   UNL A   1      36.772  20.755  24.870  1.00  0.00     0.118 C 
BRANCH   2   3
ATOM      3  N   UNL A   1      35.658  19.880  25.212  1.00  0.00    -0.352 N 
ATOM      4  C   UNL A   1      34.292  19.957  25.129  1.00  0.00     0.251 C 
ATOM      5  O   UNL A   1      33.667  18.961  25.508  1.00  0.00    -0.269 OA
ATOM      6  H   UNL A   1      35.961  19.026  25.598  1.00  0.00     0.163 HD
BRANCH   4   7
ATOM      7  C   UNL A   1      33.483  21.093  24.574  1.00  0.00     0.044 A 
ATOM      8  C   UNL A   1      33.506  22.607  26.623  1.00  0.00     0.047 C 
ATOM      9  C   UNL A   1      33.099  22.281  25.227  1.00  0.00    -0.014 A 
ATOM     10  C   UNL A   1      32.245  23.185  24.549  1.00  0.00     0.049 A 
ATOM     11  C   UNL A   1      32.905  20.818  23.312  1.00  0.00     0.014 A 
ATOM     12  C   UNL A   1      31.687  22.898  23.303  1.00  0.00     0.027 A 
ATOM     13  C   UNL A   1      32.010  21.697  22.690  1.00  0.00     0.003 A 
BRANCH  10  14
ATOM     14  N   UNL A   1      31.847  24.389  25.179  1.00  0.00    -0.318 N 
ATOM     15  C   UNL A   1      30.771  24.508  26.041  1.00  0.00     0.020 A 
ATOM     16  C   UNL A   1      32.273  25.661  24.800  1.00  0.00     0.027 A 
ATOM     17  C   UNL A   1      29.901  23.366  26.441  1.00  0.00     0.065 C 
ATOM     18  C   UNL A   1      30.661  25.843  26.374  1.00  0.00     0.031 A 
ATOM     19  C   UNL A   1      31.608  26.573  25.607  1.00  0.00    -0.003 A 
ATOM     20  C   UNL A   1      33.203  25.843  23.641  1.00  0.00     0.065 C 
BRANCH  19  21
ATOM     21  C   UNL A   1      31.633  28.002  25.577  1.00  0.00     0.029 C 
ATOM     22  C   UNL A   1      31.052  28.903  24.764  1.00  0.00     0.102 C 
ATOM     23  C   UNL A   1      31.199  30.327  25.162  1.00  0.00     0.262 C 
ATOM     24  C   UNL A   1      30.220  28.714  23.576  1.00  0.00     0.226 C 
ATOM     25  O   UNL A   1      32.035  30.746  25.954  1.00  0.00    -0.269 OA
ATOM     26  N   UNL A   1      30.285  31.162  24.577  1.00  0.00    -0.297 N 
ATOM     27  N   UNL A   1      29.439  29.578  23.040  1.00  0.00    -0.184 NA
ATOM     28  C   UNL A   1      29.380  30.826  23.601  1.00  0.00     0.203 C 
ATOM     29  H   UNL A   1      30.277  32.096  24.886  1.00  0.00     0.172 HD
ATOM     30  S   UNL A   1      28.297  32.007  23.108  1.00  0.00    -0.038 S 
BRANCH  24  31
ATOM     31  O   UNL A   1      30.342  27.545  22.944  1.00  0.00    -0.493 OA
ATOM     32  H   UNL A   1      31.081  26.995  23.112  1.00  0.00     0.295 HD
ENDBRANCH  24  31
ENDBRANCH  19  21
ENDBRANCH  10  14
ENDBRANCH   4   7
ENDBRANCH   2   3
ENDBRANCH   1   2
BRANCH   1  33
ATOM     33  C   UNL A   1      37.906  22.999  25.524  1.00  0.00     0.118 C 
BRANCH  33  34
ATOM     34  N   UNL A   1      39.139  22.608  26.218  1.00  0.00    -0.352 N 
ATOM     35  C   UNL A   1      40.013  23.411  26.936  1.00  0.00     0.251 C 
ATOM     36  H   UNL A   1      39.375  21.653  26.169  1.00  0.00     0.163 HD
ATOM     37  O   UNL A   1      41.005  22.969  27.473  1.00  0.00    -0.269 OA
BRANCH  35  38
ATOM     38  C   UNL A   1      39.645  24.837  27.026  1.00  0.00     0.039 A 
ATOM     39  C   UNL A   1      40.378  25.751  26.267  1.00  0.00     0.014 A 
ATOM     40  C   UNL A   1      38.900  25.234  28.129  1.00  0.00     0.014 A 
ATOM     41  C   UNL A   1      40.538  27.051  26.742  1.00  0.00     0.010 A 
ATOM     42  C   UNL A   1      39.164  26.481  28.657  1.00  0.00     0.010 A 
ATOM     43  C   UNL A   1      40.016  27.382  27.989  1.00  0.00    -0.014 A 
BRANCH  43  44
ATOM     44  C   UNL A   1      40.320  28.601  28.738  1.00  0.00     0.031 A 
ATOM     45  C   UNL A   1      39.326  29.708  28.737  1.00  0.00     0.074 A 
ATOM     46  C   UNL A   1      41.403  28.693  29.544  1.00  0.00     0.049 A 
ATOM     47  N   UNL A   1      39.477  30.839  29.335  1.00  0.00    -0.248 NA
ATOM     48  C   UNL A   1      38.084  29.639  27.969  1.00  0.00     0.031 C 
ATOM     49  C   UNL A   1      41.565  29.590  30.686  1.00  0.00     0.029 A 
ATOM     50  N   UNL A   1      42.668  28.134  29.374  1.00  0.00    -0.354 N 
ATOM     51  C   UNL A   1      38.299  31.543  29.242  1.00  0.00     0.074 A 
ATOM     52  C   UNL A   1      37.498  30.787  28.314  1.00  0.00     0.031 C 
ATOM     53  C   UNL A   1      42.866  29.705  30.980  1.00  0.00     0.029 A 
ATOM     54  C   UNL A   1      43.610  29.020  29.942  1.00  0.00     0.049 A 
ATOM     55  H   UNL A   1      42.870  27.275  28.935  1.00  0.00     0.167 HD
ATOM     56  C   UNL A   1      38.130  32.642  30.031  1.00  0.00     0.037 A 
ATOM     57  C   UNL A   1      44.588  29.604  29.185  1.00  0.00     0.037 A 
ATOM     58  C   UNL A   1      39.420  33.085  30.570  1.00  0.00     0.049 A 
ATOM     59  C   UNL A   1      44.494  31.113  29.060  1.00  0.00     0.074 A 
ATOM     60  C   UNL A   1      40.079  32.987  31.782  1.00  0.00     0.029 A 
ATOM     61  N   UNL A   1      40.352  33.561  29.667  1.00  0.00    -0.354 N 
ATOM     62  N   UNL A   1      43.599  31.854  29.652  1.00  0.00    -0.248 NA
ATOM     63  C   UNL A   1      45.358  31.894  28.169  1.00  0.00     0.031 C 
ATOM     64  C   UNL A   1      41.442  33.361  31.571  1.00  0.00     0.029 A 
ATOM     65  C   UNL A   1      41.599  33.699  30.237  1.00  0.00     0.049 A 
ATOM     66  H   UNL A   1      40.149  33.777  28.728  1.00  0.00     0.167 HD
ATOM     67  C   UNL A   1      43.656  33.121  29.133  1.00  0.00     0.074 A 
ATOM     68  C   UNL A   1      44.806  33.116  28.251  1.00  0.00     0.031 C 
ATOM     69  C   UNL A   1      42.714  34.072  29.382  1.00  0.00     0.037 A 
BRANCH  56  70
ATOM     70  C   UNL A   1      36.808  33.284  30.416  1.00  0.00     0.058 A 
ATOM     71  C   UNL A   1      35.978  33.842  29.414  1.00  0.00     0.135 A 
ATOM     72  C   UNL A   1      36.337  33.495  31.730  1.00  0.00     0.135 A 
ATOM     73  F   UNL A   1      36.274  33.718  28.112  1.00  0.00    -0.206 F 
ATOM     74  C   UNL A   1      34.825  34.584  29.695  1.00  0.00     0.059 A 
ATOM     75  C   UNL A   1      35.181  34.215  32.034  1.00  0.00     0.059 A 
ATOM     76  F   UNL A   1      36.977  33.049  32.811  1.00  0.00    -0.206 F 
ATOM     77  C   UNL A   1      34.442  34.781  31.013  1.00  0.00     0.060 A 
BRANCH  77  78
ATOM     78  S   UNL A   1      33.010  35.804  31.385  1.00  0.00     0.124 S 
ATOM     79  O   UNL A   1      33.629  36.983  31.981  1.00  0.00    -0.237 OA
ATOM     80  O   UNL A   1      32.414  35.993  30.066  1.00  0.00    -0.237 OA
ATOM     81  O   UNL A   1      32.231  34.979  32.305  1.00  0.00    -0.744 OA
ENDBRANCH  77  78
ENDBRANCH  56  70
BRANCH  57  82
ATOM     82  C   UNL A   1      45.092  28.694  28.122  1.00  0.00     0.058 A 
ATOM     83  C   UNL A   1      45.974  27.672  28.520  1.00  0.00     0.135 A 
ATOM     84  C   UNL A   1      44.366  28.518  26.936  1.00  0.00     0.135 A 
ATOM     85  F   UNL A   1      46.709  27.812  29.635  1.00  0.00    -0.206 F 
ATOM     86  C   UNL A   1      45.970  26.436  27.889  1.00  0.00     0.059 A 
ATOM     87  C   UNL A   1      44.360  27.290  26.279  1.00  0.00     0.059 A 
ATOM     88  F   UNL A   1      43.523  29.470  26.510  1.00  0.00    -0.206 F 
ATOM     89  C   UNL A   1      45.094  26.235  26.824  1.00  0.00     0.060 A 
BRANCH  89  90
ATOM     90  S   UNL A   1      44.740  24.528  26.348  1.00  0.00     0.124 S 
ATOM     91  O   UNL A   1      43.630  24.692  25.418  1.00  0.00    -0.237 OA
ATOM     92  O   UNL A   1      46.015  24.130  25.754  1.00  0.00    -0.237 OA
ATOM     93  O   UNL A   1      44.414  23.886  27.617  1.00  0.00    -0.744 OA
ENDBRANCH  89  90
ENDBRANCH  57  82
BRANCH  69  94
ATOM     94  C   UNL A   1      42.768  35.439  28.772  1.00  0.00     0.058 A 
ATOM     95  C   UNL A   1      43.003  36.581  29.551  1.00  0.00     0.135 A 
ATOM     96  C   UNL A   1      42.455  35.652  27.414  1.00  0.00     0.135 A 
ATOM     97  F   UNL A   1      43.310  36.465  30.853  1.00  0.00    -0.206 F 
ATOM     98  C   UNL A   1      42.921  37.867  29.016  1.00  0.00     0.059 A 
ATOM     99  C   UNL A   1      42.325  36.925  26.868  1.00  0.00     0.059 A 
ATOM    100  F   UNL A   1      42.284  34.618  26.575  1.00  0.00    -0.206 F 
ATOM    101  C   UNL A   1      42.569  38.030  27.676  1.00  0.00     0.060 A 
BRANCH 101 102
ATOM    102  S   UNL A   1      42.391  39.691  26.996  1.00  0.00     0.124 S 
ATOM    103  O   UNL A   1      43.607  39.846  26.202  1.00  0.00    -0.237 OA
ATOM    104  O   UNL A   1      41.153  39.560  26.232  1.00  0.00    -0.237 OA
ATOM    105  O   UNL A   1      42.314  40.534  28.182  1.00  0.00    -0.744 OA
ENDBRANCH 101 102
ENDBRANCH  69  94
ENDBRANCH  43  44
ENDBRANCH  35  38
ENDBRANCH  33  34
ENDBRANCH   1  33
TORSDOF 16
ENDMDL
