MODEL 1
REMARK VINA RESULT:     -12.4      0.000      0.000
REMARK SMILES CS(=O)(=O)c1ccc(C2=NN(c3ccc(C(=O)NCCCNC(=O)c4ccc(-c5c6nc(c(-c7c(F)cc(S(=O)(=O)[O-])cc7F)c7ccc([nH]7)c(-c7c(F)cc(S(=O)(=O)[O-])cc7F)c7nc(c(-c8c(F)cc(S(=O)(=O)[O-])cc8F)c8ccc5[nH]8)C=C7)C=C6)cc4)cc3)[C@H](c3ccc(Cl)cc3)C2)cc1
REMARK SMILES IDX 20 1 19 2 18 3 16 4 17 5 15 7 12 8 13 9 92 10 14 11 91 12
REMARK SMILES IDX 11 13 9 14 10 15 101 16 93 17 8 18 5 19 6 20 103 21 7 22
REMARK SMILES IDX 102 23 2 24 1 25 3 26 4 27 94 28 95 29 100 30 96 31 99 32
REMARK SMILES IDX 97 33 98 34 21 35 22 36 23 37 24 39 25 40 26 41 90 42 27 43
REMARK SMILES IDX 89 44 28 45 29 46 30 47 83 48 31 49 88 50 82 51 84 52 32 53
REMARK SMILES IDX 87 54 81 55 80 56 33 58 67 59 46 60 66 61 47 62 50 63 65 64
REMARK SMILES IDX 85 65 48 66 49 67 64 69 86 70 51 71 34 72 35 73 44 74 36 75
REMARK SMILES IDX 37 76 43 77 45 78 38 79 39 80 40 81 41 82 42 83 68 84 69 85
REMARK SMILES IDX 78 86 70 87 71 88 77 89 79 90 72 91 73 92 74 93 75 94 76 95
REMARK SMILES IDX 52 96 53 97 62 98 54 99 55 100 61 101 63 102 56 103 57 104
REMARK SMILES IDX 58 105 59 106 60 107
REMARK H PARENT 18 6 22 38 84 57 50 68
REMARK Flexibility Score: inf
ROOT
ATOM      1  C   UNL A   1      32.738  33.336  27.508  1.00  0.00     0.042 C 
ENDROOT
BRANCH   1   2
ATOM      2  C   UNL A   1      32.702  31.816  27.644  1.00  0.00     0.118 C 
BRANCH   2   3
ATOM      3  N   UNL A   1      33.985  31.288  28.079  1.00  0.00    -0.352 N 
ATOM      4  C   UNL A   1      34.665  30.151  27.720  1.00  0.00     0.251 C 
ATOM      5  O   UNL A   1      35.808  29.991  28.147  1.00  0.00    -0.269 OA
ATOM      6  H   UNL A   1      34.448  31.845  28.747  1.00  0.00     0.163 HD
BRANCH   4   7
ATOM      7  C   UNL A   1      34.093  29.155  26.778  1.00  0.00     0.039 A 
ATOM      8  C   UNL A   1      33.072  27.115  25.129  1.00  0.00     0.060 A 
ATOM      9  C   UNL A   1      32.716  27.178  26.480  1.00  0.00     0.029 A 
ATOM     10  C   UNL A   1      33.867  28.133  24.599  1.00  0.00     0.029 A 
ATOM     11  C   UNL A   1      33.218  28.193  27.300  1.00  0.00     0.016 A 
ATOM     12  C   UNL A   1      34.364  29.152  25.411  1.00  0.00     0.016 A 
BRANCH   8  13
ATOM     13  N   UNL A   1      32.663  26.074  24.322  1.00  0.00    -0.257 N 
ATOM     14  C   UNL A   1      32.679  24.063  23.663  1.00  0.00     0.071 C 
ATOM     15  N   UNL A   1      32.916  24.803  24.698  1.00  0.00    -0.176 NA
ATOM     16  C   UNL A   1      32.279  24.804  22.413  1.00  0.00     0.091 C 
ATOM     17  C   UNL A   1      32.075  26.219  22.991  1.00  0.00     0.144 C 
BRANCH  14  18
ATOM     18  C   UNL A   1      32.836  22.601  23.709  1.00  0.00    -0.002 A 
ATOM     19  C   UNL A   1      32.933  19.826  23.825  1.00  0.00     0.067 A 
ATOM     20  C   UNL A   1      32.155  20.442  22.844  1.00  0.00     0.021 A 
ATOM     21  C   UNL A   1      33.655  20.586  24.754  1.00  0.00     0.021 A 
ATOM     22  C   UNL A   1      32.104  21.834  22.791  1.00  0.00     0.011 A 
ATOM     23  C   UNL A   1      33.618  21.982  24.688  1.00  0.00     0.011 A 
BRANCH  19  24
ATOM     24  S   UNL A   1      32.946  18.051  23.946  1.00  0.00     0.175 S 
ATOM     25  C   UNL A   1      34.600  17.694  24.473  1.00  0.00     0.163 C 
ATOM     26  O   UNL A   1      32.769  17.509  22.618  1.00  0.00    -0.224 OA
ATOM     27  O   UNL A   1      32.043  17.691  25.028  1.00  0.00    -0.224 OA
ENDBRANCH  19  24
ENDBRANCH  14  18
BRANCH  17  28
ATOM     28  C   UNL A   1      30.646  26.756  23.085  1.00  0.00    -0.023 A 
ATOM     29  C   UNL A   1      29.592  26.088  23.729  1.00  0.00     0.007 A 
ATOM     30  C   UNL A   1      30.373  28.028  22.536  1.00  0.00     0.007 A 
ATOM     31  C   UNL A   1      28.316  26.663  23.806  1.00  0.00     0.021 A 
ATOM     32  C   UNL A   1      29.110  28.617  22.641  1.00  0.00     0.021 A 
ATOM     33  C   UNL A   1      28.083  27.926  23.271  1.00  0.00     0.041 A 
ATOM     34  Cl  UNL A   1      26.521  28.636  23.391  1.00  0.00    -0.084 Cl
ENDBRANCH  17  28
ENDBRANCH   8  13
ENDBRANCH   4   7
ENDBRANCH   2   3
ENDBRANCH   1   2
BRANCH   1  35
ATOM     35  C   UNL A   1      33.686  34.016  28.493  1.00  0.00     0.118 C 
BRANCH  35  36
ATOM     36  N   UNL A   1      32.970  34.775  29.507  1.00  0.00    -0.352 N 
ATOM     37  C   UNL A   1      33.173  34.852  30.863  1.00  0.00     0.251 C 
ATOM     38  H   UNL A   1      32.223  35.320  29.168  1.00  0.00     0.163 HD
ATOM     39  O   UNL A   1      32.313  35.372  31.568  1.00  0.00    -0.269 OA
BRANCH  37  40
ATOM     40  C   UNL A   1      34.404  34.306  31.478  1.00  0.00     0.039 A 
ATOM     41  C   UNL A   1      34.393  32.989  31.946  1.00  0.00     0.014 A 
ATOM     42  C   UNL A   1      35.552  35.089  31.628  1.00  0.00     0.014 A 
ATOM     43  C   UNL A   1      35.551  32.439  32.503  1.00  0.00     0.010 A 
ATOM     44  C   UNL A   1      36.725  34.518  32.120  1.00  0.00     0.010 A 
ATOM     45  C   UNL A   1      36.740  33.187  32.557  1.00  0.00    -0.014 A 
BRANCH  45  46
ATOM     46  C   UNL A   1      38.009  32.575  33.031  1.00  0.00     0.031 A 
ATOM     47  C   UNL A   1      38.524  32.852  34.417  1.00  0.00     0.074 A 
ATOM     48  C   UNL A   1      38.733  31.822  32.178  1.00  0.00     0.049 A 
ATOM     49  N   UNL A   1      39.638  32.456  34.977  1.00  0.00    -0.248 NA
ATOM     50  C   UNL A   1      37.687  33.701  35.282  1.00  0.00     0.031 C 
ATOM     51  C   UNL A   1      38.360  31.519  30.793  1.00  0.00     0.029 A 
ATOM     52  N   UNL A   1      39.935  31.181  32.343  1.00  0.00    -0.354 N 
ATOM     53  C   UNL A   1      39.645  33.016  36.250  1.00  0.00     0.074 A 
ATOM     54  C   UNL A   1      38.444  33.814  36.365  1.00  0.00     0.031 C 
ATOM     55  C   UNL A   1      39.301  30.735  30.245  1.00  0.00     0.029 A 
ATOM     56  C   UNL A   1      40.365  30.514  31.219  1.00  0.00     0.049 A 
ATOM     57  H   UNL A   1      40.443  31.197  33.186  1.00  0.00     0.167 HD
ATOM     58  C   UNL A   1      40.564  32.865  37.235  1.00  0.00     0.037 A 
ATOM     59  C   UNL A   1      41.494  29.815  30.992  1.00  0.00     0.037 A 
ATOM     60  C   UNL A   1      41.746  32.050  37.118  1.00  0.00     0.049 A 
ATOM     61  C   UNL A   1      42.502  29.676  32.099  1.00  0.00     0.074 A 
ATOM     62  C   UNL A   1      42.698  31.773  38.084  1.00  0.00     0.029 A 
ATOM     63  N   UNL A   1      42.144  31.388  35.966  1.00  0.00    -0.354 N 
ATOM     64  N   UNL A   1      42.454  30.148  33.322  1.00  0.00    -0.248 NA
ATOM     65  C   UNL A   1      43.719  28.908  31.797  1.00  0.00     0.031 C 
ATOM     66  C   UNL A   1      43.700  30.991  37.501  1.00  0.00     0.029 A 
ATOM     67  C   UNL A   1      43.345  30.731  36.187  1.00  0.00     0.049 A 
ATOM     68  H   UNL A   1      41.648  31.385  35.116  1.00  0.00     0.167 HD
ATOM     69  C   UNL A   1      43.621  29.715  33.943  1.00  0.00     0.074 A 
ATOM     70  C   UNL A   1      44.345  28.928  32.966  1.00  0.00     0.031 C 
ATOM     71  C   UNL A   1      44.054  29.949  35.206  1.00  0.00     0.037 A 
BRANCH  58  72
ATOM     72  C   UNL A   1      40.334  33.594  38.532  1.00  0.00     0.058 A 
ATOM     73  C   UNL A   1      41.012  34.784  38.842  1.00  0.00     0.135 A 
ATOM     74  C   UNL A   1      39.373  33.133  39.447  1.00  0.00     0.135 A 
ATOM     75  F   UNL A   1      41.950  35.263  38.009  1.00  0.00    -0.206 F 
ATOM     76  C   UNL A   1      40.760  35.481  40.019  1.00  0.00     0.059 A 
ATOM     77  C   UNL A   1      39.085  33.828  40.619  1.00  0.00     0.059 A 
ATOM     78  F   UNL A   1      38.695  32.001  39.203  1.00  0.00    -0.206 F 
ATOM     79  C   UNL A   1      39.791  34.997  40.900  1.00  0.00     0.060 A 
BRANCH  79  80
ATOM     80  S   UNL A   1      39.458  35.928  42.411  1.00  0.00     0.124 S 
ATOM     81  O   UNL A   1      40.536  35.468  43.281  1.00  0.00    -0.237 OA
ATOM     82  O   UNL A   1      39.561  37.310  41.952  1.00  0.00    -0.237 OA
ATOM     83  O   UNL A   1      38.117  35.496  42.790  1.00  0.00    -0.744 OA
ENDBRANCH  79  80
ENDBRANCH  58  72
BRANCH  59  84
ATOM     84  C   UNL A   1      41.727  29.180  29.666  1.00  0.00     0.058 A 
ATOM     85  C   UNL A   1      41.200  27.914  29.369  1.00  0.00     0.135 A 
ATOM     86  C   UNL A   1      42.481  29.823  28.671  1.00  0.00     0.135 A 
ATOM     87  F   UNL A   1      40.478  27.257  30.289  1.00  0.00    -0.206 F 
ATOM     88  C   UNL A   1      41.429  27.297  28.143  1.00  0.00     0.059 A 
ATOM     89  C   UNL A   1      42.700  29.238  27.427  1.00  0.00     0.059 A 
ATOM     90  F   UNL A   1      42.994  31.043  28.896  1.00  0.00    -0.206 F 
ATOM     91  C   UNL A   1      42.181  27.969  27.178  1.00  0.00     0.060 A 
BRANCH  91  92
ATOM     92  S   UNL A   1      42.444  27.172  25.578  1.00  0.00     0.124 S 
ATOM     93  O   UNL A   1      43.705  26.476  25.800  1.00  0.00    -0.237 OA
ATOM     94  O   UNL A   1      41.259  26.329  25.458  1.00  0.00    -0.237 OA
ATOM     95  O   UNL A   1      42.499  28.298  24.649  1.00  0.00    -0.744 OA
ENDBRANCH  91  92
ENDBRANCH  59  84
BRANCH  71  96
ATOM     96  C   UNL A   1      45.361  29.325  35.616  1.00  0.00     0.058 A 
ATOM     97  C   UNL A   1      45.424  28.031  36.155  1.00  0.00     0.135 A 
ATOM     98  C   UNL A   1      46.569  30.015  35.423  1.00  0.00     0.135 A 
ATOM     99  F   UNL A   1      44.298  27.332  36.366  1.00  0.00    -0.206 F 
ATOM    100  C   UNL A   1      46.637  27.450  36.510  1.00  0.00     0.059 A 
ATOM    101  C   UNL A   1      47.796  29.442  35.743  1.00  0.00     0.059 A 
ATOM    102  F   UNL A   1      46.566  31.253  34.903  1.00  0.00    -0.206 F 
ATOM    103  C   UNL A   1      47.818  28.163  36.298  1.00  0.00     0.060 A 
BRANCH 103 104
ATOM    104  S   UNL A   1      49.388  27.385  36.732  1.00  0.00     0.124 S 
ATOM    105  O   UNL A   1      49.758  28.122  37.936  1.00  0.00    -0.237 OA
ATOM    106  O   UNL A   1      49.000  25.992  36.934  1.00  0.00    -0.237 OA
ATOM    107  O   UNL A   1      50.226  27.632  35.563  1.00  0.00    -0.744 OA
ENDBRANCH 103 104
ENDBRANCH  71  96
ENDBRANCH  45  46
ENDBRANCH  37  40
ENDBRANCH  35  36
ENDBRANCH   1  35
TORSDOF 17
ENDMDL
MODEL 2
REMARK VINA RESULT:     -12.3      4.986      5.925
REMARK SMILES CS(=O)(=O)c1ccc(C2=NN(c3ccc(C(=O)NCCCNC(=O)c4ccc(-c5c6nc(c(-c7c(F)cc(S(=O)(=O)[O-])cc7F)c7ccc([nH]7)c(-c7c(F)cc(S(=O)(=O)[O-])cc7F)c7nc(c(-c8c(F)cc(S(=O)(=O)[O-])cc8F)c8ccc5[nH]8)C=C7)C=C6)cc4)cc3)[C@H](c3ccc(Cl)cc3)C2)cc1
REMARK SMILES IDX 20 1 19 2 18 3 16 4 17 5 15 7 12 8 13 9 92 10 14 11 91 12
REMARK SMILES IDX 11 13 9 14 10 15 101 16 93 17 8 18 5 19 6 20 103 21 7 22
REMARK SMILES IDX 102 23 2 24 1 25 3 26 4 27 94 28 95 29 100 30 96 31 99 32
REMARK SMILES IDX 97 33 98 34 21 35 22 36 23 37 24 39 25 40 26 41 90 42 27 43
REMARK SMILES IDX 89 44 28 45 29 46 30 47 83 48 31 49 88 50 82 51 84 52 32 53
REMARK SMILES IDX 87 54 81 55 80 56 33 58 67 59 46 60 66 61 47 62 50 63 65 64
REMARK SMILES IDX 85 65 48 66 49 67 64 69 86 70 51 71 34 72 35 73 44 74 36 75
REMARK SMILES IDX 37 76 43 77 45 78 38 79 39 80 40 81 41 82 42 83 68 84 69 85
REMARK SMILES IDX 78 86 70 87 71 88 77 89 79 90 72 91 73 92 74 93 75 94 76 95
REMARK SMILES IDX 52 96 53 97 62 98 54 99 55 100 61 101 63 102 56 103 57 104
REMARK SMILES IDX 58 105 59 106 60 107
REMARK H PARENT 18 6 22 38 84 57 50 68
REMARK Flexibility Score: inf
ROOT
ATOM      1  C   UNL A   1      32.876  33.377  27.842  1.00  0.00     0.042 C 
ENDROOT
BRANCH   1   2
ATOM      2  C   UNL A   1      33.019  31.932  27.369  1.00  0.00     0.118 C 
BRANCH   2   3
ATOM      3  N   UNL A   1      34.109  31.252  28.051  1.00  0.00    -0.352 N 
ATOM      4  C   UNL A   1      34.648  30.002  27.874  1.00  0.00     0.251 C 
ATOM      5  O   UNL A   1      35.662  29.706  28.505  1.00  0.00    -0.269 OA
ATOM      6  H   UNL A   1      34.536  31.782  28.763  1.00  0.00     0.163 HD
BRANCH   4   7
ATOM      7  C   UNL A   1      34.091  29.036  26.894  1.00  0.00     0.039 A 
ATOM      8  C   UNL A   1      33.074  27.048  25.180  1.00  0.00     0.060 A 
ATOM      9  C   UNL A   1      32.598  27.165  26.489  1.00  0.00     0.029 A 
ATOM     10  C   UNL A   1      33.992  27.992  24.715  1.00  0.00     0.029 A 
ATOM     11  C   UNL A   1      33.098  28.154  27.341  1.00  0.00     0.016 A 
ATOM     12  C   UNL A   1      34.489  28.986  25.558  1.00  0.00     0.016 A 
BRANCH   8  13
ATOM     13  N   UNL A   1      32.662  26.026  24.349  1.00  0.00    -0.257 N 
ATOM     14  C   UNL A   1      32.670  24.030  23.649  1.00  0.00     0.071 C 
ATOM     15  N   UNL A   1      32.907  24.747  24.700  1.00  0.00    -0.176 NA
ATOM     16  C   UNL A   1      32.279  24.798  22.413  1.00  0.00     0.091 C 
ATOM     17  C   UNL A   1      32.080  26.202  23.020  1.00  0.00     0.144 C 
BRANCH  14  18
ATOM     18  C   UNL A   1      32.819  22.566  23.665  1.00  0.00    -0.002 A 
ATOM     19  C   UNL A   1      32.902  19.788  23.731  1.00  0.00     0.067 A 
ATOM     20  C   UNL A   1      32.103  20.427  22.780  1.00  0.00     0.021 A 
ATOM     21  C   UNL A   1      33.652  20.528  24.654  1.00  0.00     0.021 A 
ATOM     22  C   UNL A   1      32.060  21.819  22.754  1.00  0.00     0.011 A 
ATOM     23  C   UNL A   1      33.621  21.925  24.613  1.00  0.00     0.011 A 
BRANCH  19  24
ATOM     24  S   UNL A   1      32.907  18.012  23.820  1.00  0.00     0.175 S 
ATOM     25  C   UNL A   1      34.565  17.637  24.321  1.00  0.00     0.163 C 
ATOM     26  O   UNL A   1      32.711  17.495  22.485  1.00  0.00    -0.224 OA
ATOM     27  O   UNL A   1      32.014  17.637  24.906  1.00  0.00    -0.224 OA
ENDBRANCH  19  24
ENDBRANCH  14  18
BRANCH  17  28
ATOM     28  C   UNL A   1      30.654  26.745  23.120  1.00  0.00    -0.023 A 
ATOM     29  C   UNL A   1      29.597  26.076  23.758  1.00  0.00     0.007 A 
ATOM     30  C   UNL A   1      30.386  28.022  22.581  1.00  0.00     0.007 A 
ATOM     31  C   UNL A   1      28.324  26.656  23.841  1.00  0.00     0.021 A 
ATOM     32  C   UNL A   1      29.125  28.616  22.693  1.00  0.00     0.021 A 
ATOM     33  C   UNL A   1      28.096  27.924  23.317  1.00  0.00     0.041 A 
ATOM     34  Cl  UNL A   1      26.537  28.641  23.444  1.00  0.00    -0.084 Cl
ENDBRANCH  17  28
ENDBRANCH   8  13
ENDBRANCH   4   7
ENDBRANCH   2   3
ENDBRANCH   1   2
BRANCH   1  35
ATOM     35  C   UNL A   1      34.067  33.873  28.658  1.00  0.00     0.118 C 
BRANCH  35  36
ATOM     36  N   UNL A   1      33.829  33.771  30.091  1.00  0.00    -0.352 N 
ATOM     37  C   UNL A   1      34.550  33.122  31.063  1.00  0.00     0.251 C 
ATOM     38  H   UNL A   1      33.026  34.240  30.412  1.00  0.00     0.163 HD
ATOM     39  O   UNL A   1      34.050  32.969  32.175  1.00  0.00    -0.269 OA
BRANCH  37  40
ATOM     40  C   UNL A   1      35.906  32.601  30.782  1.00  0.00     0.039 A 
ATOM     41  C   UNL A   1      36.547  32.997  29.605  1.00  0.00     0.014 A 
ATOM     42  C   UNL A   1      36.533  31.699  31.647  1.00  0.00     0.014 A 
ATOM     43  C   UNL A   1      37.840  32.544  29.330  1.00  0.00     0.010 A 
ATOM     44  C   UNL A   1      37.848  31.303  31.406  1.00  0.00     0.010 A 
ATOM     45  C   UNL A   1      38.518  31.724  30.249  1.00  0.00    -0.014 A 
BRANCH  45  46
ATOM     46  C   UNL A   1      39.936  31.337  30.030  1.00  0.00     0.031 A 
ATOM     47  C   UNL A   1      41.044  32.333  30.239  1.00  0.00     0.074 A 
ATOM     48  C   UNL A   1      40.216  30.099  29.574  1.00  0.00     0.049 A 
ATOM     49  N   UNL A   1      42.329  32.191  30.038  1.00  0.00    -0.248 NA
ATOM     50  C   UNL A   1      40.657  33.671  30.717  1.00  0.00     0.031 C 
ATOM     51  C   UNL A   1      39.222  29.059  29.291  1.00  0.00     0.029 A 
ATOM     52  N   UNL A   1      41.412  29.505  29.260  1.00  0.00    -0.354 N 
ATOM     53  C   UNL A   1      42.903  33.419  30.349  1.00  0.00     0.074 A 
ATOM     54  C   UNL A   1      41.821  34.308  30.713  1.00  0.00     0.031 C 
ATOM     55  C   UNL A   1      39.852  27.952  28.868  1.00  0.00     0.029 A 
ATOM     56  C   UNL A   1      41.286  28.213  28.806  1.00  0.00     0.049 A 
ATOM     57  H   UNL A   1      42.280  29.962  29.351  1.00  0.00     0.167 HD
ATOM     58  C   UNL A   1      44.213  33.765  30.346  1.00  0.00     0.037 A 
ATOM     59  C   UNL A   1      42.217  27.340  28.375  1.00  0.00     0.037 A 
ATOM     60  C   UNL A   1      45.285  32.865  30.003  1.00  0.00     0.049 A 
ATOM     61  C   UNL A   1      43.662  27.757  28.368  1.00  0.00     0.074 A 
ATOM     62  C   UNL A   1      46.648  33.100  30.041  1.00  0.00     0.029 A 
ATOM     63  N   UNL A   1      45.117  31.565  29.552  1.00  0.00    -0.354 N 
ATOM     64  N   UNL A   1      44.193  28.898  28.741  1.00  0.00    -0.248 NA
ATOM     65  C   UNL A   1      44.638  26.770  27.883  1.00  0.00     0.031 C 
ATOM     66  C   UNL A   1      47.302  31.961  29.561  1.00  0.00     0.029 A 
ATOM     67  C   UNL A   1      46.351  30.996  29.276  1.00  0.00     0.049 A 
ATOM     68  H   UNL A   1      44.250  31.111  29.443  1.00  0.00     0.167 HD
ATOM     69  C   UNL A   1      45.565  28.756  28.558  1.00  0.00     0.074 A 
ATOM     70  C   UNL A   1      45.782  27.414  28.059  1.00  0.00     0.031 C 
ATOM     71  C   UNL A   1      46.554  29.657  28.783  1.00  0.00     0.037 A 
BRANCH  58  72
ATOM     72  C   UNL A   1      44.570  35.178  30.723  1.00  0.00     0.058 A 
ATOM     73  C   UNL A   1      44.642  36.204  29.767  1.00  0.00     0.135 A 
ATOM     74  C   UNL A   1      44.776  35.525  32.069  1.00  0.00     0.135 A 
ATOM     75  F   UNL A   1      44.467  35.926  28.465  1.00  0.00    -0.206 F 
ATOM     76  C   UNL A   1      44.924  37.517  30.127  1.00  0.00     0.059 A 
ATOM     77  C   UNL A   1      45.032  36.838  32.456  1.00  0.00     0.059 A 
ATOM     78  F   UNL A   1      44.720  34.585  33.025  1.00  0.00    -0.206 F 
ATOM     79  C   UNL A   1      45.113  37.826  31.476  1.00  0.00     0.060 A 
BRANCH  79  80
ATOM     80  S   UNL A   1      45.451  39.541  31.928  1.00  0.00     0.124 S 
ATOM     81  O   UNL A   1      45.687  40.146  30.620  1.00  0.00    -0.237 OA
ATOM     82  O   UNL A   1      44.214  39.936  32.594  1.00  0.00    -0.237 OA
ATOM     83  O   UNL A   1      46.621  39.441  32.793  1.00  0.00    -0.744 OA
ENDBRANCH  79  80
ENDBRANCH  58  72
BRANCH  59  84
ATOM     84  C   UNL A   1      41.816  25.979  27.926  1.00  0.00     0.058 A 
ATOM     85  C   UNL A   1      42.099  24.849  28.707  1.00  0.00     0.135 A 
ATOM     86  C   UNL A   1      41.145  25.780  26.708  1.00  0.00     0.135 A 
ATOM     87  F   UNL A   1      42.744  24.987  29.875  1.00  0.00    -0.206 F 
ATOM     88  C   UNL A   1      41.752  23.568  28.289  1.00  0.00     0.059 A 
ATOM     89  C   UNL A   1      40.763  24.511  26.283  1.00  0.00     0.059 A 
ATOM     90  F   UNL A   1      40.835  26.829  25.930  1.00  0.00    -0.206 F 
ATOM     91  C   UNL A   1      41.083  23.410  27.074  1.00  0.00     0.060 A 
BRANCH  91  92
ATOM     92  S   UNL A   1      40.608  21.745  26.559  1.00  0.00     0.124 S 
ATOM     93  O   UNL A   1      41.660  21.421  25.604  1.00  0.00    -0.237 OA
ATOM     94  O   UNL A   1      40.641  21.013  27.822  1.00  0.00    -0.237 OA
ATOM     95  O   UNL A   1      39.276  21.938  25.991  1.00  0.00    -0.744 OA
ENDBRANCH  91  92
ENDBRANCH  59  84
BRANCH  71  96
ATOM     96  C   UNL A   1      47.966  29.213  28.515  1.00  0.00     0.058 A 
ATOM     97  C   UNL A   1      48.781  28.690  29.531  1.00  0.00     0.135 A 
ATOM     98  C   UNL A   1      48.495  29.270  27.215  1.00  0.00     0.135 A 
ATOM     99  F   UNL A   1      48.327  28.621  30.792  1.00  0.00    -0.206 F 
ATOM    100  C   UNL A   1      50.078  28.259  29.273  1.00  0.00     0.059 A 
ATOM    101  C   UNL A   1      49.779  28.817  26.928  1.00  0.00     0.059 A 
ATOM    102  F   UNL A   1      47.756  29.753  26.203  1.00  0.00    -0.206 F 
ATOM    103  C   UNL A   1      50.567  28.325  27.967  1.00  0.00     0.060 A 
BRANCH 103 104
ATOM    104  S   UNL A   1      52.240  27.731  27.640  1.00  0.00     0.124 S 
ATOM    105  O   UNL A   1      51.977  26.430  27.035  1.00  0.00    -0.237 OA
ATOM    106  O   UNL A   1      52.765  28.754  26.741  1.00  0.00    -0.237 OA
ATOM    107  O   UNL A   1      52.854  27.695  28.964  1.00  0.00    -0.744 OA
ENDBRANCH 103 104
ENDBRANCH  71  96
ENDBRANCH  45  46
ENDBRANCH  37  40
ENDBRANCH  35  36
ENDBRANCH   1  35
TORSDOF 17
ENDMDL
MODEL 3
REMARK VINA RESULT:     -12.2      5.640     12.052
REMARK SMILES CS(=O)(=O)c1ccc(C2=NN(c3ccc(C(=O)NCCCNC(=O)c4ccc(-c5c6nc(c(-c7c(F)cc(S(=O)(=O)[O-])cc7F)c7ccc([nH]7)c(-c7c(F)cc(S(=O)(=O)[O-])cc7F)c7nc(c(-c8c(F)cc(S(=O)(=O)[O-])cc8F)c8ccc5[nH]8)C=C7)C=C6)cc4)cc3)[C@H](c3ccc(Cl)cc3)C2)cc1
REMARK SMILES IDX 20 1 19 2 18 3 16 4 17 5 15 7 12 8 13 9 92 10 14 11 91 12
REMARK SMILES IDX 11 13 9 14 10 15 101 16 93 17 8 18 5 19 6 20 103 21 7 22
REMARK SMILES IDX 102 23 2 24 1 25 3 26 4 27 94 28 95 29 100 30 96 31 99 32
REMARK SMILES IDX 97 33 98 34 21 35 22 36 23 37 24 39 25 40 26 41 90 42 27 43
REMARK SMILES IDX 89 44 28 45 29 46 30 47 83 48 31 49 88 50 82 51 84 52 32 53
REMARK SMILES IDX 87 54 81 55 80 56 33 58 67 59 46 60 66 61 47 62 50 63 65 64
REMARK SMILES IDX 85 65 48 66 49 67 64 69 86 70 51 71 34 72 35 73 44 74 36 75
REMARK SMILES IDX 37 76 43 77 45 78 38 79 39 80 40 81 41 82 42 83 68 84 69 85
REMARK SMILES IDX 78 86 70 87 71 88 77 89 79 90 72 91 73 92 74 93 75 94 76 95
REMARK SMILES IDX 52 96 53 97 62 98 54 99 55 100 61 101 63 102 56 103 57 104
REMARK SMILES IDX 58 105 59 106 60 107
REMARK H PARENT 18 6 22 38 84 57 50 68
REMARK Flexibility Score: inf
ROOT
ATOM      1  C   UNL A   1      33.857  33.855  29.331  1.00  0.00     0.042 C 
ENDROOT
BRANCH   1   2
ATOM      2  C   UNL A   1      34.612  35.155  29.595  1.00  0.00     0.118 C 
BRANCH   2   3
ATOM      3  N   UNL A   1      34.033  35.894  30.705  1.00  0.00    -0.352 N 
ATOM      4  C   UNL A   1      34.294  35.856  32.052  1.00  0.00     0.251 C 
ATOM      5  O   UNL A   1      33.745  36.683  32.780  1.00  0.00    -0.269 OA
ATOM      6  H   UNL A   1      33.330  36.533  30.445  1.00  0.00     0.163 HD
BRANCH   4   7
ATOM      7  C   UNL A   1      35.273  34.905  32.638  1.00  0.00     0.039 A 
ATOM      8  C   UNL A   1      37.043  33.148  33.942  1.00  0.00     0.060 A 
ATOM      9  C   UNL A   1      35.665  33.053  34.158  1.00  0.00     0.029 A 
ATOM     10  C   UNL A   1      37.511  34.067  33.001  1.00  0.00     0.029 A 
ATOM     11  C   UNL A   1      34.783  33.922  33.508  1.00  0.00     0.016 A 
ATOM     12  C   UNL A   1      36.635  34.931  32.344  1.00  0.00     0.016 A 
BRANCH   8  13
ATOM     13  N   UNL A   1      37.940  32.364  34.639  1.00  0.00    -0.257 N 
ATOM     14  C   UNL A   1      39.336  30.785  34.824  1.00  0.00     0.071 C 
ATOM     15  N   UNL A   1      38.818  31.597  33.960  1.00  0.00    -0.176 NA
ATOM     16  C   UNL A   1      38.789  30.892  36.225  1.00  0.00     0.091 C 
ATOM     17  C   UNL A   1      37.949  32.177  36.089  1.00  0.00     0.144 C 
BRANCH  14  18
ATOM     18  C   UNL A   1      40.358  29.799  34.439  1.00  0.00    -0.002 A 
ATOM     19  C   UNL A   1      42.428  28.081  33.741  1.00  0.00     0.067 A 
ATOM     20  C   UNL A   1      42.413  28.652  35.015  1.00  0.00     0.021 A 
ATOM     21  C   UNL A   1      41.421  28.368  32.812  1.00  0.00     0.021 A 
ATOM     22  C   UNL A   1      41.377  29.518  35.360  1.00  0.00     0.011 A 
ATOM     23  C   UNL A   1      40.372  29.222  33.166  1.00  0.00     0.011 A 
BRANCH  19  24
ATOM     24  S   UNL A   1      43.785  27.033  33.266  1.00  0.00     0.175 S 
ATOM     25  C   UNL A   1      43.605  25.630  34.334  1.00  0.00     0.163 C 
ATOM     26  O   UNL A   1      45.016  27.708  33.612  1.00  0.00    -0.224 OA
ATOM     27  O   UNL A   1      43.530  26.597  31.902  1.00  0.00    -0.224 OA
ENDBRANCH  19  24
ENDBRANCH  14  18
BRANCH  17  28
ATOM     28  C   UNL A   1      38.448  33.439  36.795  1.00  0.00    -0.023 A 
ATOM     29  C   UNL A   1      38.232  33.721  38.153  1.00  0.00     0.007 A 
ATOM     30  C   UNL A   1      39.217  34.360  36.052  1.00  0.00     0.007 A 
ATOM     31  C   UNL A   1      38.753  34.883  38.739  1.00  0.00     0.021 A 
ATOM     32  C   UNL A   1      39.765  35.503  36.643  1.00  0.00     0.021 A 
ATOM     33  C   UNL A   1      39.523  35.763  37.985  1.00  0.00     0.041 A 
ATOM     34  Cl  UNL A   1      40.181  37.174  38.716  1.00  0.00    -0.084 Cl
ENDBRANCH  17  28
ENDBRANCH   8  13
ENDBRANCH   4   7
ENDBRANCH   2   3
ENDBRANCH   1   2
BRANCH   1  35
ATOM     35  C   UNL A   1      34.771  32.661  29.062  1.00  0.00     0.118 C 
BRANCH  35  36
ATOM     36  N   UNL A   1      34.034  31.508  28.565  1.00  0.00    -0.352 N 
ATOM     37  C   UNL A   1      34.489  30.295  28.113  1.00  0.00     0.251 C 
ATOM     38  H   UNL A   1      33.055  31.616  28.553  1.00  0.00     0.163 HD
ATOM     39  O   UNL A   1      33.713  29.547  27.524  1.00  0.00    -0.269 OA
BRANCH  37  40
ATOM     40  C   UNL A   1      35.898  29.890  28.316  1.00  0.00     0.039 A 
ATOM     41  C   UNL A   1      36.800  30.044  27.259  1.00  0.00     0.014 A 
ATOM     42  C   UNL A   1      36.328  29.328  29.521  1.00  0.00     0.014 A 
ATOM     43  C   UNL A   1      38.142  29.699  27.434  1.00  0.00     0.010 A 
ATOM     44  C   UNL A   1      37.680  29.049  29.717  1.00  0.00     0.010 A 
ATOM     45  C   UNL A   1      38.603  29.235  28.678  1.00  0.00    -0.014 A 
BRANCH  45  46
ATOM     46  C   UNL A   1      40.048  28.983  28.916  1.00  0.00     0.031 A 
ATOM     47  C   UNL A   1      40.665  27.659  28.553  1.00  0.00     0.074 A 
ATOM     48  C   UNL A   1      40.789  29.930  29.526  1.00  0.00     0.049 A 
ATOM     49  N   UNL A   1      41.891  27.241  28.743  1.00  0.00    -0.248 NA
ATOM     50  C   UNL A   1      39.787  26.667  27.910  1.00  0.00     0.031 C 
ATOM     51  C   UNL A   1      40.292  31.237  29.966  1.00  0.00     0.029 A 
ATOM     52  N   UNL A   1      42.112  29.942  29.890  1.00  0.00    -0.354 N 
ATOM     53  C   UNL A   1      41.929  25.938  28.259  1.00  0.00     0.074 A 
ATOM     54  C   UNL A   1      40.593  25.619  27.804  1.00  0.00     0.031 C 
ATOM     55  C   UNL A   1      41.300  31.929  30.518  1.00  0.00     0.029 A 
ATOM     56  C   UNL A   1      42.504  31.104  30.514  1.00  0.00     0.049 A 
ATOM     57  H   UNL A   1      42.724  29.189  29.720  1.00  0.00     0.167 HD
ATOM     58  C   UNL A   1      42.986  25.093  28.188  1.00  0.00     0.037 A 
ATOM     59  C   UNL A   1      43.693  31.460  31.037  1.00  0.00     0.037 A 
ATOM     60  C   UNL A   1      44.318  25.429  28.624  1.00  0.00     0.049 A 
ATOM     61  C   UNL A   1      44.845  30.496  30.957  1.00  0.00     0.074 A 
ATOM     62  C   UNL A   1      45.470  24.669  28.525  1.00  0.00     0.029 A 
ATOM     63  N   UNL A   1      44.676  26.615  29.247  1.00  0.00    -0.354 N 
ATOM     64  N   UNL A   1      44.881  29.297  30.424  1.00  0.00    -0.248 NA
ATOM     65  C   UNL A   1      46.119  30.932  31.547  1.00  0.00     0.031 C 
ATOM     66  C   UNL A   1      46.512  25.372  29.139  1.00  0.00     0.029 A 
ATOM     67  C   UNL A   1      46.023  26.594  29.569  1.00  0.00     0.049 A 
ATOM     68  H   UNL A   1      44.063  27.362  29.434  1.00  0.00     0.167 HD
ATOM     69  C   UNL A   1      46.186  28.846  30.594  1.00  0.00     0.074 A 
ATOM     70  C   UNL A   1      46.910  29.908  31.262  1.00  0.00     0.031 C 
ATOM     71  C   UNL A   1      46.733  27.660  30.231  1.00  0.00     0.037 A 
BRANCH  58  72
ATOM     72  C   UNL A   1      42.754  23.719  27.619  1.00  0.00     0.058 A 
ATOM     73  C   UNL A   1      42.903  23.451  26.249  1.00  0.00     0.135 A 
ATOM     74  C   UNL A   1      42.448  22.641  28.465  1.00  0.00     0.135 A 
ATOM     75  F   UNL A   1      43.183  24.447  25.392  1.00  0.00    -0.206 F 
ATOM     76  C   UNL A   1      42.737  22.169  25.735  1.00  0.00     0.059 A 
ATOM     77  C   UNL A   1      42.304  21.344  27.977  1.00  0.00     0.059 A 
ATOM     78  F   UNL A   1      42.293  22.838  29.784  1.00  0.00    -0.206 F 
ATOM     79  C   UNL A   1      42.442  21.121  26.608  1.00  0.00     0.060 A 
BRANCH  79  80
ATOM     80  S   UNL A   1      42.256  19.459  25.927  1.00  0.00     0.124 S 
ATOM     81  O   UNL A   1      42.726  18.635  27.037  1.00  0.00    -0.237 OA
ATOM     82  O   UNL A   1      40.824  19.394  25.653  1.00  0.00    -0.237 OA
ATOM     83  O   UNL A   1      43.116  19.474  24.749  1.00  0.00    -0.744 OA
ENDBRANCH  79  80
ENDBRANCH  58  72
BRANCH  59  84
ATOM     84  C   UNL A   1      43.861  32.796  31.671  1.00  0.00     0.058 A 
ATOM     85  C   UNL A   1      44.303  33.898  30.925  1.00  0.00     0.135 A 
ATOM     86  C   UNL A   1      43.587  32.998  33.034  1.00  0.00     0.135 A 
ATOM     87  F   UNL A   1      44.584  33.755  29.620  1.00  0.00    -0.206 F 
ATOM     88  C   UNL A   1      44.488  35.148  31.508  1.00  0.00     0.059 A 
ATOM     89  C   UNL A   1      43.738  34.244  33.634  1.00  0.00     0.059 A 
ATOM     90  F   UNL A   1      43.146  31.980  33.790  1.00  0.00    -0.206 F 
ATOM     91  C   UNL A   1      44.202  35.310  32.865  1.00  0.00     0.060 A 
BRANCH  91  92
ATOM     92  S   UNL A   1      44.415  36.945  33.604  1.00  0.00     0.124 S 
ATOM     93  O   UNL A   1      43.133  37.571  33.305  1.00  0.00    -0.237 OA
ATOM     94  O   UNL A   1      44.656  36.618  35.006  1.00  0.00    -0.237 OA
ATOM     95  O   UNL A   1      45.566  37.488  32.888  1.00  0.00    -0.744 OA
ENDBRANCH  91  92
ENDBRANCH  59  84
BRANCH  71  96
ATOM     96  C   UNL A   1      48.195  27.454  30.525  1.00  0.00     0.058 A 
ATOM     97  C   UNL A   1      48.632  26.890  31.734  1.00  0.00     0.135 A 
ATOM     98  C   UNL A   1      49.166  27.781  29.565  1.00  0.00     0.135 A 
ATOM     99  F   UNL A   1      47.745  26.566  32.688  1.00  0.00    -0.206 F 
ATOM    100  C   UNL A   1      49.983  26.680  31.991  1.00  0.00     0.059 A 
ATOM    101  C   UNL A   1      50.520  27.552  29.788  1.00  0.00     0.059 A 
ATOM    102  F   UNL A   1      48.802  28.315  28.388  1.00  0.00    -0.206 F 
ATOM    103  C   UNL A   1      50.919  27.013  31.010  1.00  0.00     0.060 A 
BRANCH 103 104
ATOM    104  S   UNL A   1      52.666  26.703  31.343  1.00  0.00     0.124 S 
ATOM    105  O   UNL A   1      53.180  28.060  31.502  1.00  0.00    -0.237 OA
ATOM    106  O   UNL A   1      52.615  25.898  32.560  1.00  0.00    -0.237 OA
ATOM    107  O   UNL A   1      53.121  25.997  30.150  1.00  0.00    -0.744 OA
ENDBRANCH 103 104
ENDBRANCH  71  96
ENDBRANCH  45  46
ENDBRANCH  37  40
ENDBRANCH  35  36
ENDBRANCH   1  35
TORSDOF 17
ENDMDL
