MODEL 1
REMARK VINA RESULT:     -12.9      0.000      0.000
REMARK SMILES O=C(COc1ccccc1/C=C1\C(=O)Nc2ccccc21)NCCCNC(=O)c1ccc(-c2c3nc(c(-c4c(F)cc(S(=O)(=O)[O-])cc4F)c4ccc([nH]4)c(-c4c(F)cc(S(=O)(=O)[O-])cc4F)c4nc(c(-c5c(F)cc(S(=O)(=O)[O-])cc5F)c5ccc2[nH]5)C=C4)C=C3)cc1
REMARK SMILES IDX 24 1 23 2 22 3 1 4 2 5 3 7 4 8 5 9 6 10 10 11 7 12 9 13 8 14
REMARK SMILES IDX 11 15 12 16 13 17 21 18 14 19 15 20 16 21 20 22 17 24 19 25
REMARK SMILES IDX 18 26 25 27 26 28 27 29 28 31 29 32 30 33 94 34 31 35 93 36
REMARK SMILES IDX 32 37 33 38 34 39 87 40 35 41 92 42 86 43 88 44 36 45 91 46
REMARK SMILES IDX 85 47 84 48 37 50 71 51 50 52 70 53 51 54 54 55 69 56 89 57
REMARK SMILES IDX 52 58 53 59 68 61 90 62 55 63 38 64 39 65 48 66 40 67 41 68
REMARK SMILES IDX 47 69 49 70 42 71 43 72 44 73 45 74 46 75 72 76 73 77 82 78
REMARK SMILES IDX 74 79 75 80 81 81 83 82 76 83 77 84 78 85 79 86 80 87 56 88
REMARK SMILES IDX 57 89 66 90 58 91 59 92 65 93 67 94 60 95 61 96 62 97 63 98
REMARK SMILES IDX 64 99
REMARK H PARENT 22 6 15 23 26 30 88 49 54 60
REMARK Flexibility Score: inf
ROOT
ATOM      1  C   UNL A   1      35.329  32.310  27.935  1.00  0.00     0.042 C 
ENDROOT
BRANCH   1   2
ATOM      2  C   UNL A   1      34.048  31.520  28.006  1.00  0.00     0.117 C 
BRANCH   2   3
ATOM      3  N   UNL A   1      34.160  30.114  27.738  1.00  0.00    -0.353 N 
ATOM      4  O   UNL A   1      32.158  29.892  26.603  1.00  0.00    -0.271 OA
ATOM      5  C   UNL A   1      33.299  29.511  26.832  1.00  0.00     0.257 C 
ATOM      6  H   UNL A   1      34.846  29.577  28.198  1.00  0.00     0.163 HD
BRANCH   5   7
ATOM      7  C   UNL A   1      33.952  28.351  26.102  1.00  0.00     0.329 C 
BRANCH   7   8
ATOM      8  O   UNL A   1      33.072  27.236  26.324  1.00  0.00    -0.483 OA
BRANCH   8   9
ATOM      9  C   UNL A   1      33.285  26.194  25.458  1.00  0.00     0.127 A 
ATOM     10  C   UNL A   1      34.422  25.406  25.692  1.00  0.00     0.047 A 
ATOM     11  C   UNL A   1      32.510  26.039  24.286  1.00  0.00     0.017 A 
ATOM     12  C   UNL A   1      34.825  24.465  24.751  1.00  0.00     0.004 A 
ATOM     13  C   UNL A   1      33.008  25.163  23.313  1.00  0.00     0.012 A 
ATOM     14  C   UNL A   1      34.134  24.366  23.549  1.00  0.00     0.001 A 
BRANCH  11  15
ATOM     15  C   UNL A   1      31.244  26.786  24.036  1.00  0.00     0.026 C 
ATOM     16  C   UNL A   1      31.058  27.916  23.316  1.00  0.00     0.050 C 
ATOM     17  C   UNL A   1      32.144  28.715  22.609  1.00  0.00     0.256 C 
ATOM     18  C   UNL A   1      29.779  28.606  22.982  1.00  0.00     0.011 A 
ATOM     19  O   UNL A   1      33.342  28.536  22.563  1.00  0.00    -0.269 OA
ATOM     20  N   UNL A   1      31.490  29.761  21.986  1.00  0.00    -0.321 N 
ATOM     21  C   UNL A   1      30.119  29.684  22.156  1.00  0.00     0.049 A 
ATOM     22  C   UNL A   1      28.436  28.410  23.263  1.00  0.00     0.011 A 
ATOM     23  H   UNL A   1      31.944  30.474  21.482  1.00  0.00     0.170 HD
ATOM     24  C   UNL A   1      29.195  30.534  21.570  1.00  0.00     0.027 A 
ATOM     25  C   UNL A   1      27.470  29.214  22.632  1.00  0.00     0.001 A 
ATOM     26  C   UNL A   1      27.848  30.268  21.789  1.00  0.00     0.002 A 
ENDBRANCH  11  15
ENDBRANCH   8   9
ENDBRANCH   7   8
ENDBRANCH   5   7
ENDBRANCH   2   3
ENDBRANCH   1   2
BRANCH   1  27
ATOM     27  C   UNL A   1      35.969  32.569  29.289  1.00  0.00     0.118 C 
BRANCH  27  28
ATOM     28  N   UNL A   1      35.675  31.566  30.314  1.00  0.00    -0.352 N 
ATOM     29  C   UNL A   1      36.469  30.556  30.818  1.00  0.00     0.251 C 
ATOM     30  H   UNL A   1      34.772  31.619  30.703  1.00  0.00     0.163 HD
ATOM     31  O   UNL A   1      36.008  29.772  31.643  1.00  0.00    -0.269 OA
BRANCH  29  32
ATOM     32  C   UNL A   1      37.857  30.393  30.329  1.00  0.00     0.039 A 
ATOM     33  C   UNL A   1      38.914  30.406  31.243  1.00  0.00     0.014 A 
ATOM     34  C   UNL A   1      38.109  30.161  28.979  1.00  0.00     0.014 A 
ATOM     35  C   UNL A   1      40.202  30.078  30.810  1.00  0.00     0.010 A 
ATOM     36  C   UNL A   1      39.352  29.689  28.583  1.00  0.00     0.010 A 
ATOM     37  C   UNL A   1      40.422  29.660  29.487  1.00  0.00    -0.014 A 
BRANCH  37  38
ATOM     38  C   UNL A   1      41.761  29.224  29.007  1.00  0.00     0.031 A 
ATOM     39  C   UNL A   1      42.882  30.229  28.916  1.00  0.00     0.074 A 
ATOM     40  C   UNL A   1      41.953  27.956  28.588  1.00  0.00     0.049 A 
ATOM     41  N   UNL A   1      44.094  30.076  28.448  1.00  0.00    -0.248 NA
ATOM     42  C   UNL A   1      42.590  31.599  29.372  1.00  0.00     0.031 C 
ATOM     43  C   UNL A   1      40.932  26.905  28.565  1.00  0.00     0.029 A 
ATOM     44  N   UNL A   1      43.073  27.336  28.092  1.00  0.00    -0.354 N 
ATOM     45  C   UNL A   1      44.694  31.327  28.537  1.00  0.00     0.074 A 
ATOM     46  C   UNL A   1      43.691  32.245  29.025  1.00  0.00     0.031 C 
ATOM     47  C   UNL A   1      41.483  25.764  28.117  1.00  0.00     0.029 A 
ATOM     48  C   UNL A   1      42.881  26.011  27.777  1.00  0.00     0.049 A 
ATOM     49  H   UNL A   1      43.934  27.797  27.973  1.00  0.00     0.167 HD
ATOM     50  C   UNL A   1      45.975  31.676  28.274  1.00  0.00     0.037 A 
ATOM     51  C   UNL A   1      43.733  25.098  27.268  1.00  0.00     0.037 A 
ATOM     52  C   UNL A   1      46.978  30.749  27.823  1.00  0.00     0.049 A 
ATOM     53  C   UNL A   1      45.154  25.508  26.985  1.00  0.00     0.074 A 
ATOM     54  C   UNL A   1      48.320  30.984  27.585  1.00  0.00     0.029 A 
ATOM     55  N   UNL A   1      46.749  29.410  27.543  1.00  0.00    -0.354 N 
ATOM     56  N   UNL A   1      45.723  26.680  27.142  1.00  0.00    -0.248 NA
ATOM     57  C   UNL A   1      46.054  24.469  26.464  1.00  0.00     0.031 C 
ATOM     58  C   UNL A   1      48.891  29.801  27.109  1.00  0.00     0.029 A 
ATOM     59  C   UNL A   1      47.921  28.811  27.113  1.00  0.00     0.049 A 
ATOM     60  H   UNL A   1      45.882  28.953  27.636  1.00  0.00     0.167 HD
ATOM     61  C   UNL A   1      47.054  26.511  26.775  1.00  0.00     0.074 A 
ATOM     62  C   UNL A   1      47.206  25.120  26.397  1.00  0.00     0.031 C 
ATOM     63  C   UNL A   1      48.059  27.421  26.754  1.00  0.00     0.037 A 
BRANCH  50  64
ATOM     64  C   UNL A   1      46.363  33.116  28.477  1.00  0.00     0.058 A 
ATOM     65  C   UNL A   1      46.833  33.589  29.715  1.00  0.00     0.135 A 
ATOM     66  C   UNL A   1      46.289  34.032  27.415  1.00  0.00     0.135 A 
ATOM     67  F   UNL A   1      46.906  32.763  30.771  1.00  0.00    -0.206 F 
ATOM     68  C   UNL A   1      47.182  34.921  29.901  1.00  0.00     0.059 A 
ATOM     69  C   UNL A   1      46.668  35.363  27.570  1.00  0.00     0.059 A 
ATOM     70  F   UNL A   1      45.845  33.638  26.212  1.00  0.00    -0.206 F 
ATOM     71  C   UNL A   1      47.098  35.801  28.821  1.00  0.00     0.060 A 
BRANCH  71  72
ATOM     72  S   UNL A   1      47.565  37.525  29.079  1.00  0.00     0.124 S 
ATOM     73  O   UNL A   1      47.157  37.733  30.465  1.00  0.00    -0.237 OA
ATOM     74  O   UNL A   1      49.004  37.496  28.840  1.00  0.00    -0.237 OA
ATOM     75  O   UNL A   1      46.780  38.244  28.080  1.00  0.00    -0.744 OA
ENDBRANCH  71  72
ENDBRANCH  50  64
BRANCH  51  76
ATOM     76  C   UNL A   1      43.275  23.702  27.023  1.00  0.00     0.058 A 
ATOM     77  C   UNL A   1      43.104  22.800  28.084  1.00  0.00     0.135 A 
ATOM     78  C   UNL A   1      42.999  23.241  25.726  1.00  0.00     0.135 A 
ATOM     79  F   UNL A   1      43.360  23.189  29.343  1.00  0.00    -0.206 F 
ATOM     80  C   UNL A   1      42.695  21.487  27.870  1.00  0.00     0.059 A 
ATOM     81  C   UNL A   1      42.560  21.941  25.488  1.00  0.00     0.059 A 
ATOM     82  F   UNL A   1      43.131  24.066  24.676  1.00  0.00    -0.206 F 
ATOM     83  C   UNL A   1      42.422  21.069  26.567  1.00  0.00     0.060 A 
BRANCH  83  84
ATOM     84  S   UNL A   1      41.849  19.376  26.304  1.00  0.00     0.124 S 
ATOM     85  O   UNL A   1      42.242  18.735  27.554  1.00  0.00    -0.237 OA
ATOM     86  O   UNL A   1      40.416  19.566  26.107  1.00  0.00    -0.237 OA
ATOM     87  O   UNL A   1      42.587  18.951  25.119  1.00  0.00    -0.744 OA
ENDBRANCH  83  84
ENDBRANCH  51  76
BRANCH  63  88
ATOM     88  C   UNL A   1      49.428  26.938  26.358  1.00  0.00     0.058 A 
ATOM     89  C   UNL A   1      50.312  26.366  27.285  1.00  0.00     0.135 A 
ATOM     90  C   UNL A   1      49.837  27.001  25.014  1.00  0.00     0.135 A 
ATOM     91  F   UNL A   1      49.973  26.284  28.581  1.00  0.00    -0.206 F 
ATOM     92  C   UNL A   1      51.564  25.898  26.901  1.00  0.00     0.059 A 
ATOM     93  C   UNL A   1      51.069  26.509  24.602  1.00  0.00     0.059 A 
ATOM     94  F   UNL A   1      49.025  27.528  24.084  1.00  0.00    -0.206 F 
ATOM     95  C   UNL A   1      51.933  25.971  25.555  1.00  0.00     0.060 A 
BRANCH  95  96
ATOM     96  S   UNL A   1      53.548  25.333  25.065  1.00  0.00     0.124 S 
ATOM     97  O   UNL A   1      53.570  25.650  23.641  1.00  0.00    -0.237 OA
ATOM     98  O   UNL A   1      54.457  26.110  25.902  1.00  0.00    -0.237 OA
ATOM     99  O   UNL A   1      53.467  23.912  25.391  1.00  0.00    -0.744 OA
ENDBRANCH  95  96
ENDBRANCH  63  88
ENDBRANCH  37  38
ENDBRANCH  29  32
ENDBRANCH  27  28
ENDBRANCH   1  27
TORSDOF 16
ENDMDL
MODEL 2
REMARK VINA RESULT:     -12.8      6.521     11.920
REMARK SMILES O=C(COc1ccccc1/C=C1\C(=O)Nc2ccccc21)NCCCNC(=O)c1ccc(-c2c3nc(c(-c4c(F)cc(S(=O)(=O)[O-])cc4F)c4ccc([nH]4)c(-c4c(F)cc(S(=O)(=O)[O-])cc4F)c4nc(c(-c5c(F)cc(S(=O)(=O)[O-])cc5F)c5ccc2[nH]5)C=C4)C=C3)cc1
REMARK SMILES IDX 24 1 23 2 22 3 1 4 2 5 3 7 4 8 5 9 6 10 10 11 7 12 9 13 8 14
REMARK SMILES IDX 11 15 12 16 13 17 21 18 14 19 15 20 16 21 20 22 17 24 19 25
REMARK SMILES IDX 18 26 25 27 26 28 27 29 28 31 29 32 30 33 94 34 31 35 93 36
REMARK SMILES IDX 32 37 33 38 34 39 87 40 35 41 92 42 86 43 88 44 36 45 91 46
REMARK SMILES IDX 85 47 84 48 37 50 71 51 50 52 70 53 51 54 54 55 69 56 89 57
REMARK SMILES IDX 52 58 53 59 68 61 90 62 55 63 38 64 39 65 48 66 40 67 41 68
REMARK SMILES IDX 47 69 49 70 42 71 43 72 44 73 45 74 46 75 72 76 73 77 82 78
REMARK SMILES IDX 74 79 75 80 81 81 83 82 76 83 77 84 78 85 79 86 80 87 56 88
REMARK SMILES IDX 57 89 66 90 58 91 59 92 65 93 67 94 60 95 61 96 62 97 63 98
REMARK SMILES IDX 64 99
REMARK H PARENT 22 6 15 23 26 30 88 49 54 60
REMARK Flexibility Score: inf
ROOT
ATOM      1  C   UNL A   1      40.361  22.111  27.471  1.00  0.00     0.042 C 
ENDROOT
BRANCH   1   2
ATOM      2  C   UNL A   1      39.516  21.938  26.236  1.00  0.00     0.117 C 
BRANCH   2   3
ATOM      3  N   UNL A   1      38.116  22.220  26.386  1.00  0.00    -0.353 N 
ATOM      4  O   UNL A   1      37.479  21.578  24.258  1.00  0.00    -0.271 OA
ATOM      5  C   UNL A   1      37.212  21.758  25.440  1.00  0.00     0.257 C 
ATOM      6  H   UNL A   1      37.798  22.741  27.159  1.00  0.00     0.163 HD
BRANCH   5   7
ATOM      7  C   UNL A   1      35.856  21.442  26.046  1.00  0.00     0.329 C 
BRANCH   7   8
ATOM      8  O   UNL A   1      35.056  22.606  25.782  1.00  0.00    -0.483 OA
BRANCH   8   9
ATOM      9  C   UNL A   1      33.977  22.353  24.974  1.00  0.00     0.127 A 
ATOM     10  C   UNL A   1      33.719  21.007  24.675  1.00  0.00     0.047 A 
ATOM     11  C   UNL A   1      33.280  23.398  24.326  1.00  0.00     0.017 A 
ATOM     12  C   UNL A   1      32.780  20.675  23.705  1.00  0.00     0.004 A 
ATOM     13  C   UNL A   1      32.425  23.031  23.279  1.00  0.00     0.012 A 
ATOM     14  C   UNL A   1      32.155  21.689  22.988  1.00  0.00     0.001 A 
BRANCH  11  15
ATOM     15  C   UNL A   1      33.451  24.838  24.675  1.00  0.00     0.026 C 
ATOM     16  C   UNL A   1      32.677  25.612  25.469  1.00  0.00     0.050 C 
ATOM     17  C   UNL A   1      31.400  25.175  26.175  1.00  0.00     0.256 C 
ATOM     18  C   UNL A   1      32.902  27.023  25.899  1.00  0.00     0.011 A 
ATOM     19  O   UNL A   1      30.824  24.110  26.158  1.00  0.00    -0.269 OA
ATOM     20  N   UNL A   1      30.973  26.280  26.887  1.00  0.00    -0.321 N 
ATOM     21  C   UNL A   1      31.855  27.339  26.772  1.00  0.00     0.049 A 
ATOM     22  C   UNL A   1      33.861  27.996  25.664  1.00  0.00     0.011 A 
ATOM     23  H   UNL A   1      30.141  26.309  27.413  1.00  0.00     0.170 HD
ATOM     24  C   UNL A   1      31.746  28.543  27.447  1.00  0.00     0.027 A 
ATOM     25  C   UNL A   1      33.815  29.204  26.384  1.00  0.00     0.001 A 
ATOM     26  C   UNL A   1      32.764  29.474  27.271  1.00  0.00     0.002 A 
ENDBRANCH  11  15
ENDBRANCH   8   9
ENDBRANCH   7   8
ENDBRANCH   5   7
ENDBRANCH   2   3
ENDBRANCH   1   2
BRANCH   1  27
ATOM     27  C   UNL A   1      41.627  22.922  27.244  1.00  0.00     0.118 C 
BRANCH  27  28
ATOM     28  N   UNL A   1      41.580  23.832  26.098  1.00  0.00    -0.352 N 
ATOM     29  C   UNL A   1      41.476  25.208  26.065  1.00  0.00     0.251 C 
ATOM     30  H   UNL A   1      41.631  23.397  25.217  1.00  0.00     0.163 HD
ATOM     31  O   UNL A   1      41.391  25.787  24.985  1.00  0.00    -0.269 OA
BRANCH  29  32
ATOM     32  C   UNL A   1      41.419  25.976  27.329  1.00  0.00     0.039 A 
ATOM     33  C   UNL A   1      42.471  26.834  27.661  1.00  0.00     0.014 A 
ATOM     34  C   UNL A   1      40.297  25.901  28.152  1.00  0.00     0.014 A 
ATOM     35  C   UNL A   1      42.341  27.689  28.760  1.00  0.00     0.010 A 
ATOM     36  C   UNL A   1      40.109  26.852  29.145  1.00  0.00     0.010 A 
ATOM     37  C   UNL A   1      41.135  27.746  29.476  1.00  0.00    -0.014 A 
BRANCH  37  38
ATOM     38  C   UNL A   1      40.927  28.700  30.600  1.00  0.00     0.031 A 
ATOM     39  C   UNL A   1      41.772  28.580  31.843  1.00  0.00     0.074 A 
ATOM     40  C   UNL A   1      39.942  29.619  30.537  1.00  0.00     0.049 A 
ATOM     41  N   UNL A   1      41.696  29.252  32.963  1.00  0.00    -0.248 NA
ATOM     42  C   UNL A   1      42.813  27.538  31.845  1.00  0.00     0.031 C 
ATOM     43  C   UNL A   1      39.014  29.795  29.416  1.00  0.00     0.029 A 
ATOM     44  N   UNL A   1      39.550  30.575  31.440  1.00  0.00    -0.354 N 
ATOM     45  C   UNL A   1      42.661  28.702  33.800  1.00  0.00     0.074 A 
ATOM     46  C   UNL A   1      43.252  27.590  33.092  1.00  0.00     0.031 C 
ATOM     47  C   UNL A   1      38.188  30.821  29.684  1.00  0.00     0.029 A 
ATOM     48  C   UNL A   1      38.494  31.346  31.011  1.00  0.00     0.049 A 
ATOM     49  H   UNL A   1      39.984  30.699  32.315  1.00  0.00     0.167 HD
ATOM     50  C   UNL A   1      43.048  29.108  35.031  1.00  0.00     0.037 A 
ATOM     51  C   UNL A   1      37.843  32.359  31.618  1.00  0.00     0.037 A 
ATOM     52  C   UNL A   1      42.480  30.239  35.715  1.00  0.00     0.049 A 
ATOM     53  C   UNL A   1      38.293  32.795  32.987  1.00  0.00     0.074 A 
ATOM     54  C   UNL A   1      42.841  30.774  36.938  1.00  0.00     0.029 A 
ATOM     55  N   UNL A   1      41.432  31.010  35.233  1.00  0.00    -0.354 N 
ATOM     56  N   UNL A   1      39.256  32.308  33.735  1.00  0.00    -0.248 NA
ATOM     57  C   UNL A   1      37.577  33.926  33.593  1.00  0.00     0.031 C 
ATOM     58  C   UNL A   1      41.975  31.833  37.222  1.00  0.00     0.029 A 
ATOM     59  C   UNL A   1      41.118  32.002  36.146  1.00  0.00     0.049 A 
ATOM     60  H   UNL A   1      40.978  30.872  34.370  1.00  0.00     0.167 HD
ATOM     61  C   UNL A   1      39.283  33.095  34.882  1.00  0.00     0.074 A 
ATOM     62  C   UNL A   1      38.248  34.096  34.724  1.00  0.00     0.031 C 
ATOM     63  C   UNL A   1      40.092  33.000  35.966  1.00  0.00     0.037 A 
BRANCH  50  64
ATOM     64  C   UNL A   1      44.144  28.331  35.711  1.00  0.00     0.058 A 
ATOM     65  C   UNL A   1      45.501  28.637  35.513  1.00  0.00     0.135 A 
ATOM     66  C   UNL A   1      43.834  27.282  36.592  1.00  0.00     0.135 A 
ATOM     67  F   UNL A   1      45.858  29.616  34.666  1.00  0.00    -0.206 F 
ATOM     68  C   UNL A   1      46.510  27.911  36.135  1.00  0.00     0.059 A 
ATOM     69  C   UNL A   1      44.827  26.566  37.254  1.00  0.00     0.059 A 
ATOM     70  F   UNL A   1      42.555  26.944  36.817  1.00  0.00    -0.206 F 
ATOM     71  C   UNL A   1      46.163  26.878  37.006  1.00  0.00     0.060 A 
BRANCH  71  72
ATOM     72  S   UNL A   1      47.486  25.952  37.813  1.00  0.00     0.124 S 
ATOM     73  O   UNL A   1      46.940  25.776  39.156  1.00  0.00    -0.237 OA
ATOM     74  O   UNL A   1      47.562  24.744  36.998  1.00  0.00    -0.237 OA
ATOM     75  O   UNL A   1      48.636  26.846  37.716  1.00  0.00    -0.744 OA
ENDBRANCH  71  72
ENDBRANCH  50  64
BRANCH  51  76
ATOM     76  C   UNL A   1      36.720  33.050  30.925  1.00  0.00     0.058 A 
ATOM     77  C   UNL A   1      36.956  33.894  29.829  1.00  0.00     0.135 A 
ATOM     78  C   UNL A   1      35.391  32.880  31.341  1.00  0.00     0.135 A 
ATOM     79  F   UNL A   1      38.210  34.095  29.395  1.00  0.00    -0.206 F 
ATOM     80  C   UNL A   1      35.920  34.560  29.183  1.00  0.00     0.059 A 
ATOM     81  C   UNL A   1      34.333  33.512  30.693  1.00  0.00     0.059 A 
ATOM     82  F   UNL A   1      35.107  32.071  32.374  1.00  0.00    -0.206 F 
ATOM     83  C   UNL A   1      34.610  34.360  29.622  1.00  0.00     0.060 A 
BRANCH  83  84
ATOM     84  S   UNL A   1      33.268  35.195  28.748  1.00  0.00     0.124 S 
ATOM     85  O   UNL A   1      32.465  35.701  29.855  1.00  0.00    -0.237 OA
ATOM     86  O   UNL A   1      33.988  36.198  27.970  1.00  0.00    -0.237 OA
ATOM     87  O   UNL A   1      32.658  34.124  27.965  1.00  0.00    -0.744 OA
ENDBRANCH  83  84
ENDBRANCH  51  76
BRANCH  63  88
ATOM     88  C   UNL A   1      39.931  34.033  37.049  1.00  0.00     0.058 A 
ATOM     89  C   UNL A   1      40.517  35.305  36.958  1.00  0.00     0.135 A 
ATOM     90  C   UNL A   1      39.128  33.759  38.170  1.00  0.00     0.135 A 
ATOM     91  F   UNL A   1      41.295  35.617  35.909  1.00  0.00    -0.206 F 
ATOM     92  C   UNL A   1      40.337  36.260  37.952  1.00  0.00     0.059 A 
ATOM     93  C   UNL A   1      38.907  34.711  39.159  1.00  0.00     0.059 A 
ATOM     94  F   UNL A   1      38.534  32.563  38.301  1.00  0.00    -0.206 F 
ATOM     95  C   UNL A   1      39.527  35.955  39.049  1.00  0.00     0.060 A 
BRANCH  95  96
ATOM     96  S   UNL A   1      39.277  37.214  40.316  1.00  0.00     0.124 S 
ATOM     97  O   UNL A   1      40.652  37.569  40.653  1.00  0.00    -0.237 OA
ATOM     98  O   UNL A   1      38.518  38.232  39.598  1.00  0.00    -0.237 OA
ATOM     99  O   UNL A   1      38.538  36.507  41.358  1.00  0.00    -0.744 OA
ENDBRANCH  95  96
ENDBRANCH  63  88
ENDBRANCH  37  38
ENDBRANCH  29  32
ENDBRANCH  27  28
ENDBRANCH   1  27
TORSDOF 16
ENDMDL
MODEL 3
REMARK VINA RESULT:     -12.7      6.450     11.835
REMARK SMILES O=C(COc1ccccc1/C=C1\C(=O)Nc2ccccc21)NCCCNC(=O)c1ccc(-c2c3nc(c(-c4c(F)cc(S(=O)(=O)[O-])cc4F)c4ccc([nH]4)c(-c4c(F)cc(S(=O)(=O)[O-])cc4F)c4nc(c(-c5c(F)cc(S(=O)(=O)[O-])cc5F)c5ccc2[nH]5)C=C4)C=C3)cc1
REMARK SMILES IDX 24 1 23 2 22 3 1 4 2 5 3 7 4 8 5 9 6 10 10 11 7 12 9 13 8 14
REMARK SMILES IDX 11 15 12 16 13 17 21 18 14 19 15 20 16 21 20 22 17 24 19 25
REMARK SMILES IDX 18 26 25 27 26 28 27 29 28 31 29 32 30 33 94 34 31 35 93 36
REMARK SMILES IDX 32 37 33 38 34 39 87 40 35 41 92 42 86 43 88 44 36 45 91 46
REMARK SMILES IDX 85 47 84 48 37 50 71 51 50 52 70 53 51 54 54 55 69 56 89 57
REMARK SMILES IDX 52 58 53 59 68 61 90 62 55 63 38 64 39 65 48 66 40 67 41 68
REMARK SMILES IDX 47 69 49 70 42 71 43 72 44 73 45 74 46 75 72 76 73 77 82 78
REMARK SMILES IDX 74 79 75 80 81 81 83 82 76 83 77 84 78 85 79 86 80 87 56 88
REMARK SMILES IDX 57 89 66 90 58 91 59 92 65 93 67 94 60 95 61 96 62 97 63 98
REMARK SMILES IDX 64 99
REMARK H PARENT 22 6 15 23 26 30 88 49 54 60
REMARK Flexibility Score: inf
ROOT
ATOM      1  C   UNL A   1      40.424  22.083  27.497  1.00  0.00     0.042 C 
ENDROOT
BRANCH   1   2
ATOM      2  C   UNL A   1      39.770  21.775  26.174  1.00  0.00     0.117 C 
BRANCH   2   3
ATOM      3  N   UNL A   1      38.349  21.975  26.112  1.00  0.00    -0.353 N 
ATOM      4  O   UNL A   1      38.394  24.284  26.194  1.00  0.00    -0.271 OA
ATOM      5  C   UNL A   1      37.839  23.242  25.872  1.00  0.00     0.257 C 
ATOM      6  H   UNL A   1      37.739  21.213  26.241  1.00  0.00     0.163 HD
BRANCH   5   7
ATOM      7  C   UNL A   1      36.528  23.198  25.106  1.00  0.00     0.329 C 
BRANCH   7   8
ATOM      8  O   UNL A   1      35.509  23.267  26.118  1.00  0.00    -0.483 OA
BRANCH   8   9
ATOM      9  C   UNL A   1      34.369  22.580  25.789  1.00  0.00     0.127 A 
ATOM     10  C   UNL A   1      34.537  21.252  25.368  1.00  0.00     0.047 A 
ATOM     11  C   UNL A   1      33.117  23.229  25.698  1.00  0.00     0.017 A 
ATOM     12  C   UNL A   1      33.466  20.553  24.822  1.00  0.00     0.004 A 
ATOM     13  C   UNL A   1      32.093  22.533  25.043  1.00  0.00     0.012 A 
ATOM     14  C   UNL A   1      32.252  21.204  24.634  1.00  0.00     0.001 A 
BRANCH  11  15
ATOM     15  C   UNL A   1      32.867  24.604  26.218  1.00  0.00     0.026 C 
ATOM     16  C   UNL A   1      33.083  25.791  25.605  1.00  0.00     0.050 C 
ATOM     17  C   UNL A   1      33.681  25.986  24.218  1.00  0.00     0.256 C 
ATOM     18  C   UNL A   1      32.740  27.161  26.084  1.00  0.00     0.011 A 
ATOM     19  O   UNL A   1      34.091  25.169  23.423  1.00  0.00    -0.269 OA
ATOM     20  N   UNL A   1      33.684  27.352  24.004  1.00  0.00    -0.321 N 
ATOM     21  C   UNL A   1      33.102  28.039  25.055  1.00  0.00     0.049 A 
ATOM     22  C   UNL A   1      32.160  27.705  27.219  1.00  0.00     0.011 A 
ATOM     23  H   UNL A   1      34.056  27.783  23.201  1.00  0.00     0.170 HD
ATOM     24  C   UNL A   1      32.876  29.404  25.085  1.00  0.00     0.027 A 
ATOM     25  C   UNL A   1      31.857  29.079  27.253  1.00  0.00     0.001 A 
ATOM     26  C   UNL A   1      32.211  29.921  26.191  1.00  0.00     0.002 A 
ENDBRANCH  11  15
ENDBRANCH   8   9
ENDBRANCH   7   8
ENDBRANCH   5   7
ENDBRANCH   2   3
ENDBRANCH   1   2
BRANCH   1  27
ATOM     27  C   UNL A   1      41.656  22.966  27.384  1.00  0.00     0.118 C 
BRANCH  27  28
ATOM     28  N   UNL A   1      41.668  23.866  26.229  1.00  0.00    -0.352 N 
ATOM     29  C   UNL A   1      41.604  25.244  26.179  1.00  0.00     0.251 C 
ATOM     30  H   UNL A   1      41.731  23.420  25.353  1.00  0.00     0.163 HD
ATOM     31  O   UNL A   1      41.565  25.813  25.092  1.00  0.00    -0.269 OA
BRANCH  29  32
ATOM     32  C   UNL A   1      41.532  26.026  27.433  1.00  0.00     0.039 A 
ATOM     33  C   UNL A   1      42.537  26.952  27.726  1.00  0.00     0.014 A 
ATOM     34  C   UNL A   1      40.439  25.895  28.288  1.00  0.00     0.014 A 
ATOM     35  C   UNL A   1      42.384  27.814  28.815  1.00  0.00     0.010 A 
ATOM     36  C   UNL A   1      40.219  26.848  29.272  1.00  0.00     0.010 A 
ATOM     37  C   UNL A   1      41.195  27.809  29.564  1.00  0.00    -0.014 A 
BRANCH  37  38
ATOM     38  C   UNL A   1      40.959  28.765  30.679  1.00  0.00     0.031 A 
ATOM     39  C   UNL A   1      41.779  28.655  31.940  1.00  0.00     0.074 A 
ATOM     40  C   UNL A   1      39.969  29.677  30.592  1.00  0.00     0.049 A 
ATOM     41  N   UNL A   1      41.676  29.330  33.055  1.00  0.00    -0.248 NA
ATOM     42  C   UNL A   1      42.827  27.620  31.967  1.00  0.00     0.031 C 
ATOM     43  C   UNL A   1      39.063  29.843  29.453  1.00  0.00     0.029 A 
ATOM     44  N   UNL A   1      39.553  30.634  31.484  1.00  0.00    -0.354 N 
ATOM     45  C   UNL A   1      42.627  28.790  33.913  1.00  0.00     0.074 A 
ATOM     46  C   UNL A   1      43.240  27.679  33.222  1.00  0.00     0.031 C 
ATOM     47  C   UNL A   1      38.225  30.864  29.700  1.00  0.00     0.029 A 
ATOM     48  C   UNL A   1      38.501  31.396  31.030  1.00  0.00     0.049 A 
ATOM     49  H   UNL A   1      39.968  30.764  32.367  1.00  0.00     0.167 HD
ATOM     50  C   UNL A   1      42.987  29.203  35.151  1.00  0.00     0.037 A 
ATOM     51  C   UNL A   1      37.832  32.408  31.620  1.00  0.00     0.037 A 
ATOM     52  C   UNL A   1      42.397  30.332  35.819  1.00  0.00     0.049 A 
ATOM     53  C   UNL A   1      38.251  32.852  32.997  1.00  0.00     0.074 A 
ATOM     54  C   UNL A   1      42.730  30.874  37.047  1.00  0.00     0.029 A 
ATOM     55  N   UNL A   1      41.355  31.094  35.313  1.00  0.00    -0.354 N 
ATOM     56  N   UNL A   1      39.201  32.373  33.766  1.00  0.00    -0.248 NA
ATOM     57  C   UNL A   1      37.515  33.980  33.584  1.00  0.00     0.031 C 
ATOM     58  C   UNL A   1      41.852  31.929  37.309  1.00  0.00     0.029 A 
ATOM     59  C   UNL A   1      41.016  32.088  36.215  1.00  0.00     0.049 A 
ATOM     60  H   UNL A   1      40.920  30.951  34.441  1.00  0.00     0.167 HD
ATOM     61  C   UNL A   1      39.200  33.164  34.910  1.00  0.00     0.074 A 
ATOM     62  C   UNL A   1      38.162  34.158  34.727  1.00  0.00     0.031 C 
ATOM     63  C   UNL A   1      39.987  33.079  36.011  1.00  0.00     0.037 A 
BRANCH  50  64
ATOM     64  C   UNL A   1      44.073  28.435  35.856  1.00  0.00     0.058 A 
ATOM     65  C   UNL A   1      43.783  27.364  36.718  1.00  0.00     0.135 A 
ATOM     66  C   UNL A   1      45.424  28.756  35.647  1.00  0.00     0.135 A 
ATOM     67  F   UNL A   1      42.508  27.025  36.972  1.00  0.00    -0.206 F 
ATOM     68  C   UNL A   1      44.788  26.663  37.373  1.00  0.00     0.059 A 
ATOM     69  C   UNL A   1      46.449  28.044  36.265  1.00  0.00     0.059 A 
ATOM     70  F   UNL A   1      45.761  29.771  34.836  1.00  0.00    -0.206 F 
ATOM     71  C   UNL A   1      46.119  27.009  37.139  1.00  0.00     0.060 A 
BRANCH  71  72
ATOM     72  S   UNL A   1      47.412  26.082  37.991  1.00  0.00     0.124 S 
ATOM     73  O   UNL A   1      46.929  24.711  37.847  1.00  0.00    -0.237 OA
ATOM     74  O   UNL A   1      48.600  26.419  37.213  1.00  0.00    -0.237 OA
ATOM     75  O   UNL A   1      47.380  26.619  39.347  1.00  0.00    -0.744 OA
ENDBRANCH  71  72
ENDBRANCH  50  64
BRANCH  51  76
ATOM     76  C   UNL A   1      36.719  33.088  30.902  1.00  0.00     0.058 A 
ATOM     77  C   UNL A   1      35.379  32.794  31.200  1.00  0.00     0.135 A 
ATOM     78  C   UNL A   1      36.968  34.046  29.908  1.00  0.00     0.135 A 
ATOM     79  F   UNL A   1      35.086  31.881  32.139  1.00  0.00    -0.206 F 
ATOM     80  C   UNL A   1      34.328  33.408  30.526  1.00  0.00     0.059 A 
ATOM     81  C   UNL A   1      35.935  34.697  29.240  1.00  0.00     0.059 A 
ATOM     82  F   UNL A   1      38.231  34.378  29.595  1.00  0.00    -0.206 F 
ATOM     83  C   UNL A   1      34.617  34.361  29.548  1.00  0.00     0.060 A 
BRANCH  83  84
ATOM     84  S   UNL A   1      33.245  35.184  28.710  1.00  0.00     0.124 S 
ATOM     85  O   UNL A   1      32.488  35.717  29.838  1.00  0.00    -0.237 OA
ATOM     86  O   UNL A   1      33.938  36.168  27.884  1.00  0.00    -0.237 OA
ATOM     87  O   UNL A   1      32.601  34.100  27.975  1.00  0.00    -0.744 OA
ENDBRANCH  83  84
ENDBRANCH  51  76
BRANCH  63  88
ATOM     88  C   UNL A   1      39.798  34.115  37.086  1.00  0.00     0.058 A 
ATOM     89  C   UNL A   1      38.972  33.891  38.198  1.00  0.00     0.135 A 
ATOM     90  C   UNL A   1      40.501  35.330  37.026  1.00  0.00     0.135 A 
ATOM     91  F   UNL A   1      38.275  32.748  38.304  1.00  0.00    -0.206 F 
ATOM     92  C   UNL A   1      38.828  34.845  39.199  1.00  0.00     0.059 A 
ATOM     93  C   UNL A   1      40.398  36.284  38.031  1.00  0.00     0.059 A 
ATOM     94  F   UNL A   1      41.314  35.591  35.990  1.00  0.00    -0.206 F 
ATOM     95  C   UNL A   1      39.547  36.039  39.108  1.00  0.00     0.060 A 
BRANCH  95  96
ATOM     96  S   UNL A   1      39.374  37.256  40.429  1.00  0.00     0.124 S 
ATOM     97  O   UNL A   1      38.517  38.255  39.798  1.00  0.00    -0.237 OA
ATOM     98  O   UNL A   1      38.756  36.473  41.494  1.00  0.00    -0.237 OA
ATOM     99  O   UNL A   1      40.747  37.679  40.686  1.00  0.00    -0.744 OA
ENDBRANCH  95  96
ENDBRANCH  63  88
ENDBRANCH  37  38
ENDBRANCH  29  32
ENDBRANCH  27  28
ENDBRANCH   1  27
TORSDOF 16
ENDMDL
