MODEL 1
REMARK VINA RESULT:     -11.0      0.000      0.000
REMARK SMILES CC(C)Cc1ccc([C@H](CF)C(=O)NCCCNC(=O)c2ccc(-c3c4nc(c(-c5c(F)cc(S(=O)(=O)[O-])cc5F)c5ccc([nH]5)c(-c5c(F)cc(S(=O)(=O)[O-])cc5F)c5nc(c(-c6c(F)cc(S(=O)(=O)[O-])cc6F)c6ccc3[nH]6)C=C5)C=C4)cc2)cc1
REMARK SMILES IDX 16 1 15 2 14 3 12 4 13 5 9 7 8 8 5 9 6 10 88 11 7 12 87 13
REMARK SMILES IDX 4 14 2 15 1 16 3 17 10 18 11 19 17 20 18 21 19 22 20 24
REMARK SMILES IDX 21 25 22 26 86 27 23 28 85 29 24 30 25 31 26 32 79 33 27 34
REMARK SMILES IDX 84 35 78 36 80 37 28 38 83 39 77 40 76 41 29 43 63 44 42 45
REMARK SMILES IDX 62 46 43 47 46 48 61 49 81 50 44 51 45 52 60 54 82 55 47 56
REMARK SMILES IDX 30 57 31 58 40 59 32 60 33 61 39 62 41 63 34 64 35 65 36 66
REMARK SMILES IDX 37 67 38 68 64 69 65 70 74 71 66 72 67 73 73 74 75 75 68 76
REMARK SMILES IDX 69 77 70 78 71 79 72 80 48 81 49 82 58 83 50 84 51 85 57 86
REMARK SMILES IDX 59 87 52 88 53 89 54 90 55 91 56 92
REMARK H PARENT 14 6 18 23 80 42 46 53
REMARK Flexibility Score: inf
ROOT
ATOM      1  C   UNL A   1      33.266  27.582  26.604  1.00  0.00     0.042 C 
ENDROOT
BRANCH   1   2
ATOM      2  C   UNL A   1      31.787  27.930  26.707  1.00  0.00     0.117 C 
BRANCH   2   3
ATOM      3  N   UNL A   1      30.966  26.756  26.946  1.00  0.00    -0.355 N 
ATOM      4  C   UNL A   1      30.589  25.758  26.099  1.00  0.00     0.230 C 
ATOM      5  O   UNL A   1      29.921  24.835  26.571  1.00  0.00    -0.274 OA
ATOM      6  H   UNL A   1      30.627  26.668  27.867  1.00  0.00     0.163 HD
BRANCH   4   7
ATOM      7  C   UNL A   1      30.954  25.780  24.621  1.00  0.00     0.139 C 
BRANCH   7   8
ATOM      8  C   UNL A   1      30.206  26.821  23.790  1.00  0.00    -0.033 A 
ATOM      9  C   UNL A   1      28.828  28.911  22.465  1.00  0.00    -0.048 A 
ATOM     10  C   UNL A   1      30.221  28.813  22.391  1.00  0.00     0.004 A 
ATOM     11  C   UNL A   1      28.120  27.923  23.153  1.00  0.00     0.004 A 
ATOM     12  C   UNL A   1      30.901  27.795  23.062  1.00  0.00     0.005 A 
ATOM     13  C   UNL A   1      28.801  26.896  23.813  1.00  0.00     0.005 A 
BRANCH   9  14
ATOM     14  C   UNL A   1      28.123  30.120  21.901  1.00  0.00     0.038 C 
BRANCH  14  15
ATOM     15  C   UNL A   1      28.458  31.421  22.668  1.00  0.00    -0.013 C 
ATOM     16  C   UNL A   1      28.335  32.680  21.802  1.00  0.00     0.008 C 
ATOM     17  C   UNL A   1      27.539  31.558  23.884  1.00  0.00     0.008 C 
ENDBRANCH  14  15
ENDBRANCH   9  14
ENDBRANCH   7   8
BRANCH   7  18
ATOM     18  C   UNL A   1      30.928  24.342  24.103  1.00  0.00     0.232 C 
ATOM     19  F   UNL A   1      31.105  24.344  22.750  1.00  0.00    -0.250 F 
ENDBRANCH   7  18
ENDBRANCH   4   7
ENDBRANCH   2   3
ENDBRANCH   1   2
BRANCH   1  20
ATOM     20  C   UNL A   1      34.107  28.639  25.897  1.00  0.00     0.118 C 
BRANCH  20  21
ATOM     21  N   UNL A   1      33.829  29.988  26.371  1.00  0.00    -0.352 N 
ATOM     22  C   UNL A   1      34.424  30.716  27.368  1.00  0.00     0.251 C 
ATOM     23  H   UNL A   1      33.098  30.451  25.900  1.00  0.00     0.163 HD
ATOM     24  O   UNL A   1      33.903  31.774  27.730  1.00  0.00    -0.269 OA
BRANCH  22  25
ATOM     25  C   UNL A   1      35.662  30.241  28.022  1.00  0.00     0.039 A 
ATOM     26  C   UNL A   1      36.881  30.418  27.361  1.00  0.00     0.014 A 
ATOM     27  C   UNL A   1      35.631  29.599  29.263  1.00  0.00     0.014 A 
ATOM     28  C   UNL A   1      38.068  30.006  27.971  1.00  0.00     0.010 A 
ATOM     29  C   UNL A   1      36.822  29.266  29.906  1.00  0.00     0.010 A 
ATOM     30  C   UNL A   1      38.053  29.460  29.265  1.00  0.00    -0.014 A 
BRANCH  30  31
ATOM     31  C   UNL A   1      39.318  29.098  29.956  1.00  0.00     0.031 A 
ATOM     32  C   UNL A   1      39.764  29.853  31.180  1.00  0.00     0.074 A 
ATOM     33  C   UNL A   1      40.090  28.116  29.449  1.00  0.00     0.049 A 
ATOM     34  N   UNL A   1      40.846  29.693  31.898  1.00  0.00    -0.248 NA
ATOM     35  C   UNL A   1      38.895  30.947  31.644  1.00  0.00     0.031 C 
ATOM     36  C   UNL A   1      39.795  27.352  28.233  1.00  0.00     0.029 A 
ATOM     37  N   UNL A   1      41.280  27.592  29.887  1.00  0.00    -0.354 N 
ATOM     38  C   UNL A   1      40.793  30.667  32.889  1.00  0.00     0.074 A 
ATOM     39  C   UNL A   1      39.601  31.449  32.647  1.00  0.00     0.031 C 
ATOM     40  C   UNL A   1      40.762  26.442  28.040  1.00  0.00     0.029 A 
ATOM     41  C   UNL A   1      41.762  26.577  29.095  1.00  0.00     0.049 A 
ATOM     42  H   UNL A   1      41.745  27.913  30.693  1.00  0.00     0.167 HD
ATOM     43  C   UNL A   1      41.647  30.874  33.921  1.00  0.00     0.037 A 
ATOM     44  C   UNL A   1      42.883  25.839  29.203  1.00  0.00     0.037 A 
ATOM     45  C   UNL A   1      42.819  30.075  34.171  1.00  0.00     0.049 A 
ATOM     46  C   UNL A   1      43.808  26.079  30.365  1.00  0.00     0.074 A 
ATOM     47  C   UNL A   1      43.713  30.164  35.223  1.00  0.00     0.029 A 
ATOM     48  N   UNL A   1      43.263  29.042  33.357  1.00  0.00    -0.354 N 
ATOM     49  N   UNL A   1      43.702  26.958  31.333  1.00  0.00    -0.248 NA
ATOM     50  C   UNL A   1      44.997  25.223  30.454  1.00  0.00     0.031 C 
ATOM     51  C   UNL A   1      44.722  29.215  35.023  1.00  0.00     0.029 A 
ATOM     52  C   UNL A   1      44.430  28.500  33.873  1.00  0.00     0.049 A 
ATOM     53  H   UNL A   1      42.815  28.739  32.535  1.00  0.00     0.167 HD
ATOM     54  C   UNL A   1      44.800  26.745  32.160  1.00  0.00     0.074 A 
ATOM     55  C   UNL A   1      45.544  25.641  31.587  1.00  0.00     0.031 C 
ATOM     56  C   UNL A   1      45.160  27.402  33.290  1.00  0.00     0.037 A 
BRANCH  43  57
ATOM     57  C   UNL A   1      41.342  32.006  34.866  1.00  0.00     0.058 A 
ATOM     58  C   UNL A   1      40.473  31.841  35.957  1.00  0.00     0.135 A 
ATOM     59  C   UNL A   1      41.960  33.257  34.706  1.00  0.00     0.135 A 
ATOM     60  F   UNL A   1      39.844  30.671  36.149  1.00  0.00    -0.206 F 
ATOM     61  C   UNL A   1      40.209  32.881  36.841  1.00  0.00     0.059 A 
ATOM     62  C   UNL A   1      41.732  34.304  35.595  1.00  0.00     0.059 A 
ATOM     63  F   UNL A   1      42.798  33.471  33.680  1.00  0.00    -0.206 F 
ATOM     64  C   UNL A   1      40.845  34.110  36.653  1.00  0.00     0.060 A 
BRANCH  64  65
ATOM     65  S   UNL A   1      40.501  35.445  37.819  1.00  0.00     0.124 S 
ATOM     66  O   UNL A   1      39.430  34.862  38.621  1.00  0.00    -0.237 OA
ATOM     67  O   UNL A   1      41.784  35.606  38.495  1.00  0.00    -0.237 OA
ATOM     68  O   UNL A   1      40.105  36.555  36.958  1.00  0.00    -0.744 OA
ENDBRANCH  64  65
ENDBRANCH  43  57
BRANCH  44  69
ATOM     69  C   UNL A   1      43.181  24.786  28.194  1.00  0.00     0.058 A 
ATOM     70  C   UNL A   1      43.848  25.097  27.000  1.00  0.00     0.135 A 
ATOM     71  C   UNL A   1      42.812  23.449  28.407  1.00  0.00     0.135 A 
ATOM     72  F   UNL A   1      44.218  26.361  26.748  1.00  0.00    -0.206 F 
ATOM     73  C   UNL A   1      44.122  24.124  26.044  1.00  0.00     0.059 A 
ATOM     74  C   UNL A   1      43.098  22.454  27.479  1.00  0.00     0.059 A 
ATOM     75  F   UNL A   1      42.187  23.096  29.542  1.00  0.00    -0.206 F 
ATOM     76  C   UNL A   1      43.744  22.804  26.293  1.00  0.00     0.060 A 
BRANCH  76  77
ATOM     77  S   UNL A   1      44.143  21.541  25.066  1.00  0.00     0.124 S 
ATOM     78  O   UNL A   1      45.513  21.201  25.429  1.00  0.00    -0.237 OA
ATOM     79  O   UNL A   1      43.137  20.520  25.339  1.00  0.00    -0.237 OA
ATOM     80  O   UNL A   1      43.982  22.244  23.797  1.00  0.00    -0.744 OA
ENDBRANCH  76  77
ENDBRANCH  44  69
BRANCH  56  81
ATOM     81  C   UNL A   1      46.401  26.928  33.996  1.00  0.00     0.058 A 
ATOM     82  C   UNL A   1      46.356  25.922  34.974  1.00  0.00     0.135 A 
ATOM     83  C   UNL A   1      47.655  27.468  33.668  1.00  0.00     0.135 A 
ATOM     84  F   UNL A   1      45.181  25.377  35.328  1.00  0.00    -0.206 F 
ATOM     85  C   UNL A   1      47.505  25.494  35.628  1.00  0.00     0.059 A 
ATOM     86  C   UNL A   1      48.822  27.032  34.288  1.00  0.00     0.059 A 
ATOM     87  F   UNL A   1      47.757  28.424  32.730  1.00  0.00    -0.206 F 
ATOM     88  C   UNL A   1      48.735  26.057  35.280  1.00  0.00     0.060 A 
BRANCH  88  89
ATOM     89  S   UNL A   1      50.221  25.484  36.129  1.00  0.00     0.124 S 
ATOM     90  O   UNL A   1      51.052  25.057  35.008  1.00  0.00    -0.237 OA
ATOM     91  O   UNL A   1      50.666  26.686  36.826  1.00  0.00    -0.237 OA
ATOM     92  O   UNL A   1      49.728  24.413  36.990  1.00  0.00    -0.744 OA
ENDBRANCH  88  89
ENDBRANCH  56  81
ENDBRANCH  30  31
ENDBRANCH  22  25
ENDBRANCH  20  21
ENDBRANCH   1  20
TORSDOF 17
ENDMDL
MODEL 2
REMARK VINA RESULT:     -10.8      5.288     11.430
REMARK SMILES CC(C)Cc1ccc([C@H](CF)C(=O)NCCCNC(=O)c2ccc(-c3c4nc(c(-c5c(F)cc(S(=O)(=O)[O-])cc5F)c5ccc([nH]5)c(-c5c(F)cc(S(=O)(=O)[O-])cc5F)c5nc(c(-c6c(F)cc(S(=O)(=O)[O-])cc6F)c6ccc3[nH]6)C=C5)C=C4)cc2)cc1
REMARK SMILES IDX 16 1 15 2 14 3 12 4 13 5 9 7 8 8 5 9 6 10 88 11 7 12 87 13
REMARK SMILES IDX 4 14 2 15 1 16 3 17 10 18 11 19 17 20 18 21 19 22 20 24
REMARK SMILES IDX 21 25 22 26 86 27 23 28 85 29 24 30 25 31 26 32 79 33 27 34
REMARK SMILES IDX 84 35 78 36 80 37 28 38 83 39 77 40 76 41 29 43 63 44 42 45
REMARK SMILES IDX 62 46 43 47 46 48 61 49 81 50 44 51 45 52 60 54 82 55 47 56
REMARK SMILES IDX 30 57 31 58 40 59 32 60 33 61 39 62 41 63 34 64 35 65 36 66
REMARK SMILES IDX 37 67 38 68 64 69 65 70 74 71 66 72 67 73 73 74 75 75 68 76
REMARK SMILES IDX 69 77 70 78 71 79 72 80 48 81 49 82 58 83 50 84 51 85 57 86
REMARK SMILES IDX 59 87 52 88 53 89 54 90 55 91 56 92
REMARK H PARENT 14 6 18 23 80 42 46 53
REMARK Flexibility Score: inf
ROOT
ATOM      1  C   UNL A   1      41.088  20.294  27.136  1.00  0.00     0.042 C 
ENDROOT
BRANCH   1   2
ATOM      2  C   UNL A   1      42.489  19.704  27.053  1.00  0.00     0.117 C 
BRANCH   2   3
ATOM      3  N   UNL A   1      42.872  19.401  25.685  1.00  0.00    -0.355 N 
ATOM      4  C   UNL A   1      43.977  19.769  24.978  1.00  0.00     0.230 C 
ATOM      5  O   UNL A   1      44.090  19.330  23.831  1.00  0.00    -0.274 OA
ATOM      6  H   UNL A   1      42.231  18.841  25.189  1.00  0.00     0.163 HD
BRANCH   4   7
ATOM      7  C   UNL A   1      45.028  20.703  25.564  1.00  0.00     0.139 C 
BRANCH   7   8
ATOM      8  C   UNL A   1      44.603  22.167  25.663  1.00  0.00    -0.033 A 
ATOM      9  C   UNL A   1      44.022  24.938  25.686  1.00  0.00    -0.048 A 
ATOM     10  C   UNL A   1      43.438  24.093  24.737  1.00  0.00     0.004 A 
ATOM     11  C   UNL A   1      44.850  24.383  26.663  1.00  0.00     0.004 A 
ATOM     12  C   UNL A   1      43.741  22.731  24.713  1.00  0.00     0.005 A 
ATOM     13  C   UNL A   1      45.143  23.015  26.647  1.00  0.00     0.005 A 
BRANCH   9  14
ATOM     14  C   UNL A   1      43.840  26.433  25.581  1.00  0.00     0.038 C 
BRANCH  14  15
ATOM     15  C   UNL A   1      45.040  27.224  26.152  1.00  0.00    -0.013 C 
ATOM     16  C   UNL A   1      46.112  27.534  25.101  1.00  0.00     0.008 C 
ATOM     17  C   UNL A   1      44.551  28.536  26.771  1.00  0.00     0.008 C 
ENDBRANCH  14  15
ENDBRANCH   9  14
ENDBRANCH   7   8
BRANCH   7  18
ATOM     18  C   UNL A   1      46.358  20.420  24.863  1.00  0.00     0.232 C 
ATOM     19  F   UNL A   1      46.788  21.552  24.234  1.00  0.00    -0.250 F 
ENDBRANCH   7  18
ENDBRANCH   4   7
ENDBRANCH   2   3
ENDBRANCH   1   2
BRANCH   1  20
ATOM     20  C   UNL A   1      40.973  21.709  26.582  1.00  0.00     0.118 C 
BRANCH  20  21
ATOM     21  N   UNL A   1      39.695  21.956  25.931  1.00  0.00    -0.352 N 
ATOM     22  C   UNL A   1      38.846  23.028  26.026  1.00  0.00     0.251 C 
ATOM     23  H   UNL A   1      39.392  21.241  25.325  1.00  0.00     0.163 HD
ATOM     24  O   UNL A   1      37.719  22.945  25.529  1.00  0.00    -0.269 OA
BRANCH  22  25
ATOM     25  C   UNL A   1      39.255  24.263  26.728  1.00  0.00     0.039 A 
ATOM     26  C   UNL A   1      38.848  24.449  28.052  1.00  0.00     0.014 A 
ATOM     27  C   UNL A   1      40.007  25.251  26.087  1.00  0.00     0.014 A 
ATOM     28  C   UNL A   1      39.246  25.592  28.748  1.00  0.00     0.010 A 
ATOM     29  C   UNL A   1      40.474  26.349  26.806  1.00  0.00     0.010 A 
ATOM     30  C   UNL A   1      40.094  26.535  28.143  1.00  0.00    -0.014 A 
BRANCH  30  31
ATOM     31  C   UNL A   1      40.592  27.712  28.903  1.00  0.00     0.031 A 
ATOM     32  C   UNL A   1      41.983  27.717  29.479  1.00  0.00     0.074 A 
ATOM     33  C   UNL A   1      39.770  28.759  29.112  1.00  0.00     0.049 A 
ATOM     34  N   UNL A   1      42.578  28.642  30.187  1.00  0.00    -0.248 NA
ATOM     35  C   UNL A   1      42.804  26.516  29.253  1.00  0.00     0.031 C 
ATOM     36  C   UNL A   1      38.380  28.846  28.656  1.00  0.00     0.029 A 
ATOM     37  N   UNL A   1      39.978  29.948  29.763  1.00  0.00    -0.354 N 
ATOM     38  C   UNL A   1      43.835  28.135  30.498  1.00  0.00     0.074 A 
ATOM     39  C   UNL A   1      43.896  26.797  29.950  1.00  0.00     0.031 C 
ATOM     40  C   UNL A   1      37.872  30.035  29.016  1.00  0.00     0.029 A 
ATOM     41  C   UNL A   1      38.884  30.781  29.758  1.00  0.00     0.049 A 
ATOM     42  H   UNL A   1      40.832  30.184  30.194  1.00  0.00     0.167 HD
ATOM     43  C   UNL A   1      44.853  28.737  31.159  1.00  0.00     0.037 A 
ATOM     44  C   UNL A   1      38.712  32.006  30.291  1.00  0.00     0.037 A 
ATOM     45  C   UNL A   1      44.794  30.079  31.680  1.00  0.00     0.049 A 
ATOM     46  C   UNL A   1      39.863  32.659  31.007  1.00  0.00     0.074 A 
ATOM     47  C   UNL A   1      45.792  30.802  32.309  1.00  0.00     0.029 A 
ATOM     48  N   UNL A   1      43.675  30.898  31.637  1.00  0.00    -0.354 N 
ATOM     49  N   UNL A   1      41.068  32.191  31.229  1.00  0.00    -0.248 NA
ATOM     50  C   UNL A   1      39.633  34.008  31.539  1.00  0.00     0.031 C 
ATOM     51  C   UNL A   1      45.264  32.042  32.686  1.00  0.00     0.029 A 
ATOM     52  C   UNL A   1      43.952  32.111  32.247  1.00  0.00     0.049 A 
ATOM     53  H   UNL A   1      42.811  30.653  31.233  1.00  0.00     0.167 HD
ATOM     54  C   UNL A   1      41.748  33.198  31.905  1.00  0.00     0.074 A 
ATOM     55  C   UNL A   1      40.825  34.306  32.038  1.00  0.00     0.031 C 
ATOM     56  C   UNL A   1      43.021  33.204  32.373  1.00  0.00     0.037 A 
BRANCH  43  57
ATOM     57  C   UNL A   1      46.125  27.955  31.349  1.00  0.00     0.058 A 
ATOM     58  C   UNL A   1      46.308  27.101  32.449  1.00  0.00     0.135 A 
ATOM     59  C   UNL A   1      47.156  28.025  30.397  1.00  0.00     0.135 A 
ATOM     60  F   UNL A   1      45.362  27.006  33.397  1.00  0.00    -0.206 F 
ATOM     61  C   UNL A   1      47.477  26.364  32.612  1.00  0.00     0.059 A 
ATOM     62  C   UNL A   1      48.322  27.275  30.526  1.00  0.00     0.059 A 
ATOM     63  F   UNL A   1      47.035  28.826  29.328  1.00  0.00    -0.206 F 
ATOM     64  C   UNL A   1      48.478  26.456  31.644  1.00  0.00     0.060 A 
BRANCH  64  65
ATOM     65  S   UNL A   1      49.982  25.481  31.864  1.00  0.00     0.124 S 
ATOM     66  O   UNL A   1      50.961  26.521  32.165  1.00  0.00    -0.237 OA
ATOM     67  O   UNL A   1      49.625  24.606  32.975  1.00  0.00    -0.237 OA
ATOM     68  O   UNL A   1      50.148  24.817  30.575  1.00  0.00    -0.744 OA
ENDBRANCH  64  65
ENDBRANCH  43  57
BRANCH  44  69
ATOM     69  C   UNL A   1      37.407  32.704  30.146  1.00  0.00     0.058 A 
ATOM     70  C   UNL A   1      36.360  32.477  31.052  1.00  0.00     0.135 A 
ATOM     71  C   UNL A   1      37.182  33.617  29.105  1.00  0.00     0.135 A 
ATOM     72  F   UNL A   1      36.524  31.609  32.062  1.00  0.00    -0.206 F 
ATOM     73  C   UNL A   1      35.131  33.114  30.921  1.00  0.00     0.059 A 
ATOM     74  C   UNL A   1      35.971  34.288  28.968  1.00  0.00     0.059 A 
ATOM     75  F   UNL A   1      38.157  33.885  28.221  1.00  0.00    -0.206 F 
ATOM     76  C   UNL A   1      34.946  34.020  29.875  1.00  0.00     0.060 A 
BRANCH  76  77
ATOM     77  S   UNL A   1      33.362  34.876  29.739  1.00  0.00     0.124 S 
ATOM     78  O   UNL A   1      32.636  34.005  28.823  1.00  0.00    -0.237 OA
ATOM     79  O   UNL A   1      32.896  34.881  31.122  1.00  0.00    -0.237 OA
ATOM     80  O   UNL A   1      33.733  36.184  29.207  1.00  0.00    -0.744 OA
ENDBRANCH  76  77
ENDBRANCH  44  69
BRANCH  56  81
ATOM     81  C   UNL A   1      43.497  34.460  33.051  1.00  0.00     0.058 A 
ATOM     82  C   UNL A   1      43.981  35.557  32.320  1.00  0.00     0.135 A 
ATOM     83  C   UNL A   1      43.441  34.578  34.450  1.00  0.00     0.135 A 
ATOM     84  F   UNL A   1      44.060  35.494  30.981  1.00  0.00    -0.206 F 
ATOM     85  C   UNL A   1      44.427  36.712  32.953  1.00  0.00     0.059 A 
ATOM     86  C   UNL A   1      43.854  35.736  35.102  1.00  0.00     0.059 A 
ATOM     87  F   UNL A   1      42.975  33.564  35.197  1.00  0.00    -0.206 F 
ATOM     88  C   UNL A   1      44.362  36.791  34.346  1.00  0.00     0.060 A 
BRANCH  88  89
ATOM     89  S   UNL A   1      44.933  38.300  35.155  1.00  0.00     0.124 S 
ATOM     90  O   UNL A   1      45.106  37.847  36.531  1.00  0.00    -0.237 OA
ATOM     91  O   UNL A   1      46.162  38.600  34.426  1.00  0.00    -0.237 OA
ATOM     92  O   UNL A   1      43.836  39.239  34.935  1.00  0.00    -0.744 OA
ENDBRANCH  88  89
ENDBRANCH  56  81
ENDBRANCH  30  31
ENDBRANCH  22  25
ENDBRANCH  20  21
ENDBRANCH   1  20
TORSDOF 17
ENDMDL
MODEL 3
REMARK VINA RESULT:     -10.8      6.042     12.103
REMARK SMILES CC(C)Cc1ccc([C@H](CF)C(=O)NCCCNC(=O)c2ccc(-c3c4nc(c(-c5c(F)cc(S(=O)(=O)[O-])cc5F)c5ccc([nH]5)c(-c5c(F)cc(S(=O)(=O)[O-])cc5F)c5nc(c(-c6c(F)cc(S(=O)(=O)[O-])cc6F)c6ccc3[nH]6)C=C5)C=C4)cc2)cc1
REMARK SMILES IDX 16 1 15 2 14 3 12 4 13 5 9 7 8 8 5 9 6 10 88 11 7 12 87 13
REMARK SMILES IDX 4 14 2 15 1 16 3 17 10 18 11 19 17 20 18 21 19 22 20 24
REMARK SMILES IDX 21 25 22 26 86 27 23 28 85 29 24 30 25 31 26 32 79 33 27 34
REMARK SMILES IDX 84 35 78 36 80 37 28 38 83 39 77 40 76 41 29 43 63 44 42 45
REMARK SMILES IDX 62 46 43 47 46 48 61 49 81 50 44 51 45 52 60 54 82 55 47 56
REMARK SMILES IDX 30 57 31 58 40 59 32 60 33 61 39 62 41 63 34 64 35 65 36 66
REMARK SMILES IDX 37 67 38 68 64 69 65 70 74 71 66 72 67 73 73 74 75 75 68 76
REMARK SMILES IDX 69 77 70 78 71 79 72 80 48 81 49 82 58 83 50 84 51 85 57 86
REMARK SMILES IDX 59 87 52 88 53 89 54 90 55 91 56 92
REMARK H PARENT 14 6 18 23 80 42 46 53
REMARK Flexibility Score: inf
ROOT
ATOM      1  C   UNL A   1      41.303  20.123  26.547  1.00  0.00     0.042 C 
ENDROOT
BRANCH   1   2
ATOM      2  C   UNL A   1      42.637  20.469  25.901  1.00  0.00     0.117 C 
BRANCH   2   3
ATOM      3  N   UNL A   1      42.643  21.811  25.345  1.00  0.00    -0.355 N 
ATOM      4  C   UNL A   1      43.579  22.796  25.433  1.00  0.00     0.230 C 
ATOM      5  O   UNL A   1      43.362  23.842  24.817  1.00  0.00    -0.274 OA
ATOM      6  H   UNL A   1      41.842  22.046  24.823  1.00  0.00     0.163 HD
BRANCH   4   7
ATOM      7  C   UNL A   1      44.840  22.631  26.272  1.00  0.00     0.139 C 
BRANCH   7   8
ATOM      8  C   UNL A   1      44.749  23.202  27.686  1.00  0.00    -0.033 A 
ATOM      9  C   UNL A   1      44.478  24.480  30.198  1.00  0.00    -0.048 A 
ATOM     10  C   UNL A   1      43.453  23.676  29.691  1.00  0.00     0.004 A 
ATOM     11  C   UNL A   1      45.666  24.593  29.473  1.00  0.00     0.004 A 
ATOM     12  C   UNL A   1      43.578  23.063  28.444  1.00  0.00     0.005 A 
ATOM     13  C   UNL A   1      45.796  23.967  28.230  1.00  0.00     0.005 A 
BRANCH   9  14
ATOM     14  C   UNL A   1      44.254  25.291  31.452  1.00  0.00     0.038 C 
BRANCH  14  15
ATOM     15  C   UNL A   1      45.207  26.504  31.560  1.00  0.00    -0.013 C 
ATOM     16  C   UNL A   1      44.468  27.843  31.663  1.00  0.00     0.008 C 
ATOM     17  C   UNL A   1      46.121  26.341  32.776  1.00  0.00     0.008 C 
ENDBRANCH  14  15
ENDBRANCH   9  14
ENDBRANCH   7   8
BRANCH   7  18
ATOM     18  C   UNL A   1      46.034  23.078  25.428  1.00  0.00     0.232 C 
ATOM     19  F   UNL A   1      46.391  22.072  24.578  1.00  0.00    -0.250 F 
ENDBRANCH   7  18
ENDBRANCH   4   7
ENDBRANCH   2   3
ENDBRANCH   1   2
BRANCH   1  20
ATOM     20  C   UNL A   1      40.564  21.322  27.133  1.00  0.00     0.118 C 
BRANCH  20  21
ATOM     21  N   UNL A   1      39.310  21.598  26.448  1.00  0.00    -0.352 N 
ATOM     22  C   UNL A   1      38.616  22.773  26.313  1.00  0.00     0.251 C 
ATOM     23  H   UNL A   1      38.894  20.819  26.013  1.00  0.00     0.163 HD
ATOM     24  O   UNL A   1      37.473  22.743  25.850  1.00  0.00    -0.269 OA
BRANCH  22  25
ATOM     25  C   UNL A   1      39.211  24.061  26.730  1.00  0.00     0.039 A 
ATOM     26  C   UNL A   1      39.056  24.474  28.056  1.00  0.00     0.014 A 
ATOM     27  C   UNL A   1      39.892  24.877  25.823  1.00  0.00     0.014 A 
ATOM     28  C   UNL A   1      39.633  25.671  28.483  1.00  0.00     0.010 A 
ATOM     29  C   UNL A   1      40.539  26.028  26.269  1.00  0.00     0.010 A 
ATOM     30  C   UNL A   1      40.412  26.441  27.603  1.00  0.00    -0.014 A 
BRANCH  30  31
ATOM     31  C   UNL A   1      41.101  27.672  28.071  1.00  0.00     0.031 A 
ATOM     32  C   UNL A   1      42.596  27.804  27.952  1.00  0.00     0.074 A 
ATOM     33  C   UNL A   1      40.380  28.654  28.647  1.00  0.00     0.049 A 
ATOM     34  N   UNL A   1      43.369  28.791  28.326  1.00  0.00    -0.248 NA
ATOM     35  C   UNL A   1      43.322  26.667  27.360  1.00  0.00     0.031 C 
ATOM     36  C   UNL A   1      38.932  28.618  28.874  1.00  0.00     0.029 A 
ATOM     37  N   UNL A   1      40.761  29.872  29.150  1.00  0.00    -0.354 N 
ATOM     38  C   UNL A   1      44.667  28.395  28.024  1.00  0.00     0.074 A 
ATOM     39  C   UNL A   1      44.583  27.053  27.487  1.00  0.00     0.031 C 
ATOM     40  C   UNL A   1      38.547  29.770  29.444  1.00  0.00     0.029 A 
ATOM     41  C   UNL A   1      39.719  30.613  29.656  1.00  0.00     0.049 A 
ATOM     42  H   UNL A   1      41.695  30.186  29.150  1.00  0.00     0.167 HD
ATOM     43  C   UNL A   1      45.820  29.093  28.159  1.00  0.00     0.037 A 
ATOM     44  C   UNL A   1      39.708  31.832  30.227  1.00  0.00     0.037 A 
ATOM     45  C   UNL A   1      45.893  30.438  28.670  1.00  0.00     0.049 A 
ATOM     46  C   UNL A   1      40.999  32.594  30.352  1.00  0.00     0.074 A 
ATOM     47  C   UNL A   1      47.004  31.254  28.787  1.00  0.00     0.029 A 
ATOM     48  N   UNL A   1      44.813  31.162  29.153  1.00  0.00    -0.354 N 
ATOM     49  N   UNL A   1      42.207  32.230  29.994  1.00  0.00    -0.248 NA
ATOM     50  C   UNL A   1      40.924  33.932  30.950  1.00  0.00     0.031 C 
ATOM     51  C   UNL A   1      46.603  32.457  29.381  1.00  0.00     0.029 A 
ATOM     52  C   UNL A   1      45.235  32.409  29.589  1.00  0.00     0.049 A 
ATOM     53  H   UNL A   1      43.884  30.839  29.181  1.00  0.00     0.167 HD
ATOM     54  C   UNL A   1      43.034  33.305  30.302  1.00  0.00     0.074 A 
ATOM     55  C   UNL A   1      42.184  34.338  30.857  1.00  0.00     0.031 C 
ATOM     56  C   UNL A   1      44.375  33.426  30.140  1.00  0.00     0.037 A 
BRANCH  43  57
ATOM     57  C   UNL A   1      47.100  28.421  27.738  1.00  0.00     0.058 A 
ATOM     58  C   UNL A   1      47.561  28.478  26.413  1.00  0.00     0.135 A 
ATOM     59  C   UNL A   1      47.898  27.749  28.679  1.00  0.00     0.135 A 
ATOM     60  F   UNL A   1      46.832  29.094  25.469  1.00  0.00    -0.206 F 
ATOM     61  C   UNL A   1      48.755  27.874  26.030  1.00  0.00     0.059 A 
ATOM     62  C   UNL A   1      49.109  27.161  28.324  1.00  0.00     0.059 A 
ATOM     63  F   UNL A   1      47.504  27.662  29.959  1.00  0.00    -0.206 F 
ATOM     64  C   UNL A   1      49.523  27.219  26.994  1.00  0.00     0.060 A 
BRANCH  64  65
ATOM     65  S   UNL A   1      51.076  26.453  26.483  1.00  0.00     0.124 S 
ATOM     66  O   UNL A   1      50.975  25.141  27.115  1.00  0.00    -0.237 OA
ATOM     67  O   UNL A   1      50.965  26.466  25.028  1.00  0.00    -0.237 OA
ATOM     68  O   UNL A   1      52.092  27.340  27.040  1.00  0.00    -0.744 OA
ENDBRANCH  64  65
ENDBRANCH  43  57
BRANCH  44  69
ATOM     69  C   UNL A   1      38.425  32.419  30.702  1.00  0.00     0.058 A 
ATOM     70  C   UNL A   1      37.618  33.181  29.844  1.00  0.00     0.135 A 
ATOM     71  C   UNL A   1      37.978  32.223  32.017  1.00  0.00     0.135 A 
ATOM     72  F   UNL A   1      38.004  33.400  28.578  1.00  0.00    -0.206 F 
ATOM     73  C   UNL A   1      36.422  33.745  30.277  1.00  0.00     0.059 A 
ATOM     74  C   UNL A   1      36.773  32.753  32.467  1.00  0.00     0.059 A 
ATOM     75  F   UNL A   1      38.704  31.486  32.872  1.00  0.00    -0.206 F 
ATOM     76  C   UNL A   1      36.007  33.524  31.592  1.00  0.00     0.060 A 
BRANCH  76  77
ATOM     77  S   UNL A   1      34.432  34.222  32.133  1.00  0.00     0.124 S 
ATOM     78  O   UNL A   1      34.870  35.419  32.841  1.00  0.00    -0.237 OA
ATOM     79  O   UNL A   1      33.744  34.445  30.866  1.00  0.00    -0.237 OA
ATOM     80  O   UNL A   1      33.867  33.166  32.967  1.00  0.00    -0.744 OA
ENDBRANCH  76  77
ENDBRANCH  44  69
BRANCH  56  81
ATOM     81  C   UNL A   1      45.001  34.732  30.547  1.00  0.00     0.058 A 
ATOM     82  C   UNL A   1      45.515  34.936  31.837  1.00  0.00     0.135 A 
ATOM     83  C   UNL A   1      45.111  35.786  29.624  1.00  0.00     0.135 A 
ATOM     84  F   UNL A   1      45.430  33.963  32.759  1.00  0.00    -0.206 F 
ATOM     85  C   UNL A   1      46.085  36.148  32.210  1.00  0.00     0.059 A 
ATOM     86  C   UNL A   1      45.705  36.996  29.966  1.00  0.00     0.059 A 
ATOM     87  F   UNL A   1      44.647  35.641  28.372  1.00  0.00    -0.206 F 
ATOM     88  C   UNL A   1      46.173  37.175  31.267  1.00  0.00     0.060 A 
BRANCH  88  89
ATOM     89  S   UNL A   1      46.925  38.740  31.759  1.00  0.00     0.124 S 
ATOM     90  O   UNL A   1      45.859  39.340  32.554  1.00  0.00    -0.237 OA
ATOM     91  O   UNL A   1      48.101  38.302  32.503  1.00  0.00    -0.237 OA
ATOM     92  O   UNL A   1      47.204  39.397  30.485  1.00  0.00    -0.744 OA
ENDBRANCH  88  89
ENDBRANCH  56  81
ENDBRANCH  30  31
ENDBRANCH  22  25
ENDBRANCH  20  21
ENDBRANCH   1  20
TORSDOF 17
ENDMDL
