MODEL 1
REMARK VINA RESULT:     -11.7      0.000      0.000
REMARK SMILES O=C(NCCCNC(=O)c1cccnc1C(=O)Nc1ccc(Cl)cn1)c1ccc(-c2c3nc(c(-c4c(F)cc(S(=O)(=O)[O-])cc4F)c4ccc([nH]4)c(-c4c(F)cc(S(=O)(=O)[O-])cc4F)c4nc(c(-c5c(F)cc(S(=O)(=O)[O-])cc5F)c5ccc2[nH]5)C=C4)C=C3)cc1
REMARK SMILES IDX 4 1 3 2 1 3 2 4 26 6 27 7 91 8 28 9 90 10 29 11 30 12 31 13
REMARK SMILES IDX 84 14 32 15 89 16 83 17 85 18 33 19 88 20 82 21 81 22 34 24
REMARK SMILES IDX 68 25 47 26 67 27 48 28 51 29 66 30 86 31 49 32 50 33 65 35
REMARK SMILES IDX 87 36 52 37 35 38 36 39 45 40 37 41 38 42 44 43 46 44 39 45
REMARK SMILES IDX 40 46 41 47 42 48 43 49 69 50 70 51 79 52 71 53 72 54 78 55
REMARK SMILES IDX 80 56 73 57 74 58 75 59 76 60 77 61 53 62 54 63 63 64 55 65
REMARK SMILES IDX 56 66 62 67 64 68 57 69 58 70 59 71 60 72 61 73 5 74 6 75
REMARK SMILES IDX 7 76 8 77 9 79 10 80 11 81 15 82 12 83 14 84 13 85 16 86
REMARK SMILES IDX 17 87 18 88 19 90 20 91 25 92 21 93 24 94 22 95 23 96
REMARK H PARENT 3 5 85 23 51 34 7 78 18 89
REMARK Flexibility Score: inf
ROOT
ATOM      1  C   UNL A   1      33.590  28.594  27.155  1.00  0.00     0.118 C 
ENDROOT
BRANCH   1   2
ATOM      2  N   UNL A   1      33.476  29.951  27.660  1.00  0.00    -0.352 N 
ATOM      3  O   UNL A   1      34.223  31.818  28.702  1.00  0.00    -0.269 OA
ATOM      4  C   UNL A   1      34.469  30.704  28.259  1.00  0.00     0.251 C 
ATOM      5  H   UNL A   1      32.596  30.382  27.565  1.00  0.00     0.163 HD
BRANCH   4   6
ATOM      6  C   UNL A   1      35.826  30.122  28.392  1.00  0.00     0.039 A 
ATOM      7  C   UNL A   1      36.254  29.608  29.618  1.00  0.00     0.014 A 
ATOM      8  C   UNL A   1      36.694  30.149  27.298  1.00  0.00     0.014 A 
ATOM      9  C   UNL A   1      37.593  29.264  29.790  1.00  0.00     0.010 A 
ATOM     10  C   UNL A   1      38.024  29.742  27.459  1.00  0.00     0.010 A 
ATOM     11  C   UNL A   1      38.500  29.345  28.719  1.00  0.00    -0.014 A 
BRANCH  11  12
ATOM     12  C   UNL A   1      39.938  29.028  28.944  1.00  0.00     0.031 A 
ATOM     13  C   UNL A   1      40.863  30.039  29.577  1.00  0.00     0.074 A 
ATOM     14  C   UNL A   1      40.409  27.811  28.610  1.00  0.00     0.049 A 
ATOM     15  N   UNL A   1      42.131  29.921  29.885  1.00  0.00    -0.248 NA
ATOM     16  C   UNL A   1      40.293  31.355  29.902  1.00  0.00     0.031 C 
ATOM     17  C   UNL A   1      39.621  26.747  27.985  1.00  0.00     0.029 A 
ATOM     18  N   UNL A   1      41.655  27.256  28.760  1.00  0.00    -0.354 N 
ATOM     19  C   UNL A   1      42.515  31.147  30.418  1.00  0.00     0.074 A 
ATOM     20  C   UNL A   1      41.351  32.006  30.366  1.00  0.00     0.031 C 
ATOM     21  C   UNL A   1      40.391  25.657  27.841  1.00  0.00     0.029 A 
ATOM     22  C   UNL A   1      41.739  25.958  28.314  1.00  0.00     0.049 A 
ATOM     23  H   UNL A   1      42.418  27.742  29.150  1.00  0.00     0.167 HD
ATOM     24  C   UNL A   1      43.721  31.521  30.914  1.00  0.00     0.037 A 
ATOM     25  C   UNL A   1      42.782  25.106  28.280  1.00  0.00     0.037 A 
ATOM     26  C   UNL A   1      44.874  30.656  30.976  1.00  0.00     0.049 A 
ATOM     27  C   UNL A   1      44.113  25.551  28.817  1.00  0.00     0.074 A 
ATOM     28  C   UNL A   1      46.127  30.930  31.499  1.00  0.00     0.029 A 
ATOM     29  N   UNL A   1      44.922  29.356  30.495  1.00  0.00    -0.354 N 
ATOM     30  N   UNL A   1      44.444  26.700  29.357  1.00  0.00    -0.248 NA
ATOM     31  C   UNL A   1      45.214  24.580  28.748  1.00  0.00     0.031 C 
ATOM     32  C   UNL A   1      46.946  29.817  31.284  1.00  0.00     0.029 A 
ATOM     33  C   UNL A   1      46.188  28.824  30.687  1.00  0.00     0.049 A 
ATOM     34  H   UNL A   1      44.167  28.881  30.077  1.00  0.00     0.167 HD
ATOM     35  C   UNL A   1      45.781  26.576  29.724  1.00  0.00     0.074 A 
ATOM     36  C   UNL A   1      46.193  25.239  29.352  1.00  0.00     0.031 C 
ATOM     37  C   UNL A   1      46.589  27.488  30.321  1.00  0.00     0.037 A 
BRANCH  24  38
ATOM     38  C   UNL A   1      43.872  32.937  31.409  1.00  0.00     0.058 A 
ATOM     39  C   UNL A   1      44.281  33.982  30.565  1.00  0.00     0.135 A 
ATOM     40  C   UNL A   1      43.558  33.261  32.740  1.00  0.00     0.135 A 
ATOM     41  F   UNL A   1      44.605  33.730  29.286  1.00  0.00    -0.206 F 
ATOM     42  C   UNL A   1      44.404  35.288  31.028  1.00  0.00     0.059 A 
ATOM     43  C   UNL A   1      43.646  34.567  33.218  1.00  0.00     0.059 A 
ATOM     44  F   UNL A   1      43.156  32.305  33.592  1.00  0.00    -0.206 F 
ATOM     45  C   UNL A   1      44.087  35.570  32.358  1.00  0.00     0.060 A 
BRANCH  45  46
ATOM     46  S   UNL A   1      44.265  37.268  32.946  1.00  0.00     0.124 S 
ATOM     47  O   UNL A   1      43.189  37.348  33.930  1.00  0.00    -0.237 OA
ATOM     48  O   UNL A   1      45.620  37.270  33.488  1.00  0.00    -0.237 OA
ATOM     49  O   UNL A   1      44.072  38.069  31.741  1.00  0.00    -0.744 OA
ENDBRANCH  45  46
ENDBRANCH  24  38
BRANCH  25  50
ATOM     50  C   UNL A   1      42.600  23.736  27.728  1.00  0.00     0.058 A 
ATOM     51  C   UNL A   1      42.663  23.497  26.348  1.00  0.00     0.135 A 
ATOM     52  C   UNL A   1      42.371  22.637  28.572  1.00  0.00     0.135 A 
ATOM     53  F   UNL A   1      42.873  24.516  25.500  1.00  0.00    -0.206 F 
ATOM     54  C   UNL A   1      42.489  22.222  25.820  1.00  0.00     0.059 A 
ATOM     55  C   UNL A   1      42.225  21.348  28.070  1.00  0.00     0.059 A 
ATOM     56  F   UNL A   1      42.318  22.810  29.903  1.00  0.00    -0.206 F 
ATOM     57  C   UNL A   1      42.274  21.153  26.691  1.00  0.00     0.060 A 
BRANCH  57  58
ATOM     58  S   UNL A   1      42.097  19.495  25.999  1.00  0.00     0.124 S 
ATOM     59  O   UNL A   1      42.928  19.586  24.804  1.00  0.00    -0.237 OA
ATOM     60  O   UNL A   1      42.617  18.658  27.076  1.00  0.00    -0.237 OA
ATOM     61  O   UNL A   1      40.661  19.381  25.764  1.00  0.00    -0.744 OA
ENDBRANCH  57  58
ENDBRANCH  25  50
BRANCH  37  62
ATOM     62  C   UNL A   1      47.988  27.051  30.665  1.00  0.00     0.058 A 
ATOM     63  C   UNL A   1      48.295  26.413  31.878  1.00  0.00     0.135 A 
ATOM     64  C   UNL A   1      49.036  27.252  29.751  1.00  0.00     0.135 A 
ATOM     65  F   UNL A   1      47.334  26.200  32.792  1.00  0.00    -0.206 F 
ATOM     66  C   UNL A   1      49.596  26.026  32.188  1.00  0.00     0.059 A 
ATOM     67  C   UNL A   1      50.337  26.844  30.025  1.00  0.00     0.059 A 
ATOM     68  F   UNL A   1      48.798  27.845  28.570  1.00  0.00    -0.206 F 
ATOM     69  C   UNL A   1      50.610  26.247  31.256  1.00  0.00     0.060 A 
BRANCH  69  70
ATOM     70  S   UNL A   1      52.292  25.731  31.663  1.00  0.00     0.124 S 
ATOM     71  O   UNL A   1      52.973  25.915  30.386  1.00  0.00    -0.237 OA
ATOM     72  O   UNL A   1      52.659  26.670  32.719  1.00  0.00    -0.237 OA
ATOM     73  O   UNL A   1      52.127  24.346  32.094  1.00  0.00    -0.744 OA
ENDBRANCH  69  70
ENDBRANCH  37  62
ENDBRANCH  11  12
ENDBRANCH   4   6
ENDBRANCH   1   2
BRANCH   1  74
ATOM     74  C   UNL A   1      33.488  28.380  25.643  1.00  0.00     0.042 C 
BRANCH  74  75
ATOM     75  C   UNL A   1      33.718  26.993  25.055  1.00  0.00     0.118 C 
BRANCH  75  76
ATOM     76  N   UNL A   1      33.149  25.869  25.790  1.00  0.00    -0.352 N 
ATOM     77  C   UNL A   1      33.469  24.522  25.777  1.00  0.00     0.253 C 
ATOM     78  H   UNL A   1      32.412  26.107  26.397  1.00  0.00     0.163 HD
ATOM     79  O   UNL A   1      33.047  23.777  26.654  1.00  0.00    -0.269 OA
BRANCH  77  80
ATOM     80  C   UNL A   1      34.407  23.989  24.791  1.00  0.00     0.071 A 
ATOM     81  C   UNL A   1      35.738  23.922  25.263  1.00  0.00     0.018 A 
ATOM     82  C   UNL A   1      34.108  23.436  23.547  1.00  0.00     0.141 A 
ATOM     83  C   UNL A   1      36.752  23.395  24.478  1.00  0.00     0.021 A 
ATOM     84  N   UNL A   1      35.142  22.963  22.766  1.00  0.00    -0.250 NA
ATOM     85  C   UNL A   1      36.407  22.940  23.232  1.00  0.00     0.112 A 
BRANCH  82  86
ATOM     86  C   UNL A   1      32.784  23.065  22.877  1.00  0.00     0.276 C 
ATOM     87  O   UNL A   1      32.696  21.934  22.373  1.00  0.00    -0.267 OA
ATOM     88  N   UNL A   1      31.596  23.738  22.922  1.00  0.00    -0.305 N 
ATOM     89  H   UNL A   1      30.827  23.126  22.936  1.00  0.00     0.171 HD
BRANCH  88  90
ATOM     90  C   UNL A   1      31.204  25.057  22.953  1.00  0.00     0.132 A 
ATOM     91  C   UNL A   1      31.626  25.996  22.029  1.00  0.00     0.049 A 
ATOM     92  N   UNL A   1      30.335  25.341  23.945  1.00  0.00    -0.238 NA
ATOM     93  C   UNL A   1      31.270  27.329  22.245  1.00  0.00     0.026 A 
ATOM     94  C   UNL A   1      30.062  26.646  24.168  1.00  0.00     0.134 A 
ATOM     95  C   UNL A   1      30.531  27.669  23.369  1.00  0.00     0.059 A 
ATOM     96  Cl  UNL A   1      30.248  29.313  23.762  1.00  0.00    -0.083 Cl
ENDBRANCH  88  90
ENDBRANCH  82  86
ENDBRANCH  77  80
ENDBRANCH  75  76
ENDBRANCH  74  75
ENDBRANCH   1  74
TORSDOF 15
ENDMDL
MODEL 2
REMARK VINA RESULT:     -11.4      0.902      8.325
REMARK SMILES O=C(NCCCNC(=O)c1cccnc1C(=O)Nc1ccc(Cl)cn1)c1ccc(-c2c3nc(c(-c4c(F)cc(S(=O)(=O)[O-])cc4F)c4ccc([nH]4)c(-c4c(F)cc(S(=O)(=O)[O-])cc4F)c4nc(c(-c5c(F)cc(S(=O)(=O)[O-])cc5F)c5ccc2[nH]5)C=C4)C=C3)cc1
REMARK SMILES IDX 4 1 3 2 1 3 2 4 26 6 27 7 91 8 28 9 90 10 29 11 30 12 31 13
REMARK SMILES IDX 84 14 32 15 89 16 83 17 85 18 33 19 88 20 82 21 81 22 34 24
REMARK SMILES IDX 68 25 47 26 67 27 48 28 51 29 66 30 86 31 49 32 50 33 65 35
REMARK SMILES IDX 87 36 52 37 35 38 36 39 45 40 37 41 38 42 44 43 46 44 39 45
REMARK SMILES IDX 40 46 41 47 42 48 43 49 69 50 70 51 79 52 71 53 72 54 78 55
REMARK SMILES IDX 80 56 73 57 74 58 75 59 76 60 77 61 53 62 54 63 63 64 55 65
REMARK SMILES IDX 56 66 62 67 64 68 57 69 58 70 59 71 60 72 61 73 5 74 6 75
REMARK SMILES IDX 7 76 8 77 9 79 10 80 11 81 15 82 12 83 14 84 13 85 16 86
REMARK SMILES IDX 17 87 18 88 19 90 20 91 25 92 21 93 24 94 22 95 23 96
REMARK H PARENT 3 5 85 23 51 34 7 78 18 89
REMARK Flexibility Score: inf
ROOT
ATOM      1  C   UNL A   1      33.664  28.493  27.220  1.00  0.00     0.118 C 
ENDROOT
BRANCH   1   2
ATOM      2  N   UNL A   1      33.524  29.860  27.690  1.00  0.00    -0.352 N 
ATOM      3  O   UNL A   1      34.231  31.763  28.694  1.00  0.00    -0.269 OA
ATOM      4  C   UNL A   1      34.499  30.642  28.282  1.00  0.00     0.251 C 
ATOM      5  H   UNL A   1      32.639  30.275  27.575  1.00  0.00     0.163 HD
BRANCH   4   6
ATOM      6  C   UNL A   1      35.863  30.086  28.443  1.00  0.00     0.039 A 
ATOM      7  C   UNL A   1      36.277  29.588  29.681  1.00  0.00     0.014 A 
ATOM      8  C   UNL A   1      36.750  30.119  27.365  1.00  0.00     0.014 A 
ATOM      9  C   UNL A   1      37.618  29.269  29.881  1.00  0.00     0.010 A 
ATOM     10  C   UNL A   1      38.084  29.736  27.554  1.00  0.00     0.010 A 
ATOM     11  C   UNL A   1      38.543  29.358  28.826  1.00  0.00    -0.014 A 
BRANCH  11  12
ATOM     12  C   UNL A   1      39.982  29.067  29.079  1.00  0.00     0.031 A 
ATOM     13  C   UNL A   1      40.583  27.738  28.692  1.00  0.00     0.074 A 
ATOM     14  C   UNL A   1      40.764  30.018  29.628  1.00  0.00     0.049 A 
ATOM     15  N   UNL A   1      41.822  27.327  28.799  1.00  0.00    -0.248 NA
ATOM     16  C   UNL A   1      39.674  26.737  28.114  1.00  0.00     0.031 C 
ATOM     17  C   UNL A   1      40.306  31.342  30.053  1.00  0.00     0.029 A 
ATOM     18  N   UNL A   1      42.107  30.026  29.910  1.00  0.00    -0.354 N 
ATOM     19  C   UNL A   1      41.839  26.021  28.325  1.00  0.00     0.074 A 
ATOM     20  C   UNL A   1      40.479  25.695  27.954  1.00  0.00     0.031 C 
ATOM     21  C   UNL A   1      41.355  32.046  30.505  1.00  0.00     0.029 A 
ATOM     22  C   UNL A   1      42.551  31.209  30.451  1.00  0.00     0.049 A 
ATOM     23  H   UNL A   1      42.698  29.256  29.741  1.00  0.00     0.167 HD
ATOM     24  C   UNL A   1      42.891  25.172  28.200  1.00  0.00     0.037 A 
ATOM     25  C   UNL A   1      43.777  31.581  30.866  1.00  0.00     0.037 A 
ATOM     26  C   UNL A   1      44.247  25.507  28.558  1.00  0.00     0.049 A 
ATOM     27  C   UNL A   1      44.922  30.616  30.736  1.00  0.00     0.074 A 
ATOM     28  C   UNL A   1      45.387  24.730  28.429  1.00  0.00     0.029 A 
ATOM     29  N   UNL A   1      44.650  26.708  29.123  1.00  0.00    -0.354 N 
ATOM     30  N   UNL A   1      44.925  29.400  30.244  1.00  0.00    -0.248 NA
ATOM     31  C   UNL A   1      46.234  31.076  31.210  1.00  0.00     0.031 C 
ATOM     32  C   UNL A   1      46.467  25.440  28.966  1.00  0.00     0.029 A 
ATOM     33  C   UNL A   1      46.014  26.685  29.369  1.00  0.00     0.049 A 
ATOM     34  H   UNL A   1      44.053  27.467  29.320  1.00  0.00     0.167 HD
ATOM     35  C   UNL A   1      46.245  28.964  30.317  1.00  0.00     0.074 A 
ATOM     36  C   UNL A   1      47.010  30.050  30.892  1.00  0.00     0.031 C 
ATOM     37  C   UNL A   1      46.772  27.774  29.935  1.00  0.00     0.037 A 
BRANCH  24  38
ATOM     38  C   UNL A   1      42.619  23.784  27.676  1.00  0.00     0.058 A 
ATOM     39  C   UNL A   1      42.516  23.514  26.302  1.00  0.00     0.135 A 
ATOM     40  C   UNL A   1      42.505  22.700  28.563  1.00  0.00     0.135 A 
ATOM     41  F   UNL A   1      42.605  24.511  25.408  1.00  0.00    -0.206 F 
ATOM     42  C   UNL A   1      42.277  22.227  25.829  1.00  0.00     0.059 A 
ATOM     43  C   UNL A   1      42.295  21.400  28.110  1.00  0.00     0.059 A 
ATOM     44  F   UNL A   1      42.600  22.898  29.887  1.00  0.00    -0.206 F 
ATOM     45  C   UNL A   1      42.166  21.176  26.741  1.00  0.00     0.060 A 
BRANCH  45  46
ATOM     46  S   UNL A   1      41.843  19.516  26.110  1.00  0.00     0.124 S 
ATOM     47  O   UNL A   1      42.693  19.487  24.923  1.00  0.00    -0.237 OA
ATOM     48  O   UNL A   1      42.275  18.671  27.219  1.00  0.00    -0.237 OA
ATOM     49  O   UNL A   1      40.407  19.522  25.851  1.00  0.00    -0.744 OA
ENDBRANCH  45  46
ENDBRANCH  24  38
BRANCH  25  50
ATOM     50  C   UNL A   1      43.986  32.942  31.431  1.00  0.00     0.058 A 
ATOM     51  C   UNL A   1      44.267  34.035  30.600  1.00  0.00     0.135 A 
ATOM     52  C   UNL A   1      43.899  33.177  32.813  1.00  0.00     0.135 A 
ATOM     53  F   UNL A   1      44.367  33.861  29.273  1.00  0.00    -0.206 F 
ATOM     54  C   UNL A   1      44.470  35.311  31.116  1.00  0.00     0.059 A 
ATOM     55  C   UNL A   1      44.067  34.449  33.350  1.00  0.00     0.059 A 
ATOM     56  F   UNL A   1      43.617  32.166  33.651  1.00  0.00    -0.206 F 
ATOM     57  C   UNL A   1      44.364  35.507  32.493  1.00  0.00     0.060 A 
BRANCH  57  58
ATOM     58  S   UNL A   1      44.582  37.175  33.149  1.00  0.00     0.124 S 
ATOM     59  O   UNL A   1      45.721  36.993  34.042  1.00  0.00    -0.237 OA
ATOM     60  O   UNL A   1      44.837  37.949  31.938  1.00  0.00    -0.237 OA
ATOM     61  O   UNL A   1      43.305  37.449  33.802  1.00  0.00    -0.744 OA
ENDBRANCH  57  58
ENDBRANCH  25  50
BRANCH  37  62
ATOM     62  C   UNL A   1      48.262  27.602  30.071  1.00  0.00     0.058 A 
ATOM     63  C   UNL A   1      49.150  27.932  29.035  1.00  0.00     0.135 A 
ATOM     64  C   UNL A   1      48.810  27.121  31.272  1.00  0.00     0.135 A 
ATOM     65  F   UNL A   1      48.682  28.391  27.863  1.00  0.00    -0.206 F 
ATOM     66  C   UNL A   1      50.524  27.756  29.171  1.00  0.00     0.059 A 
ATOM     67  C   UNL A   1      50.182  26.968  31.443  1.00  0.00     0.059 A 
ATOM     68  F   UNL A   1      48.009  26.801  32.301  1.00  0.00    -0.206 F 
ATOM     69  C   UNL A   1      51.030  27.272  30.379  1.00  0.00     0.060 A 
BRANCH  69  70
ATOM     70  S   UNL A   1      52.815  27.057  30.548  1.00  0.00     0.124 S 
ATOM     71  O   UNL A   1      52.894  25.761  31.212  1.00  0.00    -0.237 OA
ATOM     72  O   UNL A   1      53.266  27.088  29.160  1.00  0.00    -0.237 OA
ATOM     73  O   UNL A   1      53.220  28.203  31.358  1.00  0.00    -0.744 OA
ENDBRANCH  69  70
ENDBRANCH  37  62
ENDBRANCH  11  12
ENDBRANCH   4   6
ENDBRANCH   1   2
BRANCH   1  74
ATOM     74  C   UNL A   1      32.394  27.738  26.820  1.00  0.00     0.042 C 
BRANCH  74  75
ATOM     75  C   UNL A   1      32.501  26.369  26.159  1.00  0.00     0.118 C 
BRANCH  75  76
ATOM     76  N   UNL A   1      31.541  25.358  26.590  1.00  0.00    -0.352 N 
ATOM     77  C   UNL A   1      31.640  23.979  26.649  1.00  0.00     0.253 C 
ATOM     78  H   UNL A   1      30.674  25.718  26.889  1.00  0.00     0.163 HD
ATOM     79  O   UNL A   1      30.819  23.325  27.280  1.00  0.00    -0.269 OA
BRANCH  77  80
ATOM     80  C   UNL A   1      32.788  23.290  26.062  1.00  0.00     0.071 A 
ATOM     81  C   UNL A   1      33.806  22.999  26.999  1.00  0.00     0.018 A 
ATOM     82  C   UNL A   1      32.908  22.791  24.766  1.00  0.00     0.141 A 
ATOM     83  C   UNL A   1      34.946  22.304  26.629  1.00  0.00     0.021 A 
ATOM     84  N   UNL A   1      34.073  22.145  24.410  1.00  0.00    -0.250 NA
ATOM     85  C   UNL A   1      35.040  21.910  25.319  1.00  0.00     0.112 A 
BRANCH  82  86
ATOM     86  C   UNL A   1      31.903  22.648  23.621  1.00  0.00     0.276 C 
ATOM     87  O   UNL A   1      31.804  21.534  23.084  1.00  0.00    -0.267 OA
ATOM     88  N   UNL A   1      30.942  23.535  23.226  1.00  0.00    -0.305 N 
ATOM     89  H   UNL A   1      30.126  23.079  22.918  1.00  0.00     0.171 HD
BRANCH  88  90
ATOM     90  C   UNL A   1      30.827  24.904  23.149  1.00  0.00     0.132 A 
ATOM     91  C   UNL A   1      31.718  25.703  22.455  1.00  0.00     0.049 A 
ATOM     92  N   UNL A   1      29.738  25.392  23.779  1.00  0.00    -0.238 NA
ATOM     93  C   UNL A   1      31.573  27.087  22.564  1.00  0.00     0.026 A 
ATOM     94  C   UNL A   1      29.662  26.735  23.923  1.00  0.00     0.134 A 
ATOM     95  C   UNL A   1      30.569  27.612  23.364  1.00  0.00     0.059 A 
ATOM     96  Cl  UNL A   1      30.490  29.296  23.672  1.00  0.00    -0.083 Cl
ENDBRANCH  88  90
ENDBRANCH  82  86
ENDBRANCH  77  80
ENDBRANCH  75  76
ENDBRANCH  74  75
ENDBRANCH   1  74
TORSDOF 15
ENDMDL
MODEL 3
REMARK VINA RESULT:     -11.4      1.791      2.758
REMARK SMILES O=C(NCCCNC(=O)c1cccnc1C(=O)Nc1ccc(Cl)cn1)c1ccc(-c2c3nc(c(-c4c(F)cc(S(=O)(=O)[O-])cc4F)c4ccc([nH]4)c(-c4c(F)cc(S(=O)(=O)[O-])cc4F)c4nc(c(-c5c(F)cc(S(=O)(=O)[O-])cc5F)c5ccc2[nH]5)C=C4)C=C3)cc1
REMARK SMILES IDX 4 1 3 2 1 3 2 4 26 6 27 7 91 8 28 9 90 10 29 11 30 12 31 13
REMARK SMILES IDX 84 14 32 15 89 16 83 17 85 18 33 19 88 20 82 21 81 22 34 24
REMARK SMILES IDX 68 25 47 26 67 27 48 28 51 29 66 30 86 31 49 32 50 33 65 35
REMARK SMILES IDX 87 36 52 37 35 38 36 39 45 40 37 41 38 42 44 43 46 44 39 45
REMARK SMILES IDX 40 46 41 47 42 48 43 49 69 50 70 51 79 52 71 53 72 54 78 55
REMARK SMILES IDX 80 56 73 57 74 58 75 59 76 60 77 61 53 62 54 63 63 64 55 65
REMARK SMILES IDX 56 66 62 67 64 68 57 69 58 70 59 71 60 72 61 73 5 74 6 75
REMARK SMILES IDX 7 76 8 77 9 79 10 80 11 81 15 82 12 83 14 84 13 85 16 86
REMARK SMILES IDX 17 87 18 88 19 90 20 91 25 92 21 93 24 94 22 95 23 96
REMARK H PARENT 3 5 85 23 51 34 7 78 18 89
REMARK Flexibility Score: inf
ROOT
ATOM      1  C   UNL A   1      33.600  28.577  27.168  1.00  0.00     0.118 C 
ENDROOT
BRANCH   1   2
ATOM      2  N   UNL A   1      33.476  29.929  27.683  1.00  0.00    -0.352 N 
ATOM      3  O   UNL A   1      34.209  31.794  28.738  1.00  0.00    -0.269 OA
ATOM      4  C   UNL A   1      34.464  30.685  28.287  1.00  0.00     0.251 C 
ATOM      5  H   UNL A   1      32.593  30.354  27.590  1.00  0.00     0.163 HD
BRANCH   4   6
ATOM      6  C   UNL A   1      35.825  30.113  28.416  1.00  0.00     0.039 A 
ATOM      7  C   UNL A   1      36.276  29.643  29.651  1.00  0.00     0.014 A 
ATOM      8  C   UNL A   1      36.673  30.105  27.306  1.00  0.00     0.014 A 
ATOM      9  C   UNL A   1      37.619  29.310  29.812  1.00  0.00     0.010 A 
ATOM     10  C   UNL A   1      38.007  29.708  27.458  1.00  0.00     0.010 A 
ATOM     11  C   UNL A   1      38.507  29.357  28.722  1.00  0.00    -0.014 A 
BRANCH  11  12
ATOM     12  C   UNL A   1      39.950  29.053  28.932  1.00  0.00     0.031 A 
ATOM     13  C   UNL A   1      40.875  30.076  29.545  1.00  0.00     0.074 A 
ATOM     14  C   UNL A   1      40.426  27.836  28.603  1.00  0.00     0.049 A 
ATOM     15  N   UNL A   1      42.147  29.971  29.839  1.00  0.00    -0.248 NA
ATOM     16  C   UNL A   1      40.299  31.391  29.866  1.00  0.00     0.031 C 
ATOM     17  C   UNL A   1      39.639  26.761  27.997  1.00  0.00     0.029 A 
ATOM     18  N   UNL A   1      41.679  27.292  28.743  1.00  0.00    -0.354 N 
ATOM     19  C   UNL A   1      42.528  31.204  30.357  1.00  0.00     0.074 A 
ATOM     20  C   UNL A   1      41.357  32.054  30.311  1.00  0.00     0.031 C 
ATOM     21  C   UNL A   1      40.415  25.676  27.853  1.00  0.00     0.029 A 
ATOM     22  C   UNL A   1      41.767  25.991  28.307  1.00  0.00     0.049 A 
ATOM     23  H   UNL A   1      42.443  27.788  29.120  1.00  0.00     0.167 HD
ATOM     24  C   UNL A   1      43.737  31.591  30.835  1.00  0.00     0.037 A 
ATOM     25  C   UNL A   1      42.816  25.147  28.268  1.00  0.00     0.037 A 
ATOM     26  C   UNL A   1      44.897  30.736  30.891  1.00  0.00     0.049 A 
ATOM     27  C   UNL A   1      44.150  25.606  28.785  1.00  0.00     0.074 A 
ATOM     28  C   UNL A   1      46.154  31.024  31.396  1.00  0.00     0.029 A 
ATOM     29  N   UNL A   1      44.950  29.432  30.420  1.00  0.00    -0.354 N 
ATOM     30  N   UNL A   1      44.479  26.762  29.311  1.00  0.00    -0.248 NA
ATOM     31  C   UNL A   1      45.257  24.644  28.710  1.00  0.00     0.031 C 
ATOM     32  C   UNL A   1      46.980  29.915  31.180  1.00  0.00     0.029 A 
ATOM     33  C   UNL A   1      46.222  28.912  30.601  1.00  0.00     0.049 A 
ATOM     34  H   UNL A   1      44.194  28.947  30.016  1.00  0.00     0.167 HD
ATOM     35  C   UNL A   1      45.820  26.653  29.663  1.00  0.00     0.074 A 
ATOM     36  C   UNL A   1      46.238  25.315  29.298  1.00  0.00     0.031 C 
ATOM     37  C   UNL A   1      46.629  27.575  30.242  1.00  0.00     0.037 A 
BRANCH  24  38
ATOM     38  C   UNL A   1      43.883  33.013  31.316  1.00  0.00     0.058 A 
ATOM     39  C   UNL A   1      44.251  34.058  30.453  1.00  0.00     0.135 A 
ATOM     40  C   UNL A   1      43.605  33.342  32.654  1.00  0.00     0.135 A 
ATOM     41  F   UNL A   1      44.539  33.802  29.166  1.00  0.00    -0.206 F 
ATOM     42  C   UNL A   1      44.370  35.368  30.904  1.00  0.00     0.059 A 
ATOM     43  C   UNL A   1      43.690  34.652  33.121  1.00  0.00     0.059 A 
ATOM     44  F   UNL A   1      43.244  32.386  33.524  1.00  0.00    -0.206 F 
ATOM     45  C   UNL A   1      44.090  35.656  32.241  1.00  0.00     0.060 A 
BRANCH  45  46
ATOM     46  S   UNL A   1      44.262  37.360  32.812  1.00  0.00     0.124 S 
ATOM     47  O   UNL A   1      43.375  37.367  33.972  1.00  0.00    -0.237 OA
ATOM     48  O   UNL A   1      45.689  37.448  33.106  1.00  0.00    -0.237 OA
ATOM     49  O   UNL A   1      43.807  38.150  31.672  1.00  0.00    -0.744 OA
ENDBRANCH  45  46
ENDBRANCH  24  38
BRANCH  25  50
ATOM     50  C   UNL A   1      42.638  23.771  27.730  1.00  0.00     0.058 A 
ATOM     51  C   UNL A   1      42.424  22.682  28.586  1.00  0.00     0.135 A 
ATOM     52  C   UNL A   1      42.668  23.520  26.348  1.00  0.00     0.135 A 
ATOM     53  F   UNL A   1      42.394  22.869  29.915  1.00  0.00    -0.206 F 
ATOM     54  C   UNL A   1      42.263  21.389  28.097  1.00  0.00     0.059 A 
ATOM     55  C   UNL A   1      42.478  22.243  25.833  1.00  0.00     0.059 A 
ATOM     56  F   UNL A   1      42.855  24.532  25.485  1.00  0.00    -0.206 F 
ATOM     57  C   UNL A   1      42.288  21.182  26.717  1.00  0.00     0.060 A 
BRANCH  57  58
ATOM     58  S   UNL A   1      42.029  19.509  26.089  1.00  0.00     0.124 S 
ATOM     59  O   UNL A   1      42.934  19.482  24.946  1.00  0.00    -0.237 OA
ATOM     60  O   UNL A   1      42.418  18.690  27.232  1.00  0.00    -0.237 OA
ATOM     61  O   UNL A   1      40.605  19.488  25.767  1.00  0.00    -0.744 OA
ENDBRANCH  57  58
ENDBRANCH  25  50
BRANCH  37  62
ATOM     62  C   UNL A   1      48.036  27.152  30.573  1.00  0.00     0.058 A 
ATOM     63  C   UNL A   1      49.132  27.511  29.772  1.00  0.00     0.135 A 
ATOM     64  C   UNL A   1      48.292  26.394  31.728  1.00  0.00     0.135 A 
ATOM     65  F   UNL A   1      48.945  28.229  28.653  1.00  0.00    -0.206 F 
ATOM     66  C   UNL A   1      50.425  27.101  30.083  1.00  0.00     0.059 A 
ATOM     67  C   UNL A   1      49.580  26.002  32.077  1.00  0.00     0.059 A 
ATOM     68  F   UNL A   1      47.283  26.034  32.538  1.00  0.00    -0.206 F 
ATOM     69  C   UNL A   1      50.639  26.345  31.237  1.00  0.00     0.060 A 
BRANCH  69  70
ATOM     70  S   UNL A   1      52.322  25.829  31.638  1.00  0.00     0.124 S 
ATOM     71  O   UNL A   1      52.106  24.468  32.115  1.00  0.00    -0.237 OA
ATOM     72  O   UNL A   1      53.000  25.950  30.350  1.00  0.00    -0.237 OA
ATOM     73  O   UNL A   1      52.741  26.792  32.652  1.00  0.00    -0.744 OA
ENDBRANCH  69  70
ENDBRANCH  37  62
ENDBRANCH  11  12
ENDBRANCH   4   6
ENDBRANCH   1   2
BRANCH   1  74
ATOM     74  C   UNL A   1      33.591  28.383  25.650  1.00  0.00     0.042 C 
BRANCH  74  75
ATOM     75  C   UNL A   1      33.729  26.984  25.062  1.00  0.00     0.118 C 
BRANCH  75  76
ATOM     76  N   UNL A   1      33.235  25.880  25.878  1.00  0.00    -0.352 N 
ATOM     77  C   UNL A   1      33.641  24.559  25.958  1.00  0.00     0.253 C 
ATOM     78  H   UNL A   1      32.486  26.113  26.472  1.00  0.00     0.163 HD
ATOM     79  O   UNL A   1      33.270  23.852  26.887  1.00  0.00    -0.269 OA
BRANCH  77  80
ATOM     80  C   UNL A   1      34.608  24.018  25.004  1.00  0.00     0.071 A 
ATOM     81  C   UNL A   1      35.927  23.973  25.510  1.00  0.00     0.018 A 
ATOM     82  C   UNL A   1      34.346  23.441  23.763  1.00  0.00     0.141 A 
ATOM     83  C   UNL A   1      36.966  23.443  24.761  1.00  0.00     0.021 A 
ATOM     84  N   UNL A   1      35.404  22.964  23.017  1.00  0.00    -0.250 NA
ATOM     85  C   UNL A   1      36.657  22.963  23.514  1.00  0.00     0.112 A 
BRANCH  82  86
ATOM     86  C   UNL A   1      33.042  23.044  23.067  1.00  0.00     0.276 C 
ATOM     87  O   UNL A   1      32.429  23.933  22.455  1.00  0.00    -0.267 OA
ATOM     88  N   UNL A   1      32.546  21.789  22.855  1.00  0.00    -0.305 N 
ATOM     89  H   UNL A   1      32.079  21.720  21.992  1.00  0.00     0.171 HD
BRANCH  88  90
ATOM     90  C   UNL A   1      32.535  20.597  23.543  1.00  0.00     0.132 A 
ATOM     91  C   UNL A   1      32.737  20.508  24.909  1.00  0.00     0.049 A 
ATOM     92  N   UNL A   1      32.266  19.527  22.767  1.00  0.00    -0.238 NA
ATOM     93  C   UNL A   1      32.839  19.233  25.469  1.00  0.00     0.026 A 
ATOM     94  C   UNL A   1      32.436  18.306  23.324  1.00  0.00     0.134 A 
ATOM     95  C   UNL A   1      32.752  18.114  24.653  1.00  0.00     0.059 A 
ATOM     96  Cl  UNL A   1      33.068  16.551  25.281  1.00  0.00    -0.083 Cl
ENDBRANCH  88  90
ENDBRANCH  82  86
ENDBRANCH  77  80
ENDBRANCH  75  76
ENDBRANCH  74  75
ENDBRANCH   1  74
TORSDOF 15
ENDMDL
