MODEL 1
REMARK VINA RESULT:     -13.2      0.000      0.000
REMARK SMILES O=C(NCCCNC(=O)c1nccnc1C(=O)Nc1n[nH]c2ncccc12)c1ccc(-c2c3nc(c(-c4c(F)cc(S(=O)(=O)[O-])cc4F)c4ccc([nH]4)c(-c4c(F)cc(S(=O)(=O)[O-])cc4F)c4nc(c(-c5c(F)cc(S(=O)(=O)[O-])cc5F)c5ccc2[nH]5)C=C4)C=C3)cc1
REMARK SMILES IDX 4 1 3 2 1 3 2 4 28 6 29 7 93 8 30 9 92 10 31 11 32 12 33 13
REMARK SMILES IDX 86 14 34 15 91 16 85 17 87 18 35 19 90 20 84 21 83 22 36 24
REMARK SMILES IDX 70 25 49 26 69 27 50 28 53 29 68 30 88 31 51 32 52 33 67 35
REMARK SMILES IDX 89 36 54 37 37 38 38 39 47 40 39 41 40 42 46 43 48 44 41 45
REMARK SMILES IDX 42 46 43 47 44 48 45 49 71 50 72 51 81 52 73 53 74 54 80 55
REMARK SMILES IDX 82 56 75 57 76 58 77 59 78 60 79 61 55 62 56 63 65 64 57 65
REMARK SMILES IDX 58 66 64 67 66 68 59 69 60 70 61 71 62 72 63 73 5 74 6 75
REMARK SMILES IDX 7 76 8 77 9 79 10 80 11 81 15 82 12 83 14 84 13 85 16 86
REMARK SMILES IDX 17 87 18 88 19 90 20 91 27 92 21 93 22 94 26 95 23 97 25 98
REMARK SMILES IDX 24 99
REMARK H PARENT 3 5 87 23 53 34 7 78 18 89 21 96
REMARK Flexibility Score: inf
ROOT
ATOM      1  C   UNL A   1      34.167  27.971  26.515  1.00  0.00     0.118 C 
ENDROOT
BRANCH   1   2
ATOM      2  N   UNL A   1      33.831  29.325  26.965  1.00  0.00    -0.352 N 
ATOM      3  O   UNL A   1      33.894  31.242  28.151  1.00  0.00    -0.269 OA
ATOM      4  C   UNL A   1      34.476  30.238  27.752  1.00  0.00     0.251 C 
ATOM      5  H   UNL A   1      32.961  29.643  26.631  1.00  0.00     0.163 HD
BRANCH   4   6
ATOM      6  C   UNL A   1      35.868  29.972  28.151  1.00  0.00     0.039 A 
ATOM      7  C   UNL A   1      36.893  30.211  27.242  1.00  0.00     0.014 A 
ATOM      8  C   UNL A   1      36.150  29.438  29.412  1.00  0.00     0.014 A 
ATOM      9  C   UNL A   1      38.148  29.698  27.487  1.00  0.00     0.010 A 
ATOM     10  C   UNL A   1      37.464  29.088  29.730  1.00  0.00     0.010 A 
ATOM     11  C   UNL A   1      38.466  29.187  28.755  1.00  0.00    -0.014 A 
BRANCH  11  12
ATOM     12  C   UNL A   1      39.890  28.883  29.023  1.00  0.00     0.031 A 
ATOM     13  C   UNL A   1      40.500  27.570  28.637  1.00  0.00     0.074 A 
ATOM     14  C   UNL A   1      40.641  29.881  29.536  1.00  0.00     0.049 A 
ATOM     15  N   UNL A   1      41.747  27.190  28.745  1.00  0.00    -0.248 NA
ATOM     16  C   UNL A   1      39.609  26.547  28.071  1.00  0.00     0.031 C 
ATOM     17  C   UNL A   1      40.122  31.190  29.957  1.00  0.00     0.029 A 
ATOM     18  N   UNL A   1      41.988  29.985  29.743  1.00  0.00    -0.354 N 
ATOM     19  C   UNL A   1      41.790  25.883  28.276  1.00  0.00     0.074 A 
ATOM     20  C   UNL A   1      40.437  25.523  27.911  1.00  0.00     0.031 C 
ATOM     21  C   UNL A   1      41.143  31.991  30.277  1.00  0.00     0.029 A 
ATOM     22  C   UNL A   1      42.375  31.223  30.198  1.00  0.00     0.049 A 
ATOM     23  H   UNL A   1      42.619  29.246  29.581  1.00  0.00     0.167 HD
ATOM     24  C   UNL A   1      42.868  25.072  28.158  1.00  0.00     0.037 A 
ATOM     25  C   UNL A   1      43.587  31.684  30.549  1.00  0.00     0.037 A 
ATOM     26  C   UNL A   1      44.206  25.463  28.529  1.00  0.00     0.049 A 
ATOM     27  C   UNL A   1      44.755  30.753  30.425  1.00  0.00     0.074 A 
ATOM     28  C   UNL A   1      45.371  24.719  28.465  1.00  0.00     0.029 A 
ATOM     29  N   UNL A   1      44.558  26.711  29.030  1.00  0.00    -0.354 N 
ATOM     30  N   UNL A   1      44.775  29.516  29.986  1.00  0.00    -0.248 NA
ATOM     31  C   UNL A   1      46.060  31.271  30.847  1.00  0.00     0.031 C 
ATOM     32  C   UNL A   1      46.417  25.500  28.967  1.00  0.00     0.029 A 
ATOM     33  C   UNL A   1      45.919  26.753  29.289  1.00  0.00     0.049 A 
ATOM     34  H   UNL A   1      43.933  27.456  29.177  1.00  0.00     0.167 HD
ATOM     35  C   UNL A   1      46.096  29.106  30.078  1.00  0.00     0.074 A 
ATOM     36  C   UNL A   1      46.849  30.243  30.575  1.00  0.00     0.031 C 
ATOM     37  C   UNL A   1      46.640  27.897  29.790  1.00  0.00     0.037 A 
BRANCH  24  38
ATOM     38  C   UNL A   1      42.648  23.682  27.622  1.00  0.00     0.058 A 
ATOM     39  C   UNL A   1      42.667  23.410  26.244  1.00  0.00     0.135 A 
ATOM     40  C   UNL A   1      42.469  22.597  28.496  1.00  0.00     0.135 A 
ATOM     41  F   UNL A   1      42.815  24.409  25.359  1.00  0.00    -0.206 F 
ATOM     42  C   UNL A   1      42.501  22.118  25.753  1.00  0.00     0.059 A 
ATOM     43  C   UNL A   1      42.326  21.292  28.029  1.00  0.00     0.059 A 
ATOM     44  F   UNL A   1      42.436  22.797  29.824  1.00  0.00    -0.206 F 
ATOM     45  C   UNL A   1      42.334  21.065  26.654  1.00  0.00     0.060 A 
BRANCH  45  46
ATOM     46  S   UNL A   1      42.137  19.395  25.997  1.00  0.00     0.124 S 
ATOM     47  O   UNL A   1      43.001  19.440  24.821  1.00  0.00    -0.237 OA
ATOM     48  O   UNL A   1      42.614  18.567  27.101  1.00  0.00    -0.237 OA
ATOM     49  O   UNL A   1      40.706  19.304  25.721  1.00  0.00    -0.744 OA
ENDBRANCH  45  46
ENDBRANCH  24  38
BRANCH  25  50
ATOM     50  C   UNL A   1      43.729  33.059  31.097  1.00  0.00     0.058 A 
ATOM     51  C   UNL A   1      43.966  34.162  30.266  1.00  0.00     0.135 A 
ATOM     52  C   UNL A   1      43.606  33.297  32.477  1.00  0.00     0.135 A 
ATOM     53  F   UNL A   1      44.086  33.990  28.940  1.00  0.00    -0.206 F 
ATOM     54  C   UNL A   1      44.104  35.446  30.783  1.00  0.00     0.059 A 
ATOM     55  C   UNL A   1      43.700  34.574  33.013  1.00  0.00     0.059 A 
ATOM     56  F   UNL A   1      43.353  32.280  33.317  1.00  0.00    -0.206 F 
ATOM     57  C   UNL A   1      43.969  35.641  32.159  1.00  0.00     0.060 A 
BRANCH  57  58
ATOM     58  S   UNL A   1      44.131  37.312  32.822  1.00  0.00     0.124 S 
ATOM     59  O   UNL A   1      45.485  37.282  33.361  1.00  0.00    -0.237 OA
ATOM     60  O   UNL A   1      43.932  38.135  31.634  1.00  0.00    -0.237 OA
ATOM     61  O   UNL A   1      43.059  37.384  33.812  1.00  0.00    -0.744 OA
ENDBRANCH  57  58
ENDBRANCH  25  50
BRANCH  37  62
ATOM     62  C   UNL A   1      48.123  27.766  29.989  1.00  0.00     0.058 A 
ATOM     63  C   UNL A   1      49.035  28.103  28.976  1.00  0.00     0.135 A 
ATOM     64  C   UNL A   1      48.636  27.298  31.209  1.00  0.00     0.135 A 
ATOM     65  F   UNL A   1      48.594  28.545  27.788  1.00  0.00    -0.206 F 
ATOM     66  C   UNL A   1      50.404  27.939  29.151  1.00  0.00     0.059 A 
ATOM     67  C   UNL A   1      50.003  27.159  31.418  1.00  0.00     0.059 A 
ATOM     68  F   UNL A   1      47.805  26.973  32.212  1.00  0.00    -0.206 F 
ATOM     69  C   UNL A   1      50.877  27.463  30.376  1.00  0.00     0.060 A 
BRANCH  69  70
ATOM     70  S   UNL A   1      52.657  27.257  30.591  1.00  0.00     0.124 S 
ATOM     71  O   UNL A   1      53.012  28.490  31.284  1.00  0.00    -0.237 OA
ATOM     72  O   UNL A   1      52.736  26.036  31.386  1.00  0.00    -0.237 OA
ATOM     73  O   UNL A   1      53.152  27.141  29.222  1.00  0.00    -0.744 OA
ENDBRANCH  69  70
ENDBRANCH  37  62
ENDBRANCH  11  12
ENDBRANCH   4   6
ENDBRANCH   1   2
BRANCH   1  74
ATOM     74  C   UNL A   1      32.951  27.030  25.737  1.00  0.00     0.042 C 
BRANCH  74  75
ATOM     75  C   UNL A   1      31.020  26.230  26.431  1.00  0.00     0.118 C 
BRANCH  75  76
ATOM     76  N   UNL A   1      30.477  24.724  26.588  1.00  0.00    -0.351 N 
ATOM     77  C   UNL A   1      31.043  23.537  26.168  1.00  0.00     0.272 C 
ATOM     78  H   UNL A   1      29.613  24.636  27.051  1.00  0.00     0.163 HD
ATOM     79  O   UNL A   1      30.431  22.476  26.207  1.00  0.00    -0.267 OA
BRANCH  77  80
ATOM     80  C   UNL A   1      32.438  23.596  25.702  1.00  0.00     0.159 A 
ATOM     81  N   UNL A   1      33.338  23.729  26.734  1.00  0.00    -0.247 NA
ATOM     82  C   UNL A   1      32.807  23.647  24.365  1.00  0.00     0.159 A 
ATOM     83  C   UNL A   1      34.623  23.896  26.375  1.00  0.00     0.132 A 
ATOM     84  N   UNL A   1      34.125  23.829  24.029  1.00  0.00    -0.247 NA
ATOM     85  C   UNL A   1      35.008  23.946  25.051  1.00  0.00     0.132 A 
BRANCH  82  86
ATOM     86  C   UNL A   1      31.911  23.415  23.193  1.00  0.00     0.277 C 
ATOM     87  O   UNL A   1      31.736  22.244  22.840  1.00  0.00    -0.267 OA
ATOM     88  N   UNL A   1      31.235  24.400  22.510  1.00  0.00    -0.303 N 
ATOM     89  H   UNL A   1      30.627  24.072  21.808  1.00  0.00     0.172 HD
BRANCH  88  90
ATOM     90  C   UNL A   1      31.270  25.762  22.645  1.00  0.00     0.164 A 
ATOM     91  N   UNL A   1      32.409  26.389  22.299  1.00  0.00    -0.155 NA
ATOM     92  C   UNL A   1      30.222  26.643  22.982  1.00  0.00     0.063 A 
ATOM     93  N   UNL A   1      32.131  27.683  21.975  1.00  0.00    -0.259 N 
ATOM     94  C   UNL A   1      30.853  28.080  22.245  1.00  0.00     0.157 A 
ATOM     95  C   UNL A   1      28.575  26.700  23.675  1.00  0.00     0.017 A 
ATOM     96  H   UNL A   1      32.800  28.287  21.578  1.00  0.00     0.192 HD
ATOM     97  N   UNL A   1      29.917  29.523  21.982  1.00  0.00    -0.237 NA
ATOM     98  C   UNL A   1      27.565  28.160  23.516  1.00  0.00     0.021 A 
ATOM     99  C   UNL A   1      28.278  29.550  22.717  1.00  0.00     0.113 A 
ENDBRANCH  88  90
ENDBRANCH  82  86
ENDBRANCH  77  80
ENDBRANCH  75  76
ENDBRANCH  74  75
ENDBRANCH   1  74
TORSDOF 15
ENDMDL
MODEL 2
REMARK VINA RESULT:     -13.0      5.019      9.455
REMARK SMILES O=C(NCCCNC(=O)c1nccnc1C(=O)Nc1n[nH]c2ncccc12)c1ccc(-c2c3nc(c(-c4c(F)cc(S(=O)(=O)[O-])cc4F)c4ccc([nH]4)c(-c4c(F)cc(S(=O)(=O)[O-])cc4F)c4nc(c(-c5c(F)cc(S(=O)(=O)[O-])cc5F)c5ccc2[nH]5)C=C4)C=C3)cc1
REMARK SMILES IDX 4 1 3 2 1 3 2 4 28 6 29 7 93 8 30 9 92 10 31 11 32 12 33 13
REMARK SMILES IDX 86 14 34 15 91 16 85 17 87 18 35 19 90 20 84 21 83 22 36 24
REMARK SMILES IDX 70 25 49 26 69 27 50 28 53 29 68 30 88 31 51 32 52 33 67 35
REMARK SMILES IDX 89 36 54 37 37 38 38 39 47 40 39 41 40 42 46 43 48 44 41 45
REMARK SMILES IDX 42 46 43 47 44 48 45 49 71 50 72 51 81 52 73 53 74 54 80 55
REMARK SMILES IDX 82 56 75 57 76 58 77 59 78 60 79 61 55 62 56 63 65 64 57 65
REMARK SMILES IDX 58 66 64 67 66 68 59 69 60 70 61 71 62 72 63 73 5 74 6 75
REMARK SMILES IDX 7 76 8 77 9 79 10 80 11 81 15 82 12 83 14 84 13 85 16 86
REMARK SMILES IDX 17 87 18 88 19 90 20 91 27 92 21 93 22 94 26 95 23 97 25 98
REMARK SMILES IDX 24 99
REMARK H PARENT 3 5 87 23 53 34 7 78 18 89 21 96
REMARK Flexibility Score: inf
ROOT
ATOM      1  C   UNL A   1      38.957  23.807  26.797  1.00  0.00     0.118 C 
ENDROOT
BRANCH   1   2
ATOM      2  N   UNL A   1      40.051  24.421  26.037  1.00  0.00    -0.352 N 
ATOM      3  O   UNL A   1      41.477  25.988  25.265  1.00  0.00    -0.269 OA
ATOM      4  C   UNL A   1      40.723  25.607  26.154  1.00  0.00     0.251 C 
ATOM      5  H   UNL A   1      40.366  23.866  25.288  1.00  0.00     0.163 HD
BRANCH   4   6
ATOM      6  C   UNL A   1      40.490  26.439  27.347  1.00  0.00     0.039 A 
ATOM      7  C   UNL A   1      41.152  27.657  27.466  1.00  0.00     0.014 A 
ATOM      8  C   UNL A   1      39.651  25.986  28.369  1.00  0.00     0.014 A 
ATOM      9  C   UNL A   1      41.175  28.297  28.685  1.00  0.00     0.010 A 
ATOM     10  C   UNL A   1      39.531  26.737  29.540  1.00  0.00     0.010 A 
ATOM     11  C   UNL A   1      40.318  27.882  29.716  1.00  0.00    -0.014 A 
BRANCH  11  12
ATOM     12  C   UNL A   1      40.217  28.760  30.904  1.00  0.00     0.031 A 
ATOM     13  C   UNL A   1      41.168  28.638  32.056  1.00  0.00     0.074 A 
ATOM     14  C   UNL A   1      39.295  29.745  30.858  1.00  0.00     0.049 A 
ATOM     15  N   UNL A   1      41.244  29.381  33.129  1.00  0.00    -0.248 NA
ATOM     16  C   UNL A   1      42.149  27.544  32.013  1.00  0.00     0.031 C 
ATOM     17  C   UNL A   1      38.314  29.926  29.778  1.00  0.00     0.029 A 
ATOM     18  N   UNL A   1      39.058  30.802  31.692  1.00  0.00    -0.354 N 
ATOM     19  C   UNL A   1      42.268  28.841  33.896  1.00  0.00     0.074 A 
ATOM     20  C   UNL A   1      42.765  27.685  33.180  1.00  0.00     0.031 C 
ATOM     21  C   UNL A   1      37.653  31.073  29.966  1.00  0.00     0.029 A 
ATOM     22  C   UNL A   1      38.076  31.649  31.232  1.00  0.00     0.049 A 
ATOM     23  H   UNL A   1      39.543  30.944  32.537  1.00  0.00     0.167 HD
ATOM     24  C   UNL A   1      42.747  29.282  35.084  1.00  0.00     0.037 A 
ATOM     25  C   UNL A   1      37.546  32.752  31.786  1.00  0.00     0.037 A 
ATOM     26  C   UNL A   1      42.231  30.441  35.772  1.00  0.00     0.049 A 
ATOM     27  C   UNL A   1      38.085  33.201  33.110  1.00  0.00     0.074 A 
ATOM     28  C   UNL A   1      42.629  30.972  36.985  1.00  0.00     0.029 A 
ATOM     29  N   UNL A   1      41.204  31.252  35.301  1.00  0.00    -0.354 N 
ATOM     30  N   UNL A   1      39.049  32.671  33.826  1.00  0.00    -0.248 NA
ATOM     31  C   UNL A   1      37.464  34.387  33.707  1.00  0.00     0.031 C 
ATOM     32  C   UNL A   1      41.817  32.075  37.268  1.00  0.00     0.029 A 
ATOM     33  C   UNL A   1      40.949  32.271  36.205  1.00  0.00     0.049 A 
ATOM     34  H   UNL A   1      40.730  31.122  34.449  1.00  0.00     0.167 HD
ATOM     35  C   UNL A   1      39.154  33.461  34.960  1.00  0.00     0.074 A 
ATOM     36  C   UNL A   1      38.181  34.528  34.812  1.00  0.00     0.031 C 
ATOM     37  C   UNL A   1      39.970  33.315  36.034  1.00  0.00     0.037 A 
BRANCH  24  38
ATOM     38  C   UNL A   1      43.869  28.509  35.723  1.00  0.00     0.058 A 
ATOM     39  C   UNL A   1      43.623  27.439  36.601  1.00  0.00     0.135 A 
ATOM     40  C   UNL A   1      45.208  28.803  35.416  1.00  0.00     0.135 A 
ATOM     41  F   UNL A   1      42.365  27.124  36.947  1.00  0.00    -0.206 F 
ATOM     42  C   UNL A   1      44.662  26.703  37.161  1.00  0.00     0.059 A 
ATOM     43  C   UNL A   1      46.263  28.063  35.946  1.00  0.00     0.059 A 
ATOM     44  F   UNL A   1      45.505  29.817  34.588  1.00  0.00    -0.206 F 
ATOM     45  C   UNL A   1      45.979  27.020  36.825  1.00  0.00     0.060 A 
BRANCH  45  46
ATOM     46  S   UNL A   1      47.311  26.040  37.551  1.00  0.00     0.124 S 
ATOM     47  O   UNL A   1      48.491  26.699  36.999  1.00  0.00    -0.237 OA
ATOM     48  O   UNL A   1      47.092  26.229  38.982  1.00  0.00    -0.237 OA
ATOM     49  O   UNL A   1      47.055  24.693  37.052  1.00  0.00    -0.744 OA
ENDBRANCH  45  46
ENDBRANCH  24  38
BRANCH  25  50
ATOM     50  C   UNL A   1      36.420  33.453  31.114  1.00  0.00     0.058 A 
ATOM     51  C   UNL A   1      35.116  33.410  31.625  1.00  0.00     0.135 A 
ATOM     52  C   UNL A   1      36.639  34.205  29.947  1.00  0.00     0.135 A 
ATOM     53  F   UNL A   1      34.854  32.710  32.740  1.00  0.00    -0.206 F 
ATOM     54  C   UNL A   1      34.064  34.061  30.990  1.00  0.00     0.059 A 
ATOM     55  C   UNL A   1      35.613  34.897  29.316  1.00  0.00     0.059 A 
ATOM     56  F   UNL A   1      37.874  34.302  29.428  1.00  0.00    -0.206 F 
ATOM     57  C   UNL A   1      34.324  34.803  29.835  1.00  0.00     0.060 A 
BRANCH  57  58
ATOM     58  S   UNL A   1      32.959  35.662  29.026  1.00  0.00     0.124 S 
ATOM     59  O   UNL A   1      32.387  34.597  28.211  1.00  0.00    -0.237 OA
ATOM     60  O   UNL A   1      32.155  36.102  30.162  1.00  0.00    -0.237 OA
ATOM     61  O   UNL A   1      33.627  36.732  28.289  1.00  0.00    -0.744 OA
ENDBRANCH  57  58
ENDBRANCH  25  50
BRANCH  37  62
ATOM     62  C   UNL A   1      39.849  34.354  37.112  1.00  0.00     0.058 A 
ATOM     63  C   UNL A   1      39.021  34.164  38.230  1.00  0.00     0.135 A 
ATOM     64  C   UNL A   1      40.573  35.553  37.025  1.00  0.00     0.135 A 
ATOM     65  F   UNL A   1      38.300  33.037  38.354  1.00  0.00    -0.206 F 
ATOM     66  C   UNL A   1      38.880  35.147  39.202  1.00  0.00     0.059 A 
ATOM     67  C   UNL A   1      40.473  36.536  38.003  1.00  0.00     0.059 A 
ATOM     68  F   UNL A   1      41.386  35.778  35.981  1.00  0.00    -0.206 F 
ATOM     69  C   UNL A   1      39.609  36.331  39.077  1.00  0.00     0.060 A 
BRANCH  69  70
ATOM     70  S   UNL A   1      39.419  37.598  40.348  1.00  0.00     0.124 S 
ATOM     71  O   UNL A   1      39.280  36.785  41.552  1.00  0.00    -0.237 OA
ATOM     72  O   UNL A   1      40.665  38.348  40.229  1.00  0.00    -0.237 OA
ATOM     73  O   UNL A   1      38.218  38.317  39.932  1.00  0.00    -0.744 OA
ENDBRANCH  69  70
ENDBRANCH  37  62
ENDBRANCH  11  12
ENDBRANCH   4   6
ENDBRANCH   1   2
BRANCH   1  74
ATOM     74  C   UNL A   1      37.361  23.870  26.150  1.00  0.00     0.042 C 
BRANCH  74  75
ATOM     75  C   UNL A   1      36.383  22.786  24.501  1.00  0.00     0.118 C 
BRANCH  75  76
ATOM     76  N   UNL A   1      35.914  21.254  24.354  1.00  0.00    -0.351 N 
ATOM     77  C   UNL A   1      34.813  20.616  24.889  1.00  0.00     0.272 C 
ATOM     78  H   UNL A   1      36.499  20.688  23.800  1.00  0.00     0.163 HD
ATOM     79  O   UNL A   1      34.675  19.401  24.830  1.00  0.00    -0.267 OA
BRANCH  77  80
ATOM     80  C   UNL A   1      33.787  21.471  25.506  1.00  0.00     0.159 A 
ATOM     81  N   UNL A   1      34.005  21.681  26.848  1.00  0.00    -0.247 NA
ATOM     82  C   UNL A   1      32.647  21.914  24.848  1.00  0.00     0.159 A 
ATOM     83  C   UNL A   1      33.050  22.366  27.499  1.00  0.00     0.132 A 
ATOM     84  N   UNL A   1      31.684  22.601  25.541  1.00  0.00    -0.247 NA
ATOM     85  C   UNL A   1      31.912  22.815  26.860  1.00  0.00     0.132 A 
BRANCH  82  86
ATOM     86  C   UNL A   1      32.381  21.812  23.382  1.00  0.00     0.277 C 
ATOM     87  O   UNL A   1      32.182  20.683  22.922  1.00  0.00    -0.267 OA
ATOM     88  N   UNL A   1      32.298  22.881  22.519  1.00  0.00    -0.303 N 
ATOM     89  H   UNL A   1      32.044  22.648  21.597  1.00  0.00     0.172 HD
BRANCH  88  90
ATOM     90  C   UNL A   1      32.515  24.216  22.732  1.00  0.00     0.164 A 
ATOM     91  N   UNL A   1      33.726  24.706  22.410  1.00  0.00    -0.155 NA
ATOM     92  C   UNL A   1      31.594  25.206  23.131  1.00  0.00     0.063 A 
ATOM     93  N   UNL A   1      33.621  26.043  22.165  1.00  0.00    -0.259 N 
ATOM     94  C   UNL A   1      32.408  26.589  22.472  1.00  0.00     0.157 A 
ATOM     95  C   UNL A   1      29.972  25.440  23.845  1.00  0.00     0.017 A 
ATOM     96  H   UNL A   1      34.363  26.575  21.796  1.00  0.00     0.192 HD
ATOM     97  N   UNL A   1      31.671  28.156  22.303  1.00  0.00    -0.237 NA
ATOM     98  C   UNL A   1      29.165  27.028  23.782  1.00  0.00     0.021 A 
ATOM     99  C   UNL A   1      30.053  28.356  23.057  1.00  0.00     0.113 A 
ENDBRANCH  88  90
ENDBRANCH  82  86
ENDBRANCH  77  80
ENDBRANCH  75  76
ENDBRANCH  74  75
ENDBRANCH   1  74
TORSDOF 15
ENDMDL
MODEL 3
REMARK VINA RESULT:     -13.0      1.249      3.070
REMARK SMILES O=C(NCCCNC(=O)c1nccnc1C(=O)Nc1n[nH]c2ncccc12)c1ccc(-c2c3nc(c(-c4c(F)cc(S(=O)(=O)[O-])cc4F)c4ccc([nH]4)c(-c4c(F)cc(S(=O)(=O)[O-])cc4F)c4nc(c(-c5c(F)cc(S(=O)(=O)[O-])cc5F)c5ccc2[nH]5)C=C4)C=C3)cc1
REMARK SMILES IDX 4 1 3 2 1 3 2 4 28 6 29 7 93 8 30 9 92 10 31 11 32 12 33 13
REMARK SMILES IDX 86 14 34 15 91 16 85 17 87 18 35 19 90 20 84 21 83 22 36 24
REMARK SMILES IDX 70 25 49 26 69 27 50 28 53 29 68 30 88 31 51 32 52 33 67 35
REMARK SMILES IDX 89 36 54 37 37 38 38 39 47 40 39 41 40 42 46 43 48 44 41 45
REMARK SMILES IDX 42 46 43 47 44 48 45 49 71 50 72 51 81 52 73 53 74 54 80 55
REMARK SMILES IDX 82 56 75 57 76 58 77 59 78 60 79 61 55 62 56 63 65 64 57 65
REMARK SMILES IDX 58 66 64 67 66 68 59 69 60 70 61 71 62 72 63 73 5 74 6 75
REMARK SMILES IDX 7 76 8 77 9 79 10 80 11 81 15 82 12 83 14 84 13 85 16 86
REMARK SMILES IDX 17 87 18 88 19 90 20 91 27 92 21 93 22 94 26 95 23 97 25 98
REMARK SMILES IDX 24 99
REMARK H PARENT 3 5 87 23 53 34 7 78 18 89 21 96
REMARK Flexibility Score: inf
ROOT
ATOM      1  C   UNL A   1      34.152  27.843  26.471  1.00  0.00     0.118 C 
ENDROOT
BRANCH   1   2
ATOM      2  N   UNL A   1      33.807  29.207  26.886  1.00  0.00    -0.352 N 
ATOM      3  O   UNL A   1      33.852  31.151  28.028  1.00  0.00    -0.269 OA
ATOM      4  C   UNL A   1      34.441  30.140  27.658  1.00  0.00     0.251 C 
ATOM      5  H   UNL A   1      32.938  29.514  26.536  1.00  0.00     0.163 HD
BRANCH   4   6
ATOM      6  C   UNL A   1      35.831  29.888  28.076  1.00  0.00     0.039 A 
ATOM      7  C   UNL A   1      36.862  30.097  27.166  1.00  0.00     0.014 A 
ATOM      8  C   UNL A   1      36.103  29.399  29.356  1.00  0.00     0.014 A 
ATOM      9  C   UNL A   1      38.115  29.593  27.438  1.00  0.00     0.010 A 
ATOM     10  C   UNL A   1      37.415  29.060  29.695  1.00  0.00     0.010 A 
ATOM     11  C   UNL A   1      38.424  29.126  28.725  1.00  0.00    -0.014 A 
BRANCH  11  12
ATOM     12  C   UNL A   1      39.846  28.833  29.013  1.00  0.00     0.031 A 
ATOM     13  C   UNL A   1      40.473  27.527  28.630  1.00  0.00     0.074 A 
ATOM     14  C   UNL A   1      40.580  29.833  29.544  1.00  0.00     0.049 A 
ATOM     15  N   UNL A   1      41.721  27.156  28.756  1.00  0.00    -0.248 NA
ATOM     16  C   UNL A   1      39.599  26.500  28.044  1.00  0.00     0.031 C 
ATOM     17  C   UNL A   1      40.044  31.136  29.965  1.00  0.00     0.029 A 
ATOM     18  N   UNL A   1      41.923  29.947  29.773  1.00  0.00    -0.354 N 
ATOM     19  C   UNL A   1      41.782  25.853  28.280  1.00  0.00     0.074 A 
ATOM     20  C   UNL A   1      40.438  25.483  27.892  1.00  0.00     0.031 C 
ATOM     21  C   UNL A   1      41.054  31.943  30.305  1.00  0.00     0.029 A 
ATOM     22  C   UNL A   1      42.293  31.186  30.241  1.00  0.00     0.049 A 
ATOM     23  H   UNL A   1      42.563  29.214  29.617  1.00  0.00     0.167 HD
ATOM     24  C   UNL A   1      42.868  25.051  28.174  1.00  0.00     0.037 A 
ATOM     25  C   UNL A   1      43.496  31.655  30.614  1.00  0.00     0.037 A 
ATOM     26  C   UNL A   1      44.198  25.450  28.568  1.00  0.00     0.049 A 
ATOM     27  C   UNL A   1      44.673  30.735  30.502  1.00  0.00     0.074 A 
ATOM     28  C   UNL A   1      45.369  24.717  28.519  1.00  0.00     0.029 A 
ATOM     29  N   UNL A   1      44.532  26.699  29.082  1.00  0.00    -0.354 N 
ATOM     30  N   UNL A   1      44.710  29.500  30.057  1.00  0.00    -0.248 NA
ATOM     31  C   UNL A   1      45.966  31.261  30.948  1.00  0.00     0.031 C 
ATOM     32  C   UNL A   1      46.402  25.504  29.041  1.00  0.00     0.029 A 
ATOM     33  C   UNL A   1      45.888  26.750  29.363  1.00  0.00     0.049 A 
ATOM     34  H   UNL A   1      43.898  27.438  29.223  1.00  0.00     0.167 HD
ATOM     35  C   UNL A   1      46.033  29.100  30.167  1.00  0.00     0.074 A 
ATOM     36  C   UNL A   1      46.768  30.240  30.683  1.00  0.00     0.031 C 
ATOM     37  C   UNL A   1      46.591  27.897  29.881  1.00  0.00     0.037 A 
BRANCH  24  38
ATOM     38  C   UNL A   1      42.669  23.662  27.627  1.00  0.00     0.058 A 
ATOM     39  C   UNL A   1      42.734  23.395  26.249  1.00  0.00     0.135 A 
ATOM     40  C   UNL A   1      42.463  22.575  28.491  1.00  0.00     0.135 A 
ATOM     41  F   UNL A   1      42.908  24.397  25.373  1.00  0.00    -0.206 F 
ATOM     42  C   UNL A   1      42.585  22.105  25.750  1.00  0.00     0.059 A 
ATOM     43  C   UNL A   1      42.338  21.271  28.016  1.00  0.00     0.059 A 
ATOM     44  F   UNL A   1      42.387  22.770  29.818  1.00  0.00    -0.206 F 
ATOM     45  C   UNL A   1      42.391  21.048  26.641  1.00  0.00     0.060 A 
BRANCH  45  46
ATOM     46  S   UNL A   1      42.218  19.379  25.973  1.00  0.00     0.124 S 
ATOM     47  O   UNL A   1      42.739  18.570  27.070  1.00  0.00    -0.237 OA
ATOM     48  O   UNL A   1      40.779  19.284  25.743  1.00  0.00    -0.237 OA
ATOM     49  O   UNL A   1      43.042  19.408  24.768  1.00  0.00    -0.744 OA
ENDBRANCH  45  46
ENDBRANCH  24  38
BRANCH  25  50
ATOM     50  C   UNL A   1      43.618  33.028  31.171  1.00  0.00     0.058 A 
ATOM     51  C   UNL A   1      43.507  33.277  32.546  1.00  0.00     0.135 A 
ATOM     52  C   UNL A   1      43.873  34.124  30.328  1.00  0.00     0.135 A 
ATOM     53  F   UNL A   1      43.269  32.265  33.394  1.00  0.00    -0.206 F 
ATOM     54  C   UNL A   1      43.615  34.564  33.063  1.00  0.00     0.059 A 
ATOM     55  C   UNL A   1      44.024  35.412  30.824  1.00  0.00     0.059 A 
ATOM     56  F   UNL A   1      44.014  33.939  29.005  1.00  0.00    -0.206 F 
ATOM     57  C   UNL A   1      43.874  35.625  32.192  1.00  0.00     0.060 A 
BRANCH  57  58
ATOM     58  S   UNL A   1      44.033  37.290  32.871  1.00  0.00     0.124 S 
ATOM     59  O   UNL A   1      45.374  37.245  33.440  1.00  0.00    -0.237 OA
ATOM     60  O   UNL A   1      43.868  38.123  31.684  1.00  0.00    -0.237 OA
ATOM     61  O   UNL A   1      42.939  37.363  33.835  1.00  0.00    -0.744 OA
ENDBRANCH  57  58
ENDBRANCH  25  50
BRANCH  37  62
ATOM     62  C   UNL A   1      48.072  27.777  30.103  1.00  0.00     0.058 A 
ATOM     63  C   UNL A   1      48.995  28.060  29.084  1.00  0.00     0.135 A 
ATOM     64  C   UNL A   1      48.571  27.375  31.351  1.00  0.00     0.135 A 
ATOM     65  F   UNL A   1      48.567  28.438  27.868  1.00  0.00    -0.206 F 
ATOM     66  C   UNL A   1      50.362  27.906  29.282  1.00  0.00     0.059 A 
ATOM     67  C   UNL A   1      49.936  27.247  31.582  1.00  0.00     0.059 A 
ATOM     68  F   UNL A   1      47.730  27.103  32.361  1.00  0.00    -0.206 F 
ATOM     69  C   UNL A   1      50.822  27.496  30.535  1.00  0.00     0.060 A 
BRANCH  69  70
ATOM     70  S   UNL A   1      52.599  27.302  30.779  1.00  0.00     0.124 S 
ATOM     71  O   UNL A   1      52.715  25.858  30.952  1.00  0.00    -0.237 OA
ATOM     72  O   UNL A   1      53.145  27.839  29.538  1.00  0.00    -0.237 OA
ATOM     73  O   UNL A   1      52.865  28.101  31.972  1.00  0.00    -0.744 OA
ENDBRANCH  69  70
ENDBRANCH  37  62
ENDBRANCH  11  12
ENDBRANCH   4   6
ENDBRANCH   1   2
BRANCH   1  74
ATOM     74  C   UNL A   1      32.879  26.741  26.103  1.00  0.00     0.042 C 
BRANCH  74  75
ATOM     75  C   UNL A   1      30.727  27.027  25.733  1.00  0.00     0.118 C 
BRANCH  75  76
ATOM     76  N   UNL A   1      29.896  27.283  24.379  1.00  0.00    -0.351 N 
ATOM     77  C   UNL A   1      30.326  27.777  23.164  1.00  0.00     0.272 C 
ATOM     78  H   UNL A   1      28.940  27.054  24.425  1.00  0.00     0.163 HD
ATOM     79  O   UNL A   1      29.542  28.077  22.272  1.00  0.00    -0.267 OA
BRANCH  77  80
ATOM     80  C   UNL A   1      31.780  27.892  22.972  1.00  0.00     0.159 A 
ATOM     81  N   UNL A   1      32.318  28.979  23.622  1.00  0.00    -0.247 NA
ATOM     82  C   UNL A   1      32.518  27.078  22.124  1.00  0.00     0.159 A 
ATOM     83  C   UNL A   1      33.625  29.207  23.405  1.00  0.00     0.132 A 
ATOM     84  N   UNL A   1      33.848  27.342  21.913  1.00  0.00    -0.247 NA
ATOM     85  C   UNL A   1      34.373  28.406  22.566  1.00  0.00     0.132 A 
BRANCH  82  86
ATOM     86  C   UNL A   1      32.036  25.829  21.461  1.00  0.00     0.277 C 
ATOM     87  O   UNL A   1      31.684  25.918  20.280  1.00  0.00    -0.267 OA
ATOM     88  N   UNL A   1      31.997  24.587  22.052  1.00  0.00    -0.303 N 
ATOM     89  H   UNL A   1      31.721  23.855  21.453  1.00  0.00     0.172 HD
BRANCH  88  90
ATOM     90  C   UNL A   1      32.276  24.203  23.336  1.00  0.00     0.164 A 
ATOM     91  N   UNL A   1      31.247  24.145  24.201  1.00  0.00    -0.155 NA
ATOM     92  C   UNL A   1      33.489  23.724  23.869  1.00  0.00     0.063 A 
ATOM     93  N   UNL A   1      31.552  23.276  25.206  1.00  0.00    -0.259 N 
ATOM     94  C   UNL A   1      32.842  22.829  25.207  1.00  0.00     0.157 A 
ATOM     95  C   UNL A   1      35.242  23.606  23.542  1.00  0.00     0.017 A 
ATOM     96  H   UNL A   1      30.893  22.992  25.881  1.00  0.00     0.192 HD
ATOM     97  N   UNL A   1      33.762  21.686  26.142  1.00  0.00    -0.237 NA
ATOM     98  C   UNL A   1      36.280  22.513  24.494  1.00  0.00     0.021 A 
ATOM     99  C   UNL A   1      35.524  21.618  25.800  1.00  0.00     0.113 A 
ENDBRANCH  88  90
ENDBRANCH  82  86
ENDBRANCH  77  80
ENDBRANCH  75  76
ENDBRANCH  74  75
ENDBRANCH   1  74
TORSDOF 15
ENDMDL
