MODEL 1
REMARK VINA RESULT:     -11.1      0.000      0.000
REMARK SMILES O=C(NCCCNC(=O)c1cc(/C=C/c2cccc3ccccc23)ncn1)c1ccc(-c2c3nc(c(-c4c(F)cc(S(=O)(=O)[O-])cc4F)c4ccc([nH]4)c(-c4c(F)cc(S(=O)(=O)[O-])cc4F)c4nc(c(-c5c(F)cc(S(=O)(=O)[O-])cc5F)c5ccc2[nH]5)C=C4)C=C3)cc1
REMARK SMILES IDX 4 1 3 2 1 3 2 4 28 6 29 7 93 8 30 9 92 10 31 11 32 12 33 13
REMARK SMILES IDX 86 14 34 15 91 16 85 17 87 18 35 19 90 20 84 21 83 22 36 24
REMARK SMILES IDX 70 25 49 26 69 27 50 28 53 29 68 30 88 31 51 32 52 33 67 35
REMARK SMILES IDX 89 36 54 37 37 38 38 39 47 40 39 41 40 42 46 43 48 44 41 45
REMARK SMILES IDX 42 46 43 47 44 48 45 49 71 50 72 51 81 52 73 53 74 54 80 55
REMARK SMILES IDX 82 56 75 57 76 58 77 59 78 60 79 61 55 62 56 63 65 64 57 65
REMARK SMILES IDX 58 66 64 67 66 68 59 69 60 70 61 71 62 72 63 73 5 74 6 75
REMARK SMILES IDX 7 76 8 77 9 79 10 80 11 81 27 82 12 83 26 84 25 85 13 86
REMARK SMILES IDX 14 87 15 88 16 89 24 90 17 91 19 92 23 93 18 94 20 95 22 96
REMARK SMILES IDX 21 97
REMARK H PARENT 3 5 87 23 53 34 7 78
REMARK Flexibility Score: inf
ROOT
ATOM      1  C   UNL A   1      41.819  22.994  27.818  1.00  0.00     0.118 C 
ENDROOT
BRANCH   1   2
ATOM      2  N   UNL A   1      41.710  23.749  26.575  1.00  0.00    -0.352 N 
ATOM      3  O   UNL A   1      41.108  25.422  25.200  1.00  0.00    -0.269 OA
ATOM      4  C   UNL A   1      41.312  25.046  26.352  1.00  0.00     0.251 C 
ATOM      5  H   UNL A   1      41.962  23.250  25.765  1.00  0.00     0.163 HD
BRANCH   4   6
ATOM      6  C   UNL A   1      41.109  25.977  27.483  1.00  0.00     0.039 A 
ATOM      7  C   UNL A   1      42.019  27.004  27.734  1.00  0.00     0.014 A 
ATOM      8  C   UNL A   1      39.973  25.844  28.289  1.00  0.00     0.014 A 
ATOM      9  C   UNL A   1      41.891  27.781  28.879  1.00  0.00     0.010 A 
ATOM     10  C   UNL A   1      39.788  26.700  29.380  1.00  0.00     0.010 A 
ATOM     11  C   UNL A   1      40.762  27.656  29.703  1.00  0.00    -0.014 A 
BRANCH  11  12
ATOM     12  C   UNL A   1      40.596  28.593  30.843  1.00  0.00     0.031 A 
ATOM     13  C   UNL A   1      41.478  28.511  32.059  1.00  0.00     0.074 A 
ATOM     14  C   UNL A   1      39.655  29.553  30.751  1.00  0.00     0.049 A 
ATOM     15  N   UNL A   1      41.478  29.270  33.124  1.00  0.00    -0.248 NA
ATOM     16  C   UNL A   1      42.484  27.438  32.088  1.00  0.00     0.031 C 
ATOM     17  C   UNL A   1      38.730  29.718  29.625  1.00  0.00     0.029 A 
ATOM     18  N   UNL A   1      39.328  30.580  31.597  1.00  0.00    -0.354 N 
ATOM     19  C   UNL A   1      42.465  28.760  33.960  1.00  0.00     0.074 A 
ATOM     20  C   UNL A   1      43.029  27.609  33.286  1.00  0.00     0.031 C 
ATOM     21  C   UNL A   1      37.980  30.810  29.825  1.00  0.00     0.029 A 
ATOM     22  C   UNL A   1      38.319  31.384  31.121  1.00  0.00     0.049 A 
ATOM     23  H   UNL A   1      39.773  30.729  32.463  1.00  0.00     0.167 HD
ATOM     24  C   UNL A   1      42.866  29.216  35.172  1.00  0.00     0.037 A 
ATOM     25  C   UNL A   1      37.717  32.454  31.672  1.00  0.00     0.037 A 
ATOM     26  C   UNL A   1      42.307  30.372  35.825  1.00  0.00     0.049 A 
ATOM     27  C   UNL A   1      38.171  32.927  33.021  1.00  0.00     0.074 A 
ATOM     28  C   UNL A   1      42.669  30.934  37.038  1.00  0.00     0.029 A 
ATOM     29  N   UNL A   1      41.268  31.145  35.324  1.00  0.00    -0.354 N 
ATOM     30  N   UNL A   1      39.124  32.448  33.782  1.00  0.00    -0.248 NA
ATOM     31  C   UNL A   1      37.467  34.083  33.589  1.00  0.00     0.031 C 
ATOM     32  C   UNL A   1      41.820  32.019  37.289  1.00  0.00     0.029 A 
ATOM     33  C   UNL A   1      40.961  32.163  36.212  1.00  0.00     0.049 A 
ATOM     34  H   UNL A   1      40.815  30.990  34.463  1.00  0.00     0.167 HD
ATOM     35  C   UNL A   1      39.144  33.250  34.916  1.00  0.00     0.074 A 
ATOM     36  C   UNL A   1      38.120  34.259  34.730  1.00  0.00     0.031 C 
ATOM     37  C   UNL A   1      39.936  33.157  36.012  1.00  0.00     0.037 A 
BRANCH  24  38
ATOM     38  C   UNL A   1      43.953  28.454  35.884  1.00  0.00     0.058 A 
ATOM     39  C   UNL A   1      45.307  28.791  35.743  1.00  0.00     0.135 A 
ATOM     40  C   UNL A   1      43.629  27.403  36.759  1.00  0.00     0.135 A 
ATOM     41  F   UNL A   1      45.675  29.778  34.909  1.00  0.00    -0.206 F 
ATOM     42  C   UNL A   1      46.305  28.100  36.425  1.00  0.00     0.059 A 
ATOM     43  C   UNL A   1      44.608  26.714  37.470  1.00  0.00     0.059 A 
ATOM     44  F   UNL A   1      42.349  27.040  36.934  1.00  0.00    -0.206 F 
ATOM     45  C   UNL A   1      45.945  27.061  37.286  1.00  0.00     0.060 A 
BRANCH  45  46
ATOM     46  S   UNL A   1      47.250  26.176  38.166  1.00  0.00     0.124 S 
ATOM     47  O   UNL A   1      48.106  25.750  37.063  1.00  0.00    -0.237 OA
ATOM     48  O   UNL A   1      47.803  27.213  39.032  1.00  0.00    -0.237 OA
ATOM     49  O   UNL A   1      46.533  25.107  38.853  1.00  0.00    -0.744 OA
ENDBRANCH  45  46
ENDBRANCH  24  38
BRANCH  25  50
ATOM     50  C   UNL A   1      36.614  33.133  30.944  1.00  0.00     0.058 A 
ATOM     51  C   UNL A   1      35.281  33.000  31.357  1.00  0.00     0.135 A 
ATOM     52  C   UNL A   1      36.878  33.960  29.840  1.00  0.00     0.135 A 
ATOM     53  F   UNL A   1      34.980  32.218  32.405  1.00  0.00    -0.206 F 
ATOM     54  C   UNL A   1      34.246  33.653  30.698  1.00  0.00     0.059 A 
ATOM     55  C   UNL A   1      35.864  34.647  29.182  1.00  0.00     0.059 A 
ATOM     56  F   UNL A   1      38.140  34.136  29.418  1.00  0.00    -0.206 F 
ATOM     57  C   UNL A   1      34.549  34.478  29.612  1.00  0.00     0.060 A 
BRANCH  57  58
ATOM     58  S   UNL A   1      33.206  35.367  28.796  1.00  0.00     0.124 S 
ATOM     59  O   UNL A   1      32.465  35.890  29.937  1.00  0.00    -0.237 OA
ATOM     60  O   UNL A   1      33.929  36.352  27.998  1.00  0.00    -0.237 OA
ATOM     61  O   UNL A   1      32.532  34.324  28.028  1.00  0.00    -0.744 OA
ENDBRANCH  57  58
ENDBRANCH  25  50
BRANCH  37  62
ATOM     62  C   UNL A   1      39.738  34.189  37.086  1.00  0.00     0.058 A 
ATOM     63  C   UNL A   1      38.970  33.922  38.230  1.00  0.00     0.135 A 
ATOM     64  C   UNL A   1      40.351  35.448  36.984  1.00  0.00     0.135 A 
ATOM     65  F   UNL A   1      38.356  32.737  38.369  1.00  0.00    -0.206 F 
ATOM     66  C   UNL A   1      38.798  34.876  39.227  1.00  0.00     0.059 A 
ATOM     67  C   UNL A   1      40.213  36.408  37.980  1.00  0.00     0.059 A 
ATOM     68  F   UNL A   1      41.102  35.750  35.913  1.00  0.00    -0.206 F 
ATOM     69  C   UNL A   1      39.423  36.117  39.092  1.00  0.00     0.060 A 
BRANCH  69  70
ATOM     70  S   UNL A   1      39.214  37.339  40.405  1.00  0.00     0.124 S 
ATOM     71  O   UNL A   1      38.284  38.277  39.786  1.00  0.00    -0.237 OA
ATOM     72  O   UNL A   1      38.672  36.537  41.497  1.00  0.00    -0.237 OA
ATOM     73  O   UNL A   1      40.567  37.843  40.618  1.00  0.00    -0.744 OA
ENDBRANCH  69  70
ENDBRANCH  37  62
ENDBRANCH  11  12
ENDBRANCH   4   6
ENDBRANCH   1   2
BRANCH   1  74
ATOM     74  C   UNL A   1      42.205  21.542  27.591  1.00  0.00     0.042 C 
BRANCH  74  75
ATOM     75  C   UNL A   1      42.314  21.159  26.125  1.00  0.00     0.118 C 
BRANCH  75  76
ATOM     76  N   UNL A   1      43.600  20.555  25.793  1.00  0.00    -0.351 N 
ATOM     77  C   UNL A   1      44.811  21.153  25.510  1.00  0.00     0.270 C 
ATOM     78  H   UNL A   1      43.604  19.571  25.766  1.00  0.00     0.163 HD
ATOM     79  O   UNL A   1      45.755  20.463  25.134  1.00  0.00    -0.268 OA
BRANCH  77  80
ATOM     80  C   UNL A   1      44.971  22.620  25.697  1.00  0.00     0.132 A 
ATOM     81  C   UNL A   1      45.542  23.082  26.860  1.00  0.00     0.062 A 
ATOM     82  N   UNL A   1      44.486  23.414  24.723  1.00  0.00    -0.231 NA
ATOM     83  C   UNL A   1      45.475  24.439  27.051  1.00  0.00     0.067 A 
ATOM     84  C   UNL A   1      44.549  24.723  24.981  1.00  0.00     0.223 A 
ATOM     85  N   UNL A   1      45.003  25.282  26.114  1.00  0.00    -0.237 NA
BRANCH  83  86
ATOM     86  C   UNL A   1      45.813  24.977  28.374  1.00  0.00     0.029 C 
ATOM     87  C   UNL A   1      45.045  24.861  29.467  1.00  0.00     0.011 C 
BRANCH  87  88
ATOM     88  C   UNL A   1      45.486  25.331  30.797  1.00  0.00    -0.018 A 
ATOM     89  C   UNL A   1      46.356  26.433  30.869  1.00  0.00     0.009 A 
ATOM     90  C   UNL A   1      45.029  24.710  31.996  1.00  0.00    -0.011 A 
ATOM     91  C   UNL A   1      46.795  26.916  32.097  1.00  0.00     0.001 A 
ATOM     92  C   UNL A   1      45.471  25.229  33.240  1.00  0.00    -0.018 A 
ATOM     93  C   UNL A   1      44.167  23.586  32.028  1.00  0.00     0.009 A 
ATOM     94  C   UNL A   1      46.352  26.320  33.272  1.00  0.00     0.009 A 
ATOM     95  C   UNL A   1      45.031  24.649  34.442  1.00  0.00     0.009 A 
ATOM     96  C   UNL A   1      43.741  23.020  33.231  1.00  0.00     0.001 A 
ATOM     97  C   UNL A   1      44.168  23.555  34.438  1.00  0.00     0.001 A 
ENDBRANCH  87  88
ENDBRANCH  83  86
ENDBRANCH  77  80
ENDBRANCH  75  76
ENDBRANCH  74  75
ENDBRANCH   1  74
TORSDOF 15
ENDMDL
MODEL 2
REMARK VINA RESULT:     -11.1      6.747     13.203
REMARK SMILES O=C(NCCCNC(=O)c1cc(/C=C/c2cccc3ccccc23)ncn1)c1ccc(-c2c3nc(c(-c4c(F)cc(S(=O)(=O)[O-])cc4F)c4ccc([nH]4)c(-c4c(F)cc(S(=O)(=O)[O-])cc4F)c4nc(c(-c5c(F)cc(S(=O)(=O)[O-])cc5F)c5ccc2[nH]5)C=C4)C=C3)cc1
REMARK SMILES IDX 4 1 3 2 1 3 2 4 28 6 29 7 93 8 30 9 92 10 31 11 32 12 33 13
REMARK SMILES IDX 86 14 34 15 91 16 85 17 87 18 35 19 90 20 84 21 83 22 36 24
REMARK SMILES IDX 70 25 49 26 69 27 50 28 53 29 68 30 88 31 51 32 52 33 67 35
REMARK SMILES IDX 89 36 54 37 37 38 38 39 47 40 39 41 40 42 46 43 48 44 41 45
REMARK SMILES IDX 42 46 43 47 44 48 45 49 71 50 72 51 81 52 73 53 74 54 80 55
REMARK SMILES IDX 82 56 75 57 76 58 77 59 78 60 79 61 55 62 56 63 65 64 57 65
REMARK SMILES IDX 58 66 64 67 66 68 59 69 60 70 61 71 62 72 63 73 5 74 6 75
REMARK SMILES IDX 7 76 8 77 9 79 10 80 11 81 27 82 12 83 26 84 25 85 13 86
REMARK SMILES IDX 14 87 15 88 16 89 24 90 17 91 19 92 23 93 18 94 20 95 22 96
REMARK SMILES IDX 21 97
REMARK H PARENT 3 5 87 23 53 34 7 78
REMARK Flexibility Score: inf
ROOT
ATOM      1  C   UNL A   1      35.511  30.689  28.222  1.00  0.00     0.118 C 
ENDROOT
BRANCH   1   2
ATOM      2  N   UNL A   1      35.513  30.672  29.679  1.00  0.00    -0.352 N 
ATOM      3  O   UNL A   1      36.183  30.133  31.756  1.00  0.00    -0.269 OA
ATOM      4  C   UNL A   1      36.469  30.233  30.564  1.00  0.00     0.251 C 
ATOM      5  H   UNL A   1      34.699  31.035  30.098  1.00  0.00     0.163 HD
BRANCH   4   6
ATOM      6  C   UNL A   1      37.820  29.864  30.092  1.00  0.00     0.039 A 
ATOM      7  C   UNL A   1      38.765  29.335  30.972  1.00  0.00     0.014 A 
ATOM      8  C   UNL A   1      38.142  30.017  28.739  1.00  0.00     0.014 A 
ATOM      9  C   UNL A   1      40.071  29.125  30.546  1.00  0.00     0.010 A 
ATOM     10  C   UNL A   1      39.428  29.700  28.287  1.00  0.00     0.010 A 
ATOM     11  C   UNL A   1      40.413  29.281  29.193  1.00  0.00    -0.014 A 
BRANCH  11  12
ATOM     12  C   UNL A   1      41.785  28.921  28.753  1.00  0.00     0.031 A 
ATOM     13  C   UNL A   1      42.903  29.926  28.773  1.00  0.00     0.074 A 
ATOM     14  C   UNL A   1      42.020  27.651  28.366  1.00  0.00     0.049 A 
ATOM     15  N   UNL A   1      44.159  29.762  28.445  1.00  0.00    -0.248 NA
ATOM     16  C   UNL A   1      42.571  31.292  29.207  1.00  0.00     0.031 C 
ATOM     17  C   UNL A   1      41.007  26.594  28.291  1.00  0.00     0.029 A 
ATOM     18  N   UNL A   1      43.177  27.024  27.984  1.00  0.00    -0.354 N 
ATOM     19  C   UNL A   1      44.765  31.002  28.614  1.00  0.00     0.074 A 
ATOM     20  C   UNL A   1      43.732  31.916  29.052  1.00  0.00     0.031 C 
ATOM     21  C   UNL A   1      41.594  25.442  27.941  1.00  0.00     0.029 A 
ATOM     22  C   UNL A   1      43.010  25.690  27.699  1.00  0.00     0.049 A 
ATOM     23  H   UNL A   1      44.044  27.485  27.919  1.00  0.00     0.167 HD
ATOM     24  C   UNL A   1      46.065  31.339  28.428  1.00  0.00     0.037 A 
ATOM     25  C   UNL A   1      43.892  24.768  27.271  1.00  0.00     0.037 A 
ATOM     26  C   UNL A   1      47.087  30.416  28.008  1.00  0.00     0.049 A 
ATOM     27  C   UNL A   1      45.320  25.173  27.059  1.00  0.00     0.074 A 
ATOM     28  C   UNL A   1      48.439  30.653  27.823  1.00  0.00     0.029 A 
ATOM     29  N   UNL A   1      46.875  29.078  27.702  1.00  0.00    -0.354 N 
ATOM     30  N   UNL A   1      45.879  26.344  27.251  1.00  0.00    -0.248 NA
ATOM     31  C   UNL A   1      46.238  24.138  26.569  1.00  0.00     0.031 C 
ATOM     32  C   UNL A   1      49.034  29.472  27.366  1.00  0.00     0.029 A 
ATOM     33  C   UNL A   1      48.064  28.484  27.310  1.00  0.00     0.049 A 
ATOM     34  H   UNL A   1      46.005  28.619  27.756  1.00  0.00     0.167 HD
ATOM     35  C   UNL A   1      47.217  26.184  26.916  1.00  0.00     0.074 A 
ATOM     36  C   UNL A   1      47.388  24.797  26.530  1.00  0.00     0.031 C 
ATOM     37  C   UNL A   1      48.214  27.103  26.926  1.00  0.00     0.037 A 
BRANCH  24  38
ATOM     38  C   UNL A   1      46.457  32.774  28.662  1.00  0.00     0.058 A 
ATOM     39  C   UNL A   1      46.911  33.224  29.911  1.00  0.00     0.135 A 
ATOM     40  C   UNL A   1      46.425  33.702  27.606  1.00  0.00     0.135 A 
ATOM     41  F   UNL A   1      46.949  32.384  30.959  1.00  0.00    -0.206 F 
ATOM     42  C   UNL A   1      47.298  34.546  30.113  1.00  0.00     0.059 A 
ATOM     43  C   UNL A   1      46.830  35.023  27.779  1.00  0.00     0.059 A 
ATOM     44  F   UNL A   1      46.001  33.326  26.390  1.00  0.00    -0.206 F 
ATOM     45  C   UNL A   1      47.252  35.439  29.040  1.00  0.00     0.060 A 
BRANCH  45  46
ATOM     46  S   UNL A   1      47.759  37.150  29.318  1.00  0.00     0.124 S 
ATOM     47  O   UNL A   1      48.523  37.426  28.105  1.00  0.00    -0.237 OA
ATOM     48  O   UNL A   1      46.479  37.842  29.430  1.00  0.00    -0.237 OA
ATOM     49  O   UNL A   1      48.539  37.079  30.549  1.00  0.00    -0.744 OA
ENDBRANCH  45  46
ENDBRANCH  24  38
BRANCH  25  50
ATOM     50  C   UNL A   1      43.434  23.379  27.007  1.00  0.00     0.058 A 
ATOM     51  C   UNL A   1      43.282  22.901  25.698  1.00  0.00     0.135 A 
ATOM     52  C   UNL A   1      43.175  22.490  28.063  1.00  0.00     0.135 A 
ATOM     53  F   UNL A   1      43.515  23.715  24.656  1.00  0.00    -0.206 F 
ATOM     54  C   UNL A   1      42.880  21.595  25.443  1.00  0.00     0.059 A 
ATOM     55  C   UNL A   1      42.800  21.171  27.833  1.00  0.00     0.059 A 
ATOM     56  F   UNL A   1      43.326  22.894  29.334  1.00  0.00    -0.206 F 
ATOM     57  C   UNL A   1      42.645  20.736  26.518  1.00  0.00     0.060 A 
BRANCH  57  58
ATOM     58  S   UNL A   1      42.177  19.025  26.178  1.00  0.00     0.124 S 
ATOM     59  O   UNL A   1      42.423  18.393  27.468  1.00  0.00    -0.237 OA
ATOM     60  O   UNL A   1      40.778  19.160  25.788  1.00  0.00    -0.237 OA
ATOM     61  O   UNL A   1      43.085  18.639  25.101  1.00  0.00    -0.744 OA
ENDBRANCH  57  58
ENDBRANCH  25  50
BRANCH  37  62
ATOM     62  C   UNL A   1      49.583  26.629  26.525  1.00  0.00     0.058 A 
ATOM     63  C   UNL A   1      50.439  25.999  27.441  1.00  0.00     0.135 A 
ATOM     64  C   UNL A   1      50.028  26.778  25.202  1.00  0.00     0.135 A 
ATOM     65  F   UNL A   1      50.063  25.841  28.719  1.00  0.00    -0.206 F 
ATOM     66  C   UNL A   1      51.701  25.551  27.064  1.00  0.00     0.059 A 
ATOM     67  C   UNL A   1      51.276  26.316  24.797  1.00  0.00     0.059 A 
ATOM     68  F   UNL A   1      49.243  27.368  24.286  1.00  0.00    -0.206 F 
ATOM     69  C   UNL A   1      52.111  25.716  25.739  1.00  0.00     0.060 A 
BRANCH  69  70
ATOM     70  S   UNL A   1      53.740  25.108  25.255  1.00  0.00     0.124 S 
ATOM     71  O   UNL A   1      53.531  23.664  25.271  1.00  0.00    -0.237 OA
ATOM     72  O   UNL A   1      53.919  25.708  23.936  1.00  0.00    -0.237 OA
ATOM     73  O   UNL A   1      54.620  25.628  26.297  1.00  0.00    -0.744 OA
ENDBRANCH  69  70
ENDBRANCH  37  62
ENDBRANCH  11  12
ENDBRANCH   4   6
ENDBRANCH   1   2
BRANCH   1  74
ATOM     74  C   UNL A   1      34.221  31.246  27.643  1.00  0.00     0.042 C 
BRANCH  74  75
ATOM     75  C   UNL A   1      33.282  30.182  27.101  1.00  0.00     0.118 C 
BRANCH  75  76
ATOM     76  N   UNL A   1      33.329  30.073  25.647  1.00  0.00    -0.351 N 
ATOM     77  C   UNL A   1      33.116  28.979  24.834  1.00  0.00     0.270 C 
ATOM     78  H   UNL A   1      33.547  30.909  25.174  1.00  0.00     0.163 HD
ATOM     79  O   UNL A   1      33.322  29.071  23.627  1.00  0.00    -0.268 OA
BRANCH  77  80
ATOM     80  C   UNL A   1      32.603  27.713  25.423  1.00  0.00     0.132 A 
ATOM     81  C   UNL A   1      33.482  26.674  25.628  1.00  0.00     0.062 A 
ATOM     82  N   UNL A   1      31.280  27.648  25.669  1.00  0.00    -0.231 NA
ATOM     83  C   UNL A   1      32.908  25.479  25.983  1.00  0.00     0.067 A 
ATOM     84  C   UNL A   1      30.846  26.458  26.092  1.00  0.00     0.223 A 
ATOM     85  N   UNL A   1      31.593  25.353  26.244  1.00  0.00    -0.237 NA
BRANCH  83  86
ATOM     86  C   UNL A   1      33.737  24.269  25.956  1.00  0.00     0.029 C 
ATOM     87  C   UNL A   1      34.649  23.986  25.014  1.00  0.00     0.011 C 
BRANCH  87  88
ATOM     88  C   UNL A   1      35.531  22.803  25.096  1.00  0.00    -0.018 A 
ATOM     89  C   UNL A   1      35.040  21.563  24.649  1.00  0.00     0.009 A 
ATOM     90  C   UNL A   1      36.865  22.900  25.588  1.00  0.00    -0.011 A 
ATOM     91  C   UNL A   1      35.832  20.422  24.701  1.00  0.00     0.001 A 
ATOM     92  C   UNL A   1      37.666  21.730  25.614  1.00  0.00    -0.018 A 
ATOM     93  C   UNL A   1      37.445  24.097  26.075  1.00  0.00     0.009 A 
ATOM     94  C   UNL A   1      37.136  20.507  25.176  1.00  0.00     0.009 A 
ATOM     95  C   UNL A   1      38.990  21.792  26.082  1.00  0.00     0.009 A 
ATOM     96  C   UNL A   1      38.762  24.142  26.539  1.00  0.00     0.001 A 
ATOM     97  C   UNL A   1      39.536  22.990  26.537  1.00  0.00     0.001 A 
ENDBRANCH  87  88
ENDBRANCH  83  86
ENDBRANCH  77  80
ENDBRANCH  75  76
ENDBRANCH  74  75
ENDBRANCH   1  74
TORSDOF 15
ENDMDL
MODEL 3
REMARK VINA RESULT:     -11.0      3.174      6.264
REMARK SMILES O=C(NCCCNC(=O)c1cc(/C=C/c2cccc3ccccc23)ncn1)c1ccc(-c2c3nc(c(-c4c(F)cc(S(=O)(=O)[O-])cc4F)c4ccc([nH]4)c(-c4c(F)cc(S(=O)(=O)[O-])cc4F)c4nc(c(-c5c(F)cc(S(=O)(=O)[O-])cc5F)c5ccc2[nH]5)C=C4)C=C3)cc1
REMARK SMILES IDX 4 1 3 2 1 3 2 4 28 6 29 7 93 8 30 9 92 10 31 11 32 12 33 13
REMARK SMILES IDX 86 14 34 15 91 16 85 17 87 18 35 19 90 20 84 21 83 22 36 24
REMARK SMILES IDX 70 25 49 26 69 27 50 28 53 29 68 30 88 31 51 32 52 33 67 35
REMARK SMILES IDX 89 36 54 37 37 38 38 39 47 40 39 41 40 42 46 43 48 44 41 45
REMARK SMILES IDX 42 46 43 47 44 48 45 49 71 50 72 51 81 52 73 53 74 54 80 55
REMARK SMILES IDX 82 56 75 57 76 58 77 59 78 60 79 61 55 62 56 63 65 64 57 65
REMARK SMILES IDX 58 66 64 67 66 68 59 69 60 70 61 71 62 72 63 73 5 74 6 75
REMARK SMILES IDX 7 76 8 77 9 79 10 80 11 81 27 82 12 83 26 84 25 85 13 86
REMARK SMILES IDX 14 87 15 88 16 89 24 90 17 91 19 92 23 93 18 94 20 95 22 96
REMARK SMILES IDX 21 97
REMARK H PARENT 3 5 87 23 53 34 7 78
REMARK Flexibility Score: inf
ROOT
ATOM      1  C   UNL A   1      39.478  23.722  26.806  1.00  0.00     0.118 C 
ENDROOT
BRANCH   1   2
ATOM      2  N   UNL A   1      40.526  24.290  25.967  1.00  0.00    -0.352 N 
ATOM      3  O   UNL A   1      41.894  25.858  25.117  1.00  0.00    -0.269 OA
ATOM      4  C   UNL A   1      41.175  25.499  26.048  1.00  0.00     0.251 C 
ATOM      5  H   UNL A   1      40.816  23.715  25.222  1.00  0.00     0.163 HD
BRANCH   4   6
ATOM      6  C   UNL A   1      41.000  26.371  27.229  1.00  0.00     0.039 A 
ATOM      7  C   UNL A   1      41.691  27.579  27.335  1.00  0.00     0.014 A 
ATOM      8  C   UNL A   1      40.106  25.993  28.237  1.00  0.00     0.014 A 
ATOM      9  C   UNL A   1      41.625  28.317  28.510  1.00  0.00     0.010 A 
ATOM     10  C   UNL A   1      39.956  26.796  29.373  1.00  0.00     0.010 A 
ATOM     11  C   UNL A   1      40.738  27.949  29.534  1.00  0.00    -0.014 A 
BRANCH  11  12
ATOM     12  C   UNL A   1      40.599  28.835  30.717  1.00  0.00     0.031 A 
ATOM     13  C   UNL A   1      41.508  28.701  31.907  1.00  0.00     0.074 A 
ATOM     14  C   UNL A   1      39.656  29.798  30.689  1.00  0.00     0.049 A 
ATOM     15  N   UNL A   1      41.532  29.412  33.005  1.00  0.00    -0.248 NA
ATOM     16  C   UNL A   1      42.513  27.627  31.867  1.00  0.00     0.031 C 
ATOM     17  C   UNL A   1      38.706  30.012  29.592  1.00  0.00     0.029 A 
ATOM     18  N   UNL A   1      39.348  30.787  31.586  1.00  0.00    -0.354 N 
ATOM     19  C   UNL A   1      42.538  28.866  33.795  1.00  0.00     0.074 A 
ATOM     20  C   UNL A   1      43.086  27.746  33.059  1.00  0.00     0.031 C 
ATOM     21  C   UNL A   1      37.961  31.093  29.857  1.00  0.00     0.029 A 
ATOM     22  C   UNL A   1      38.330  31.610  31.169  1.00  0.00     0.049 A 
ATOM     23  H   UNL A   1      39.813  30.897  32.447  1.00  0.00     0.167 HD
ATOM     24  C   UNL A   1      42.966  29.269  35.016  1.00  0.00     0.037 A 
ATOM     25  C   UNL A   1      37.740  32.654  31.780  1.00  0.00     0.037 A 
ATOM     26  C   UNL A   1      42.423  30.395  35.732  1.00  0.00     0.049 A 
ATOM     27  C   UNL A   1      38.225  33.069  33.137  1.00  0.00     0.074 A 
ATOM     28  C   UNL A   1      42.812  30.904  36.960  1.00  0.00     0.029 A 
ATOM     29  N   UNL A   1      41.373  31.188  35.289  1.00  0.00    -0.354 N 
ATOM     30  N   UNL A   1      39.195  32.556  33.855  1.00  0.00    -0.248 NA
ATOM     31  C   UNL A   1      37.535  34.198  33.771  1.00  0.00     0.031 C 
ATOM     32  C   UNL A   1      41.970  31.975  37.277  1.00  0.00     0.029 A 
ATOM     33  C   UNL A   1      41.087  32.166  36.227  1.00  0.00     0.049 A 
ATOM     34  H   UNL A   1      40.901  31.072  34.433  1.00  0.00     0.167 HD
ATOM     35  C   UNL A   1      39.241  33.308  35.021  1.00  0.00     0.074 A 
ATOM     36  C   UNL A   1      38.214  34.323  34.903  1.00  0.00     0.031 C 
ATOM     37  C   UNL A   1      40.058  33.167  36.095  1.00  0.00     0.037 A 
BRANCH  24  38
ATOM     38  C   UNL A   1      44.068  28.477  35.670  1.00  0.00     0.058 A 
ATOM     39  C   UNL A   1      45.422  28.763  35.438  1.00  0.00     0.135 A 
ATOM     40  C   UNL A   1      43.763  27.450  36.580  1.00  0.00     0.135 A 
ATOM     41  F   UNL A   1      45.771  29.725  34.568  1.00  0.00    -0.206 F 
ATOM     42  C   UNL A   1      46.436  28.045  36.066  1.00  0.00     0.059 A 
ATOM     43  C   UNL A   1      44.761  26.735  37.237  1.00  0.00     0.059 A 
ATOM     44  F   UNL A   1      42.485  27.135  36.840  1.00  0.00    -0.206 F 
ATOM     45  C   UNL A   1      46.095  27.031  36.963  1.00  0.00     0.060 A 
BRANCH  45  46
ATOM     46  S   UNL A   1      47.421  26.110  37.772  1.00  0.00     0.124 S 
ATOM     47  O   UNL A   1      47.777  27.011  38.863  1.00  0.00    -0.237 OA
ATOM     48  O   UNL A   1      46.750  24.874  38.165  1.00  0.00    -0.237 OA
ATOM     49  O   UNL A   1      48.425  25.966  36.723  1.00  0.00    -0.744 OA
ENDBRANCH  45  46
ENDBRANCH  24  38
BRANCH  25  50
ATOM     50  C   UNL A   1      36.622  33.364  31.107  1.00  0.00     0.058 A 
ATOM     51  C   UNL A   1      36.851  34.201  30.006  1.00  0.00     0.135 A 
ATOM     52  C   UNL A   1      35.294  33.187  31.530  1.00  0.00     0.135 A 
ATOM     53  F   UNL A   1      38.103  34.403  29.567  1.00  0.00    -0.206 F 
ATOM     54  C   UNL A   1      35.807  34.848  29.354  1.00  0.00     0.059 A 
ATOM     55  C   UNL A   1      34.231  33.800  30.876  1.00  0.00     0.059 A 
ATOM     56  F   UNL A   1      35.021  32.379  32.566  1.00  0.00    -0.206 F 
ATOM     57  C   UNL A   1      34.499  34.637  29.795  1.00  0.00     0.060 A 
BRANCH  57  58
ATOM     58  S   UNL A   1      33.143  35.435  28.908  1.00  0.00     0.124 S 
ATOM     59  O   UNL A   1      32.362  35.989  30.007  1.00  0.00    -0.237 OA
ATOM     60  O   UNL A   1      33.849  36.403  28.074  1.00  0.00    -0.237 OA
ATOM     61  O   UNL A   1      32.522  34.330  28.183  1.00  0.00    -0.744 OA
ENDBRANCH  57  58
ENDBRANCH  25  50
BRANCH  37  62
ATOM     62  C   UNL A   1      39.885  34.152  37.217  1.00  0.00     0.058 A 
ATOM     63  C   UNL A   1      40.556  35.384  37.223  1.00  0.00     0.135 A 
ATOM     64  C   UNL A   1      39.012  33.872  38.280  1.00  0.00     0.135 A 
ATOM     65  F   UNL A   1      41.409  35.694  36.234  1.00  0.00    -0.206 F 
ATOM     66  C   UNL A   1      40.385  36.298  38.259  1.00  0.00     0.059 A 
ATOM     67  C   UNL A   1      38.807  34.781  39.312  1.00  0.00     0.059 A 
ATOM     68  F   UNL A   1      38.340  32.710  38.316  1.00  0.00    -0.206 F 
ATOM     69  C   UNL A   1      39.509  35.986  39.299  1.00  0.00     0.060 A 
BRANCH  69  70
ATOM     70  S   UNL A   1      39.274  37.190  40.624  1.00  0.00     0.124 S 
ATOM     71  O   UNL A   1      40.616  37.747  40.755  1.00  0.00    -0.237 OA
ATOM     72  O   UNL A   1      38.268  38.085  40.060  1.00  0.00    -0.237 OA
ATOM     73  O   UNL A   1      38.819  36.375  41.747  1.00  0.00    -0.744 OA
ENDBRANCH  69  70
ENDBRANCH  37  62
ENDBRANCH  11  12
ENDBRANCH   4   6
ENDBRANCH   1   2
BRANCH   1  74
ATOM     74  C   UNL A   1      39.106  22.306  26.402  1.00  0.00     0.042 C 
BRANCH  74  75
ATOM     75  C   UNL A   1      37.864  22.223  25.531  1.00  0.00     0.118 C 
BRANCH  75  76
ATOM     76  N   UNL A   1      36.682  21.793  26.271  1.00  0.00    -0.351 N 
ATOM     77  C   UNL A   1      35.363  22.172  26.128  1.00  0.00     0.270 C 
ATOM     78  H   UNL A   1      36.852  21.133  26.981  1.00  0.00     0.163 HD
ATOM     79  O   UNL A   1      34.528  21.778  26.937  1.00  0.00    -0.268 OA
BRANCH  77  80
ATOM     80  C   UNL A   1      34.961  23.020  24.974  1.00  0.00     0.132 A 
ATOM     81  C   UNL A   1      34.753  24.365  25.180  1.00  0.00     0.062 A 
ATOM     82  N   UNL A   1      34.771  22.395  23.795  1.00  0.00    -0.231 NA
ATOM     83  C   UNL A   1      34.195  25.042  24.125  1.00  0.00     0.067 A 
ATOM     84  C   UNL A   1      34.305  23.173  22.815  1.00  0.00     0.223 A 
ATOM     85  N   UNL A   1      33.984  24.472  22.924  1.00  0.00    -0.237 NA
BRANCH  83  86
ATOM     86  C   UNL A   1      33.695  26.403  24.354  1.00  0.00     0.029 C 
ATOM     87  C   UNL A   1      33.082  26.816  25.473  1.00  0.00     0.011 C 
BRANCH  87  88
ATOM     88  C   UNL A   1      32.696  28.226  25.689  1.00  0.00    -0.018 A 
ATOM     89  C   UNL A   1      31.528  28.708  25.071  1.00  0.00     0.009 A 
ATOM     90  C   UNL A   1      33.462  29.089  26.525  1.00  0.00    -0.011 A 
ATOM     91  C   UNL A   1      31.119  30.025  25.248  1.00  0.00     0.001 A 
ATOM     92  C   UNL A   1      33.018  30.424  26.711  1.00  0.00    -0.018 A 
ATOM     93  C   UNL A   1      34.659  28.704  27.176  1.00  0.00     0.009 A 
ATOM     94  C   UNL A   1      31.858  30.874  26.064  1.00  0.00     0.009 A 
ATOM     95  C   UNL A   1      33.744  31.298  27.538  1.00  0.00     0.009 A 
ATOM     96  C   UNL A   1      35.370  29.586  27.993  1.00  0.00     0.001 A 
ATOM     97  C   UNL A   1      34.908  30.882  28.178  1.00  0.00     0.001 A 
ENDBRANCH  87  88
ENDBRANCH  83  86
ENDBRANCH  77  80
ENDBRANCH  75  76
ENDBRANCH  74  75
ENDBRANCH   1  74
TORSDOF 15
ENDMDL
