MODEL 1
REMARK VINA RESULT:     -11.2      0.000      0.000
REMARK SMILES COc1cccc(C(=O)Nc2ccc(NC(=O)[C@@H]3[C@@H](C(=O)NCCCNC(=O)c4ccc(-c5c6nc(c(-c7c(F)cc(S(=O)(=O)[O-])cc7F)c7ccc([nH]7)c(-c7c(F)cc(S(=O)(=O)[O-])cc7F)c7nc(c(-c8c(F)cc(S(=O)(=O)[O-])cc8F)c8ccc5[nH]8)C=C7)C=C6)cc4)[C@@H]4C=C[C@H]3C4)cc2)c1
REMARK SMILES IDX 23 1 22 2 20 3 21 4 19 6 18 7 98 8 95 9 97 10 99 11 96 12
REMARK SMILES IDX 16 13 15 14 17 16 14 17 11 18 12 19 101 20 13 21 100 22
REMARK SMILES IDX 10 23 8 24 9 25 7 27 3 28 4 29 102 30 5 31 6 32 2 33 1 34
REMARK SMILES IDX 24 35 25 36 26 37 27 38 28 40 29 41 30 42 94 43 31 44 93 45
REMARK SMILES IDX 32 46 33 47 34 48 87 49 35 50 92 51 86 52 88 53 36 54 91 55
REMARK SMILES IDX 85 56 84 57 37 59 71 60 50 61 70 62 51 63 54 64 69 65 89 66
REMARK SMILES IDX 52 67 53 68 68 70 90 71 55 72 38 73 39 74 48 75 40 76 41 77
REMARK SMILES IDX 47 78 49 79 42 80 43 81 44 82 45 83 46 84 72 85 73 86 82 87
REMARK SMILES IDX 74 88 75 89 81 90 83 91 76 92 77 93 78 94 79 95 80 96 56 97
REMARK SMILES IDX 57 98 66 99 58 100 59 101 65 102 67 103 60 104 61 105 62 106
REMARK SMILES IDX 63 107 64 108
REMARK H PARENT 22 5 15 15 10 26 26 39 88 58 54 69
REMARK Flexibility Score: inf
ROOT
ATOM      1  C   UNL A   1      37.266  34.373  31.915  1.00  0.00     0.117 C 
ENDROOT
BRANCH   1   2
ATOM      2  N   UNL A   1      35.978  33.715  31.862  1.00  0.00    -0.356 N 
ATOM      3  C   UNL A   1      35.449  32.779  31.048  1.00  0.00     0.224 C 
ATOM      4  O   UNL A   1      34.244  32.547  31.223  1.00  0.00    -0.275 OA
ATOM      5  H   UNL A   1      35.360  34.012  32.568  1.00  0.00     0.163 HD
BRANCH   3   6
ATOM      6  C   UNL A   1      36.190  31.992  29.974  1.00  0.00     0.098 C 
ATOM      7  C   UNL A   1      35.369  31.042  29.081  1.00  0.00     0.099 C 
ATOM      8  C   UNL A   1      36.268  29.763  29.047  1.00  0.00     0.025 C 
ATOM      9  C   UNL A   1      37.406  31.137  30.406  1.00  0.00     0.025 C 
ATOM     10  C   UNL A   1      37.579  30.051  28.370  1.00  0.00    -0.027 C 
ATOM     11  C   UNL A   1      36.837  29.724  30.473  1.00  0.00     0.017 C 
ATOM     12  C   UNL A   1      38.263  30.884  29.172  1.00  0.00    -0.027 C 
BRANCH   7  13
ATOM     13  C   UNL A   1      34.812  31.462  27.704  1.00  0.00     0.228 C 
ATOM     14  N   UNL A   1      33.819  30.855  26.994  1.00  0.00    -0.326 N 
ATOM     15  H   UNL A   1      33.407  31.430  26.310  1.00  0.00     0.169 HD
ATOM     16  O   UNL A   1      35.181  32.559  27.251  1.00  0.00    -0.274 OA
BRANCH  14  17
ATOM     17  C   UNL A   1      33.277  29.571  27.054  1.00  0.00     0.041 A 
ATOM     18  C   UNL A   1      32.108  27.058  26.861  1.00  0.00     0.041 A 
ATOM     19  C   UNL A   1      31.403  28.109  27.438  1.00  0.00     0.028 A 
ATOM     20  C   UNL A   1      33.423  27.235  26.438  1.00  0.00     0.028 A 
ATOM     21  C   UNL A   1      32.034  29.333  27.626  1.00  0.00     0.028 A 
ATOM     22  C   UNL A   1      34.016  28.498  26.549  1.00  0.00     0.028 A 
BRANCH  18  23
ATOM     23  N   UNL A   1      31.472  25.826  26.729  1.00  0.00    -0.322 N 
ATOM     24  C   UNL A   1      31.255  25.113  25.568  1.00  0.00     0.255 C 
ATOM     25  O   UNL A   1      30.886  23.941  25.641  1.00  0.00    -0.269 OA
ATOM     26  H   UNL A   1      31.139  25.416  27.561  1.00  0.00     0.170 HD
BRANCH  24  27
ATOM     27  C   UNL A   1      31.327  25.768  24.230  1.00  0.00     0.043 A 
ATOM     28  C   UNL A   1      30.627  27.413  22.580  1.00  0.00     0.119 A 
ATOM     29  C   UNL A   1      31.418  26.775  21.626  1.00  0.00     0.046 A 
ATOM     30  C   UNL A   1      30.639  26.938  23.889  1.00  0.00     0.060 A 
ATOM     31  C   UNL A   1      32.190  25.665  21.971  1.00  0.00     0.005 A 
ATOM     32  C   UNL A   1      32.136  25.155  23.268  1.00  0.00     0.014 A 
BRANCH  28  33
ATOM     33  O   UNL A   1      29.904  28.484  22.131  1.00  0.00    -0.497 OA
ATOM     34  C   UNL A   1      28.637  28.702  22.751  1.00  0.00     0.278 C 
ENDBRANCH  28  33
ENDBRANCH  24  27
ENDBRANCH  18  23
ENDBRANCH  14  17
ENDBRANCH   7  13
ENDBRANCH   3   6
ENDBRANCH   1   2
BRANCH   1  35
ATOM     35  C   UNL A   1      37.919  34.167  33.276  1.00  0.00     0.042 C 
BRANCH  35  36
ATOM     36  C   UNL A   1      39.093  33.207  33.199  1.00  0.00     0.118 C 
BRANCH  36  37
ATOM     37  N   UNL A   1      38.972  32.154  34.197  1.00  0.00    -0.352 N 
ATOM     38  C   UNL A   1      39.397  30.850  34.153  1.00  0.00     0.251 C 
ATOM     39  H   UNL A   1      38.517  32.417  35.029  1.00  0.00     0.163 HD
ATOM     40  O   UNL A   1      38.901  30.033  34.923  1.00  0.00    -0.269 OA
BRANCH  38  41
ATOM     41  C   UNL A   1      40.444  30.434  33.194  1.00  0.00     0.039 A 
ATOM     42  C   UNL A   1      41.456  29.571  33.620  1.00  0.00     0.014 A 
ATOM     43  C   UNL A   1      40.467  30.943  31.893  1.00  0.00     0.014 A 
ATOM     44  C   UNL A   1      42.467  29.200  32.733  1.00  0.00     0.010 A 
ATOM     45  C   UNL A   1      41.402  30.479  30.978  1.00  0.00     0.010 A 
ATOM     46  C   UNL A   1      42.438  29.637  31.398  1.00  0.00    -0.014 A 
BRANCH  46  47
ATOM     47  C   UNL A   1      43.517  29.275  30.445  1.00  0.00     0.031 A 
ATOM     48  C   UNL A   1      43.415  28.005  29.638  1.00  0.00     0.074 A 
ATOM     49  C   UNL A   1      44.602  30.067  30.337  1.00  0.00     0.049 A 
ATOM     50  N   UNL A   1      44.259  27.506  28.774  1.00  0.00    -0.248 NA
ATOM     51  C   UNL A   1      42.225  27.165  29.860  1.00  0.00     0.031 C 
ATOM     52  C   UNL A   1      44.844  31.282  31.120  1.00  0.00     0.029 A 
ATOM     53  N   UNL A   1      45.703  29.972  29.526  1.00  0.00    -0.354 N 
ATOM     54  C   UNL A   1      43.713  26.292  28.367  1.00  0.00     0.074 A 
ATOM     55  C   UNL A   1      42.503  26.096  29.131  1.00  0.00     0.031 C 
ATOM     56  C   UNL A   1      45.997  31.841  30.720  1.00  0.00     0.029 A 
ATOM     57  C   UNL A   1      46.591  31.009  29.678  1.00  0.00     0.049 A 
ATOM     58  H   UNL A   1      45.843  29.229  28.894  1.00  0.00     0.167 HD
ATOM     59  C   UNL A   1      44.160  25.437  27.418  1.00  0.00     0.037 A 
ATOM     60  C   UNL A   1      47.749  31.264  29.040  1.00  0.00     0.037 A 
ATOM     61  C   UNL A   1      45.342  25.666  26.631  1.00  0.00     0.049 A 
ATOM     62  C   UNL A   1      48.203  30.324  27.957  1.00  0.00     0.074 A 
ATOM     63  C   UNL A   1      45.852  24.902  25.596  1.00  0.00     0.029 A 
ATOM     64  N   UNL A   1      46.195  26.749  26.787  1.00  0.00    -0.354 N 
ATOM     65  N   UNL A   1      47.637  29.217  27.537  1.00  0.00    -0.248 NA
ATOM     66  C   UNL A   1      49.440  30.675  27.250  1.00  0.00     0.031 C 
ATOM     67  C   UNL A   1      47.034  25.504  25.152  1.00  0.00     0.029 A 
ATOM     68  C   UNL A   1      47.236  26.667  25.877  1.00  0.00     0.049 A 
ATOM     69  H   UNL A   1      46.079  27.470  27.448  1.00  0.00     0.167 HD
ATOM     70  C   UNL A   1      48.437  28.751  26.499  1.00  0.00     0.074 A 
ATOM     71  C   UNL A   1      49.515  29.708  26.346  1.00  0.00     0.031 C 
ATOM     72  C   UNL A   1      48.295  27.635  25.743  1.00  0.00     0.037 A 
BRANCH  59  73
ATOM     73  C   UNL A   1      43.357  24.188  27.169  1.00  0.00     0.058 A 
ATOM     74  C   UNL A   1      42.312  24.157  26.230  1.00  0.00     0.135 A 
ATOM     75  C   UNL A   1      43.646  23.001  27.860  1.00  0.00     0.135 A 
ATOM     76  F   UNL A   1      41.978  25.268  25.553  1.00  0.00    -0.206 F 
ATOM     77  C   UNL A   1      41.562  23.006  26.011  1.00  0.00     0.059 A 
ATOM     78  C   UNL A   1      42.929  21.829  27.635  1.00  0.00     0.059 A 
ATOM     79  F   UNL A   1      44.632  22.971  28.770  1.00  0.00    -0.206 F 
ATOM     80  C   UNL A   1      41.878  21.846  26.719  1.00  0.00     0.060 A 
BRANCH  80  81
ATOM     81  S   UNL A   1      40.898  20.360  26.418  1.00  0.00     0.124 S 
ATOM     82  O   UNL A   1      39.668  20.929  25.874  1.00  0.00    -0.237 OA
ATOM     83  O   UNL A   1      41.729  19.623  25.472  1.00  0.00    -0.237 OA
ATOM     84  O   UNL A   1      40.778  19.758  27.744  1.00  0.00    -0.744 OA
ENDBRANCH  80  81
ENDBRANCH  59  73
BRANCH  60  85
ATOM     85  C   UNL A   1      48.530  32.484  29.379  1.00  0.00     0.058 A 
ATOM     86  C   UNL A   1      49.531  32.449  30.361  1.00  0.00     0.135 A 
ATOM     87  C   UNL A   1      48.309  33.699  28.715  1.00  0.00     0.135 A 
ATOM     88  F   UNL A   1      49.781  31.310  31.025  1.00  0.00    -0.206 F 
ATOM     89  C   UNL A   1      50.273  33.580  30.686  1.00  0.00     0.059 A 
ATOM     90  C   UNL A   1      49.054  34.837  29.003  1.00  0.00     0.059 A 
ATOM     91  F   UNL A   1      47.378  33.779  27.751  1.00  0.00    -0.206 F 
ATOM     92  C   UNL A   1      50.028  34.771  29.999  1.00  0.00     0.060 A 
BRANCH  92  93
ATOM     93  S   UNL A   1      51.031  36.221  30.394  1.00  0.00     0.124 S 
ATOM     94  O   UNL A   1      50.140  36.962  31.279  1.00  0.00    -0.237 OA
ATOM     95  O   UNL A   1      52.204  35.621  31.022  1.00  0.00    -0.237 OA
ATOM     96  O   UNL A   1      51.270  36.826  29.087  1.00  0.00    -0.744 OA
ENDBRANCH  92  93
ENDBRANCH  60  85
BRANCH  72  97
ATOM     97  C   UNL A   1      49.314  27.408  24.662  1.00  0.00     0.058 A 
ATOM     98  C   UNL A   1      50.604  26.936  24.951  1.00  0.00     0.135 A 
ATOM     99  C   UNL A   1      48.985  27.637  23.316  1.00  0.00     0.135 A 
ATOM    100  F   UNL A   1      50.969  26.705  26.222  1.00  0.00    -0.206 F 
ATOM    101  C   UNL A   1      51.544  26.734  23.948  1.00  0.00     0.059 A 
ATOM    102  C   UNL A   1      49.899  27.413  22.293  1.00  0.00     0.059 A 
ATOM    103  F   UNL A   1      47.760  28.075  22.985  1.00  0.00    -0.206 F 
ATOM    104  C   UNL A   1      51.183  26.978  22.621  1.00  0.00     0.060 A 
BRANCH 104 105
ATOM    105  S   UNL A   1      52.408  26.703  21.324  1.00  0.00     0.124 S 
ATOM    106  O   UNL A   1      52.519  28.036  20.740  1.00  0.00    -0.237 OA
ATOM    107  O   UNL A   1      53.568  26.244  22.082  1.00  0.00    -0.237 OA
ATOM    108  O   UNL A   1      51.783  25.694  20.475  1.00  0.00    -0.744 OA
ENDBRANCH 104 105
ENDBRANCH  72  97
ENDBRANCH  46  47
ENDBRANCH  38  41
ENDBRANCH  36  37
ENDBRANCH  35  36
ENDBRANCH   1  35
TORSDOF 18
ENDMDL
MODEL 2
REMARK VINA RESULT:     -11.2      5.606     12.028
REMARK SMILES COc1cccc(C(=O)Nc2ccc(NC(=O)[C@@H]3[C@@H](C(=O)NCCCNC(=O)c4ccc(-c5c6nc(c(-c7c(F)cc(S(=O)(=O)[O-])cc7F)c7ccc([nH]7)c(-c7c(F)cc(S(=O)(=O)[O-])cc7F)c7nc(c(-c8c(F)cc(S(=O)(=O)[O-])cc8F)c8ccc5[nH]8)C=C7)C=C6)cc4)[C@@H]4C=C[C@H]3C4)cc2)c1
REMARK SMILES IDX 23 1 22 2 20 3 21 4 19 6 18 7 98 8 95 9 97 10 99 11 96 12
REMARK SMILES IDX 16 13 15 14 17 16 14 17 11 18 12 19 101 20 13 21 100 22
REMARK SMILES IDX 10 23 8 24 9 25 7 27 3 28 4 29 102 30 5 31 6 32 2 33 1 34
REMARK SMILES IDX 24 35 25 36 26 37 27 38 28 40 29 41 30 42 94 43 31 44 93 45
REMARK SMILES IDX 32 46 33 47 34 48 87 49 35 50 92 51 86 52 88 53 36 54 91 55
REMARK SMILES IDX 85 56 84 57 37 59 71 60 50 61 70 62 51 63 54 64 69 65 89 66
REMARK SMILES IDX 52 67 53 68 68 70 90 71 55 72 38 73 39 74 48 75 40 76 41 77
REMARK SMILES IDX 47 78 49 79 42 80 43 81 44 82 45 83 46 84 72 85 73 86 82 87
REMARK SMILES IDX 74 88 75 89 81 90 83 91 76 92 77 93 78 94 79 95 80 96 56 97
REMARK SMILES IDX 57 98 66 99 58 100 59 101 65 102 67 103 60 104 61 105 62 106
REMARK SMILES IDX 63 107 64 108
REMARK H PARENT 22 5 15 15 10 26 26 39 88 58 54 69
REMARK Flexibility Score: inf
ROOT
ATOM      1  C   UNL A   1      46.658  39.126  30.914  1.00  0.00     0.117 C 
ENDROOT
BRANCH   1   2
ATOM      2  N   UNL A   1      46.234  39.363  32.277  1.00  0.00    -0.356 N 
ATOM      3  C   UNL A   1      45.402  40.258  32.847  1.00  0.00     0.224 C 
ATOM      4  O   UNL A   1      45.385  40.251  34.086  1.00  0.00    -0.275 OA
ATOM      5  H   UNL A   1      46.639  38.742  32.924  1.00  0.00     0.163 HD
BRANCH   3   6
ATOM      6  C   UNL A   1      44.492  41.237  32.115  1.00  0.00     0.098 C 
ATOM      7  C   UNL A   1      44.221  42.602  32.777  1.00  0.00     0.099 C 
ATOM      8  C   UNL A   1      42.679  42.765  32.577  1.00  0.00     0.025 C 
ATOM      9  C   UNL A   1      43.087  40.747  31.687  1.00  0.00     0.025 C 
ATOM     10  C   UNL A   1      42.338  42.860  31.116  1.00  0.00    -0.027 C 
ATOM     11  C   UNL A   1      42.170  41.327  32.759  1.00  0.00     0.017 C 
ATOM     12  C   UNL A   1      42.592  41.658  30.572  1.00  0.00    -0.027 C 
BRANCH   7  13
ATOM     13  C   UNL A   1      45.040  43.868  32.450  1.00  0.00     0.228 C 
ATOM     14  N   UNL A   1      45.401  44.324  31.217  1.00  0.00    -0.326 N 
ATOM     15  H   UNL A   1      45.644  45.277  31.197  1.00  0.00     0.169 HD
ATOM     16  O   UNL A   1      45.267  44.656  33.384  1.00  0.00    -0.274 OA
BRANCH  14  17
ATOM     17  C   UNL A   1      45.490  43.693  29.976  1.00  0.00     0.041 A 
ATOM     18  C   UNL A   1      45.942  42.610  27.457  1.00  0.00     0.041 A 
ATOM     19  C   UNL A   1      45.039  43.658  27.611  1.00  0.00     0.028 A 
ATOM     20  C   UNL A   1      46.575  42.052  28.566  1.00  0.00     0.028 A 
ATOM     21  C   UNL A   1      44.741  44.120  28.887  1.00  0.00     0.028 A 
ATOM     22  C   UNL A   1      46.335  42.589  29.836  1.00  0.00     0.028 A 
BRANCH  18  23
ATOM     23  N   UNL A   1      46.188  42.129  26.173  1.00  0.00    -0.322 N 
ATOM     24  C   UNL A   1      45.287  41.539  25.311  1.00  0.00     0.255 C 
ATOM     25  O   UNL A   1      45.601  41.376  24.132  1.00  0.00    -0.269 OA
ATOM     26  H   UNL A   1      47.112  42.220  25.844  1.00  0.00     0.170 HD
BRANCH  24  27
ATOM     27  C   UNL A   1      43.998  40.974  25.802  1.00  0.00     0.043 A 
ATOM     28  C   UNL A   1      42.669  39.329  27.004  1.00  0.00     0.119 A 
ATOM     29  C   UNL A   1      41.509  39.905  26.489  1.00  0.00     0.046 A 
ATOM     30  C   UNL A   1      43.899  39.908  26.704  1.00  0.00     0.060 A 
ATOM     31  C   UNL A   1      41.582  41.031  25.667  1.00  0.00     0.005 A 
ATOM     32  C   UNL A   1      42.824  41.557  25.315  1.00  0.00     0.014 A 
BRANCH  28  33
ATOM     33  O   UNL A   1      42.483  38.223  27.789  1.00  0.00    -0.497 OA
ATOM     34  C   UNL A   1      42.054  37.035  27.124  1.00  0.00     0.278 C 
ENDBRANCH  28  33
ENDBRANCH  24  27
ENDBRANCH  18  23
ENDBRANCH  14  17
ENDBRANCH   7  13
ENDBRANCH   3   6
ENDBRANCH   1   2
BRANCH   1  35
ATOM     35  C   UNL A   1      45.460  38.825  30.024  1.00  0.00     0.042 C 
BRANCH  35  36
ATOM     36  C   UNL A   1      45.786  37.777  28.973  1.00  0.00     0.118 C 
BRANCH  36  37
ATOM     37  N   UNL A   1      47.215  37.742  28.698  1.00  0.00    -0.352 N 
ATOM     38  C   UNL A   1      48.085  36.680  28.704  1.00  0.00     0.251 C 
ATOM     39  H   UNL A   1      47.619  38.611  28.472  1.00  0.00     0.163 HD
ATOM     40  O   UNL A   1      49.289  36.894  28.798  1.00  0.00    -0.269 OA
BRANCH  38  41
ATOM     41  C   UNL A   1      47.577  35.294  28.594  1.00  0.00     0.039 A 
ATOM     42  C   UNL A   1      47.533  34.492  29.737  1.00  0.00     0.014 A 
ATOM     43  C   UNL A   1      47.202  34.764  27.358  1.00  0.00     0.014 A 
ATOM     44  C   UNL A   1      47.088  33.173  29.637  1.00  0.00     0.010 A 
ATOM     45  C   UNL A   1      46.646  33.494  27.281  1.00  0.00     0.010 A 
ATOM     46  C   UNL A   1      46.623  32.669  28.411  1.00  0.00    -0.014 A 
BRANCH  46  47
ATOM     47  C   UNL A   1      46.170  31.262  28.278  1.00  0.00     0.031 A 
ATOM     48  C   UNL A   1      44.732  30.904  28.563  1.00  0.00     0.074 A 
ATOM     49  C   UNL A   1      47.058  30.306  27.943  1.00  0.00     0.049 A 
ATOM     50  N   UNL A   1      44.150  29.734  28.524  1.00  0.00    -0.248 NA
ATOM     51  C   UNL A   1      43.840  31.998  28.983  1.00  0.00     0.031 C 
ATOM     52  C   UNL A   1      48.489  30.523  27.715  1.00  0.00     0.029 A 
ATOM     53  N   UNL A   1      46.889  28.962  27.732  1.00  0.00    -0.354 N 
ATOM     54  C   UNL A   1      42.837  29.950  28.932  1.00  0.00     0.074 A 
ATOM     55  C   UNL A   1      42.727  31.347  29.281  1.00  0.00     0.031 C 
ATOM     56  C   UNL A   1      49.059  29.362  27.355  1.00  0.00     0.029 A 
ATOM     57  C   UNL A   1      48.042  28.314  27.357  1.00  0.00     0.049 A 
ATOM     58  H   UNL A   1      46.024  28.505  27.839  1.00  0.00     0.167 HD
ATOM     59  C   UNL A   1      41.807  29.072  28.976  1.00  0.00     0.037 A 
ATOM     60  C   UNL A   1      48.251  27.022  27.041  1.00  0.00     0.037 A 
ATOM     61  C   UNL A   1      41.918  27.693  28.581  1.00  0.00     0.049 A 
ATOM     62  C   UNL A   1      47.083  26.075  27.053  1.00  0.00     0.074 A 
ATOM     63  C   UNL A   1      40.926  26.730  28.521  1.00  0.00     0.029 A 
ATOM     64  N   UNL A   1      43.094  27.083  28.169  1.00  0.00    -0.354 N 
ATOM     65  N   UNL A   1      45.833  26.313  27.373  1.00  0.00    -0.248 NA
ATOM     66  C   UNL A   1      47.349  24.690  26.645  1.00  0.00     0.031 C 
ATOM     67  C   UNL A   1      41.510  25.528  28.109  1.00  0.00     0.029 A 
ATOM     68  C   UNL A   1      42.856  25.754  27.866  1.00  0.00     0.049 A 
ATOM     69  H   UNL A   1      43.969  27.529  28.103  1.00  0.00     0.167 HD
ATOM     70  C   UNL A   1      45.157  25.112  27.182  1.00  0.00     0.074 A 
ATOM     71  C   UNL A   1      46.136  24.157  26.701  1.00  0.00     0.031 C 
ATOM     72  C   UNL A   1      43.848  24.824  27.386  1.00  0.00     0.037 A 
BRANCH  59  73
ATOM     73  C   UNL A   1      40.473  29.584  29.450  1.00  0.00     0.058 A 
ATOM     74  C   UNL A   1      40.220  29.839  30.808  1.00  0.00     0.135 A 
ATOM     75  C   UNL A   1      39.440  29.842  28.535  1.00  0.00     0.135 A 
ATOM     76  F   UNL A   1      41.165  29.593  31.730  1.00  0.00    -0.206 F 
ATOM     77  C   UNL A   1      38.982  30.299  31.246  1.00  0.00     0.059 A 
ATOM     78  C   UNL A   1      38.203  30.332  28.947  1.00  0.00     0.059 A 
ATOM     79  F   UNL A   1      39.623  29.615  27.225  1.00  0.00    -0.206 F 
ATOM     80  C   UNL A   1      37.979  30.542  30.307  1.00  0.00     0.060 A 
BRANCH  80  81
ATOM     81  S   UNL A   1      36.380  31.144  30.892  1.00  0.00     0.124 S 
ATOM     82  O   UNL A   1      36.013  30.107  31.851  1.00  0.00    -0.237 OA
ATOM     83  O   UNL A   1      36.724  32.442  31.462  1.00  0.00    -0.237 OA
ATOM     84  O   UNL A   1      35.570  31.191  29.677  1.00  0.00    -0.744 OA
ENDBRANCH  80  81
ENDBRANCH  59  73
BRANCH  60  85
ATOM     85  C   UNL A   1      49.610  26.566  26.643  1.00  0.00     0.058 A 
ATOM     86  C   UNL A   1      50.048  26.682  25.315  1.00  0.00     0.135 A 
ATOM     87  C   UNL A   1      50.503  26.030  27.581  1.00  0.00     0.135 A 
ATOM     88  F   UNL A   1      49.229  27.188  24.380  1.00  0.00    -0.206 F 
ATOM     89  C   UNL A   1      51.317  26.264  24.927  1.00  0.00     0.059 A 
ATOM     90  C   UNL A   1      51.787  25.629  27.223  1.00  0.00     0.059 A 
ATOM     91  F   UNL A   1      50.141  25.919  28.869  1.00  0.00    -0.206 F 
ATOM     92  C   UNL A   1      52.180  25.740  25.890  1.00  0.00     0.060 A 
BRANCH  92  93
ATOM     93  S   UNL A   1      53.844  25.247  25.386  1.00  0.00     0.124 S 
ATOM     94  O   UNL A   1      53.578  24.009  24.665  1.00  0.00    -0.237 OA
ATOM     95  O   UNL A   1      54.267  26.383  24.573  1.00  0.00    -0.237 OA
ATOM     96  O   UNL A   1      54.547  25.100  26.657  1.00  0.00    -0.744 OA
ENDBRANCH  92  93
ENDBRANCH  60  85
BRANCH  72  97
ATOM     97  C   UNL A   1      43.396  23.429  27.058  1.00  0.00     0.058 A 
ATOM     98  C   UNL A   1      43.160  23.021  25.736  1.00  0.00     0.135 A 
ATOM     99  C   UNL A   1      43.227  22.480  28.079  1.00  0.00     0.135 A 
ATOM    100  F   UNL A   1      43.304  23.892  24.724  1.00  0.00    -0.206 F 
ATOM    101  C   UNL A   1      42.736  21.731  25.440  1.00  0.00     0.059 A 
ATOM    102  C   UNL A   1      42.833  21.175  27.803  1.00  0.00     0.059 A 
ATOM    103  F   UNL A   1      43.455  22.815  29.359  1.00  0.00    -0.206 F 
ATOM    104  C   UNL A   1      42.572  20.816  26.481  1.00  0.00     0.060 A 
BRANCH 104 105
ATOM    105  S   UNL A   1      42.031  19.140  26.085  1.00  0.00     0.124 S 
ATOM    106  O   UNL A   1      42.828  18.847  24.899  1.00  0.00    -0.237 OA
ATOM    107  O   UNL A   1      42.393  18.401  27.291  1.00  0.00    -0.237 OA
ATOM    108  O   UNL A   1      40.597  19.291  25.858  1.00  0.00    -0.744 OA
ENDBRANCH 104 105
ENDBRANCH  72  97
ENDBRANCH  46  47
ENDBRANCH  38  41
ENDBRANCH  36  37
ENDBRANCH  35  36
ENDBRANCH   1  35
TORSDOF 18
ENDMDL
MODEL 3
REMARK VINA RESULT:     -11.2      7.608     13.326
REMARK SMILES COc1cccc(C(=O)Nc2ccc(NC(=O)[C@@H]3[C@@H](C(=O)NCCCNC(=O)c4ccc(-c5c6nc(c(-c7c(F)cc(S(=O)(=O)[O-])cc7F)c7ccc([nH]7)c(-c7c(F)cc(S(=O)(=O)[O-])cc7F)c7nc(c(-c8c(F)cc(S(=O)(=O)[O-])cc8F)c8ccc5[nH]8)C=C7)C=C6)cc4)[C@@H]4C=C[C@H]3C4)cc2)c1
REMARK SMILES IDX 23 1 22 2 20 3 21 4 19 6 18 7 98 8 95 9 97 10 99 11 96 12
REMARK SMILES IDX 16 13 15 14 17 16 14 17 11 18 12 19 101 20 13 21 100 22
REMARK SMILES IDX 10 23 8 24 9 25 7 27 3 28 4 29 102 30 5 31 6 32 2 33 1 34
REMARK SMILES IDX 24 35 25 36 26 37 27 38 28 40 29 41 30 42 94 43 31 44 93 45
REMARK SMILES IDX 32 46 33 47 34 48 87 49 35 50 92 51 86 52 88 53 36 54 91 55
REMARK SMILES IDX 85 56 84 57 37 59 71 60 50 61 70 62 51 63 54 64 69 65 89 66
REMARK SMILES IDX 52 67 53 68 68 70 90 71 55 72 38 73 39 74 48 75 40 76 41 77
REMARK SMILES IDX 47 78 49 79 42 80 43 81 44 82 45 83 46 84 72 85 73 86 82 87
REMARK SMILES IDX 74 88 75 89 81 90 83 91 76 92 77 93 78 94 79 95 80 96 56 97
REMARK SMILES IDX 57 98 66 99 58 100 59 101 65 102 67 103 60 104 61 105 62 106
REMARK SMILES IDX 63 107 64 108
REMARK H PARENT 22 5 15 15 10 26 26 39 88 58 54 69
REMARK Flexibility Score: inf
ROOT
ATOM      1  C   UNL A   1      45.138  39.105  28.628  1.00  0.00     0.117 C 
ENDROOT
BRANCH   1   2
ATOM      2  N   UNL A   1      44.204  39.242  27.531  1.00  0.00    -0.356 N 
ATOM      3  C   UNL A   1      44.111  40.101  26.495  1.00  0.00     0.224 C 
ATOM      4  O   UNL A   1      43.080  39.999  25.815  1.00  0.00    -0.275 OA
ATOM      5  H   UNL A   1      43.487  38.568  27.544  1.00  0.00     0.163 HD
BRANCH   3   6
ATOM      6  C   UNL A   1      45.146  41.144  26.091  1.00  0.00     0.098 C 
ATOM      7  C   UNL A   1      44.842  42.022  24.862  1.00  0.00     0.099 C 
ATOM      8  C   UNL A   1      46.209  42.011  24.103  1.00  0.00     0.025 C 
ATOM      9  C   UNL A   1      46.603  40.675  25.861  1.00  0.00     0.025 C 
ATOM     10  C   UNL A   1      47.279  42.678  24.921  1.00  0.00    -0.027 C 
ATOM     11  C   UNL A   1      46.706  40.577  24.343  1.00  0.00     0.017 C 
ATOM     12  C   UNL A   1      47.512  41.890  25.985  1.00  0.00    -0.027 C 
BRANCH   7  13
ATOM     13  C   UNL A   1      44.189  43.416  24.970  1.00  0.00     0.228 C 
ATOM     14  N   UNL A   1      43.443  44.056  24.025  1.00  0.00    -0.326 N 
ATOM     15  H   UNL A   1      42.875  44.775  24.383  1.00  0.00     0.169 HD
ATOM     16  O   UNL A   1      44.196  43.963  26.086  1.00  0.00    -0.274 OA
BRANCH  14  17
ATOM     17  C   UNL A   1      43.332  43.883  22.646  1.00  0.00     0.041 A 
ATOM     18  C   UNL A   1      43.124  43.214  19.956  1.00  0.00     0.041 A 
ATOM     19  C   UNL A   1      44.357  43.582  20.488  1.00  0.00     0.028 A 
ATOM     20  C   UNL A   1      41.976  43.242  20.746  1.00  0.00     0.028 A 
ATOM     21  C   UNL A   1      44.430  44.016  21.805  1.00  0.00     0.028 A 
ATOM     22  C   UNL A   1      42.080  43.592  22.097  1.00  0.00     0.028 A 
BRANCH  18  23
ATOM     23  N   UNL A   1      43.066  42.830  18.619  1.00  0.00    -0.322 N 
ATOM     24  C   UNL A   1      43.263  43.623  17.508  1.00  0.00     0.255 C 
ATOM     25  O   UNL A   1      43.404  43.092  16.407  1.00  0.00    -0.269 OA
ATOM     26  H   UNL A   1      42.859  41.882  18.447  1.00  0.00     0.170 HD
BRANCH  24  27
ATOM     27  C   UNL A   1      43.176  45.110  17.590  1.00  0.00     0.043 A 
ATOM     28  C   UNL A   1      43.939  47.288  18.358  1.00  0.00     0.119 A 
ATOM     29  C   UNL A   1      42.787  47.866  17.829  1.00  0.00     0.046 A 
ATOM     30  C   UNL A   1      44.151  45.923  18.178  1.00  0.00     0.060 A 
ATOM     31  C   UNL A   1      41.850  47.086  17.150  1.00  0.00     0.005 A 
ATOM     32  C   UNL A   1      42.039  45.708  17.040  1.00  0.00     0.014 A 
BRANCH  28  33
ATOM     33  O   UNL A   1      44.784  48.142  19.013  1.00  0.00    -0.497 OA
ATOM     34  C   UNL A   1      46.087  47.643  19.315  1.00  0.00     0.278 C 
ENDBRANCH  28  33
ENDBRANCH  24  27
ENDBRANCH  18  23
ENDBRANCH  14  17
ENDBRANCH   7  13
ENDBRANCH   3   6
ENDBRANCH   1   2
BRANCH   1  35
ATOM     35  C   UNL A   1      45.134  37.679  29.161  1.00  0.00     0.042 C 
BRANCH  35  36
ATOM     36  C   UNL A   1      46.183  37.477  30.241  1.00  0.00     0.118 C 
BRANCH  36  37
ATOM     37  N   UNL A   1      47.525  37.527  29.680  1.00  0.00    -0.352 N 
ATOM     38  C   UNL A   1      48.351  36.504  29.285  1.00  0.00     0.251 C 
ATOM     39  H   UNL A   1      47.897  38.431  29.565  1.00  0.00     0.163 HD
ATOM     40  O   UNL A   1      49.554  36.715  29.175  1.00  0.00    -0.269 OA
BRANCH  38  41
ATOM     41  C   UNL A   1      47.796  35.163  28.992  1.00  0.00     0.039 A 
ATOM     42  C   UNL A   1      47.790  34.193  29.997  1.00  0.00     0.014 A 
ATOM     43  C   UNL A   1      47.339  34.841  27.712  1.00  0.00     0.014 A 
ATOM     44  C   UNL A   1      47.301  32.916  29.720  1.00  0.00     0.010 A 
ATOM     45  C   UNL A   1      46.742  33.611  27.472  1.00  0.00     0.010 A 
ATOM     46  C   UNL A   1      46.755  32.620  28.460  1.00  0.00    -0.014 A 
BRANCH  46  47
ATOM     47  C   UNL A   1      46.253  31.261  28.138  1.00  0.00     0.031 A 
ATOM     48  C   UNL A   1      47.203  30.211  27.618  1.00  0.00     0.074 A 
ATOM     49  C   UNL A   1      44.941  30.987  28.274  1.00  0.00     0.049 A 
ATOM     50  N   UNL A   1      46.956  28.978  27.260  1.00  0.00    -0.248 NA
ATOM     51  C   UNL A   1      48.610  30.610  27.440  1.00  0.00     0.031 C 
ATOM     52  C   UNL A   1      43.916  31.945  28.699  1.00  0.00     0.029 A 
ATOM     53  N   UNL A   1      44.243  29.824  28.073  1.00  0.00    -0.354 N 
ATOM     54  C   UNL A   1      48.165  28.466  26.800  1.00  0.00     0.074 A 
ATOM     55  C   UNL A   1      49.128  29.541  26.857  1.00  0.00     0.031 C 
ATOM     56  C   UNL A   1      42.730  31.319  28.767  1.00  0.00     0.029 A 
ATOM     57  C   UNL A   1      42.904  29.927  28.361  1.00  0.00     0.049 A 
ATOM     58  H   UNL A   1      44.664  28.993  27.751  1.00  0.00     0.167 HD
ATOM     59  C   UNL A   1      48.455  27.205  26.402  1.00  0.00     0.037 A 
ATOM     60  C   UNL A   1      41.929  29.000  28.313  1.00  0.00     0.037 A 
ATOM     61  C   UNL A   1      47.498  26.131  26.394  1.00  0.00     0.049 A 
ATOM     62  C   UNL A   1      42.284  27.595  27.912  1.00  0.00     0.074 A 
ATOM     63  C   UNL A   1      47.698  24.800  26.075  1.00  0.00     0.029 A 
ATOM     64  N   UNL A   1      46.159  26.266  26.732  1.00  0.00    -0.354 N 
ATOM     65  N   UNL A   1      43.449  27.112  27.548  1.00  0.00    -0.248 NA
ATOM     66  C   UNL A   1      41.199  26.606  27.931  1.00  0.00     0.031 C 
ATOM     67  C   UNL A   1      46.470  24.137  26.183  1.00  0.00     0.029 A 
ATOM     68  C   UNL A   1      45.517  25.045  26.615  1.00  0.00     0.049 A 
ATOM     69  H   UNL A   1      45.729  27.106  27.012  1.00  0.00     0.167 HD
ATOM     70  C   UNL A   1      43.242  25.756  27.317  1.00  0.00     0.074 A 
ATOM     71  C   UNL A   1      41.844  25.496  27.601  1.00  0.00     0.031 C 
ATOM     72  C   UNL A   1      44.125  24.812  26.908  1.00  0.00     0.037 A 
BRANCH  59  73
ATOM     73  C   UNL A   1      49.866  26.920  25.961  1.00  0.00     0.058 A 
ATOM     74  C   UNL A   1      50.265  27.065  24.622  1.00  0.00     0.135 A 
ATOM     75  C   UNL A   1      50.839  26.516  26.890  1.00  0.00     0.135 A 
ATOM     76  F   UNL A   1      49.374  27.429  23.687  1.00  0.00    -0.206 F 
ATOM     77  C   UNL A   1      51.566  26.787  24.214  1.00  0.00     0.059 A 
ATOM     78  C   UNL A   1      52.154  26.262  26.511  1.00  0.00     0.059 A 
ATOM     79  F   UNL A   1      50.514  26.359  28.184  1.00  0.00    -0.206 F 
ATOM     80  C   UNL A   1      52.504  26.385  25.166  1.00  0.00     0.060 A 
BRANCH  80  81
ATOM     81  S   UNL A   1      54.189  26.035  24.621  1.00  0.00     0.124 S 
ATOM     82  O   UNL A   1      54.958  26.968  25.439  1.00  0.00    -0.237 OA
ATOM     83  O   UNL A   1      54.340  24.623  24.958  1.00  0.00    -0.237 OA
ATOM     84  O   UNL A   1      54.153  26.335  23.192  1.00  0.00    -0.744 OA
ENDBRANCH  80  81
ENDBRANCH  59  73
BRANCH  60  85
ATOM     85  C   UNL A   1      40.539  29.364  28.700  1.00  0.00     0.058 A 
ATOM     86  C   UNL A   1      40.202  29.593  30.043  1.00  0.00     0.135 A 
ATOM     87  C   UNL A   1      39.529  29.512  27.739  1.00  0.00     0.135 A 
ATOM     88  F   UNL A   1      41.134  29.464  31.000  1.00  0.00    -0.206 F 
ATOM     89  C   UNL A   1      38.909  29.939  30.421  1.00  0.00     0.059 A 
ATOM     90  C   UNL A   1      38.234  29.881  28.089  1.00  0.00     0.059 A 
ATOM     91  F   UNL A   1      39.806  29.326  26.438  1.00  0.00    -0.206 F 
ATOM     92  C   UNL A   1      37.931  30.082  29.435  1.00  0.00     0.060 A 
BRANCH  92  93
ATOM     93  S   UNL A   1      36.266  30.579  29.931  1.00  0.00     0.124 S 
ATOM     94  O   UNL A   1      35.983  29.629  30.999  1.00  0.00    -0.237 OA
ATOM     95  O   UNL A   1      36.470  31.964  30.343  1.00  0.00    -0.237 OA
ATOM     96  O   UNL A   1      35.489  30.406  28.708  1.00  0.00    -0.744 OA
ENDBRANCH  92  93
ENDBRANCH  60  85
BRANCH  72  97
ATOM     97  C   UNL A   1      43.610  23.406  26.774  1.00  0.00     0.058 A 
ATOM     98  C   UNL A   1      43.399  22.588  27.895  1.00  0.00     0.135 A 
ATOM     99  C   UNL A   1      43.294  22.883  25.510  1.00  0.00     0.135 A 
ATOM    100  F   UNL A   1      43.689  23.040  29.126  1.00  0.00    -0.206 F 
ATOM    101  C   UNL A   1      42.929  21.287  27.765  1.00  0.00     0.059 A 
ATOM    102  C   UNL A   1      42.794  21.595  25.358  1.00  0.00     0.059 A 
ATOM    103  F   UNL A   1      43.463  23.630  24.407  1.00  0.00    -0.206 F 
ATOM    104  C   UNL A   1      42.632  20.798  26.491  1.00  0.00     0.060 A 
BRANCH 104 105
ATOM    105  S   UNL A   1      42.012  19.110  26.333  1.00  0.00     0.124 S 
ATOM    106  O   UNL A   1      42.088  18.640  27.712  1.00  0.00    -0.237 OA
ATOM    107  O   UNL A   1      40.666  19.319  25.807  1.00  0.00    -0.237 OA
ATOM    108  O   UNL A   1      42.952  18.489  25.404  1.00  0.00    -0.744 OA
ENDBRANCH 104 105
ENDBRANCH  72  97
ENDBRANCH  46  47
ENDBRANCH  38  41
ENDBRANCH  36  37
ENDBRANCH  35  36
ENDBRANCH   1  35
TORSDOF 18
ENDMDL
