MODEL 1
REMARK VINA RESULT:     -11.6      0.000      0.000
REMARK SMILES O=C(/C=C/C(=O)c1ccc(F)c(Br)c1)NCCCNC(=O)c1ccc(-c2c3nc(c(-c4c(F)cc(S(=O)(=O)[O-])cc4F)c4ccc([nH]4)c(-c4c(F)cc(S(=O)(=O)[O-])cc4F)c4nc(c(-c5c(F)cc(S(=O)(=O)[O-])cc5F)c5ccc2[nH]5)C=C4)C=C3)cc1
REMARK SMILES IDX 17 1 16 2 15 3 1 4 2 5 3 7 4 8 5 9 6 10 7 11 8 12 14 13 9 14
REMARK SMILES IDX 12 15 10 16 13 17 11 18 18 19 19 20 20 21 21 23 22 24 23 25
REMARK SMILES IDX 87 26 24 27 86 28 25 29 26 30 27 31 80 32 28 33 85 34 79 35
REMARK SMILES IDX 81 36 29 37 84 38 78 39 77 40 30 42 64 43 43 44 63 45 44 46
REMARK SMILES IDX 47 47 62 48 82 49 45 50 46 51 61 53 83 54 48 55 31 56 32 57
REMARK SMILES IDX 41 58 33 59 34 60 40 61 42 62 35 63 36 64 37 65 38 66 39 67
REMARK SMILES IDX 65 68 66 69 75 70 67 71 68 72 74 73 76 74 69 75 70 76 71 77
REMARK SMILES IDX 72 78 73 79 49 80 50 81 59 82 51 83 52 84 58 85 60 86 53 87
REMARK SMILES IDX 54 88 55 89 56 90 57 91
REMARK H PARENT 15 6 19 22 81 41 47 52
REMARK Flexibility Score: inf
ROOT
ATOM      1  C   UNL A   1      40.582  21.975  27.479  1.00  0.00     0.042 C 
ENDROOT
BRANCH   1   2
ATOM      2  C   UNL A   1      40.177  21.590  26.059  1.00  0.00     0.118 C 
BRANCH   2   3
ATOM      3  N   UNL A   1      38.738  21.595  25.874  1.00  0.00    -0.352 N 
ATOM      4  O   UNL A   1      38.489  23.865  26.093  1.00  0.00    -0.270 OA
ATOM      5  C   UNL A   1      38.007  22.747  25.917  1.00  0.00     0.244 C 
ATOM      6  H   UNL A   1      38.274  20.742  25.711  1.00  0.00     0.163 HD
BRANCH   5   7
ATOM      7  C   UNL A   1      36.538  22.633  25.736  1.00  0.00     0.075 C 
ATOM      8  C   UNL A   1      35.791  21.529  25.868  1.00  0.00     0.058 C 
BRANCH   8   9
ATOM      9  C   UNL A   1      34.317  21.498  25.682  1.00  0.00     0.186 C 
ATOM     10  O   UNL A   1      33.617  22.276  26.322  1.00  0.00    -0.289 OA
BRANCH   9  11
ATOM     11  C   UNL A   1      33.679  20.541  24.749  1.00  0.00     0.023 A 
ATOM     12  C   UNL A   1      32.724  20.955  23.810  1.00  0.00     0.015 A 
ATOM     13  C   UNL A   1      34.095  19.203  24.786  1.00  0.00     0.031 A 
ATOM     14  C   UNL A   1      32.151  20.021  22.943  1.00  0.00     0.041 A 
ATOM     15  C   UNL A   1      33.522  18.277  23.913  1.00  0.00     0.054 A 
ATOM     16  C   UNL A   1      32.549  18.688  23.002  1.00  0.00     0.137 A 
ATOM     17  Br  UNL A   1      34.075  16.471  23.976  1.00  0.00    -0.048 Br
ATOM     18  F   UNL A   1      31.983  17.812  22.159  1.00  0.00    -0.206 F 
ENDBRANCH   9  11
ENDBRANCH   8   9
ENDBRANCH   5   7
ENDBRANCH   2   3
ENDBRANCH   1   2
BRANCH   1  19
ATOM     19  C   UNL A   1      41.670  23.043  27.564  1.00  0.00     0.118 C 
BRANCH  19  20
ATOM     20  N   UNL A   1      41.767  23.856  26.362  1.00  0.00    -0.352 N 
ATOM     21  C   UNL A   1      41.607  25.208  26.183  1.00  0.00     0.251 C 
ATOM     22  H   UNL A   1      41.982  23.356  25.543  1.00  0.00     0.163 HD
ATOM     23  O   UNL A   1      41.598  25.650  25.035  1.00  0.00    -0.269 OA
BRANCH  21  24
ATOM     24  C   UNL A   1      41.431  26.130  27.329  1.00  0.00     0.039 A 
ATOM     25  C   UNL A   1      40.346  25.920  28.187  1.00  0.00     0.014 A 
ATOM     26  C   UNL A   1      42.270  27.228  27.536  1.00  0.00     0.014 A 
ATOM     27  C   UNL A   1      40.125  26.783  29.264  1.00  0.00     0.010 A 
ATOM     28  C   UNL A   1      42.092  28.046  28.654  1.00  0.00     0.010 A 
ATOM     29  C   UNL A   1      41.007  27.845  29.520  1.00  0.00    -0.014 A 
BRANCH  29  30
ATOM     30  C   UNL A   1      40.777  28.766  30.665  1.00  0.00     0.031 A 
ATOM     31  C   UNL A   1      41.612  28.647  31.915  1.00  0.00     0.074 A 
ATOM     32  C   UNL A   1      39.802  29.693  30.595  1.00  0.00     0.049 A 
ATOM     33  N   UNL A   1      41.554  29.353  33.016  1.00  0.00    -0.248 NA
ATOM     34  C   UNL A   1      42.626  27.582  31.940  1.00  0.00     0.031 C 
ATOM     35  C   UNL A   1      38.890  29.878  29.463  1.00  0.00     0.029 A 
ATOM     36  N   UNL A   1      39.411  30.655  31.494  1.00  0.00    -0.354 N 
ATOM     37  C   UNL A   1      42.513  28.811  33.866  1.00  0.00     0.074 A 
ATOM     38  C   UNL A   1      43.097  27.682  33.174  1.00  0.00     0.031 C 
ATOM     39  C   UNL A   1      38.067  30.907  29.724  1.00  0.00     0.029 A 
ATOM     40  C   UNL A   1      38.372  31.438  31.051  1.00  0.00     0.049 A 
ATOM     41  H   UNL A   1      39.836  30.772  32.374  1.00  0.00     0.167 HD
ATOM     42  C   UNL A   1      42.892  29.228  35.099  1.00  0.00     0.037 A 
ATOM     43  C   UNL A   1      37.740  32.470  31.641  1.00  0.00     0.037 A 
ATOM     44  C   UNL A   1      42.328  30.369  35.774  1.00  0.00     0.049 A 
ATOM     45  C   UNL A   1      38.197  32.935  32.997  1.00  0.00     0.074 A 
ATOM     46  C   UNL A   1      42.677  30.900  37.004  1.00  0.00     0.029 A 
ATOM     47  N   UNL A   1      41.302  31.157  35.274  1.00  0.00    -0.354 N 
ATOM     48  N   UNL A   1      39.145  32.445  33.761  1.00  0.00    -0.248 NA
ATOM     49  C   UNL A   1      37.510  34.103  33.566  1.00  0.00     0.031 C 
ATOM     50  C   UNL A   1      41.838  31.990  37.263  1.00  0.00     0.029 A 
ATOM     51  C   UNL A   1      41.000  32.167  36.174  1.00  0.00     0.049 A 
ATOM     52  H   UNL A   1      40.856  31.020  34.408  1.00  0.00     0.167 HD
ATOM     53  C   UNL A   1      39.192  33.268  34.881  1.00  0.00     0.074 A 
ATOM     54  C   UNL A   1      38.184  34.289  34.692  1.00  0.00     0.031 C 
ATOM     55  C   UNL A   1      40.003  33.186  35.967  1.00  0.00     0.037 A 
BRANCH  42  56
ATOM     56  C   UNL A   1      43.976  28.449  35.794  1.00  0.00     0.058 A 
ATOM     57  C   UNL A   1      43.678  27.392  36.670  1.00  0.00     0.135 A 
ATOM     58  C   UNL A   1      45.330  28.744  35.564  1.00  0.00     0.135 A 
ATOM     59  F   UNL A   1      42.402  27.076  36.938  1.00  0.00    -0.206 F 
ATOM     60  C   UNL A   1      44.681  26.678  37.317  1.00  0.00     0.059 A 
ATOM     61  C   UNL A   1      46.349  28.024  36.179  1.00  0.00     0.059 A 
ATOM     62  F   UNL A   1      45.672  29.743  34.735  1.00  0.00    -0.206 F 
ATOM     63  C   UNL A   1      46.015  27.003  37.067  1.00  0.00     0.060 A 
BRANCH  63  64
ATOM     64  S   UNL A   1      47.304  26.070  37.917  1.00  0.00     0.124 S 
ATOM     65  O   UNL A   1      48.386  27.049  37.970  1.00  0.00    -0.237 OA
ATOM     66  O   UNL A   1      46.673  25.755  39.196  1.00  0.00    -0.237 OA
ATOM     67  O   UNL A   1      47.533  24.928  37.038  1.00  0.00    -0.744 OA
ENDBRANCH  63  64
ENDBRANCH  42  56
BRANCH  43  68
ATOM     68  C   UNL A   1      36.633  33.167  30.932  1.00  0.00     0.058 A 
ATOM     69  C   UNL A   1      35.295  32.957  31.299  1.00  0.00     0.135 A 
ATOM     70  C   UNL A   1      36.890  34.059  29.880  1.00  0.00     0.135 A 
ATOM     71  F   UNL A   1      34.999  32.109  32.295  1.00  0.00    -0.206 F 
ATOM     72  C   UNL A   1      34.249  33.591  30.637  1.00  0.00     0.059 A 
ATOM     73  C   UNL A   1      35.863  34.725  29.219  1.00  0.00     0.059 A 
ATOM     74  F   UNL A   1      38.153  34.309  29.503  1.00  0.00    -0.206 F 
ATOM     75  C   UNL A   1      34.544  34.475  29.598  1.00  0.00     0.060 A 
BRANCH  75  76
ATOM     76  S   UNL A   1      33.182  35.329  28.774  1.00  0.00     0.124 S 
ATOM     77  O   UNL A   1      32.476  35.917  29.907  1.00  0.00    -0.237 OA
ATOM     78  O   UNL A   1      33.887  36.265  27.904  1.00  0.00    -0.237 OA
ATOM     79  O   UNL A   1      32.481  34.251  28.083  1.00  0.00    -0.744 OA
ENDBRANCH  75  76
ENDBRANCH  43  68
BRANCH  55  80
ATOM     80  C   UNL A   1      39.869  34.262  37.010  1.00  0.00     0.058 A 
ATOM     81  C   UNL A   1      39.071  34.095  38.152  1.00  0.00     0.135 A 
ATOM     82  C   UNL A   1      40.576  35.468  36.875  1.00  0.00     0.135 A 
ATOM     83  F   UNL A   1      38.372  32.962  38.328  1.00  0.00    -0.206 F 
ATOM     84  C   UNL A   1      38.949  35.101  39.106  1.00  0.00     0.059 A 
ATOM     85  C   UNL A   1      40.491  36.476  37.829  1.00  0.00     0.059 A 
ATOM     86  F   UNL A   1      41.364  35.675  35.808  1.00  0.00    -0.206 F 
ATOM     87  C   UNL A   1      39.660  36.290  38.934  1.00  0.00     0.060 A 
BRANCH  87  88
ATOM     88  S   UNL A   1      39.501  37.586  40.181  1.00  0.00     0.124 S 
ATOM     89  O   UNL A   1      40.876  38.065  40.281  1.00  0.00    -0.237 OA
ATOM     90  O   UNL A   1      38.553  38.506  39.560  1.00  0.00    -0.237 OA
ATOM     91  O   UNL A   1      38.997  36.872  41.350  1.00  0.00    -0.744 OA
ENDBRANCH  87  88
ENDBRANCH  55  80
ENDBRANCH  29  30
ENDBRANCH  21  24
ENDBRANCH  19  20
ENDBRANCH   1  19
TORSDOF 15
ENDMDL
MODEL 2
REMARK VINA RESULT:     -11.5      5.439      7.714
REMARK SMILES O=C(/C=C/C(=O)c1ccc(F)c(Br)c1)NCCCNC(=O)c1ccc(-c2c3nc(c(-c4c(F)cc(S(=O)(=O)[O-])cc4F)c4ccc([nH]4)c(-c4c(F)cc(S(=O)(=O)[O-])cc4F)c4nc(c(-c5c(F)cc(S(=O)(=O)[O-])cc5F)c5ccc2[nH]5)C=C4)C=C3)cc1
REMARK SMILES IDX 17 1 16 2 15 3 1 4 2 5 3 7 4 8 5 9 6 10 7 11 8 12 14 13 9 14
REMARK SMILES IDX 12 15 10 16 13 17 11 18 18 19 19 20 20 21 21 23 22 24 23 25
REMARK SMILES IDX 87 26 24 27 86 28 25 29 26 30 27 31 80 32 28 33 85 34 79 35
REMARK SMILES IDX 81 36 29 37 84 38 78 39 77 40 30 42 64 43 43 44 63 45 44 46
REMARK SMILES IDX 47 47 62 48 82 49 45 50 46 51 61 53 83 54 48 55 31 56 32 57
REMARK SMILES IDX 41 58 33 59 34 60 40 61 42 62 35 63 36 64 37 65 38 66 39 67
REMARK SMILES IDX 65 68 66 69 75 70 67 71 68 72 74 73 76 74 69 75 70 76 71 77
REMARK SMILES IDX 72 78 73 79 49 80 50 81 59 82 51 83 52 84 58 85 60 86 53 87
REMARK SMILES IDX 54 88 55 89 56 90 57 91
REMARK H PARENT 15 6 19 22 81 41 47 52
REMARK Flexibility Score: inf
ROOT
ATOM      1  C   UNL A   1      44.779  18.514  25.458  1.00  0.00     0.042 C 
ENDROOT
BRANCH   1   2
ATOM      2  C   UNL A   1      44.614  19.570  24.369  1.00  0.00     0.118 C 
BRANCH   2   3
ATOM      3  N   UNL A   1      45.214  20.839  24.733  1.00  0.00    -0.352 N 
ATOM      4  O   UNL A   1      44.305  22.027  22.994  1.00  0.00    -0.270 OA
ATOM      5  C   UNL A   1      45.013  21.972  23.998  1.00  0.00     0.244 C 
ATOM      6  H   UNL A   1      45.783  20.886  25.535  1.00  0.00     0.163 HD
BRANCH   5   7
ATOM      7  C   UNL A   1      45.693  23.211  24.450  1.00  0.00     0.075 C 
ATOM      8  C   UNL A   1      45.722  23.709  25.694  1.00  0.00     0.058 C 
BRANCH   8   9
ATOM      9  C   UNL A   1      46.439  24.955  26.073  1.00  0.00     0.186 C 
ATOM     10  O   UNL A   1      47.666  24.956  26.093  1.00  0.00    -0.289 OA
BRANCH   9  11
ATOM     11  C   UNL A   1      45.702  26.188  26.433  1.00  0.00     0.023 A 
ATOM     12  C   UNL A   1      46.283  27.188  27.224  1.00  0.00     0.015 A 
ATOM     13  C   UNL A   1      44.412  26.363  25.913  1.00  0.00     0.031 A 
ATOM     14  C   UNL A   1      45.555  28.339  27.535  1.00  0.00     0.041 A 
ATOM     15  C   UNL A   1      43.694  27.518  26.224  1.00  0.00     0.054 A 
ATOM     16  C   UNL A   1      44.265  28.496  27.038  1.00  0.00     0.137 A 
ATOM     17  Br  UNL A   1      41.949  27.744  25.533  1.00  0.00    -0.048 Br
ATOM     18  F   UNL A   1      43.587  29.610  27.352  1.00  0.00    -0.206 F 
ENDBRANCH   9  11
ENDBRANCH   8   9
ENDBRANCH   5   7
ENDBRANCH   2   3
ENDBRANCH   1   2
BRANCH   1  19
ATOM     19  C   UNL A   1      43.668  18.499  26.505  1.00  0.00     0.118 C 
BRANCH  19  20
ATOM     20  N   UNL A   1      42.335  18.526  25.924  1.00  0.00    -0.352 N 
ATOM     21  C   UNL A   1      41.353  19.484  25.984  1.00  0.00     0.251 C 
ATOM     22  H   UNL A   1      42.097  17.726  25.403  1.00  0.00     0.163 HD
ATOM     23  O   UNL A   1      40.243  19.215  25.525  1.00  0.00    -0.269 OA
BRANCH  21  24
ATOM     24  C   UNL A   1      41.596  20.811  26.596  1.00  0.00     0.039 A 
ATOM     25  C   UNL A   1      41.322  20.971  27.959  1.00  0.00     0.014 A 
ATOM     26  C   UNL A   1      42.024  21.910  25.845  1.00  0.00     0.014 A 
ATOM     27  C   UNL A   1      41.508  22.214  28.571  1.00  0.00     0.010 A 
ATOM     28  C   UNL A   1      42.280  23.131  26.473  1.00  0.00     0.010 A 
ATOM     29  C   UNL A   1      42.007  23.302  27.838  1.00  0.00    -0.014 A 
BRANCH  29  30
ATOM     30  C   UNL A   1      42.209  24.627  28.486  1.00  0.00     0.031 A 
ATOM     31  C   UNL A   1      43.509  24.943  29.179  1.00  0.00     0.074 A 
ATOM     32  C   UNL A   1      41.215  25.537  28.473  1.00  0.00     0.049 A 
ATOM     33  N   UNL A   1      43.867  26.036  29.804  1.00  0.00    -0.248 NA
ATOM     34  C   UNL A   1      44.531  23.885  29.194  1.00  0.00     0.031 C 
ATOM     35  C   UNL A   1      39.891  25.336  27.881  1.00  0.00     0.029 A 
ATOM     36  N   UNL A   1      41.163  26.814  28.975  1.00  0.00    -0.354 N 
ATOM     37  C   UNL A   1      45.146  25.794  30.294  1.00  0.00     0.074 A 
ATOM     38  C   UNL A   1      45.478  24.430  29.943  1.00  0.00     0.031 C 
ATOM     39  C   UNL A   1      39.168  26.458  28.029  1.00  0.00     0.029 A 
ATOM     40  C   UNL A   1      39.965  27.449  28.749  1.00  0.00     0.049 A 
ATOM     41  H   UNL A   1      41.913  27.236  29.452  1.00  0.00     0.167 HD
ATOM     42  C   UNL A   1      45.979  26.635  30.953  1.00  0.00     0.037 A 
ATOM     43  C   UNL A   1      39.554  28.689  29.077  1.00  0.00     0.037 A 
ATOM     44  C   UNL A   1      45.657  28.002  31.276  1.00  0.00     0.049 A 
ATOM     45  C   UNL A   1      40.507  29.616  29.783  1.00  0.00     0.074 A 
ATOM     46  C   UNL A   1      46.451  28.949  31.900  1.00  0.00     0.029 A 
ATOM     47  N   UNL A   1      44.446  28.617  30.997  1.00  0.00    -0.354 N 
ATOM     48  N   UNL A   1      41.734  29.387  30.187  1.00  0.00    -0.248 NA
ATOM     49  C   UNL A   1      40.025  30.976  30.062  1.00  0.00     0.031 C 
ATOM     50  C   UNL A   1      45.707  30.128  32.028  1.00  0.00     0.029 A 
ATOM     51  C   UNL A   1      44.468  29.930  31.441  1.00  0.00     0.049 A 
ATOM     52  H   UNL A   1      43.684  28.186  30.549  1.00  0.00     0.167 HD
ATOM     53  C   UNL A   1      42.183  30.585  30.734  1.00  0.00     0.074 A 
ATOM     54  C   UNL A   1      41.099  31.535  30.602  1.00  0.00     0.031 C 
ATOM     55  C   UNL A   1      43.387  30.870  31.291  1.00  0.00     0.037 A 
BRANCH  42  56
ATOM     56  C   UNL A   1      47.327  26.103  31.361  1.00  0.00     0.058 A 
ATOM     57  C   UNL A   1      47.540  25.529  32.625  1.00  0.00     0.135 A 
ATOM     58  C   UNL A   1      48.411  26.141  30.470  1.00  0.00     0.135 A 
ATOM     59  F   UNL A   1      46.543  25.480  33.522  1.00  0.00    -0.206 F 
ATOM     60  C   UNL A   1      48.787  25.044  33.004  1.00  0.00     0.059 A 
ATOM     61  C   UNL A   1      49.660  25.636  30.818  1.00  0.00     0.059 A 
ATOM     62  F   UNL A   1      48.264  26.677  29.248  1.00  0.00    -0.206 F 
ATOM     63  C   UNL A   1      49.843  25.104  32.093  1.00  0.00     0.060 A 
BRANCH  63  64
ATOM     64  S   UNL A   1      51.456  24.473  32.600  1.00  0.00     0.124 S 
ATOM     65  O   UNL A   1      51.257  23.032  32.476  1.00  0.00    -0.237 OA
ATOM     66  O   UNL A   1      52.352  25.074  31.616  1.00  0.00    -0.237 OA
ATOM     67  O   UNL A   1      51.604  24.971  33.963  1.00  0.00    -0.744 OA
ENDBRANCH  63  64
ENDBRANCH  42  56
BRANCH  43  68
ATOM     68  C   UNL A   1      38.188  29.143  28.701  1.00  0.00     0.058 A 
ATOM     69  C   UNL A   1      37.140  29.125  29.633  1.00  0.00     0.135 A 
ATOM     70  C   UNL A   1      37.907  29.611  27.408  1.00  0.00     0.135 A 
ATOM     71  F   UNL A   1      37.358  28.682  30.880  1.00  0.00    -0.206 F 
ATOM     72  C   UNL A   1      35.855  29.535  29.292  1.00  0.00     0.059 A 
ATOM     73  C   UNL A   1      36.637  30.050  27.051  1.00  0.00     0.059 A 
ATOM     74  F   UNL A   1      38.880  29.666  26.486  1.00  0.00    -0.206 F 
ATOM     75  C   UNL A   1      35.614  29.997  27.998  1.00  0.00     0.060 A 
BRANCH  75  76
ATOM     76  S   UNL A   1      33.953  30.571  27.578  1.00  0.00     0.124 S 
ATOM     77  O   UNL A   1      33.899  31.851  28.275  1.00  0.00    -0.237 OA
ATOM     78  O   UNL A   1      34.010  30.638  26.121  1.00  0.00    -0.237 OA
ATOM     79  O   UNL A   1      33.092  29.522  28.115  1.00  0.00    -0.744 OA
ENDBRANCH  75  76
ENDBRANCH  43  68
BRANCH  55  80
ATOM     80  C   UNL A   1      43.616  32.285  31.751  1.00  0.00     0.058 A 
ATOM     81  C   UNL A   1      44.147  33.266  30.900  1.00  0.00     0.135 A 
ATOM     82  C   UNL A   1      43.270  32.667  33.057  1.00  0.00     0.135 A 
ATOM     83  F   UNL A   1      44.497  32.952  29.642  1.00  0.00    -0.206 F 
ATOM     84  C   UNL A   1      44.362  34.569  31.339  1.00  0.00     0.059 A 
ATOM     85  C   UNL A   1      43.450  33.970  33.509  1.00  0.00     0.059 A 
ATOM     86  F   UNL A   1      42.746  31.771  33.908  1.00  0.00    -0.206 F 
ATOM     87  C   UNL A   1      44.013  34.910  32.647  1.00  0.00     0.060 A 
BRANCH  87  88
ATOM     88  S   UNL A   1      44.288  36.605  33.205  1.00  0.00     0.124 S 
ATOM     89  O   UNL A   1      43.167  36.797  34.121  1.00  0.00    -0.237 OA
ATOM     90  O   UNL A   1      45.606  36.522  33.826  1.00  0.00    -0.237 OA
ATOM     91  O   UNL A   1      44.232  37.383  31.971  1.00  0.00    -0.744 OA
ENDBRANCH  87  88
ENDBRANCH  55  80
ENDBRANCH  29  30
ENDBRANCH  21  24
ENDBRANCH  19  20
ENDBRANCH   1  19
TORSDOF 15
ENDMDL
MODEL 3
REMARK VINA RESULT:     -11.5      2.311      3.160
REMARK SMILES O=C(/C=C/C(=O)c1ccc(F)c(Br)c1)NCCCNC(=O)c1ccc(-c2c3nc(c(-c4c(F)cc(S(=O)(=O)[O-])cc4F)c4ccc([nH]4)c(-c4c(F)cc(S(=O)(=O)[O-])cc4F)c4nc(c(-c5c(F)cc(S(=O)(=O)[O-])cc5F)c5ccc2[nH]5)C=C4)C=C3)cc1
REMARK SMILES IDX 17 1 16 2 15 3 1 4 2 5 3 7 4 8 5 9 6 10 7 11 8 12 14 13 9 14
REMARK SMILES IDX 12 15 10 16 13 17 11 18 18 19 19 20 20 21 21 23 22 24 23 25
REMARK SMILES IDX 87 26 24 27 86 28 25 29 26 30 27 31 80 32 28 33 85 34 79 35
REMARK SMILES IDX 81 36 29 37 84 38 78 39 77 40 30 42 64 43 43 44 63 45 44 46
REMARK SMILES IDX 47 47 62 48 82 49 45 50 46 51 61 53 83 54 48 55 31 56 32 57
REMARK SMILES IDX 41 58 33 59 34 60 40 61 42 62 35 63 36 64 37 65 38 66 39 67
REMARK SMILES IDX 65 68 66 69 75 70 67 71 68 72 74 73 76 74 69 75 70 76 71 77
REMARK SMILES IDX 72 78 73 79 49 80 50 81 59 82 51 83 52 84 58 85 60 86 53 87
REMARK SMILES IDX 54 88 55 89 56 90 57 91
REMARK H PARENT 15 6 19 22 81 41 47 52
REMARK Flexibility Score: inf
ROOT
ATOM      1  C   UNL A   1      40.446  22.211  27.659  1.00  0.00     0.042 C 
ENDROOT
BRANCH   1   2
ATOM      2  C   UNL A   1      39.692  21.994  26.350  1.00  0.00     0.118 C 
BRANCH   2   3
ATOM      3  N   UNL A   1      38.316  22.448  26.423  1.00  0.00    -0.352 N 
ATOM      4  O   UNL A   1      37.585  21.246  24.611  1.00  0.00    -0.270 OA
ATOM      5  C   UNL A   1      37.370  22.037  25.529  1.00  0.00     0.244 C 
ATOM      6  H   UNL A   1      38.056  23.072  27.139  1.00  0.00     0.163 HD
BRANCH   5   7
ATOM      7  C   UNL A   1      35.998  22.581  25.684  1.00  0.00     0.075 C 
ATOM      8  C   UNL A   1      35.547  23.767  25.255  1.00  0.00     0.058 C 
BRANCH   8   9
ATOM      9  C   UNL A   1      34.149  24.239  25.438  1.00  0.00     0.186 C 
ATOM     10  O   UNL A   1      33.305  23.456  25.865  1.00  0.00    -0.289 OA
BRANCH   9  11
ATOM     11  C   UNL A   1      33.755  25.627  25.107  1.00  0.00     0.023 A 
ATOM     12  C   UNL A   1      33.908  26.148  23.815  1.00  0.00     0.015 A 
ATOM     13  C   UNL A   1      33.167  26.406  26.114  1.00  0.00     0.031 A 
ATOM     14  C   UNL A   1      33.517  27.462  23.544  1.00  0.00     0.041 A 
ATOM     15  C   UNL A   1      32.776  27.715  25.833  1.00  0.00     0.054 A 
ATOM     16  C   UNL A   1      32.959  28.238  24.554  1.00  0.00     0.137 A 
ATOM     17  Br  UNL A   1      31.996  28.767  27.197  1.00  0.00    -0.048 Br
ATOM     18  F   UNL A   1      32.593  29.497  24.267  1.00  0.00    -0.206 F 
ENDBRANCH   9  11
ENDBRANCH   8   9
ENDBRANCH   5   7
ENDBRANCH   2   3
ENDBRANCH   1   2
BRANCH   1  19
ATOM     19  C   UNL A   1      41.702  23.071  27.537  1.00  0.00     0.118 C 
BRANCH  19  20
ATOM     20  N   UNL A   1      41.723  23.884  26.331  1.00  0.00    -0.352 N 
ATOM     21  C   UNL A   1      41.503  25.228  26.156  1.00  0.00     0.251 C 
ATOM     22  H   UNL A   1      41.926  23.390  25.505  1.00  0.00     0.163 HD
ATOM     23  O   UNL A   1      41.434  25.665  25.008  1.00  0.00    -0.269 OA
BRANCH  21  24
ATOM     24  C   UNL A   1      41.334  26.146  27.307  1.00  0.00     0.039 A 
ATOM     25  C   UNL A   1      40.229  25.960  28.145  1.00  0.00     0.014 A 
ATOM     26  C   UNL A   1      42.201  27.218  27.537  1.00  0.00     0.014 A 
ATOM     27  C   UNL A   1      40.014  26.821  29.225  1.00  0.00     0.010 A 
ATOM     28  C   UNL A   1      42.027  28.032  28.659  1.00  0.00     0.010 A 
ATOM     29  C   UNL A   1      40.921  27.855  29.504  1.00  0.00    -0.014 A 
BRANCH  29  30
ATOM     30  C   UNL A   1      40.698  28.773  30.653  1.00  0.00     0.031 A 
ATOM     31  C   UNL A   1      41.530  28.641  31.904  1.00  0.00     0.074 A 
ATOM     32  C   UNL A   1      39.732  29.709  30.585  1.00  0.00     0.049 A 
ATOM     33  N   UNL A   1      41.478  29.343  33.008  1.00  0.00    -0.248 NA
ATOM     34  C   UNL A   1      42.534  27.567  31.925  1.00  0.00     0.031 C 
ATOM     35  C   UNL A   1      38.824  29.908  29.453  1.00  0.00     0.029 A 
ATOM     36  N   UNL A   1      39.349  30.671  31.488  1.00  0.00    -0.354 N 
ATOM     37  C   UNL A   1      42.430  28.788  33.857  1.00  0.00     0.074 A 
ATOM     38  C   UNL A   1      43.005  27.657  33.161  1.00  0.00     0.031 C 
ATOM     39  C   UNL A   1      38.010  30.943  29.717  1.00  0.00     0.029 A 
ATOM     40  C   UNL A   1      38.318  31.466  31.047  1.00  0.00     0.049 A 
ATOM     41  H   UNL A   1      39.774  30.781  32.369  1.00  0.00     0.167 HD
ATOM     42  C   UNL A   1      42.811  29.196  35.092  1.00  0.00     0.037 A 
ATOM     43  C   UNL A   1      37.695  32.502  31.640  1.00  0.00     0.037 A 
ATOM     44  C   UNL A   1      42.257  30.340  35.771  1.00  0.00     0.049 A 
ATOM     45  C   UNL A   1      38.154  32.956  32.999  1.00  0.00     0.074 A 
ATOM     46  C   UNL A   1      42.608  30.863  37.003  1.00  0.00     0.029 A 
ATOM     47  N   UNL A   1      41.239  31.140  35.273  1.00  0.00    -0.354 N 
ATOM     48  N   UNL A   1      39.096  32.455  33.762  1.00  0.00    -0.248 NA
ATOM     49  C   UNL A   1      37.477  34.128  33.571  1.00  0.00     0.031 C 
ATOM     50  C   UNL A   1      41.780  31.959  37.266  1.00  0.00     0.029 A 
ATOM     51  C   UNL A   1      40.945  32.149  36.177  1.00  0.00     0.049 A 
ATOM     52  H   UNL A   1      40.792  31.011  34.406  1.00  0.00     0.167 HD
ATOM     53  C   UNL A   1      39.150  33.272  34.886  1.00  0.00     0.074 A 
ATOM     54  C   UNL A   1      38.151  34.303  34.700  1.00  0.00     0.031 C 
ATOM     55  C   UNL A   1      39.958  33.178  35.973  1.00  0.00     0.037 A 
BRANCH  42  56
ATOM     56  C   UNL A   1      43.887  28.404  35.786  1.00  0.00     0.058 A 
ATOM     57  C   UNL A   1      45.247  28.712  35.624  1.00  0.00     0.135 A 
ATOM     58  C   UNL A   1      43.554  27.343  36.643  1.00  0.00     0.135 A 
ATOM     59  F   UNL A   1      45.623  29.706  34.805  1.00  0.00    -0.206 F 
ATOM     60  C   UNL A   1      46.241  27.975  36.260  1.00  0.00     0.059 A 
ATOM     61  C   UNL A   1      44.530  26.610  37.311  1.00  0.00     0.059 A 
ATOM     62  F   UNL A   1      42.269  27.006  36.835  1.00  0.00    -0.206 F 
ATOM     63  C   UNL A   1      45.872  26.923  37.101  1.00  0.00     0.060 A 
BRANCH  63  64
ATOM     64  S   UNL A   1      47.173  25.974  37.917  1.00  0.00     0.124 S 
ATOM     65  O   UNL A   1      47.320  26.703  39.173  1.00  0.00    -0.237 OA
ATOM     66  O   UNL A   1      46.574  24.647  38.022  1.00  0.00    -0.237 OA
ATOM     67  O   UNL A   1      48.299  26.078  36.995  1.00  0.00    -0.744 OA
ENDBRANCH  63  64
ENDBRANCH  42  56
BRANCH  43  68
ATOM     68  C   UNL A   1      36.595  33.211  30.932  1.00  0.00     0.058 A 
ATOM     69  C   UNL A   1      35.262  33.070  31.344  1.00  0.00     0.135 A 
ATOM     70  C   UNL A   1      36.856  34.048  29.836  1.00  0.00     0.135 A 
ATOM     71  F   UNL A   1      34.962  32.278  32.384  1.00  0.00    -0.206 F 
ATOM     72  C   UNL A   1      34.222  33.717  30.685  1.00  0.00     0.059 A 
ATOM     73  C   UNL A   1      35.837  34.726  29.176  1.00  0.00     0.059 A 
ATOM     74  F   UNL A   1      38.116  34.231  29.414  1.00  0.00    -0.206 F 
ATOM     75  C   UNL A   1      34.521  34.545  29.601  1.00  0.00     0.060 A 
BRANCH  75  76
ATOM     76  S   UNL A   1      33.169  35.417  28.779  1.00  0.00     0.124 S 
ATOM     77  O   UNL A   1      33.894  36.422  28.008  1.00  0.00    -0.237 OA
ATOM     78  O   UNL A   1      32.540  34.350  28.006  1.00  0.00    -0.237 OA
ATOM     79  O   UNL A   1      32.374  35.926  29.891  1.00  0.00    -0.744 OA
ENDBRANCH  75  76
ENDBRANCH  43  68
BRANCH  55  80
ATOM     80  C   UNL A   1      39.832  34.251  37.020  1.00  0.00     0.058 A 
ATOM     81  C   UNL A   1      40.467  35.496  36.888  1.00  0.00     0.135 A 
ATOM     82  C   UNL A   1      39.040  34.036  38.160  1.00  0.00     0.135 A 
ATOM     83  F   UNL A   1      41.238  35.751  35.819  1.00  0.00    -0.206 F 
ATOM     84  C   UNL A   1      40.350  36.477  37.867  1.00  0.00     0.059 A 
ATOM     85  C   UNL A   1      38.887  35.013  39.138  1.00  0.00     0.059 A 
ATOM     86  F   UNL A   1      38.401  32.868  38.329  1.00  0.00    -0.206 F 
ATOM     87  C   UNL A   1      39.561  36.225  38.990  1.00  0.00     0.060 A 
BRANCH  87  88
ATOM     88  S   UNL A   1      39.409  37.508  40.252  1.00  0.00     0.124 S 
ATOM     89  O   UNL A   1      38.511  38.455  39.600  1.00  0.00    -0.237 OA
ATOM     90  O   UNL A   1      38.845  36.774  41.381  1.00  0.00    -0.237 OA
ATOM     91  O   UNL A   1      40.782  37.968  40.436  1.00  0.00    -0.744 OA
ENDBRANCH  87  88
ENDBRANCH  55  80
ENDBRANCH  29  30
ENDBRANCH  21  24
ENDBRANCH  19  20
ENDBRANCH   1  19
TORSDOF 15
ENDMDL
