MODEL 1
REMARK VINA RESULT:     -12.6      0.000      0.000
REMARK SMILES C[N@H+](Cc1ccc(C(=O)NCCCNC(=O)c2ccc(-c3c4nc(c(-c5c(F)cc(S(=O)(=O)[O-])cc5F)c5ccc([nH]5)c(-c5c(F)cc(S(=O)(=O)[O-])cc5F)c5nc(c(-c6c(F)cc(S(=O)(=O)[O-])cc6F)c6ccc3[nH]6)C=C5)C=C4)cc2)cc1)[C@H]1CC(C)(C)OC1(C)C
REMARK SMILES IDX 12 1 11 2 10 3 8 4 9 5 7 7 4 8 5 9 84 10 6 11 83 12 3 13
REMARK SMILES IDX 2 14 1 15 85 17 86 18 91 19 87 20 90 21 92 22 93 23 88 24
REMARK SMILES IDX 89 25 13 26 14 27 15 28 16 30 17 31 18 32 82 33 19 34 81 35
REMARK SMILES IDX 20 36 21 37 22 38 75 39 23 40 80 41 74 42 76 43 24 44 79 45
REMARK SMILES IDX 73 46 72 47 25 49 59 50 38 51 58 52 39 53 42 54 57 55 77 56
REMARK SMILES IDX 40 57 41 58 56 60 78 61 43 62 26 63 27 64 36 65 28 66 29 67
REMARK SMILES IDX 35 68 37 69 30 70 31 71 32 72 33 73 34 74 60 75 61 76 70 77
REMARK SMILES IDX 62 78 63 79 69 80 71 81 64 82 65 83 66 84 67 85 68 86 44 87
REMARK SMILES IDX 45 88 54 89 46 90 47 91 53 92 55 93 48 94 49 95 50 96 51 97
REMARK SMILES IDX 52 98
REMARK H PARENT 10 6 2 16 14 29 76 48 42 59
REMARK Flexibility Score: inf
ROOT
ATOM      1  C   UNL A   1      38.155  23.598  26.266  1.00  0.00     0.042 C 
ENDROOT
BRANCH   1   2
ATOM      2  C   UNL A   1      37.707  22.320  25.561  1.00  0.00     0.118 C 
BRANCH   2   3
ATOM      3  N   UNL A   1      36.481  21.801  26.139  1.00  0.00    -0.352 N 
ATOM      4  C   UNL A   1      35.163  22.090  25.897  1.00  0.00     0.251 C 
ATOM      5  O   UNL A   1      34.314  21.432  26.499  1.00  0.00    -0.269 OA
ATOM      6  H   UNL A   1      36.622  21.116  26.832  1.00  0.00     0.163 HD
BRANCH   4   7
ATOM      7  C   UNL A   1      34.724  23.113  24.908  1.00  0.00     0.039 A 
ATOM      8  C   UNL A   1      33.846  25.156  23.177  1.00  0.00     0.006 A 
ATOM      9  C   UNL A   1      34.279  25.463  24.474  1.00  0.00     0.010 A 
ATOM     10  C   UNL A   1      33.900  23.832  22.740  1.00  0.00     0.010 A 
ATOM     11  C   UNL A   1      34.702  24.447  25.335  1.00  0.00     0.014 A 
ATOM     12  C   UNL A   1      34.369  22.832  23.587  1.00  0.00     0.014 A 
BRANCH   8  13
ATOM     13  C   UNL A   1      33.327  26.234  22.249  1.00  0.00     0.299 C 
BRANCH  13  14
ATOM     14  N   UNL A   1      33.130  27.556  22.833  1.00  0.00    -0.329 N 
ATOM     15  C   UNL A   1      34.146  28.541  22.468  1.00  0.00     0.333 C 
ATOM     16  H   UNL A   1      33.297  27.356  23.819  1.00  0.00     0.348 HD
BRANCH  14  17
ATOM     17  C   UNL A   1      31.741  28.083  22.900  1.00  0.00     0.218 C 
ATOM     18  C   UNL A   1      30.626  27.067  22.558  1.00  0.00     0.103 C 
ATOM     19  C   UNL A   1      31.094  28.727  24.184  1.00  0.00     0.115 C 
ATOM     20  C   UNL A   1      30.045  26.638  23.906  1.00  0.00     0.069 C 
ATOM     21  O   UNL A   1      30.423  27.642  24.865  1.00  0.00    -0.363 OA
ATOM     22  C   UNL A   1      31.968  29.444  25.215  1.00  0.00     0.048 C 
ATOM     23  C   UNL A   1      30.021  29.765  23.769  1.00  0.00     0.048 C 
ATOM     24  C   UNL A   1      28.516  26.565  23.871  1.00  0.00     0.042 C 
ATOM     25  C   UNL A   1      30.595  25.284  24.360  1.00  0.00     0.042 C 
ENDBRANCH  14  17
ENDBRANCH  13  14
ENDBRANCH   8  13
ENDBRANCH   4   7
ENDBRANCH   2   3
ENDBRANCH   1   2
BRANCH   1  26
ATOM     26  C   UNL A   1      39.503  23.463  26.958  1.00  0.00     0.118 C 
BRANCH  26  27
ATOM     27  N   UNL A   1      40.590  23.921  26.109  1.00  0.00    -0.352 N 
ATOM     28  C   UNL A   1      41.242  25.127  26.104  1.00  0.00     0.251 C 
ATOM     29  H   UNL A   1      40.904  23.271  25.440  1.00  0.00     0.163 HD
ATOM     30  O   UNL A   1      41.955  25.421  25.150  1.00  0.00    -0.269 OA
BRANCH  28  31
ATOM     31  C   UNL A   1      41.083  26.067  27.235  1.00  0.00     0.039 A 
ATOM     32  C   UNL A   1      41.850  27.236  27.252  1.00  0.00     0.014 A 
ATOM     33  C   UNL A   1      40.219  25.781  28.296  1.00  0.00     0.014 A 
ATOM     34  C   UNL A   1      41.724  28.130  28.316  1.00  0.00     0.010 A 
ATOM     35  C   UNL A   1      40.035  26.710  29.314  1.00  0.00     0.010 A 
ATOM     36  C   UNL A   1      40.802  27.884  29.345  1.00  0.00    -0.014 A 
BRANCH  36  37
ATOM     37  C   UNL A   1      40.644  28.828  30.477  1.00  0.00     0.031 A 
ATOM     38  C   UNL A   1      41.544  28.721  31.678  1.00  0.00     0.074 A 
ATOM     39  C   UNL A   1      39.658  29.744  30.444  1.00  0.00     0.049 A 
ATOM     40  N   UNL A   1      41.541  29.426  32.779  1.00  0.00    -0.248 NA
ATOM     41  C   UNL A   1      42.567  27.664  31.646  1.00  0.00     0.031 C 
ATOM     42  C   UNL A   1      38.698  29.913  29.351  1.00  0.00     0.029 A 
ATOM     43  N   UNL A   1      39.297  30.703  31.355  1.00  0.00    -0.354 N 
ATOM     44  C   UNL A   1      42.543  28.885  33.578  1.00  0.00     0.074 A 
ATOM     45  C   UNL A   1      43.096  27.760  32.856  1.00  0.00     0.031 C 
ATOM     46  C   UNL A   1      37.883  30.940  29.637  1.00  0.00     0.029 A 
ATOM     47  C   UNL A   1      38.237  31.477  30.948  1.00  0.00     0.049 A 
ATOM     48  H   UNL A   1      39.754  30.826  32.218  1.00  0.00     0.167 HD
ATOM     49  C   UNL A   1      42.976  29.302  34.792  1.00  0.00     0.037 A 
ATOM     50  C   UNL A   1      37.624  32.507  31.563  1.00  0.00     0.037 A 
ATOM     51  C   UNL A   1      42.432  30.438  35.490  1.00  0.00     0.049 A 
ATOM     52  C   UNL A   1      38.118  32.950  32.911  1.00  0.00     0.074 A 
ATOM     53  C   UNL A   1      42.839  30.987  36.693  1.00  0.00     0.029 A 
ATOM     54  N   UNL A   1      41.356  31.195  35.047  1.00  0.00    -0.354 N 
ATOM     55  N   UNL A   1      39.109  32.470  33.625  1.00  0.00    -0.248 NA
ATOM     56  C   UNL A   1      37.412  34.076  33.537  1.00  0.00     0.031 C 
ATOM     57  C   UNL A   1      41.982  32.052  36.998  1.00  0.00     0.029 A 
ATOM     58  C   UNL A   1      41.069  32.193  35.964  1.00  0.00     0.049 A 
ATOM     59  H   UNL A   1      40.869  31.045  34.206  1.00  0.00     0.167 HD
ATOM     60  C   UNL A   1      39.164  33.253  34.772  1.00  0.00     0.074 A 
ATOM     61  C   UNL A   1      38.109  34.242  34.652  1.00  0.00     0.031 C 
ATOM     62  C   UNL A   1      40.013  33.167  35.827  1.00  0.00     0.037 A 
BRANCH  49  63
ATOM     63  C   UNL A   1      44.082  28.511  35.437  1.00  0.00     0.058 A 
ATOM     64  C   UNL A   1      45.436  28.781  35.174  1.00  0.00     0.135 A 
ATOM     65  C   UNL A   1      43.788  27.458  36.318  1.00  0.00     0.135 A 
ATOM     66  F   UNL A   1      45.777  29.768  34.329  1.00  0.00    -0.206 F 
ATOM     67  C   UNL A   1      46.454  28.003  35.716  1.00  0.00     0.059 A 
ATOM     68  C   UNL A   1      44.791  26.686  36.896  1.00  0.00     0.059 A 
ATOM     69  F   UNL A   1      42.513  27.158  36.611  1.00  0.00    -0.206 F 
ATOM     70  C   UNL A   1      46.120  26.949  36.568  1.00  0.00     0.060 A 
BRANCH  70  71
ATOM     71  S   UNL A   1      47.447  25.919  37.231  1.00  0.00     0.124 S 
ATOM     72  O   UNL A   1      47.787  26.639  38.455  1.00  0.00    -0.237 OA
ATOM     73  O   UNL A   1      46.784  24.634  37.417  1.00  0.00    -0.237 OA
ATOM     74  O   UNL A   1      48.460  25.954  36.181  1.00  0.00    -0.744 OA
ENDBRANCH  70  71
ENDBRANCH  49  63
BRANCH  50  75
ATOM     75  C   UNL A   1      36.515  33.219  30.876  1.00  0.00     0.058 A 
ATOM     76  C   UNL A   1      35.198  33.106  31.345  1.00  0.00     0.135 A 
ATOM     77  C   UNL A   1      36.749  34.056  29.774  1.00  0.00     0.135 A 
ATOM     78  F   UNL A   1      34.926  32.312  32.392  1.00  0.00    -0.206 F 
ATOM     79  C   UNL A   1      34.150  33.794  30.745  1.00  0.00     0.059 A 
ATOM     80  C   UNL A   1      35.719  34.772  29.171  1.00  0.00     0.059 A 
ATOM     81  F   UNL A   1      37.994  34.211  29.299  1.00  0.00    -0.206 F 
ATOM     82  C   UNL A   1      34.422  34.632  29.662  1.00  0.00     0.060 A 
BRANCH  82  83
ATOM     83  S   UNL A   1      33.063  35.579  28.941  1.00  0.00     0.124 S 
ATOM     84  O   UNL A   1      32.282  35.920  30.124  1.00  0.00    -0.237 OA
ATOM     85  O   UNL A   1      33.768  36.685  28.299  1.00  0.00    -0.237 OA
ATOM     86  O   UNL A   1      32.442  34.628  28.025  1.00  0.00    -0.744 OA
ENDBRANCH  82  83
ENDBRANCH  50  75
BRANCH  62  87
ATOM     87  C   UNL A   1      39.854  34.185  36.921  1.00  0.00     0.058 A 
ATOM     88  C   UNL A   1      40.435  35.459  36.833  1.00  0.00     0.135 A 
ATOM     89  C   UNL A   1      39.076  33.894  38.053  1.00  0.00     0.135 A 
ATOM     90  F   UNL A   1      41.196  35.783  35.775  1.00  0.00    -0.206 F 
ATOM     91  C   UNL A   1      40.272  36.403  37.841  1.00  0.00     0.059 A 
ATOM     92  C   UNL A   1      38.876  34.832  39.061  1.00  0.00     0.059 A 
ATOM     93  F   UNL A   1      38.489  32.693  38.180  1.00  0.00    -0.206 F 
ATOM     94  C   UNL A   1      39.489  36.079  38.952  1.00  0.00     0.060 A 
BRANCH  94  95
ATOM     95  S   UNL A   1      39.259  37.321  40.242  1.00  0.00     0.124 S 
ATOM     96  O   UNL A   1      38.431  38.307  39.555  1.00  0.00    -0.237 OA
ATOM     97  O   UNL A   1      38.593  36.559  41.296  1.00  0.00    -0.237 OA
ATOM     98  O   UNL A   1      40.620  37.746  40.551  1.00  0.00    -0.744 OA
ENDBRANCH  94  95
ENDBRANCH  62  87
ENDBRANCH  36  37
ENDBRANCH  28  31
ENDBRANCH  26  27
ENDBRANCH   1  26
TORSDOF 16
ENDMDL
MODEL 2
REMARK VINA RESULT:     -12.4      6.403     12.049
REMARK SMILES C[N@H+](Cc1ccc(C(=O)NCCCNC(=O)c2ccc(-c3c4nc(c(-c5c(F)cc(S(=O)(=O)[O-])cc5F)c5ccc([nH]5)c(-c5c(F)cc(S(=O)(=O)[O-])cc5F)c5nc(c(-c6c(F)cc(S(=O)(=O)[O-])cc6F)c6ccc3[nH]6)C=C5)C=C4)cc2)cc1)[C@H]1CC(C)(C)OC1(C)C
REMARK SMILES IDX 12 1 11 2 10 3 8 4 9 5 7 7 4 8 5 9 84 10 6 11 83 12 3 13
REMARK SMILES IDX 2 14 1 15 85 17 86 18 91 19 87 20 90 21 92 22 93 23 88 24
REMARK SMILES IDX 89 25 13 26 14 27 15 28 16 30 17 31 18 32 82 33 19 34 81 35
REMARK SMILES IDX 20 36 21 37 22 38 75 39 23 40 80 41 74 42 76 43 24 44 79 45
REMARK SMILES IDX 73 46 72 47 25 49 59 50 38 51 58 52 39 53 42 54 57 55 77 56
REMARK SMILES IDX 40 57 41 58 56 60 78 61 43 62 26 63 27 64 36 65 28 66 29 67
REMARK SMILES IDX 35 68 37 69 30 70 31 71 32 72 33 73 34 74 60 75 61 76 70 77
REMARK SMILES IDX 62 78 63 79 69 80 71 81 64 82 65 83 66 84 67 85 68 86 44 87
REMARK SMILES IDX 45 88 54 89 46 90 47 91 53 92 55 93 48 94 49 95 50 96 51 97
REMARK SMILES IDX 52 98
REMARK H PARENT 10 6 2 16 14 29 76 48 42 59
REMARK Flexibility Score: inf
ROOT
ATOM      1  C   UNL A   1      34.159  31.297  27.626  1.00  0.00     0.042 C 
ENDROOT
BRANCH   1   2
ATOM      2  C   UNL A   1      33.466  30.016  27.167  1.00  0.00     0.118 C 
BRANCH   2   3
ATOM      3  N   UNL A   1      33.302  29.993  25.725  1.00  0.00    -0.352 N 
ATOM      4  C   UNL A   1      32.993  28.977  24.857  1.00  0.00     0.251 C 
ATOM      5  O   UNL A   1      32.849  29.267  23.669  1.00  0.00    -0.269 OA
ATOM      6  H   UNL A   1      33.438  30.866  25.291  1.00  0.00     0.163 HD
BRANCH   4   7
ATOM      7  C   UNL A   1      32.773  27.572  25.296  1.00  0.00     0.039 A 
ATOM      8  C   UNL A   1      32.192  24.964  26.193  1.00  0.00     0.006 A 
ATOM      9  C   UNL A   1      31.155  25.854  25.882  1.00  0.00     0.010 A 
ATOM     10  C   UNL A   1      33.514  25.371  26.007  1.00  0.00     0.010 A 
ATOM     11  C   UNL A   1      31.445  27.151  25.450  1.00  0.00     0.014 A 
ATOM     12  C   UNL A   1      33.794  26.648  25.529  1.00  0.00     0.014 A 
BRANCH   8  13
ATOM     13  C   UNL A   1      31.900  23.576  26.719  1.00  0.00     0.299 C 
BRANCH  13  14
ATOM     14  N   UNL A   1      33.005  22.623  26.691  1.00  0.00    -0.329 N 
ATOM     15  C   UNL A   1      33.591  22.332  27.998  1.00  0.00     0.333 C 
ATOM     16  H   UNL A   1      33.713  23.166  26.199  1.00  0.00     0.348 HD
BRANCH  14  17
ATOM     17  C   UNL A   1      32.887  21.452  25.782  1.00  0.00     0.218 C 
ATOM     18  C   UNL A   1      31.778  21.552  24.708  1.00  0.00     0.103 C 
ATOM     19  C   UNL A   1      34.054  20.911  24.873  1.00  0.00     0.115 C 
ATOM     20  C   UNL A   1      32.504  21.913  23.412  1.00  0.00     0.069 C 
ATOM     21  O   UNL A   1      33.889  21.572  23.597  1.00  0.00    -0.363 OA
ATOM     22  C   UNL A   1      35.513  21.090  25.296  1.00  0.00     0.048 C 
ATOM     23  C   UNL A   1      33.881  19.387  24.646  1.00  0.00     0.048 C 
ATOM     24  C   UNL A   1      31.973  21.114  22.219  1.00  0.00     0.042 C 
ATOM     25  C   UNL A   1      32.398  23.406  23.095  1.00  0.00     0.042 C 
ENDBRANCH  14  17
ENDBRANCH  13  14
ENDBRANCH   8  13
ENDBRANCH   4   7
ENDBRANCH   2   3
ENDBRANCH   1   2
BRANCH   1  26
ATOM     26  C   UNL A   1      35.534  31.054  28.230  1.00  0.00     0.118 C 
BRANCH  26  27
ATOM     27  N   UNL A   1      35.479  30.992  29.681  1.00  0.00    -0.352 N 
ATOM     28  C   UNL A   1      36.365  30.428  30.562  1.00  0.00     0.251 C 
ATOM     29  H   UNL A   1      34.692  31.417  30.091  1.00  0.00     0.163 HD
ATOM     30  O   UNL A   1      36.024  30.250  31.727  1.00  0.00    -0.269 OA
BRANCH  28  31
ATOM     31  C   UNL A   1      37.717  30.031  30.112  1.00  0.00     0.039 A 
ATOM     32  C   UNL A   1      38.650  29.617  31.066  1.00  0.00     0.014 A 
ATOM     33  C   UNL A   1      38.081  30.110  28.764  1.00  0.00     0.014 A 
ATOM     34  C   UNL A   1      39.936  29.250  30.664  1.00  0.00     0.010 A 
ATOM     35  C   UNL A   1      39.336  29.668  28.356  1.00  0.00     0.010 A 
ATOM     36  C   UNL A   1      40.282  29.255  29.304  1.00  0.00    -0.014 A 
BRANCH  36  37
ATOM     37  C   UNL A   1      41.638  28.857  28.855  1.00  0.00     0.031 A 
ATOM     38  C   UNL A   1      42.749  29.870  28.827  1.00  0.00     0.074 A 
ATOM     39  C   UNL A   1      41.851  27.599  28.425  1.00  0.00     0.049 A 
ATOM     40  N   UNL A   1      43.988  29.728  28.435  1.00  0.00    -0.248 NA
ATOM     41  C   UNL A   1      42.415  31.231  29.276  1.00  0.00     0.031 C 
ATOM     42  C   UNL A   1      40.839  26.542  28.368  1.00  0.00     0.029 A 
ATOM     43  N   UNL A   1      42.988  26.996  27.951  1.00  0.00    -0.354 N 
ATOM     44  C   UNL A   1      44.575  30.982  28.569  1.00  0.00     0.074 A 
ATOM     45  C   UNL A   1      43.540  31.883  29.027  1.00  0.00     0.031 C 
ATOM     46  C   UNL A   1      41.409  25.411  27.923  1.00  0.00     0.029 A 
ATOM     47  C   UNL A   1      42.815  25.672  27.629  1.00  0.00     0.049 A 
ATOM     48  H   UNL A   1      43.846  27.467  27.852  1.00  0.00     0.167 HD
ATOM     49  C   UNL A   1      45.862  31.343  28.349  1.00  0.00     0.037 A 
ATOM     50  C   UNL A   1      43.694  24.768  27.155  1.00  0.00     0.037 A 
ATOM     51  C   UNL A   1      46.887  30.430  27.915  1.00  0.00     0.049 A 
ATOM     52  C   UNL A   1      45.116  25.192  26.915  1.00  0.00     0.074 A 
ATOM     53  C   UNL A   1      48.236  30.674  27.726  1.00  0.00     0.029 A 
ATOM     54  N   UNL A   1      46.673  29.096  27.595  1.00  0.00    -0.354 N 
ATOM     55  N   UNL A   1      45.671  26.365  27.108  1.00  0.00    -0.248 NA
ATOM     56  C   UNL A   1      46.032  24.169  26.395  1.00  0.00     0.031 C 
ATOM     57  C   UNL A   1      48.829  29.498  27.252  1.00  0.00     0.029 A 
ATOM     58  C   UNL A   1      47.859  28.509  27.187  1.00  0.00     0.049 A 
ATOM     59  H   UNL A   1      45.805  28.635  27.650  1.00  0.00     0.167 HD
ATOM     60  C   UNL A   1      47.009  26.214  26.760  1.00  0.00     0.074 A 
ATOM     61  C   UNL A   1      47.179  24.833  26.350  1.00  0.00     0.031 C 
ATOM     62  C   UNL A   1      48.007  27.133  26.782  1.00  0.00     0.037 A 
BRANCH  49  63
ATOM     63  C   UNL A   1      46.218  32.789  28.567  1.00  0.00     0.058 A 
ATOM     64  C   UNL A   1      46.164  33.730  27.525  1.00  0.00     0.135 A 
ATOM     65  C   UNL A   1      46.636  33.239  29.830  1.00  0.00     0.135 A 
ATOM     66  F   UNL A   1      45.784  33.354  26.293  1.00  0.00    -0.206 F 
ATOM     67  C   UNL A   1      46.562  35.050  27.713  1.00  0.00     0.059 A 
ATOM     68  C   UNL A   1      47.010  34.562  30.049  1.00  0.00     0.059 A 
ATOM     69  F   UNL A   1      46.702  32.386  30.864  1.00  0.00    -0.206 F 
ATOM     70  C   UNL A   1      46.994  35.454  28.977  1.00  0.00     0.060 A 
BRANCH  70  71
ATOM     71  S   UNL A   1      47.550  37.158  29.198  1.00  0.00     0.124 S 
ATOM     72  O   UNL A   1      48.847  36.958  29.836  1.00  0.00    -0.237 OA
ATOM     73  O   UNL A   1      47.589  37.656  27.828  1.00  0.00    -0.237 OA
ATOM     74  O   UNL A   1      46.516  37.744  30.046  1.00  0.00    -0.744 OA
ENDBRANCH  70  71
ENDBRANCH  49  63
BRANCH  50  75
ATOM     75  C   UNL A   1      43.260  23.365  26.932  1.00  0.00     0.058 A 
ATOM     76  C   UNL A   1      43.038  22.885  25.633  1.00  0.00     0.135 A 
ATOM     77  C   UNL A   1      43.102  22.466  27.998  1.00  0.00     0.135 A 
ATOM     78  F   UNL A   1      43.171  23.710  24.583  1.00  0.00    -0.206 F 
ATOM     79  C   UNL A   1      42.672  21.566  25.396  1.00  0.00     0.059 A 
ATOM     80  C   UNL A   1      42.757  21.135  27.785  1.00  0.00     0.059 A 
ATOM     81  F   UNL A   1      43.320  22.872  29.259  1.00  0.00    -0.206 F 
ATOM     82  C   UNL A   1      42.541  20.695  26.480  1.00  0.00     0.060 A 
BRANCH  82  83
ATOM     83  S   UNL A   1      42.139  18.964  26.153  1.00  0.00     0.124 S 
ATOM     84  O   UNL A   1      43.087  18.637  25.095  1.00  0.00    -0.237 OA
ATOM     85  O   UNL A   1      42.388  18.342  27.449  1.00  0.00    -0.237 OA
ATOM     86  O   UNL A   1      40.737  19.017  25.751  1.00  0.00    -0.744 OA
ENDBRANCH  82  83
ENDBRANCH  50  75
BRANCH  62  87
ATOM     87  C   UNL A   1      49.378  26.666  26.378  1.00  0.00     0.058 A 
ATOM     88  C   UNL A   1      50.253  26.068  27.296  1.00  0.00     0.135 A 
ATOM     89  C   UNL A   1      49.802  26.782  25.045  1.00  0.00     0.135 A 
ATOM     90  F   UNL A   1      49.899  25.941  28.585  1.00  0.00    -0.206 F 
ATOM     91  C   UNL A   1      51.514  25.624  26.913  1.00  0.00     0.059 A 
ATOM     92  C   UNL A   1      51.048  26.320  24.633  1.00  0.00     0.059 A 
ATOM     93  F   UNL A   1      48.997  27.337  24.124  1.00  0.00    -0.206 F 
ATOM     94  C   UNL A   1      51.902  25.754  25.577  1.00  0.00     0.060 A 
BRANCH  94  95
ATOM     95  S   UNL A   1      53.530  25.148  25.084  1.00  0.00     0.124 S 
ATOM     96  O   UNL A   1      53.349  23.704  25.189  1.00  0.00    -0.237 OA
ATOM     97  O   UNL A   1      53.662  25.673  23.727  1.00  0.00    -0.237 OA
ATOM     98  O   UNL A   1      54.427  25.744  26.069  1.00  0.00    -0.744 OA
ENDBRANCH  94  95
ENDBRANCH  62  87
ENDBRANCH  36  37
ENDBRANCH  28  31
ENDBRANCH  26  27
ENDBRANCH   1  26
TORSDOF 16
ENDMDL
MODEL 3
REMARK VINA RESULT:     -12.2      6.591     11.705
REMARK SMILES C[N@H+](Cc1ccc(C(=O)NCCCNC(=O)c2ccc(-c3c4nc(c(-c5c(F)cc(S(=O)(=O)[O-])cc5F)c5ccc([nH]5)c(-c5c(F)cc(S(=O)(=O)[O-])cc5F)c5nc(c(-c6c(F)cc(S(=O)(=O)[O-])cc6F)c6ccc3[nH]6)C=C5)C=C4)cc2)cc1)[C@H]1CC(C)(C)OC1(C)C
REMARK SMILES IDX 12 1 11 2 10 3 8 4 9 5 7 7 4 8 5 9 84 10 6 11 83 12 3 13
REMARK SMILES IDX 2 14 1 15 85 17 86 18 91 19 87 20 90 21 92 22 93 23 88 24
REMARK SMILES IDX 89 25 13 26 14 27 15 28 16 30 17 31 18 32 82 33 19 34 81 35
REMARK SMILES IDX 20 36 21 37 22 38 75 39 23 40 80 41 74 42 76 43 24 44 79 45
REMARK SMILES IDX 73 46 72 47 25 49 59 50 38 51 58 52 39 53 42 54 57 55 77 56
REMARK SMILES IDX 40 57 41 58 56 60 78 61 43 62 26 63 27 64 36 65 28 66 29 67
REMARK SMILES IDX 35 68 37 69 30 70 31 71 32 72 33 73 34 74 60 75 61 76 70 77
REMARK SMILES IDX 62 78 63 79 69 80 71 81 64 82 65 83 66 84 67 85 68 86 44 87
REMARK SMILES IDX 45 88 54 89 46 90 47 91 53 92 55 93 48 94 49 95 50 96 51 97
REMARK SMILES IDX 52 98
REMARK H PARENT 10 6 2 16 14 29 76 48 42 59
REMARK Flexibility Score: inf
ROOT
ATOM      1  C   UNL A   1      34.989  29.668  27.383  1.00  0.00     0.042 C 
ENDROOT
BRANCH   1   2
ATOM      2  C   UNL A   1      33.551  30.045  27.031  1.00  0.00     0.118 C 
BRANCH   2   3
ATOM      3  N   UNL A   1      33.328  29.992  25.598  1.00  0.00    -0.352 N 
ATOM      4  C   UNL A   1      32.992  28.956  24.764  1.00  0.00     0.251 C 
ATOM      5  O   UNL A   1      32.797  29.221  23.577  1.00  0.00    -0.269 OA
ATOM      6  H   UNL A   1      33.439  30.857  25.142  1.00  0.00     0.163 HD
BRANCH   4   7
ATOM      7  C   UNL A   1      32.802  27.558  25.240  1.00  0.00     0.039 A 
ATOM      8  C   UNL A   1      32.289  24.969  26.226  1.00  0.00     0.006 A 
ATOM      9  C   UNL A   1      31.240  25.880  26.048  1.00  0.00     0.010 A 
ATOM     10  C   UNL A   1      33.583  25.346  25.865  1.00  0.00     0.010 A 
ATOM     11  C   UNL A   1      31.497  27.168  25.571  1.00  0.00     0.014 A 
ATOM     12  C   UNL A   1      33.825  26.613  25.344  1.00  0.00     0.014 A 
BRANCH   8  13
ATOM     13  C   UNL A   1      32.040  23.590  26.798  1.00  0.00     0.299 C 
BRANCH  13  14
ATOM     14  N   UNL A   1      33.153  22.649  26.738  1.00  0.00    -0.329 N 
ATOM     15  C   UNL A   1      33.791  22.379  28.025  1.00  0.00     0.333 C 
ATOM     16  H   UNL A   1      33.836  23.195  26.214  1.00  0.00     0.348 HD
BRANCH  14  17
ATOM     17  C   UNL A   1      33.014  21.467  25.846  1.00  0.00     0.218 C 
ATOM     18  C   UNL A   1      31.871  21.549  24.807  1.00  0.00     0.103 C 
ATOM     19  C   UNL A   1      34.155  20.923  24.906  1.00  0.00     0.115 C 
ATOM     20  C   UNL A   1      32.552  21.900  23.485  1.00  0.00     0.069 C 
ATOM     21  O   UNL A   1      33.945  21.569  23.629  1.00  0.00    -0.363 OA
ATOM     22  C   UNL A   1      35.625  21.116  25.281  1.00  0.00     0.048 C 
ATOM     23  C   UNL A   1      33.985  19.396  24.702  1.00  0.00     0.048 C 
ATOM     24  C   UNL A   1      31.989  21.084  22.318  1.00  0.00     0.042 C 
ATOM     25  C   UNL A   1      32.427  23.388  23.155  1.00  0.00     0.042 C 
ENDBRANCH  14  17
ENDBRANCH  13  14
ENDBRANCH   8  13
ENDBRANCH   4   7
ENDBRANCH   2   3
ENDBRANCH   1   2
BRANCH   1  26
ATOM     26  C   UNL A   1      35.729  30.759  28.142  1.00  0.00     0.118 C 
BRANCH  26  27
ATOM     27  N   UNL A   1      35.663  30.552  29.579  1.00  0.00    -0.352 N 
ATOM     28  C   UNL A   1      36.562  29.937  30.411  1.00  0.00     0.251 C 
ATOM     29  H   UNL A   1      34.857  30.906  30.019  1.00  0.00     0.163 HD
ATOM     30  O   UNL A   1      36.217  29.632  31.549  1.00  0.00    -0.269 OA
BRANCH  28  31
ATOM     31  C   UNL A   1      37.932  29.636  29.942  1.00  0.00     0.039 A 
ATOM     32  C   UNL A   1      38.223  29.772  28.581  1.00  0.00     0.014 A 
ATOM     33  C   UNL A   1      38.914  29.178  30.826  1.00  0.00     0.014 A 
ATOM     34  C   UNL A   1      39.506  29.481  28.115  1.00  0.00     0.010 A 
ATOM     35  C   UNL A   1      40.212  28.965  30.374  1.00  0.00     0.010 A 
ATOM     36  C   UNL A   1      40.515  29.094  29.011  1.00  0.00    -0.014 A 
BRANCH  36  37
ATOM     37  C   UNL A   1      41.888  28.793  28.538  1.00  0.00     0.031 A 
ATOM     38  C   UNL A   1      42.238  27.403  28.080  1.00  0.00     0.074 A 
ATOM     39  C   UNL A   1      42.827  29.757  28.571  1.00  0.00     0.049 A 
ATOM     40  N   UNL A   1      43.387  26.934  27.668  1.00  0.00    -0.248 NA
ATOM     41  C   UNL A   1      41.160  26.402  28.117  1.00  0.00     0.031 C 
ATOM     42  C   UNL A   1      42.613  31.130  29.034  1.00  0.00     0.029 A 
ATOM     43  N   UNL A   1      44.150  29.729  28.212  1.00  0.00    -0.354 N 
ATOM     44  C   UNL A   1      43.176  25.582  27.416  1.00  0.00     0.074 A 
ATOM     45  C   UNL A   1      41.803  25.297  27.775  1.00  0.00     0.031 C 
ATOM     46  C   UNL A   1      43.753  31.823  28.894  1.00  0.00     0.029 A 
ATOM     47  C   UNL A   1      44.787  30.937  28.368  1.00  0.00     0.049 A 
ATOM     48  H   UNL A   1      44.600  28.923  27.874  1.00  0.00     0.167 HD
ATOM     49  C   UNL A   1      44.040  24.669  26.913  1.00  0.00     0.037 A 
ATOM     50  C   UNL A   1      46.062  31.289  28.111  1.00  0.00     0.037 A 
ATOM     51  C   UNL A   1      45.397  24.971  26.538  1.00  0.00     0.049 A 
ATOM     52  C   UNL A   1      47.005  30.258  27.557  1.00  0.00     0.074 A 
ATOM     53  C   UNL A   1      46.338  24.139  25.958  1.00  0.00     0.029 A 
ATOM     54  N   UNL A   1      46.008  26.205  26.716  1.00  0.00    -0.354 N 
ATOM     55  N   UNL A   1      46.772  29.001  27.263  1.00  0.00    -0.248 NA
ATOM     56  C   UNL A   1      48.383  30.695  27.297  1.00  0.00     0.031 C 
ATOM     57  C   UNL A   1      47.531  24.859  25.822  1.00  0.00     0.029 A 
ATOM     58  C   UNL A   1      47.321  26.152  26.278  1.00  0.00     0.049 A 
ATOM     59  H   UNL A   1      45.572  27.001  27.096  1.00  0.00     0.167 HD
ATOM     60  C   UNL A   1      47.967  28.502  26.757  1.00  0.00     0.074 A 
ATOM     61  C   UNL A   1      48.918  29.597  26.780  1.00  0.00     0.031 C 
ATOM     62  C   UNL A   1      48.252  27.253  26.310  1.00  0.00     0.037 A 
BRANCH  49  63
ATOM     63  C   UNL A   1      43.537  23.259  26.755  1.00  0.00     0.058 A 
ATOM     64  C   UNL A   1      43.359  22.408  27.859  1.00  0.00     0.135 A 
ATOM     65  C   UNL A   1      43.245  22.744  25.482  1.00  0.00     0.135 A 
ATOM     66  F   UNL A   1      43.636  22.842  29.099  1.00  0.00    -0.206 F 
ATOM     67  C   UNL A   1      42.963  21.083  27.702  1.00  0.00     0.059 A 
ATOM     68  C   UNL A   1      42.817  21.431  25.304  1.00  0.00     0.059 A 
ATOM     69  F   UNL A   1      43.391  23.512  24.391  1.00  0.00    -0.206 F 
ATOM     70  C   UNL A   1      42.705  20.601  26.419  1.00  0.00     0.060 A 
BRANCH  70  71
ATOM     71  S   UNL A   1      42.233  18.868  26.224  1.00  0.00     0.124 S 
ATOM     72  O   UNL A   1      43.189  18.420  25.216  1.00  0.00    -0.237 OA
ATOM     73  O   UNL A   1      42.434  18.335  27.567  1.00  0.00    -0.237 OA
ATOM     74  O   UNL A   1      40.844  18.943  25.783  1.00  0.00    -0.744 OA
ENDBRANCH  70  71
ENDBRANCH  49  63
BRANCH  50  75
ATOM     75  C   UNL A   1      46.494  32.695  28.324  1.00  0.00     0.058 A 
ATOM     76  C   UNL A   1      46.316  33.655  27.317  1.00  0.00     0.135 A 
ATOM     77  C   UNL A   1      47.047  33.117  29.542  1.00  0.00     0.135 A 
ATOM     78  F   UNL A   1      45.796  33.295  26.134  1.00  0.00    -0.206 F 
ATOM     79  C   UNL A   1      46.673  34.984  27.507  1.00  0.00     0.059 A 
ATOM     80  C   UNL A   1      47.393  34.448  29.763  1.00  0.00     0.059 A 
ATOM     81  F   UNL A   1      47.221  32.241  30.543  1.00  0.00    -0.206 F 
ATOM     82  C   UNL A   1      47.205  35.373  28.738  1.00  0.00     0.060 A 
BRANCH  82  83
ATOM     83  S   UNL A   1      47.595  37.118  28.998  1.00  0.00     0.124 S 
ATOM     84  O   UNL A   1      46.268  37.688  29.201  1.00  0.00    -0.237 OA
ATOM     85  O   UNL A   1      48.455  37.067  30.175  1.00  0.00    -0.237 OA
ATOM     86  O   UNL A   1      48.264  37.499  27.759  1.00  0.00    -0.744 OA
ENDBRANCH  82  83
ENDBRANCH  50  75
BRANCH  62  87
ATOM     87  C   UNL A   1      49.639  27.013  25.782  1.00  0.00     0.058 A 
ATOM     88  C   UNL A   1      50.665  26.522  26.603  1.00  0.00     0.135 A 
ATOM     89  C   UNL A   1      49.931  27.239  24.427  1.00  0.00     0.135 A 
ATOM     90  F   UNL A   1      50.439  26.299  27.907  1.00  0.00    -0.206 F 
ATOM     91  C   UNL A   1      51.942  26.287  26.105  1.00  0.00     0.059 A 
ATOM     92  C   UNL A   1      51.194  26.984  23.901  1.00  0.00     0.059 A 
ATOM     93  F   UNL A   1      48.981  27.698  23.597  1.00  0.00    -0.206 F 
ATOM     94  C   UNL A   1      52.196  26.521  24.751  1.00  0.00     0.060 A 
BRANCH  94  95
ATOM     95  S   UNL A   1      53.850  26.185  24.109  1.00  0.00     0.124 S 
ATOM     96  O   UNL A   1      54.595  27.341  24.596  1.00  0.00    -0.237 OA
ATOM     97  O   UNL A   1      54.178  24.909  24.739  1.00  0.00    -0.237 OA
ATOM     98  O   UNL A   1      53.648  26.129  22.664  1.00  0.00    -0.744 OA
ENDBRANCH  94  95
ENDBRANCH  62  87
ENDBRANCH  36  37
ENDBRANCH  28  31
ENDBRANCH  26  27
ENDBRANCH   1  26
TORSDOF 16
ENDMDL
