MODEL 1
REMARK VINA RESULT:     -14.1      0.000      0.000
REMARK SMILES CC1(C)S[C@@H]2c3ccccc3C(=O)N2[C@H]1C(=O)N[C@H](Cc1c[nH]c2ccccc12)C(=O)NCCCNC(=O)c1ccc(-c2c3nc(c(-c4c(F)cc(S(=O)(=O)[O-])cc4F)c4ccc([nH]4)c(-c4c(F)cc(S(=O)(=O)[O-])cc4F)c4nc(c(-c5c(F)cc(S(=O)(=O)[O-])cc5F)c5ccc2[nH]5)C=C4)C=C3)cc1
REMARK SMILES IDX 34 1 33 2 32 3 30 4 31 5 19 7 18 8 16 9 17 10 15 12 1 13
REMARK SMILES IDX 2 14 3 15 4 16 5 17 14 18 6 19 12 20 7 21 11 22 13 23 8 24
REMARK SMILES IDX 10 25 9 26 20 27 21 28 22 29 29 30 23 31 24 32 28 33 25 35
REMARK SMILES IDX 27 36 26 37 35 38 36 39 37 40 38 42 39 43 40 44 104 45 41 46
REMARK SMILES IDX 103 47 42 48 43 49 44 50 97 51 45 52 102 53 96 54 98 55
REMARK SMILES IDX 46 56 101 57 95 58 94 59 47 61 81 62 60 63 80 64 61 65 64 66
REMARK SMILES IDX 79 67 99 68 62 69 63 70 78 72 100 73 65 74 48 75 49 76 58 77
REMARK SMILES IDX 50 78 51 79 57 80 59 81 52 82 53 83 54 84 55 85 56 86 82 87
REMARK SMILES IDX 83 88 92 89 84 90 85 91 91 92 93 93 86 94 87 95 88 96 89 97
REMARK SMILES IDX 90 98 66 99 67 100 76 101 68 102 69 103 75 104 77 105 70 106
REMARK SMILES IDX 71 107 72 108 73 109 74 110
REMARK H PARENT 32 6 18 11 23 34 36 41 98 60 64 71
REMARK Flexibility Score: inf
ROOT
ATOM      1  C   UNL A   1      33.655  29.554  27.260  1.00  0.00     0.042 C 
ENDROOT
BRANCH   1   2
ATOM      2  C   UNL A   1      33.169  28.113  27.151  1.00  0.00     0.117 C 
BRANCH   2   3
ATOM      3  N   UNL A   1      33.452  27.460  25.878  1.00  0.00    -0.354 N 
ATOM      4  C   UNL A   1      32.785  26.506  25.168  1.00  0.00     0.242 C 
ATOM      5  O   UNL A   1      33.226  26.194  24.059  1.00  0.00    -0.273 OA
ATOM      6  H   UNL A   1      34.283  27.768  25.449  1.00  0.00     0.163 HD
BRANCH   4   7
ATOM      7  C   UNL A   1      31.573  25.785  25.752  1.00  0.00     0.175 C 
BRANCH   7   8
ATOM      8  N   UNL A   1      32.033  24.449  26.323  1.00  0.00    -0.342 N 
ATOM      9  C   UNL A   1      32.709  23.295  26.106  1.00  0.00     0.244 C 
ATOM     10  O   UNL A   1      32.603  22.528  27.085  1.00  0.00    -0.273 OA
ATOM     11  H   UNL A   1      31.690  24.404  27.244  1.00  0.00     0.164 HD
BRANCH   9  12
ATOM     12  C   UNL A   1      33.523  22.742  24.879  1.00  0.00     0.191 C 
ATOM     13  C   UNL A   1      35.509  24.126  25.779  1.00  0.00     0.026 C 
ATOM     14  C   UNL A   1      35.048  23.033  24.818  1.00  0.00     0.042 C 
ATOM     15  C   UNL A   1      35.488  23.410  23.388  1.00  0.00     0.026 C 
ATOM     16  S   UNL A   1      35.883  21.401  25.135  1.00  0.00    -0.123 SA
ATOM     17  C   UNL A   1      34.374  20.476  25.081  1.00  0.00     0.176 C 
ATOM     18  N   UNL A   1      33.369  21.331  24.564  1.00  0.00    -0.309 N 
ATOM     19  C   UNL A   1      34.178  19.189  24.388  1.00  0.00    -0.002 A 
ATOM     20  C   UNL A   1      32.631  20.719  23.569  1.00  0.00     0.256 C 
ATOM     21  C   UNL A   1      34.668  17.947  24.762  1.00  0.00     0.007 A 
ATOM     22  C   UNL A   1      33.081  19.306  23.530  1.00  0.00     0.046 A 
ATOM     23  O   UNL A   1      31.796  21.217  22.840  1.00  0.00    -0.269 OA
ATOM     24  C   UNL A   1      34.039  16.815  24.245  1.00  0.00     0.000 A 
ATOM     25  C   UNL A   1      32.486  18.198  22.959  1.00  0.00     0.014 A 
ATOM     26  C   UNL A   1      32.972  16.939  23.337  1.00  0.00     0.001 A 
ENDBRANCH   9  12
ENDBRANCH   7   8
BRANCH   7  27
ATOM     27  C   UNL A   1      30.493  25.671  24.724  1.00  0.00     0.072 C 
BRANCH  27  28
ATOM     28  C   UNL A   1      29.580  26.626  24.005  1.00  0.00    -0.020 A 
ATOM     29  C   UNL A   1      28.234  26.268  23.983  1.00  0.00     0.087 A 
ATOM     30  C   UNL A   1      29.624  27.889  23.305  1.00  0.00     0.003 A 
ATOM     31  N   UNL A   1      27.502  27.387  23.775  1.00  0.00    -0.361 N 
ATOM     32  C   UNL A   1      28.287  28.279  23.103  1.00  0.00     0.046 A 
ATOM     33  C   UNL A   1      30.602  28.772  22.797  1.00  0.00     0.010 A 
ATOM     34  H   UNL A   1      26.570  27.532  24.058  1.00  0.00     0.166 HD
ATOM     35  C   UNL A   1      27.873  29.394  22.371  1.00  0.00     0.026 A 
ATOM     36  C   UNL A   1      30.204  29.885  22.021  1.00  0.00     0.001 A 
ATOM     37  C   UNL A   1      28.861  30.172  21.790  1.00  0.00     0.002 A 
ENDBRANCH  27  28
ENDBRANCH   7  27
ENDBRANCH   4   7
ENDBRANCH   2   3
ENDBRANCH   1   2
BRANCH   1  38
ATOM     38  C   UNL A   1      35.112  29.702  27.664  1.00  0.00     0.118 C 
BRANCH  38  39
ATOM     39  N   UNL A   1      35.259  30.458  28.899  1.00  0.00    -0.352 N 
ATOM     40  C   UNL A   1      36.320  30.542  29.766  1.00  0.00     0.251 C 
ATOM     41  H   UNL A   1      34.474  30.995  29.153  1.00  0.00     0.163 HD
ATOM     42  O   UNL A   1      36.157  31.058  30.868  1.00  0.00    -0.269 OA
BRANCH  40  43
ATOM     43  C   UNL A   1      37.641  29.994  29.387  1.00  0.00     0.039 A 
ATOM     44  C   UNL A   1      38.563  29.604  30.359  1.00  0.00     0.014 A 
ATOM     45  C   UNL A   1      37.953  29.851  28.032  1.00  0.00     0.014 A 
ATOM     46  C   UNL A   1      39.851  29.239  29.984  1.00  0.00     0.010 A 
ATOM     47  C   UNL A   1      39.219  29.390  27.655  1.00  0.00     0.010 A 
ATOM     48  C   UNL A   1      40.197  29.128  28.627  1.00  0.00    -0.014 A 
BRANCH  48  49
ATOM     49  C   UNL A   1      41.584  28.744  28.254  1.00  0.00     0.031 A 
ATOM     50  C   UNL A   1      42.696  29.760  28.282  1.00  0.00     0.074 A 
ATOM     51  C   UNL A   1      41.852  27.463  27.931  1.00  0.00     0.049 A 
ATOM     52  N   UNL A   1      43.967  29.595  28.020  1.00  0.00    -0.248 NA
ATOM     53  C   UNL A   1      42.336  31.139  28.647  1.00  0.00     0.031 C 
ATOM     54  C   UNL A   1      40.860  26.388  27.865  1.00  0.00     0.029 A 
ATOM     55  N   UNL A   1      43.035  26.842  27.618  1.00  0.00    -0.354 N 
ATOM     56  C   UNL A   1      44.554  30.847  28.167  1.00  0.00     0.074 A 
ATOM     57  C   UNL A   1      43.493  31.771  28.508  1.00  0.00     0.031 C 
ATOM     58  C   UNL A   1      41.480  25.234  27.577  1.00  0.00     0.029 A 
ATOM     59  C   UNL A   1      42.901  25.496  27.375  1.00  0.00     0.049 A 
ATOM     60  H   UNL A   1      43.896  27.316  27.572  1.00  0.00     0.167 HD
ATOM     61  C   UNL A   1      45.858  31.192  28.044  1.00  0.00     0.037 A 
ATOM     62  C   UNL A   1      43.815  24.572  27.014  1.00  0.00     0.037 A 
ATOM     63  C   UNL A   1      46.911  30.264  27.724  1.00  0.00     0.049 A 
ATOM     64  C   UNL A   1      45.249  24.987  26.847  1.00  0.00     0.074 A 
ATOM     65  C   UNL A   1      48.270  30.509  27.626  1.00  0.00     0.029 A 
ATOM     66  N   UNL A   1      46.729  28.918  27.440  1.00  0.00    -0.354 N 
ATOM     67  N   UNL A   1      45.791  26.165  27.036  1.00  0.00    -0.248 NA
ATOM     68  C   UNL A   1      46.196  23.950  26.415  1.00  0.00     0.031 C 
ATOM     69  C   UNL A   1      48.901  29.328  27.223  1.00  0.00     0.029 A 
ATOM     70  C   UNL A   1      47.945  28.330  27.130  1.00  0.00     0.049 A 
ATOM     71  H   UNL A   1      45.862  28.450  27.455  1.00  0.00     0.167 HD
ATOM     72  C   UNL A   1      47.143  26.012  26.751  1.00  0.00     0.074 A 
ATOM     73  C   UNL A   1      47.340  24.619  26.402  1.00  0.00     0.031 C 
ATOM     74  C   UNL A   1      48.129  26.943  26.773  1.00  0.00     0.037 A 
BRANCH  61  75
ATOM     75  C   UNL A   1      46.226  32.639  28.241  1.00  0.00     0.058 A 
ATOM     76  C   UNL A   1      46.166  33.569  27.191  1.00  0.00     0.135 A 
ATOM     77  C   UNL A   1      46.593  33.111  29.513  1.00  0.00     0.135 A 
ATOM     78  F   UNL A   1      45.835  33.173  25.952  1.00  0.00    -0.206 F 
ATOM     79  C   UNL A   1      46.480  34.911  27.390  1.00  0.00     0.059 A 
ATOM     80  C   UNL A   1      46.883  34.454  29.740  1.00  0.00     0.059 A 
ATOM     81  F   UNL A   1      46.666  32.265  30.553  1.00  0.00    -0.206 F 
ATOM     82  C   UNL A   1      46.835  35.343  28.669  1.00  0.00     0.060 A 
BRANCH  82  83
ATOM     83  S   UNL A   1      47.231  37.089  28.904  1.00  0.00     0.124 S 
ATOM     84  O   UNL A   1      48.660  37.104  28.610  1.00  0.00    -0.237 OA
ATOM     85  O   UNL A   1      46.374  37.735  27.915  1.00  0.00    -0.237 OA
ATOM     86  O   UNL A   1      46.873  37.336  30.298  1.00  0.00    -0.744 OA
ENDBRANCH  82  83
ENDBRANCH  61  75
BRANCH  62  87
ATOM     87  C   UNL A   1      43.379  23.169  26.786  1.00  0.00     0.058 A 
ATOM     88  C   UNL A   1      43.333  22.625  25.495  1.00  0.00     0.135 A 
ATOM     89  C   UNL A   1      43.061  22.326  27.864  1.00  0.00     0.135 A 
ATOM     90  F   UNL A   1      43.619  23.392  24.433  1.00  0.00    -0.206 F 
ATOM     91  C   UNL A   1      42.994  21.293  25.279  1.00  0.00     0.059 A 
ATOM     92  C   UNL A   1      42.747  20.984  27.675  1.00  0.00     0.059 A 
ATOM     93  F   UNL A   1      43.101  22.795  29.121  1.00  0.00    -0.206 F 
ATOM     94  C   UNL A   1      42.716  20.476  26.378  1.00  0.00     0.060 A 
BRANCH  94  95
ATOM     95  S   UNL A   1      42.365  18.730  26.088  1.00  0.00     0.124 S 
ATOM     96  O   UNL A   1      40.956  18.769  25.713  1.00  0.00    -0.237 OA
ATOM     97  O   UNL A   1      43.303  18.408  25.015  1.00  0.00    -0.237 OA
ATOM     98  O   UNL A   1      42.660  18.108  27.375  1.00  0.00    -0.744 OA
ENDBRANCH  94  95
ENDBRANCH  62  87
BRANCH  74  99
ATOM     99  C   UNL A   1      49.520  26.498  26.408  1.00  0.00     0.058 A 
ATOM    100  C   UNL A   1      50.043  26.710  25.123  1.00  0.00     0.135 A 
ATOM    101  C   UNL A   1      50.365  25.928  27.375  1.00  0.00     0.135 A 
ATOM    102  F   UNL A   1      49.276  27.242  24.159  1.00  0.00    -0.206 F 
ATOM    103  C   UNL A   1      51.353  26.363  24.807  1.00  0.00     0.059 A 
ATOM    104  C   UNL A   1      51.686  25.601  27.088  1.00  0.00     0.059 A 
ATOM    105  F   UNL A   1      49.917  25.713  28.622  1.00  0.00    -0.206 F 
ATOM    106  C   UNL A   1      52.170  25.817  25.799  1.00  0.00     0.060 A 
BRANCH 106 107
ATOM    107  S   UNL A   1      53.881  25.420  25.382  1.00  0.00     0.124 S 
ATOM    108  O   UNL A   1      53.935  23.994  25.688  1.00  0.00    -0.237 OA
ATOM    109  O   UNL A   1      53.944  25.768  23.967  1.00  0.00    -0.237 OA
ATOM    110  O   UNL A   1      54.656  26.281  26.270  1.00  0.00    -0.744 OA
ENDBRANCH 106 107
ENDBRANCH  74  99
ENDBRANCH  48  49
ENDBRANCH  40  43
ENDBRANCH  38  39
ENDBRANCH   1  38
TORSDOF 17
ENDMDL
MODEL 2
REMARK VINA RESULT:     -14.0      1.783      4.509
REMARK SMILES CC1(C)S[C@@H]2c3ccccc3C(=O)N2[C@H]1C(=O)N[C@H](Cc1c[nH]c2ccccc12)C(=O)NCCCNC(=O)c1ccc(-c2c3nc(c(-c4c(F)cc(S(=O)(=O)[O-])cc4F)c4ccc([nH]4)c(-c4c(F)cc(S(=O)(=O)[O-])cc4F)c4nc(c(-c5c(F)cc(S(=O)(=O)[O-])cc5F)c5ccc2[nH]5)C=C4)C=C3)cc1
REMARK SMILES IDX 34 1 33 2 32 3 30 4 31 5 19 7 18 8 16 9 17 10 15 12 1 13
REMARK SMILES IDX 2 14 3 15 4 16 5 17 14 18 6 19 12 20 7 21 11 22 13 23 8 24
REMARK SMILES IDX 10 25 9 26 20 27 21 28 22 29 29 30 23 31 24 32 28 33 25 35
REMARK SMILES IDX 27 36 26 37 35 38 36 39 37 40 38 42 39 43 40 44 104 45 41 46
REMARK SMILES IDX 103 47 42 48 43 49 44 50 97 51 45 52 102 53 96 54 98 55
REMARK SMILES IDX 46 56 101 57 95 58 94 59 47 61 81 62 60 63 80 64 61 65 64 66
REMARK SMILES IDX 79 67 99 68 62 69 63 70 78 72 100 73 65 74 48 75 49 76 58 77
REMARK SMILES IDX 50 78 51 79 57 80 59 81 52 82 53 83 54 84 55 85 56 86 82 87
REMARK SMILES IDX 83 88 92 89 84 90 85 91 91 92 93 93 86 94 87 95 88 96 89 97
REMARK SMILES IDX 90 98 66 99 67 100 76 101 68 102 69 103 75 104 77 105 70 106
REMARK SMILES IDX 71 107 72 108 73 109 74 110
REMARK H PARENT 32 6 18 11 23 34 36 41 98 60 64 71
REMARK Flexibility Score: inf
ROOT
ATOM      1  C   UNL A   1      34.368  31.422  27.922  1.00  0.00     0.042 C 
ENDROOT
BRANCH   1   2
ATOM      2  C   UNL A   1      34.244  29.996  27.398  1.00  0.00     0.117 C 
BRANCH   2   3
ATOM      3  N   UNL A   1      32.925  29.392  27.556  1.00  0.00    -0.354 N 
ATOM      4  C   UNL A   1      32.433  28.165  27.226  1.00  0.00     0.242 C 
ATOM      5  O   UNL A   1      31.276  27.895  27.559  1.00  0.00    -0.273 OA
ATOM      6  H   UNL A   1      32.266  29.984  27.984  1.00  0.00     0.163 HD
BRANCH   4   7
ATOM      7  C   UNL A   1      33.253  27.177  26.401  1.00  0.00     0.175 C 
BRANCH   7   8
ATOM      8  N   UNL A   1      33.755  27.888  25.151  1.00  0.00    -0.342 N 
ATOM      9  C   UNL A   1      33.612  28.075  23.817  1.00  0.00     0.244 C 
ATOM     10  O   UNL A   1      34.515  28.813  23.372  1.00  0.00    -0.273 OA
ATOM     11  H   UNL A   1      34.508  28.455  25.434  1.00  0.00     0.164 HD
BRANCH   9  12
ATOM     12  C   UNL A   1      32.594  27.512  22.757  1.00  0.00     0.191 C 
ATOM     13  C   UNL A   1      33.978  25.334  22.822  1.00  0.00     0.026 C 
ATOM     14  C   UNL A   1      32.683  26.008  22.379  1.00  0.00     0.042 C 
ATOM     15  C   UNL A   1      32.508  25.801  20.861  1.00  0.00     0.026 C 
ATOM     16  S   UNL A   1      31.172  25.216  23.123  1.00  0.00    -0.123 SA
ATOM     17  C   UNL A   1      30.451  26.757  23.612  1.00  0.00     0.176 C 
ATOM     18  N   UNL A   1      31.185  27.790  22.979  1.00  0.00    -0.309 N 
ATOM     19  C   UNL A   1      29.034  27.135  23.447  1.00  0.00    -0.002 A 
ATOM     20  C   UNL A   1      30.357  28.719  22.377  1.00  0.00     0.256 C 
ATOM     21  C   UNL A   1      27.945  26.652  24.156  1.00  0.00     0.007 A 
ATOM     22  C   UNL A   1      28.973  28.355  22.769  1.00  0.00     0.046 A 
ATOM     23  O   UNL A   1      30.668  29.640  21.648  1.00  0.00    -0.269 OA
ATOM     24  C   UNL A   1      26.779  27.417  24.163  1.00  0.00     0.000 A 
ATOM     25  C   UNL A   1      27.809  29.095  22.712  1.00  0.00     0.014 A 
ATOM     26  C   UNL A   1      26.705  28.617  23.432  1.00  0.00     0.001 A 
ENDBRANCH   9  12
ENDBRANCH   7   8
BRANCH   7  27
ATOM     27  C   UNL A   1      32.451  25.944  26.123  1.00  0.00     0.072 C 
BRANCH  27  28
ATOM     28  C   UNL A   1      32.656  24.463  26.280  1.00  0.00    -0.020 A 
ATOM     29  C   UNL A   1      31.565  23.756  26.781  1.00  0.00     0.087 A 
ATOM     30  C   UNL A   1      33.659  23.450  26.047  1.00  0.00     0.003 A 
ATOM     31  N   UNL A   1      31.693  22.461  26.409  1.00  0.00    -0.361 N 
ATOM     32  C   UNL A   1      33.022  22.209  26.231  1.00  0.00     0.046 A 
ATOM     33  C   UNL A   1      35.029  23.391  25.709  1.00  0.00     0.010 A 
ATOM     34  H   UNL A   1      30.958  21.817  26.288  1.00  0.00     0.166 HD
ATOM     35  C   UNL A   1      33.655  20.964  26.203  1.00  0.00     0.026 A 
ATOM     36  C   UNL A   1      35.696  22.144  25.712  1.00  0.00     0.001 A 
ATOM     37  C   UNL A   1      35.024  20.955  25.983  1.00  0.00     0.002 A 
ENDBRANCH  27  28
ENDBRANCH   7  27
ENDBRANCH   4   7
ENDBRANCH   2   3
ENDBRANCH   1   2
BRANCH   1  38
ATOM     38  C   UNL A   1      35.637  31.699  28.710  1.00  0.00     0.118 C 
BRANCH  38  39
ATOM     39  N   UNL A   1      35.569  31.154  30.058  1.00  0.00    -0.352 N 
ATOM     40  C   UNL A   1      36.460  30.363  30.740  1.00  0.00     0.251 C 
ATOM     41  H   UNL A   1      34.756  31.390  30.560  1.00  0.00     0.163 HD
ATOM     42  O   UNL A   1      36.108  29.826  31.787  1.00  0.00    -0.269 OA
BRANCH  40  43
ATOM     43  C   UNL A   1      37.821  30.138  30.208  1.00  0.00     0.039 A 
ATOM     44  C   UNL A   1      38.054  30.066  28.833  1.00  0.00     0.014 A 
ATOM     45  C   UNL A   1      38.888  30.016  31.103  1.00  0.00     0.014 A 
ATOM     46  C   UNL A   1      39.310  29.702  28.362  1.00  0.00     0.010 A 
ATOM     47  C   UNL A   1      40.173  29.745  30.620  1.00  0.00     0.010 A 
ATOM     48  C   UNL A   1      40.386  29.536  29.249  1.00  0.00    -0.014 A 
BRANCH  48  49
ATOM     49  C   UNL A   1      41.716  29.136  28.718  1.00  0.00     0.031 A 
ATOM     50  C   UNL A   1      42.845  30.130  28.647  1.00  0.00     0.074 A 
ATOM     51  C   UNL A   1      41.921  27.858  28.341  1.00  0.00     0.049 A 
ATOM     52  N   UNL A   1      44.077  29.948  28.244  1.00  0.00    -0.248 NA
ATOM     53  C   UNL A   1      42.556  31.507  29.078  1.00  0.00     0.031 C 
ATOM     54  C   UNL A   1      40.905  26.803  28.360  1.00  0.00     0.029 A 
ATOM     55  N   UNL A   1      43.049  27.222  27.887  1.00  0.00    -0.354 N 
ATOM     56  C   UNL A   1      44.702  31.185  28.353  1.00  0.00     0.074 A 
ATOM     57  C   UNL A   1      43.704  32.120  28.827  1.00  0.00     0.031 C 
ATOM     58  C   UNL A   1      41.466  25.645  27.982  1.00  0.00     0.029 A 
ATOM     59  C   UNL A   1      42.862  25.885  27.633  1.00  0.00     0.049 A 
ATOM     60  H   UNL A   1      43.910  27.681  27.757  1.00  0.00     0.167 HD
ATOM     61  C   UNL A   1      45.992  31.509  28.095  1.00  0.00     0.037 A 
ATOM     62  C   UNL A   1      43.712  24.954  27.154  1.00  0.00     0.037 A 
ATOM     63  C   UNL A   1      46.985  30.569  27.643  1.00  0.00     0.049 A 
ATOM     64  C   UNL A   1      45.127  25.345  26.840  1.00  0.00     0.074 A 
ATOM     65  C   UNL A   1      48.330  30.792  27.402  1.00  0.00     0.029 A 
ATOM     66  N   UNL A   1      46.745  29.234  27.351  1.00  0.00    -0.354 N 
ATOM     67  N   UNL A   1      45.712  26.509  26.994  1.00  0.00    -0.248 NA
ATOM     68  C   UNL A   1      46.000  24.302  26.286  1.00  0.00     0.031 C 
ATOM     69  C   UNL A   1      48.888  29.609  26.908  1.00  0.00     0.029 A 
ATOM     70  C   UNL A   1      47.907  28.631  26.898  1.00  0.00     0.049 A 
ATOM     71  H   UNL A   1      45.875  28.781  27.451  1.00  0.00     0.167 HD
ATOM     72  C   UNL A   1      47.021  26.337  26.560  1.00  0.00     0.074 A 
ATOM     73  C   UNL A   1      47.150  24.950  26.162  1.00  0.00     0.031 C 
ATOM     74  C   UNL A   1      48.023  27.249  26.494  1.00  0.00     0.037 A 
BRANCH  61  75
ATOM     75  C   UNL A   1      46.409  32.944  28.282  1.00  0.00     0.058 A 
ATOM     76  C   UNL A   1      46.969  33.403  29.485  1.00  0.00     0.135 A 
ATOM     77  C   UNL A   1      46.296  33.860  27.222  1.00  0.00     0.135 A 
ATOM     78  F   UNL A   1      47.089  32.576  30.536  1.00  0.00    -0.206 F 
ATOM     79  C   UNL A   1      47.378  34.724  29.639  1.00  0.00     0.059 A 
ATOM     80  C   UNL A   1      46.726  35.178  27.345  1.00  0.00     0.059 A 
ATOM     81  F   UNL A   1      45.769  33.475  26.049  1.00  0.00    -0.206 F 
ATOM     82  C   UNL A   1      47.255  35.603  28.562  1.00  0.00     0.060 A 
BRANCH  82  83
ATOM     83  S   UNL A   1      47.800  37.310  28.782  1.00  0.00     0.124 S 
ATOM     84  O   UNL A   1      46.569  38.045  28.511  1.00  0.00    -0.237 OA
ATOM     85  O   UNL A   1      48.246  37.314  30.171  1.00  0.00    -0.237 OA
ATOM     86  O   UNL A   1      48.855  37.463  27.785  1.00  0.00    -0.744 OA
ENDBRANCH  82  83
ENDBRANCH  61  75
BRANCH  62  87
ATOM     87  C   UNL A   1      43.225  23.564  26.945  1.00  0.00     0.058 A 
ATOM     88  C   UNL A   1      42.969  23.071  25.658  1.00  0.00     0.135 A 
ATOM     89  C   UNL A   1      43.067  22.682  28.027  1.00  0.00     0.135 A 
ATOM     90  F   UNL A   1      43.096  23.877  24.593  1.00  0.00    -0.206 F 
ATOM     91  C   UNL A   1      42.580  21.752  25.449  1.00  0.00     0.059 A 
ATOM     92  C   UNL A   1      42.707  21.352  27.841  1.00  0.00     0.059 A 
ATOM     93  F   UNL A   1      43.311  23.102  29.279  1.00  0.00    -0.206 F 
ATOM     94  C   UNL A   1      42.465  20.896  26.546  1.00  0.00     0.060 A 
BRANCH  94  95
ATOM     95  S   UNL A   1      42.047  19.165  26.250  1.00  0.00     0.124 S 
ATOM     96  O   UNL A   1      42.981  18.813  25.187  1.00  0.00    -0.237 OA
ATOM     97  O   UNL A   1      42.309  18.564  27.555  1.00  0.00    -0.237 OA
ATOM     98  O   UNL A   1      40.641  19.219  25.864  1.00  0.00    -0.744 OA
ENDBRANCH  94  95
ENDBRANCH  62  87
BRANCH  74  99
ATOM     99  C   UNL A   1      49.356  26.788  25.971  1.00  0.00     0.058 A 
ATOM    100  C   UNL A   1      49.763  27.066  24.656  1.00  0.00     0.135 A 
ATOM    101  C   UNL A   1      50.268  26.133  26.814  1.00  0.00     0.135 A 
ATOM    102  F   UNL A   1      48.927  27.681  23.805  1.00  0.00    -0.206 F 
ATOM    103  C   UNL A   1      51.023  26.701  24.194  1.00  0.00     0.059 A 
ATOM    104  C   UNL A   1      51.544  25.785  26.382  1.00  0.00     0.059 A 
ATOM    105  F   UNL A   1      49.932  25.851  28.084  1.00  0.00    -0.206 F 
ATOM    106  C   UNL A   1      51.910  26.068  25.068  1.00  0.00     0.060 A 
BRANCH 106 107
ATOM    107  S   UNL A   1      53.560  25.648  24.465  1.00  0.00     0.124 S 
ATOM    108  O   UNL A   1      53.694  24.267  24.914  1.00  0.00    -0.237 OA
ATOM    109  O   UNL A   1      53.420  25.837  23.025  1.00  0.00    -0.237 OA
ATOM    110  O   UNL A   1      54.424  26.613  25.138  1.00  0.00    -0.744 OA
ENDBRANCH 106 107
ENDBRANCH  74  99
ENDBRANCH  48  49
ENDBRANCH  40  43
ENDBRANCH  38  39
ENDBRANCH   1  38
TORSDOF 17
ENDMDL
MODEL 3
REMARK VINA RESULT:     -13.9      2.566      3.230
REMARK SMILES CC1(C)S[C@@H]2c3ccccc3C(=O)N2[C@H]1C(=O)N[C@H](Cc1c[nH]c2ccccc12)C(=O)NCCCNC(=O)c1ccc(-c2c3nc(c(-c4c(F)cc(S(=O)(=O)[O-])cc4F)c4ccc([nH]4)c(-c4c(F)cc(S(=O)(=O)[O-])cc4F)c4nc(c(-c5c(F)cc(S(=O)(=O)[O-])cc5F)c5ccc2[nH]5)C=C4)C=C3)cc1
REMARK SMILES IDX 34 1 33 2 32 3 30 4 31 5 19 7 18 8 16 9 17 10 15 12 1 13
REMARK SMILES IDX 2 14 3 15 4 16 5 17 14 18 6 19 12 20 7 21 11 22 13 23 8 24
REMARK SMILES IDX 10 25 9 26 20 27 21 28 22 29 29 30 23 31 24 32 28 33 25 35
REMARK SMILES IDX 27 36 26 37 35 38 36 39 37 40 38 42 39 43 40 44 104 45 41 46
REMARK SMILES IDX 103 47 42 48 43 49 44 50 97 51 45 52 102 53 96 54 98 55
REMARK SMILES IDX 46 56 101 57 95 58 94 59 47 61 81 62 60 63 80 64 61 65 64 66
REMARK SMILES IDX 79 67 99 68 62 69 63 70 78 72 100 73 65 74 48 75 49 76 58 77
REMARK SMILES IDX 50 78 51 79 57 80 59 81 52 82 53 83 54 84 55 85 56 86 82 87
REMARK SMILES IDX 83 88 92 89 84 90 85 91 91 92 93 93 86 94 87 95 88 96 89 97
REMARK SMILES IDX 90 98 66 99 67 100 76 101 68 102 69 103 75 104 77 105 70 106
REMARK SMILES IDX 71 107 72 108 73 109 74 110
REMARK H PARENT 32 6 18 11 23 34 36 41 98 60 64 71
REMARK Flexibility Score: inf
ROOT
ATOM      1  C   UNL A   1      32.957  28.070  25.877  1.00  0.00     0.042 C 
ENDROOT
BRANCH   1   2
ATOM      2  C   UNL A   1      33.985  27.519  24.896  1.00  0.00     0.117 C 
BRANCH   2   3
ATOM      3  N   UNL A   1      33.451  26.613  23.885  1.00  0.00    -0.354 N 
ATOM      4  C   UNL A   1      32.329  25.840  23.847  1.00  0.00     0.242 C 
ATOM      5  O   UNL A   1      32.085  25.223  22.807  1.00  0.00    -0.273 OA
ATOM      6  H   UNL A   1      34.007  26.548  23.076  1.00  0.00     0.163 HD
BRANCH   4   7
ATOM      7  C   UNL A   1      31.437  25.675  25.075  1.00  0.00     0.175 C 
BRANCH   7   8
ATOM      8  N   UNL A   1      31.784  24.356  25.753  1.00  0.00    -0.342 N 
ATOM      9  C   UNL A   1      32.452  23.180  25.673  1.00  0.00     0.244 C 
ATOM     10  O   UNL A   1      32.201  22.458  26.660  1.00  0.00    -0.273 OA
ATOM     11  H   UNL A   1      31.325  24.358  26.623  1.00  0.00     0.164 HD
BRANCH   9  12
ATOM     12  C   UNL A   1      33.403  22.557  24.584  1.00  0.00     0.191 C 
ATOM     13  C   UNL A   1      35.250  24.075  25.560  1.00  0.00     0.026 C 
ATOM     14  C   UNL A   1      34.918  22.894  24.653  1.00  0.00     0.042 C 
ATOM     15  C   UNL A   1      35.494  23.169  23.248  1.00  0.00     0.026 C 
ATOM     16  S   UNL A   1      35.756  21.322  25.189  1.00  0.00    -0.123 SA
ATOM     17  C   UNL A   1      34.285  20.345  25.060  1.00  0.00     0.176 C 
ATOM     18  N   UNL A   1      33.318  21.121  24.375  1.00  0.00    -0.309 N 
ATOM     19  C   UNL A   1      34.194  19.001  24.461  1.00  0.00    -0.002 A 
ATOM     20  C   UNL A   1      32.702  20.406  23.365  1.00  0.00     0.256 C 
ATOM     21  C   UNL A   1      34.675  17.810  24.985  1.00  0.00     0.007 A 
ATOM     22  C   UNL A   1      33.190  19.011  23.490  1.00  0.00     0.046 A 
ATOM     23  O   UNL A   1      31.934  20.816  22.517  1.00  0.00    -0.269 OA
ATOM     24  C   UNL A   1      34.132  16.619  24.504  1.00  0.00     0.000 A 
ATOM     25  C   UNL A   1      32.685  17.841  22.956  1.00  0.00     0.014 A 
ATOM     26  C   UNL A   1      33.161  16.634  23.486  1.00  0.00     0.001 A 
ENDBRANCH   9  12
ENDBRANCH   7   8
BRANCH   7  27
ATOM     27  C   UNL A   1      29.998  25.804  24.689  1.00  0.00     0.072 C 
BRANCH  27  28
ATOM     28  C   UNL A   1      29.166  26.803  23.934  1.00  0.00    -0.020 A 
ATOM     29  C   UNL A   1      27.798  26.542  23.899  1.00  0.00     0.087 A 
ATOM     30  C   UNL A   1      29.310  28.043  23.207  1.00  0.00     0.003 A 
ATOM     31  N   UNL A   1      27.150  27.705  23.654  1.00  0.00    -0.361 N 
ATOM     32  C   UNL A   1      28.007  28.523  22.975  1.00  0.00     0.046 A 
ATOM     33  C   UNL A   1      30.355  28.842  22.695  1.00  0.00     0.010 A 
ATOM     34  H   UNL A   1      26.227  27.922  23.919  1.00  0.00     0.166 HD
ATOM     35  C   UNL A   1      27.683  29.646  22.212  1.00  0.00     0.026 A 
ATOM     36  C   UNL A   1      30.049  29.962  21.888  1.00  0.00     0.001 A 
ATOM     37  C   UNL A   1      28.734  30.339  21.629  1.00  0.00     0.002 A 
ENDBRANCH  27  28
ENDBRANCH   7  27
ENDBRANCH   4   7
ENDBRANCH   2   3
ENDBRANCH   1   2
BRANCH   1  38
ATOM     38  C   UNL A   1      33.504  28.373  27.262  1.00  0.00     0.118 C 
BRANCH  38  39
ATOM     39  N   UNL A   1      33.471  29.798  27.560  1.00  0.00    -0.352 N 
ATOM     40  C   UNL A   1      34.421  30.605  28.135  1.00  0.00     0.251 C 
ATOM     41  H   UNL A   1      32.636  30.255  27.309  1.00  0.00     0.163 HD
ATOM     42  O   UNL A   1      34.107  31.734  28.504  1.00  0.00    -0.269 OA
BRANCH  40  43
ATOM     43  C   UNL A   1      35.801  30.113  28.333  1.00  0.00     0.039 A 
ATOM     44  C   UNL A   1      36.199  29.556  29.549  1.00  0.00     0.014 A 
ATOM     45  C   UNL A   1      36.709  30.194  27.273  1.00  0.00     0.014 A 
ATOM     46  C   UNL A   1      37.537  29.243  29.762  1.00  0.00     0.010 A 
ATOM     47  C   UNL A   1      38.034  29.787  27.460  1.00  0.00     0.010 A 
ATOM     48  C   UNL A   1      38.472  29.356  28.721  1.00  0.00    -0.014 A 
BRANCH  48  49
ATOM     49  C   UNL A   1      39.898  29.024  28.980  1.00  0.00     0.031 A 
ATOM     50  C   UNL A   1      40.804  30.011  29.669  1.00  0.00     0.074 A 
ATOM     51  C   UNL A   1      40.369  27.810  28.632  1.00  0.00     0.049 A 
ATOM     52  N   UNL A   1      42.062  29.878  30.003  1.00  0.00    -0.248 NA
ATOM     53  C   UNL A   1      40.227  31.316  30.026  1.00  0.00     0.031 C 
ATOM     54  C   UNL A   1      39.591  26.769  27.956  1.00  0.00     0.029 A 
ATOM     55  N   UNL A   1      41.602  27.235  28.812  1.00  0.00    -0.354 N 
ATOM     56  C   UNL A   1      42.432  31.084  30.589  1.00  0.00     0.074 A 
ATOM     57  C   UNL A   1      41.275  31.951  30.533  1.00  0.00     0.031 C 
ATOM     58  C   UNL A   1      40.348  25.671  27.819  1.00  0.00     0.029 A 
ATOM     59  C   UNL A   1      41.683  25.948  28.339  1.00  0.00     0.049 A 
ATOM     60  H   UNL A   1      42.355  27.702  29.240  1.00  0.00     0.167 HD
ATOM     61  C   UNL A   1      43.622  31.431  31.135  1.00  0.00     0.037 A 
ATOM     62  C   UNL A   1      42.720  25.086  28.309  1.00  0.00     0.037 A 
ATOM     63  C   UNL A   1      44.764  30.556  31.205  1.00  0.00     0.049 A 
ATOM     64  C   UNL A   1      44.040  25.507  28.888  1.00  0.00     0.074 A 
ATOM     65  C   UNL A   1      45.998  30.801  31.784  1.00  0.00     0.029 A 
ATOM     66  N   UNL A   1      44.822  29.276  30.672  1.00  0.00    -0.354 N 
ATOM     67  N   UNL A   1      44.357  26.634  29.479  1.00  0.00    -0.248 NA
ATOM     68  C   UNL A   1      45.146  24.545  28.794  1.00  0.00     0.031 C 
ATOM     69  C   UNL A   1      46.819  29.694  31.548  1.00  0.00     0.029 A 
ATOM     70  C   UNL A   1      46.080  28.733  30.876  1.00  0.00     0.049 A 
ATOM     71  H   UNL A   1      44.077  28.820  30.216  1.00  0.00     0.167 HD
ATOM     72  C   UNL A   1      45.696  26.515  29.831  1.00  0.00     0.074 A 
ATOM     73  C   UNL A   1      46.122  25.196  29.411  1.00  0.00     0.031 C 
ATOM     74  C   UNL A   1      46.499  27.421  30.444  1.00  0.00     0.037 A 
BRANCH  61  75
ATOM     75  C   UNL A   1      43.763  32.823  31.692  1.00  0.00     0.058 A 
ATOM     76  C   UNL A   1      43.491  33.114  33.038  1.00  0.00     0.135 A 
ATOM     77  C   UNL A   1      44.227  33.870  30.878  1.00  0.00     0.135 A 
ATOM     78  F   UNL A   1      43.031  32.156  33.859  1.00  0.00    -0.206 F 
ATOM     79  C   UNL A   1      43.651  34.398  33.551  1.00  0.00     0.059 A 
ATOM     80  C   UNL A   1      44.422  35.155  31.377  1.00  0.00     0.059 A 
ATOM     81  F   UNL A   1      44.504  33.648  29.583  1.00  0.00    -0.206 F 
ATOM     82  C   UNL A   1      44.120  35.410  32.713  1.00  0.00     0.060 A 
BRANCH  82  83
ATOM     83  S   UNL A   1      44.328  37.066  33.402  1.00  0.00     0.124 S 
ATOM     84  O   UNL A   1      42.949  37.421  33.725  1.00  0.00    -0.237 OA
ATOM     85  O   UNL A   1      45.200  36.817  34.545  1.00  0.00    -0.237 OA
ATOM     86  O   UNL A   1      44.930  37.820  32.307  1.00  0.00    -0.744 OA
ENDBRANCH  82  83
ENDBRANCH  61  75
BRANCH  62  87
ATOM     87  C   UNL A   1      42.531  23.742  27.701  1.00  0.00     0.058 A 
ATOM     88  C   UNL A   1      42.627  23.554  26.315  1.00  0.00     0.135 A 
ATOM     89  C   UNL A   1      42.312  22.609  28.502  1.00  0.00     0.135 A 
ATOM     90  F   UNL A   1      42.825  24.606  25.507  1.00  0.00    -0.206 F 
ATOM     91  C   UNL A   1      42.520  22.290  25.744  1.00  0.00     0.059 A 
ATOM     92  C   UNL A   1      42.231  21.332  27.957  1.00  0.00     0.059 A 
ATOM     93  F   UNL A   1      42.224  22.735  29.836  1.00  0.00    -0.206 F 
ATOM     94  C   UNL A   1      42.336  21.183  26.575  1.00  0.00     0.060 A 
BRANCH  94  95
ATOM     95  S   UNL A   1      42.289  19.540  25.828  1.00  0.00     0.124 S 
ATOM     96  O   UNL A   1      40.901  19.453  25.391  1.00  0.00    -0.237 OA
ATOM     97  O   UNL A   1      43.286  19.664  24.767  1.00  0.00    -0.237 OA
ATOM     98  O   UNL A   1      42.662  18.658  26.929  1.00  0.00    -0.744 OA
ENDBRANCH  94  95
ENDBRANCH  62  87
BRANCH  74  99
ATOM     99  C   UNL A   1      47.928  27.027  30.703  1.00  0.00     0.058 A 
ATOM    100  C   UNL A   1      48.945  27.315  29.779  1.00  0.00     0.135 A 
ATOM    101  C   UNL A   1      48.297  26.430  31.919  1.00  0.00     0.135 A 
ATOM    102  F   UNL A   1      48.647  27.876  28.597  1.00  0.00    -0.206 F 
ATOM    103  C   UNL A   1      50.277  27.014  30.049  1.00  0.00     0.059 A 
ATOM    104  C   UNL A   1      49.625  26.148  32.222  1.00  0.00     0.059 A 
ATOM    105  F   UNL A   1      47.363  26.142  32.841  1.00  0.00    -0.206 F 
ATOM    106  C   UNL A   1      50.608  26.438  31.278  1.00  0.00     0.060 A 
BRANCH 106 107
ATOM    107  S   UNL A   1      52.347  26.102  31.630  1.00  0.00     0.124 S 
ATOM    108  O   UNL A   1      52.977  26.454  30.362  1.00  0.00    -0.237 OA
ATOM    109  O   UNL A   1      52.616  27.004  32.745  1.00  0.00    -0.237 OA
ATOM    110  O   UNL A   1      52.358  24.681  31.963  1.00  0.00    -0.744 OA
ENDBRANCH 106 107
ENDBRANCH  74  99
ENDBRANCH  48  49
ENDBRANCH  40  43
ENDBRANCH  38  39
ENDBRANCH   1  38
TORSDOF 17
ENDMDL
