MODEL 1
REMARK VINA RESULT:     -11.1      0.000      0.000
REMARK SMILES COC(=O)C[C@H](NC(=O)N[C@H]1CCCC1(C)C)C(=O)NCCCNC(=O)c1ccc(-c2c3nc(c(-c4c(F)cc(S(=O)(=O)[O-])cc4F)c4ccc([nH]4)c(-c4c(F)cc(S(=O)(=O)[O-])cc4F)c4nc(c(-c5c(F)cc(S(=O)(=O)[O-])cc5F)c5ccc2[nH]5)C=C4)C=C3)cc1
REMARK SMILES IDX 22 1 21 2 20 3 18 4 19 5 6 7 5 8 3 9 4 10 2 11 1 12 7 13
REMARK SMILES IDX 8 14 9 16 10 17 11 19 12 20 15 21 13 22 14 23 16 24 17 25
REMARK SMILES IDX 23 26 24 27 25 28 26 30 27 31 28 32 92 33 29 34 91 35 30 36
REMARK SMILES IDX 31 37 32 38 85 39 33 40 90 41 84 42 86 43 34 44 89 45 83 46
REMARK SMILES IDX 82 47 35 49 69 50 48 51 68 52 49 53 52 54 67 55 87 56 50 57
REMARK SMILES IDX 51 58 66 60 88 61 53 62 36 63 37 64 46 65 38 66 39 67 45 68
REMARK SMILES IDX 47 69 40 70 41 71 42 72 43 73 44 74 70 75 71 76 80 77 72 78
REMARK SMILES IDX 73 79 79 80 81 81 74 82 75 83 76 84 77 85 78 86 54 87 55 88
REMARK SMILES IDX 64 89 56 90 57 91 63 92 65 93 58 94 59 95 60 96 61 97 62 98
REMARK H PARENT 20 6 7 15 10 18 24 29 86 48 52 59
REMARK Flexibility Score: inf
ROOT
ATOM      1  C   UNL A   1      32.537  28.103  27.003  1.00  0.00     0.042 C 
ENDROOT
BRANCH   1   2
ATOM      2  C   UNL A   1      32.601  26.726  26.364  1.00  0.00     0.117 C 
BRANCH   2   3
ATOM      3  N   UNL A   1      31.399  26.095  25.868  1.00  0.00    -0.354 N 
ATOM      4  C   UNL A   1      31.257  25.430  24.679  1.00  0.00     0.243 C 
ATOM      5  O   UNL A   1      30.695  24.330  24.682  1.00  0.00    -0.273 OA
ATOM      6  H   UNL A   1      30.601  26.148  26.443  1.00  0.00     0.163 HD
BRANCH   4   7
ATOM      7  C   UNL A   1      31.774  26.009  23.357  1.00  0.00     0.184 C 
BRANCH   7   8
ATOM      8  C   UNL A   1      30.697  26.910  22.711  1.00  0.00     0.157 C 
BRANCH   8   9
ATOM      9  C   UNL A   1      30.892  28.395  22.952  1.00  0.00     0.308 C 
ATOM     10  O   UNL A   1      31.251  28.872  24.010  1.00  0.00    -0.252 OA
BRANCH   9  11
ATOM     11  O   UNL A   1      30.545  29.115  21.845  1.00  0.00    -0.469 OA
ATOM     12  C   UNL A   1      29.436  30.017  22.003  1.00  0.00     0.282 C 
ENDBRANCH   9  11
ENDBRANCH   8   9
ENDBRANCH   7   8
BRANCH   7  13
ATOM     13  N   UNL A   1      32.311  25.029  22.423  1.00  0.00    -0.326 N 
ATOM     14  C   UNL A   1      33.201  24.044  22.488  1.00  0.00     0.315 C 
ATOM     15  H   UNL A   1      31.921  25.120  21.524  1.00  0.00     0.166 HD
ATOM     16  O   UNL A   1      33.421  23.455  21.423  1.00  0.00    -0.249 OA
ATOM     17  N   UNL A   1      33.731  23.488  23.575  1.00  0.00    -0.335 N 
ATOM     18  H   UNL A   1      33.531  22.524  23.594  1.00  0.00     0.165 HD
BRANCH  17  19
ATOM     19  C   UNL A   1      34.530  23.865  24.767  1.00  0.00     0.089 C 
ATOM     20  C   UNL A   1      34.017  23.389  26.129  1.00  0.00     0.025 C 
ATOM     21  C   UNL A   1      35.937  23.132  24.763  1.00  0.00    -0.015 C 
ATOM     22  C   UNL A   1      34.438  21.931  26.284  1.00  0.00     0.003 C 
ATOM     23  C   UNL A   1      35.620  21.733  25.341  1.00  0.00     0.008 C 
ATOM     24  C   UNL A   1      36.621  22.993  23.395  1.00  0.00     0.013 C 
ATOM     25  C   UNL A   1      36.936  23.847  25.702  1.00  0.00     0.013 C 
ENDBRANCH  17  19
ENDBRANCH   7  13
ENDBRANCH   4   7
ENDBRANCH   2   3
ENDBRANCH   1   2
BRANCH   1  26
ATOM     26  C   UNL A   1      33.713  29.041  26.840  1.00  0.00     0.118 C 
BRANCH  26  27
ATOM     27  N   UNL A   1      33.660  30.241  27.653  1.00  0.00    -0.352 N 
ATOM     28  C   UNL A   1      34.640  30.836  28.406  1.00  0.00     0.251 C 
ATOM     29  H   UNL A   1      32.788  30.699  27.665  1.00  0.00     0.163 HD
ATOM     30  O   UNL A   1      34.408  31.889  28.994  1.00  0.00    -0.269 OA
BRANCH  28  31
ATOM     31  C   UNL A   1      35.945  30.166  28.574  1.00  0.00     0.039 A 
ATOM     32  C   UNL A   1      36.817  30.157  27.482  1.00  0.00     0.014 A 
ATOM     33  C   UNL A   1      36.335  29.612  29.796  1.00  0.00     0.014 A 
ATOM     34  C   UNL A   1      38.120  29.687  27.643  1.00  0.00     0.010 A 
ATOM     35  C   UNL A   1      37.656  29.202  29.972  1.00  0.00     0.010 A 
ATOM     36  C   UNL A   1      38.566  29.257  28.902  1.00  0.00    -0.014 A 
BRANCH  36  37
ATOM     37  C   UNL A   1      39.992  28.913  29.131  1.00  0.00     0.031 A 
ATOM     38  C   UNL A   1      40.955  29.958  29.614  1.00  0.00     0.074 A 
ATOM     39  C   UNL A   1      40.432  27.677  28.821  1.00  0.00     0.049 A 
ATOM     40  N   UNL A   1      42.250  29.873  29.780  1.00  0.00    -0.248 NA
ATOM     41  C   UNL A   1      40.391  31.279  29.927  1.00  0.00     0.031 C 
ATOM     42  C   UNL A   1      39.600  26.592  28.297  1.00  0.00     0.029 A 
ATOM     43  N   UNL A   1      41.690  27.130  28.878  1.00  0.00    -0.354 N 
ATOM     44  C   UNL A   1      42.660  31.133  30.200  1.00  0.00     0.074 A 
ATOM     45  C   UNL A   1      41.481  31.973  30.222  1.00  0.00     0.031 C 
ATOM     46  C   UNL A   1      40.368  25.513  28.079  1.00  0.00     0.029 A 
ATOM     47  C   UNL A   1      41.752  25.838  28.411  1.00  0.00     0.049 A 
ATOM     48  H   UNL A   1      42.475  27.617  29.221  1.00  0.00     0.167 HD
ATOM     49  C   UNL A   1      43.902  31.545  30.549  1.00  0.00     0.037 A 
ATOM     50  C   UNL A   1      42.805  25.014  28.246  1.00  0.00     0.037 A 
ATOM     51  C   UNL A   1      45.065  30.696  30.534  1.00  0.00     0.049 A 
ATOM     52  C   UNL A   1      44.176  25.487  28.642  1.00  0.00     0.074 A 
ATOM     53  C   UNL A   1      46.358  31.001  30.923  1.00  0.00     0.029 A 
ATOM     54  N   UNL A   1      45.080  29.379  30.095  1.00  0.00    -0.354 N 
ATOM     55  N   UNL A   1      44.537  26.659  29.109  1.00  0.00    -0.248 NA
ATOM     56  C   UNL A   1      45.282  24.531  28.501  1.00  0.00     0.031 C 
ATOM     57  C   UNL A   1      47.162  29.882  30.679  1.00  0.00     0.029 A 
ATOM     58  C   UNL A   1      46.363  28.864  30.184  1.00  0.00     0.049 A 
ATOM     59  H   UNL A   1      44.294  28.885  29.769  1.00  0.00     0.167 HD
ATOM     60  C   UNL A   1      45.904  26.574  29.337  1.00  0.00     0.074 A 
ATOM     61  C   UNL A   1      46.308  25.234  28.962  1.00  0.00     0.031 C 
ATOM     62  C   UNL A   1      46.747  27.522  29.815  1.00  0.00     0.037 A 
BRANCH  49  63
ATOM     63  C   UNL A   1      44.060  32.982  30.963  1.00  0.00     0.058 A 
ATOM     64  C   UNL A   1      44.377  33.987  30.035  1.00  0.00     0.135 A 
ATOM     65  C   UNL A   1      43.899  33.360  32.306  1.00  0.00     0.135 A 
ATOM     66  F   UNL A   1      44.553  33.680  28.740  1.00  0.00    -0.206 F 
ATOM     67  C   UNL A   1      44.583  35.305  30.431  1.00  0.00     0.059 A 
ATOM     68  C   UNL A   1      44.070  34.678  32.720  1.00  0.00     0.059 A 
ATOM     69  F   UNL A   1      43.589  32.442  33.236  1.00  0.00    -0.206 F 
ATOM     70  C   UNL A   1      44.437  35.638  31.779  1.00  0.00     0.060 A 
BRANCH  70  71
ATOM     71  S   UNL A   1      44.750  37.342  32.285  1.00  0.00     0.124 S 
ATOM     72  O   UNL A   1      46.106  37.242  32.815  1.00  0.00    -0.237 OA
ATOM     73  O   UNL A   1      44.614  38.073  31.029  1.00  0.00    -0.237 OA
ATOM     74  O   UNL A   1      43.707  37.600  33.273  1.00  0.00    -0.744 OA
ENDBRANCH  70  71
ENDBRANCH  49  63
BRANCH  50  75
ATOM     75  C   UNL A   1      42.587  23.655  27.681  1.00  0.00     0.058 A 
ATOM     76  C   UNL A   1      42.619  23.430  26.298  1.00  0.00     0.135 A 
ATOM     77  C   UNL A   1      42.402  22.543  28.520  1.00  0.00     0.135 A 
ATOM     78  F   UNL A   1      42.785  24.462  25.455  1.00  0.00    -0.206 F 
ATOM     79  C   UNL A   1      42.479  22.154  25.763  1.00  0.00     0.059 A 
ATOM     80  C   UNL A   1      42.282  21.255  28.009  1.00  0.00     0.059 A 
ATOM     81  F   UNL A   1      42.381  22.703  29.851  1.00  0.00    -0.206 F 
ATOM     82  C   UNL A   1      42.319  21.070  26.628  1.00  0.00     0.060 A 
BRANCH  82  83
ATOM     83  S   UNL A   1      42.230  19.407  25.929  1.00  0.00     0.124 S 
ATOM     84  O   UNL A   1      43.056  19.544  24.735  1.00  0.00    -0.237 OA
ATOM     85  O   UNL A   1      42.791  18.592  27.003  1.00  0.00    -0.237 OA
ATOM     86  O   UNL A   1      40.802  19.218  25.693  1.00  0.00    -0.744 OA
ENDBRANCH  82  83
ENDBRANCH  50  75
BRANCH  62  87
ATOM     87  C   UNL A   1      48.192  27.147  29.997  1.00  0.00     0.058 A 
ATOM     88  C   UNL A   1      49.156  27.432  29.018  1.00  0.00     0.135 A 
ATOM     89  C   UNL A   1      48.630  26.587  31.208  1.00  0.00     0.135 A 
ATOM     90  F   UNL A   1      48.787  27.958  27.840  1.00  0.00    -0.206 F 
ATOM     91  C   UNL A   1      50.506  27.175  29.234  1.00  0.00     0.059 A 
ATOM     92  C   UNL A   1      49.978  26.344  31.454  1.00  0.00     0.059 A 
ATOM     93  F   UNL A   1      47.748  26.301  32.179  1.00  0.00    -0.206 F 
ATOM     94  C   UNL A   1      50.908  26.640  30.460  1.00  0.00     0.060 A 
BRANCH  94  95
ATOM     95  S   UNL A   1      52.671  26.386  30.757  1.00  0.00     0.124 S 
ATOM     96  O   UNL A   1      53.044  27.637  31.408  1.00  0.00    -0.237 OA
ATOM     97  O   UNL A   1      52.678  25.202  31.610  1.00  0.00    -0.237 OA
ATOM     98  O   UNL A   1      53.217  26.189  29.418  1.00  0.00    -0.744 OA
ENDBRANCH  94  95
ENDBRANCH  62  87
ENDBRANCH  36  37
ENDBRANCH  28  31
ENDBRANCH  26  27
ENDBRANCH   1  26
TORSDOF 18
ENDMDL
MODEL 2
REMARK VINA RESULT:     -10.9      1.180      2.086
REMARK SMILES COC(=O)C[C@H](NC(=O)N[C@H]1CCCC1(C)C)C(=O)NCCCNC(=O)c1ccc(-c2c3nc(c(-c4c(F)cc(S(=O)(=O)[O-])cc4F)c4ccc([nH]4)c(-c4c(F)cc(S(=O)(=O)[O-])cc4F)c4nc(c(-c5c(F)cc(S(=O)(=O)[O-])cc5F)c5ccc2[nH]5)C=C4)C=C3)cc1
REMARK SMILES IDX 22 1 21 2 20 3 18 4 19 5 6 7 5 8 3 9 4 10 2 11 1 12 7 13
REMARK SMILES IDX 8 14 9 16 10 17 11 19 12 20 15 21 13 22 14 23 16 24 17 25
REMARK SMILES IDX 23 26 24 27 25 28 26 30 27 31 28 32 92 33 29 34 91 35 30 36
REMARK SMILES IDX 31 37 32 38 85 39 33 40 90 41 84 42 86 43 34 44 89 45 83 46
REMARK SMILES IDX 82 47 35 49 69 50 48 51 68 52 49 53 52 54 67 55 87 56 50 57
REMARK SMILES IDX 51 58 66 60 88 61 53 62 36 63 37 64 46 65 38 66 39 67 45 68
REMARK SMILES IDX 47 69 40 70 41 71 42 72 43 73 44 74 70 75 71 76 80 77 72 78
REMARK SMILES IDX 73 79 79 80 81 81 74 82 75 83 76 84 77 85 78 86 54 87 55 88
REMARK SMILES IDX 64 89 56 90 57 91 63 92 65 93 58 94 59 95 60 96 61 97 62 98
REMARK H PARENT 20 6 7 15 10 18 24 29 86 48 52 59
REMARK Flexibility Score: inf
ROOT
ATOM      1  C   UNL A   1      33.803  28.276  25.869  1.00  0.00     0.042 C 
ENDROOT
BRANCH   1   2
ATOM      2  C   UNL A   1      32.711  27.878  24.889  1.00  0.00     0.117 C 
BRANCH   2   3
ATOM      3  N   UNL A   1      31.632  27.015  25.311  1.00  0.00    -0.354 N 
ATOM      4  C   UNL A   1      31.752  25.814  25.958  1.00  0.00     0.243 C 
ATOM      5  O   UNL A   1      31.039  25.603  26.945  1.00  0.00    -0.273 OA
ATOM      6  H   UNL A   1      30.717  27.321  25.112  1.00  0.00     0.163 HD
BRANCH   4   7
ATOM      7  C   UNL A   1      32.740  24.737  25.498  1.00  0.00     0.184 C 
BRANCH   7   8
ATOM      8  C   UNL A   1      32.270  24.117  24.163  1.00  0.00     0.157 C 
BRANCH   8   9
ATOM      9  C   UNL A   1      33.102  24.513  22.957  1.00  0.00     0.308 C 
ATOM     10  O   UNL A   1      33.919  23.788  22.427  1.00  0.00    -0.252 OA
BRANCH   9  11
ATOM     11  O   UNL A   1      32.854  25.808  22.601  1.00  0.00    -0.469 OA
ATOM     12  C   UNL A   1      31.697  26.023  21.774  1.00  0.00     0.282 C 
ENDBRANCH   9  11
ENDBRANCH   8   9
ENDBRANCH   7   8
BRANCH   7  13
ATOM     13  N   UNL A   1      33.062  23.727  26.496  1.00  0.00    -0.326 N 
ATOM     14  C   UNL A   1      34.168  23.112  26.901  1.00  0.00     0.315 C 
ATOM     15  H   UNL A   1      32.266  23.427  26.991  1.00  0.00     0.166 HD
ATOM     16  O   UNL A   1      34.009  22.250  27.774  1.00  0.00    -0.249 OA
ATOM     17  N   UNL A   1      35.432  23.436  26.635  1.00  0.00    -0.335 N 
ATOM     18  H   UNL A   1      35.920  23.609  27.473  1.00  0.00     0.165 HD
BRANCH  17  19
ATOM     19  C   UNL A   1      36.336  23.618  25.473  1.00  0.00     0.089 C 
ATOM     20  C   UNL A   1      37.819  23.857  25.772  1.00  0.00     0.025 C 
ATOM     21  C   UNL A   1      36.465  22.276  24.638  1.00  0.00    -0.015 C 
ATOM     22  C   UNL A   1      38.442  22.496  26.069  1.00  0.00     0.003 C 
ATOM     23  C   UNL A   1      37.528  21.465  25.416  1.00  0.00     0.008 C 
ATOM     24  C   UNL A   1      35.179  21.449  24.487  1.00  0.00     0.013 C 
ATOM     25  C   UNL A   1      36.994  22.559  23.213  1.00  0.00     0.013 C 
ENDBRANCH  17  19
ENDBRANCH   7  13
ENDBRANCH   4   7
ENDBRANCH   2   3
ENDBRANCH   1   2
BRANCH   1  26
ATOM     26  C   UNL A   1      33.437  28.518  27.316  1.00  0.00     0.118 C 
BRANCH  26  27
ATOM     27  N   UNL A   1      33.460  29.907  27.733  1.00  0.00    -0.352 N 
ATOM     28  C   UNL A   1      34.508  30.674  28.179  1.00  0.00     0.251 C 
ATOM     29  H   UNL A   1      32.593  30.371  27.689  1.00  0.00     0.163 HD
ATOM     30  O   UNL A   1      34.331  31.859  28.443  1.00  0.00    -0.269 OA
BRANCH  28  31
ATOM     31  C   UNL A   1      35.824  30.049  28.417  1.00  0.00     0.039 A 
ATOM     32  C   UNL A   1      36.748  30.058  27.369  1.00  0.00     0.014 A 
ATOM     33  C   UNL A   1      36.172  29.521  29.663  1.00  0.00     0.014 A 
ATOM     34  C   UNL A   1      38.056  29.633  27.598  1.00  0.00     0.010 A 
ATOM     35  C   UNL A   1      37.496  29.157  29.907  1.00  0.00     0.010 A 
ATOM     36  C   UNL A   1      38.454  29.231  28.882  1.00  0.00    -0.014 A 
BRANCH  36  37
ATOM     37  C   UNL A   1      39.878  28.937  29.183  1.00  0.00     0.031 A 
ATOM     38  C   UNL A   1      40.776  30.013  29.721  1.00  0.00     0.074 A 
ATOM     39  C   UNL A   1      40.379  27.720  28.890  1.00  0.00     0.049 A 
ATOM     40  N   UNL A   1      42.063  29.973  29.955  1.00  0.00    -0.248 NA
ATOM     41  C   UNL A   1      40.149  31.310  30.011  1.00  0.00     0.031 C 
ATOM     42  C   UNL A   1      39.615  26.609  28.318  1.00  0.00     0.029 A 
ATOM     43  N   UNL A   1      41.651  27.218  29.010  1.00  0.00    -0.354 N 
ATOM     44  C   UNL A   1      42.404  31.244  30.402  1.00  0.00     0.074 A 
ATOM     45  C   UNL A   1      41.196  32.041  30.367  1.00  0.00     0.031 C 
ATOM     46  C   UNL A   1      40.432  25.560  28.134  1.00  0.00     0.029 A 
ATOM     47  C   UNL A   1      41.784  25.933  28.540  1.00  0.00     0.049 A 
ATOM     48  H   UNL A   1      42.398  27.730  29.396  1.00  0.00     0.167 HD
ATOM     49  C   UNL A   1      43.610  31.698  30.819  1.00  0.00     0.037 A 
ATOM     50  C   UNL A   1      42.874  25.148  28.426  1.00  0.00     0.037 A 
ATOM     51  C   UNL A   1      44.803  30.892  30.860  1.00  0.00     0.049 A 
ATOM     52  C   UNL A   1      44.204  25.668  28.896  1.00  0.00     0.074 A 
ATOM     53  C   UNL A   1      46.062  31.240  31.318  1.00  0.00     0.029 A 
ATOM     54  N   UNL A   1      44.889  29.579  30.415  1.00  0.00    -0.354 N 
ATOM     55  N   UNL A   1      44.497  26.848  29.388  1.00  0.00    -0.248 NA
ATOM     56  C   UNL A   1      45.350  24.753  28.808  1.00  0.00     0.031 C 
ATOM     57  C   UNL A   1      46.918  30.153  31.110  1.00  0.00     0.029 A 
ATOM     58  C   UNL A   1      46.183  29.111  30.568  1.00  0.00     0.049 A 
ATOM     59  H   UNL A   1      44.139  29.059  30.045  1.00  0.00     0.167 HD
ATOM     60  C   UNL A   1      45.853  26.812  29.687  1.00  0.00     0.074 A 
ATOM     61  C   UNL A   1      46.324  25.490  29.326  1.00  0.00     0.031 C 
ATOM     62  C   UNL A   1      46.635  27.786  30.213  1.00  0.00     0.037 A 
BRANCH  49  63
ATOM     63  C   UNL A   1      43.694  33.137  31.248  1.00  0.00     0.058 A 
ATOM     64  C   UNL A   1      43.906  34.172  30.323  1.00  0.00     0.135 A 
ATOM     65  C   UNL A   1      43.568  33.487  32.602  1.00  0.00     0.135 A 
ATOM     66  F   UNL A   1      44.044  33.894  29.017  1.00  0.00    -0.206 F 
ATOM     67  C   UNL A   1      44.044  35.495  30.730  1.00  0.00     0.059 A 
ATOM     68  C   UNL A   1      43.672  34.807  33.029  1.00  0.00     0.059 A 
ATOM     69  F   UNL A   1      43.358  32.539  33.530  1.00  0.00    -0.206 F 
ATOM     70  C   UNL A   1      43.936  35.801  32.088  1.00  0.00     0.060 A 
BRANCH  70  71
ATOM     71  S   UNL A   1      44.161  37.515  32.607  1.00  0.00     0.124 S 
ATOM     72  O   UNL A   1      43.082  37.669  33.576  1.00  0.00    -0.237 OA
ATOM     73  O   UNL A   1      45.512  37.502  33.160  1.00  0.00    -0.237 OA
ATOM     74  O   UNL A   1      44.003  38.269  31.367  1.00  0.00    -0.744 OA
ENDBRANCH  70  71
ENDBRANCH  49  63
BRANCH  50  75
ATOM     75  C   UNL A   1      42.736  23.786  27.844  1.00  0.00     0.058 A 
ATOM     76  C   UNL A   1      42.585  22.659  28.663  1.00  0.00     0.135 A 
ATOM     77  C   UNL A   1      42.693  23.595  26.453  1.00  0.00     0.135 A 
ATOM     78  F   UNL A   1      42.627  22.789  29.998  1.00  0.00    -0.206 F 
ATOM     79  C   UNL A   1      42.393  21.389  28.128  1.00  0.00     0.059 A 
ATOM     80  C   UNL A   1      42.480  22.338  25.895  1.00  0.00     0.059 A 
ATOM     81  F   UNL A   1      42.816  24.644  25.627  1.00  0.00    -0.206 F 
ATOM     82  C   UNL A   1      42.333  21.240  26.741  1.00  0.00     0.060 A 
BRANCH  82  83
ATOM     83  S   UNL A   1      41.992  19.603  26.057  1.00  0.00     0.124 S 
ATOM     84  O   UNL A   1      40.556  19.679  25.813  1.00  0.00    -0.237 OA
ATOM     85  O   UNL A   1      42.842  19.583  24.870  1.00  0.00    -0.237 OA
ATOM     86  O   UNL A   1      42.406  18.700  27.126  1.00  0.00    -0.744 OA
ENDBRANCH  82  83
ENDBRANCH  50  75
BRANCH  62  87
ATOM     87  C   UNL A   1      48.081  27.462  30.469  1.00  0.00     0.058 A 
ATOM     88  C   UNL A   1      49.073  27.720  29.511  1.00  0.00     0.135 A 
ATOM     89  C   UNL A   1      48.486  26.981  31.724  1.00  0.00     0.135 A 
ATOM     90  F   UNL A   1      48.737  28.171  28.293  1.00  0.00    -0.206 F 
ATOM     91  C   UNL A   1      50.421  27.513  29.791  1.00  0.00     0.059 A 
ATOM     92  C   UNL A   1      49.829  26.789  32.032  1.00  0.00     0.059 A 
ATOM     93  F   UNL A   1      47.576  26.723  32.676  1.00  0.00    -0.206 F 
ATOM     94  C   UNL A   1      50.789  27.057  31.058  1.00  0.00     0.060 A 
BRANCH  94  95
ATOM     95  S   UNL A   1      52.546  26.869  31.434  1.00  0.00     0.124 S 
ATOM     96  O   UNL A   1      52.624  27.442  32.773  1.00  0.00    -0.237 OA
ATOM     97  O   UNL A   1      52.731  25.424  31.351  1.00  0.00    -0.237 OA
ATOM     98  O   UNL A   1      53.203  27.640  30.383  1.00  0.00    -0.744 OA
ENDBRANCH  94  95
ENDBRANCH  62  87
ENDBRANCH  36  37
ENDBRANCH  28  31
ENDBRANCH  26  27
ENDBRANCH   1  26
TORSDOF 18
ENDMDL
MODEL 3
REMARK VINA RESULT:     -10.8      2.487      3.362
REMARK SMILES COC(=O)C[C@H](NC(=O)N[C@H]1CCCC1(C)C)C(=O)NCCCNC(=O)c1ccc(-c2c3nc(c(-c4c(F)cc(S(=O)(=O)[O-])cc4F)c4ccc([nH]4)c(-c4c(F)cc(S(=O)(=O)[O-])cc4F)c4nc(c(-c5c(F)cc(S(=O)(=O)[O-])cc5F)c5ccc2[nH]5)C=C4)C=C3)cc1
REMARK SMILES IDX 22 1 21 2 20 3 18 4 19 5 6 7 5 8 3 9 4 10 2 11 1 12 7 13
REMARK SMILES IDX 8 14 9 16 10 17 11 19 12 20 15 21 13 22 14 23 16 24 17 25
REMARK SMILES IDX 23 26 24 27 25 28 26 30 27 31 28 32 92 33 29 34 91 35 30 36
REMARK SMILES IDX 31 37 32 38 85 39 33 40 90 41 84 42 86 43 34 44 89 45 83 46
REMARK SMILES IDX 82 47 35 49 69 50 48 51 68 52 49 53 52 54 67 55 87 56 50 57
REMARK SMILES IDX 51 58 66 60 88 61 53 62 36 63 37 64 46 65 38 66 39 67 45 68
REMARK SMILES IDX 47 69 40 70 41 71 42 72 43 73 44 74 70 75 71 76 80 77 72 78
REMARK SMILES IDX 73 79 79 80 81 81 74 82 75 83 76 84 77 85 78 86 54 87 55 88
REMARK SMILES IDX 64 89 56 90 57 91 63 92 65 93 58 94 59 95 60 96 61 97 62 98
REMARK H PARENT 20 6 7 15 10 18 24 29 86 48 52 59
REMARK Flexibility Score: inf
ROOT
ATOM      1  C   UNL A   1      33.930  30.366  27.062  1.00  0.00     0.042 C 
ENDROOT
BRANCH   1   2
ATOM      2  C   UNL A   1      33.071  29.302  26.400  1.00  0.00     0.117 C 
BRANCH   2   3
ATOM      3  N   UNL A   1      33.664  28.338  25.502  1.00  0.00    -0.354 N 
ATOM      4  C   UNL A   1      33.201  27.983  24.263  1.00  0.00     0.243 C 
ATOM      5  O   UNL A   1      34.004  27.932  23.325  1.00  0.00    -0.273 OA
ATOM      6  H   UNL A   1      34.486  27.892  25.812  1.00  0.00     0.163 HD
BRANCH   4   7
ATOM      7  C   UNL A   1      31.726  27.652  24.011  1.00  0.00     0.184 C 
BRANCH   7   8
ATOM      8  C   UNL A   1      30.963  28.921  23.566  1.00  0.00     0.157 C 
BRANCH   8   9
ATOM      9  C   UNL A   1      29.669  28.649  22.822  1.00  0.00     0.308 C 
ATOM     10  O   UNL A   1      28.832  27.847  23.184  1.00  0.00    -0.252 OA
BRANCH   9  11
ATOM     11  O   UNL A   1      29.614  29.372  21.665  1.00  0.00    -0.469 OA
ATOM     12  C   UNL A   1      28.574  30.363  21.592  1.00  0.00     0.282 C 
ENDBRANCH   9  11
ENDBRANCH   8   9
ENDBRANCH   7   8
BRANCH   7  13
ATOM     13  N   UNL A   1      31.055  26.954  25.098  1.00  0.00    -0.326 N 
ATOM     14  C   UNL A   1      30.862  25.682  25.432  1.00  0.00     0.315 C 
ATOM     15  H   UNL A   1      30.644  27.575  25.741  1.00  0.00     0.166 HD
ATOM     16  O   UNL A   1      30.172  25.496  26.442  1.00  0.00    -0.249 OA
ATOM     17  N   UNL A   1      31.470  24.603  24.943  1.00  0.00    -0.335 N 
ATOM     18  H   UNL A   1      31.928  24.116  25.666  1.00  0.00     0.165 HD
BRANCH  17  19
ATOM     19  C   UNL A   1      31.674  23.904  23.650  1.00  0.00     0.089 C 
ATOM     20  C   UNL A   1      32.696  24.509  22.684  1.00  0.00     0.025 C 
ATOM     21  C   UNL A   1      32.350  22.487  23.871  1.00  0.00    -0.015 C 
ATOM     22  C   UNL A   1      34.078  24.072  23.161  1.00  0.00     0.003 C 
ATOM     23  C   UNL A   1      33.855  22.819  24.000  1.00  0.00     0.008 C 
ATOM     24  C   UNL A   1      31.877  21.698  25.102  1.00  0.00     0.013 C 
ATOM     25  C   UNL A   1      32.141  21.576  22.639  1.00  0.00     0.013 C 
ENDBRANCH  17  19
ENDBRANCH   7  13
ENDBRANCH   4   7
ENDBRANCH   2   3
ENDBRANCH   1   2
BRANCH   1  26
ATOM     26  C   UNL A   1      35.111  29.935  27.904  1.00  0.00     0.118 C 
BRANCH  26  27
ATOM     27  N   UNL A   1      35.244  30.620  29.174  1.00  0.00    -0.352 N 
ATOM     28  C   UNL A   1      36.346  30.776  29.978  1.00  0.00     0.251 C 
ATOM     29  H   UNL A   1      34.420  31.040  29.512  1.00  0.00     0.163 HD
ATOM     30  O   UNL A   1      36.266  31.440  31.007  1.00  0.00    -0.269 OA
BRANCH  28  31
ATOM     31  C   UNL A   1      37.603  30.076  29.643  1.00  0.00     0.039 A 
ATOM     32  C   UNL A   1      38.033  30.111  28.314  1.00  0.00     0.014 A 
ATOM     33  C   UNL A   1      38.379  29.451  30.622  1.00  0.00     0.014 A 
ATOM     34  C   UNL A   1      39.292  29.612  27.983  1.00  0.00     0.010 A 
ATOM     35  C   UNL A   1      39.662  29.010  30.301  1.00  0.00     0.010 A 
ATOM     36  C   UNL A   1      40.138  29.108  28.983  1.00  0.00    -0.014 A 
BRANCH  36  37
ATOM     37  C   UNL A   1      41.540  28.728  28.677  1.00  0.00     0.031 A 
ATOM     38  C   UNL A   1      42.615  29.775  28.628  1.00  0.00     0.074 A 
ATOM     39  C   UNL A   1      41.826  27.449  28.360  1.00  0.00     0.049 A 
ATOM     40  N   UNL A   1      43.871  29.652  28.287  1.00  0.00    -0.248 NA
ATOM     41  C   UNL A   1      42.217  31.144  28.986  1.00  0.00     0.031 C 
ATOM     42  C   UNL A   1      40.855  26.352  28.325  1.00  0.00     0.029 A 
ATOM     43  N   UNL A   1      43.006  26.857  27.985  1.00  0.00    -0.354 N 
ATOM     44  C   UNL A   1      44.412  30.929  28.372  1.00  0.00     0.074 A 
ATOM     45  C   UNL A   1      43.334  31.818  28.755  1.00  0.00     0.031 C 
ATOM     46  C   UNL A   1      41.479  25.224  27.948  1.00  0.00     0.029 A 
ATOM     47  C   UNL A   1      42.882  25.523  27.678  1.00  0.00     0.049 A 
ATOM     48  H   UNL A   1      43.862  27.342  27.940  1.00  0.00     0.167 HD
ATOM     49  C   UNL A   1      45.691  31.322  28.163  1.00  0.00     0.037 A 
ATOM     50  C   UNL A   1      43.787  24.641  27.211  1.00  0.00     0.037 A 
ATOM     51  C   UNL A   1      46.757  30.427  27.792  1.00  0.00     0.049 A 
ATOM     52  C   UNL A   1      45.204  25.094  26.988  1.00  0.00     0.074 A 
ATOM     53  C   UNL A   1      48.099  30.714  27.612  1.00  0.00     0.029 A 
ATOM     54  N   UNL A   1      46.600  29.072  27.531  1.00  0.00    -0.354 N 
ATOM     55  N   UNL A   1      45.717  26.291  27.144  1.00  0.00    -0.248 NA
ATOM     56  C   UNL A   1      46.168  24.081  26.536  1.00  0.00     0.031 C 
ATOM     57  C   UNL A   1      48.745  29.543  27.202  1.00  0.00     0.029 A 
ATOM     58  C   UNL A   1      47.817  28.515  27.172  1.00  0.00     0.049 A 
ATOM     59  H   UNL A   1      45.750  28.581  27.593  1.00  0.00     0.167 HD
ATOM     60  C   UNL A   1      47.066  26.172  26.831  1.00  0.00     0.074 A 
ATOM     61  C   UNL A   1      47.291  24.784  26.482  1.00  0.00     0.031 C 
ATOM     62  C   UNL A   1      48.028  27.127  26.836  1.00  0.00     0.037 A 
BRANCH  49  63
ATOM     63  C   UNL A   1      45.997  32.786  28.320  1.00  0.00     0.058 A 
ATOM     64  C   UNL A   1      45.914  33.677  27.238  1.00  0.00     0.135 A 
ATOM     65  C   UNL A   1      46.386  33.305  29.566  1.00  0.00     0.135 A 
ATOM     66  F   UNL A   1      45.558  33.234  26.022  1.00  0.00    -0.206 F 
ATOM     67  C   UNL A   1      46.257  35.019  27.373  1.00  0.00     0.059 A 
ATOM     68  C   UNL A   1      46.704  34.649  29.731  1.00  0.00     0.059 A 
ATOM     69  F   UNL A   1      46.476  32.499  30.637  1.00  0.00    -0.206 F 
ATOM     70  C   UNL A   1      46.661  35.493  28.622  1.00  0.00     0.060 A 
BRANCH  70  71
ATOM     71  S   UNL A   1      47.145  37.226  28.772  1.00  0.00     0.124 S 
ATOM     72  O   UNL A   1      48.565  37.160  28.440  1.00  0.00    -0.237 OA
ATOM     73  O   UNL A   1      46.294  37.877  27.782  1.00  0.00    -0.237 OA
ATOM     74  O   UNL A   1      46.840  37.544  30.164  1.00  0.00    -0.744 OA
ENDBRANCH  70  71
ENDBRANCH  49  63
BRANCH  50  75
ATOM     75  C   UNL A   1      43.368  23.242  26.930  1.00  0.00     0.058 A 
ATOM     76  C   UNL A   1      43.275  22.762  25.616  1.00  0.00     0.135 A 
ATOM     77  C   UNL A   1      43.109  22.340  27.975  1.00  0.00     0.135 A 
ATOM     78  F   UNL A   1      43.505  23.587  24.583  1.00  0.00    -0.206 F 
ATOM     79  C   UNL A   1      42.943  21.438  25.345  1.00  0.00     0.059 A 
ATOM     80  C   UNL A   1      42.797  21.007  27.730  1.00  0.00     0.059 A 
ATOM     81  F   UNL A   1      43.200  22.746  29.250  1.00  0.00    -0.206 F 
ATOM     82  C   UNL A   1      42.715  20.565  26.410  1.00  0.00     0.060 A 
BRANCH  82  83
ATOM     83  S   UNL A   1      42.376  18.827  26.051  1.00  0.00     0.124 S 
ATOM     84  O   UNL A   1      40.972  18.877  25.656  1.00  0.00    -0.237 OA
ATOM     85  O   UNL A   1      43.330  18.542  24.983  1.00  0.00    -0.237 OA
ATOM     86  O   UNL A   1      42.653  18.162  27.320  1.00  0.00    -0.744 OA
ENDBRANCH  82  83
ENDBRANCH  50  75
BRANCH  62  87
ATOM     87  C   UNL A   1      49.429  26.711  26.483  1.00  0.00     0.058 A 
ATOM     88  C   UNL A   1      50.265  26.076  27.415  1.00  0.00     0.135 A 
ATOM     89  C   UNL A   1      49.902  26.861  25.170  1.00  0.00     0.135 A 
ATOM     90  F   UNL A   1      49.864  25.918  28.685  1.00  0.00    -0.206 F 
ATOM     91  C   UNL A   1      51.523  25.602  27.054  1.00  0.00     0.059 A 
ATOM     92  C   UNL A   1      51.146  26.374  24.782  1.00  0.00     0.059 A 
ATOM     93  F   UNL A   1      49.138  27.456  24.240  1.00  0.00    -0.206 F 
ATOM     94  C   UNL A   1      51.950  25.747  25.732  1.00  0.00     0.060 A 
BRANCH  94  95
ATOM     95  S   UNL A   1      53.550  25.057  25.260  1.00  0.00     0.124 S 
ATOM     96  O   UNL A   1      53.291  23.624  25.348  1.00  0.00    -0.237 OA
ATOM     97  O   UNL A   1      53.734  25.586  23.912  1.00  0.00    -0.237 OA
ATOM     98  O   UNL A   1      54.462  25.592  26.265  1.00  0.00    -0.744 OA
ENDBRANCH  94  95
ENDBRANCH  62  87
ENDBRANCH  36  37
ENDBRANCH  28  31
ENDBRANCH  26  27
ENDBRANCH   1  26
TORSDOF 18
ENDMDL
