MODEL 1
REMARK VINA RESULT:     -11.8      0.000      0.000
REMARK SMILES Cc1cc(Br)c(C)c([C@@H]2[NH2+][C@H](C(=O)NCCCNC(=O)c3ccc(-c4c5nc(c(-c6c(F)cc(S(=O)(=O)[O-])cc6F)c6ccc([nH]6)c(-c6c(F)cc(S(=O)(=O)[O-])cc6F)c6nc(c(-c7c(F)cc(S(=O)(=O)[O-])cc7F)c7ccc4[nH]7)C=C6)C=C5)cc3)CS2)c1O
REMARK SMILES IDX 16 1 15 2 14 3 12 4 13 5 11 7 9 8 10 9 88 10 87 13 8 14 1 15
REMARK SMILES IDX 2 16 3 17 89 18 4 19 5 20 6 21 7 22 90 23 17 25 18 26 19 27
REMARK SMILES IDX 20 29 21 30 22 31 86 32 23 33 85 34 24 35 25 36 26 37 79 38
REMARK SMILES IDX 27 39 84 40 78 41 80 42 28 43 83 44 77 45 76 46 29 48 63 49
REMARK SMILES IDX 42 50 62 51 43 52 46 53 61 54 81 55 44 56 45 57 60 59 82 60
REMARK SMILES IDX 47 61 30 62 31 63 40 64 32 65 33 66 39 67 41 68 34 69 35 70
REMARK SMILES IDX 36 71 37 72 38 73 64 74 65 75 74 76 66 77 67 78 73 79 75 80
REMARK SMILES IDX 68 81 69 82 70 83 71 84 72 85 48 86 49 87 58 88 50 89 51 90
REMARK SMILES IDX 57 91 59 92 52 93 53 94 54 95 55 96 56 97
REMARK H PARENT 14 6 10 11 10 12 90 24 18 28 80 47 46 58
REMARK Flexibility Score: inf
ROOT
ATOM      1  C   UNL A   1      33.839  28.412  25.685  1.00  0.00     0.042 C 
ENDROOT
BRANCH   1   2
ATOM      2  C   UNL A   1      33.004  27.426  24.876  1.00  0.00     0.118 C 
BRANCH   2   3
ATOM      3  N   UNL A   1      33.792  26.544  24.034  1.00  0.00    -0.351 N 
ATOM      4  C   UNL A   1      33.717  25.199  23.826  1.00  0.00     0.279 C 
ATOM      5  O   UNL A   1      34.383  24.753  22.882  1.00  0.00    -0.268 OA
ATOM      6  H   UNL A   1      34.504  26.996  23.526  1.00  0.00     0.163 HD
BRANCH   4   7
ATOM      7  C   UNL A   1      32.818  24.242  24.632  1.00  0.00     0.283 C 
ATOM      8  C   UNL A   1      32.754  21.915  25.304  1.00  0.00     0.278 C 
ATOM      9  N   UNL A   1      32.903  22.844  24.175  1.00  0.00    -0.320 N 
ATOM     10  S   UNL A   1      32.437  22.854  26.815  1.00  0.00    -0.087 SA
ATOM     11  H   UNL A   1      32.161  22.669  23.497  1.00  0.00     0.348 HD
ATOM     12  H   UNL A   1      33.817  22.695  23.748  1.00  0.00     0.348 HD
ATOM     13  C   UNL A   1      33.110  24.374  26.118  1.00  0.00     0.151 C 
BRANCH   8  14
ATOM     14  C   UNL A   1      33.915  20.910  25.268  1.00  0.00     0.066 A 
ATOM     15  C   UNL A   1      37.769  20.949  24.960  1.00  0.00     0.048 C 
ATOM     16  C   UNL A   1      36.347  20.468  25.044  1.00  0.00    -0.008 A 
ATOM     17  C   UNL A   1      36.067  19.149  24.699  1.00  0.00     0.023 A 
ATOM     18  C   UNL A   1      35.274  21.323  25.351  1.00  0.00     0.128 A 
ATOM     19  C   UNL A   1      34.752  18.690  24.641  1.00  0.00     0.021 A 
ATOM     20  Br  UNL A   1      34.527  16.885  24.072  1.00  0.00    -0.051 Br
ATOM     21  C   UNL A   1      33.658  19.545  24.915  1.00  0.00    -0.023 A 
ATOM     22  C   UNL A   1      32.263  18.997  24.704  1.00  0.00     0.046 C 
BRANCH  18  23
ATOM     23  O   UNL A   1      35.555  22.633  25.636  1.00  0.00    -0.507 OA
ATOM     24  H   UNL A   1      35.896  22.867  26.476  1.00  0.00     0.293 HD
ENDBRANCH  18  23
ENDBRANCH   8  14
ENDBRANCH   4   7
ENDBRANCH   2   3
ENDBRANCH   1   2
BRANCH   1  25
ATOM     25  C   UNL A   1      33.391  28.577  27.136  1.00  0.00     0.118 C 
BRANCH  25  26
ATOM     26  N   UNL A   1      33.449  29.938  27.659  1.00  0.00    -0.352 N 
ATOM     27  C   UNL A   1      34.492  30.656  28.214  1.00  0.00     0.251 C 
ATOM     28  H   UNL A   1      32.598  30.430  27.608  1.00  0.00     0.163 HD
ATOM     29  O   UNL A   1      34.283  31.795  28.608  1.00  0.00    -0.269 OA
BRANCH  27  30
ATOM     30  C   UNL A   1      35.834  30.046  28.391  1.00  0.00     0.039 A 
ATOM     31  C   UNL A   1      36.217  29.469  29.597  1.00  0.00     0.014 A 
ATOM     32  C   UNL A   1      36.744  30.076  27.326  1.00  0.00     0.014 A 
ATOM     33  C   UNL A   1      37.553  29.158  29.817  1.00  0.00     0.010 A 
ATOM     34  C   UNL A   1      38.066  29.643  27.513  1.00  0.00     0.010 A 
ATOM     35  C   UNL A   1      38.501  29.245  28.783  1.00  0.00    -0.014 A 
BRANCH  35  36
ATOM     36  C   UNL A   1      39.921  28.920  29.098  1.00  0.00     0.031 A 
ATOM     37  C   UNL A   1      40.524  27.593  28.708  1.00  0.00     0.074 A 
ATOM     38  C   UNL A   1      40.706  29.895  29.604  1.00  0.00     0.049 A 
ATOM     39  N   UNL A   1      41.778  27.215  28.755  1.00  0.00    -0.248 NA
ATOM     40  C   UNL A   1      39.613  26.555  28.203  1.00  0.00     0.031 C 
ATOM     41  C   UNL A   1      40.232  31.217  30.022  1.00  0.00     0.029 A 
ATOM     42  N   UNL A   1      42.065  29.960  29.785  1.00  0.00    -0.354 N 
ATOM     43  C   UNL A   1      41.802  25.902  28.295  1.00  0.00     0.074 A 
ATOM     44  C   UNL A   1      40.436  25.533  28.002  1.00  0.00     0.031 C 
ATOM     45  C   UNL A   1      41.287  31.998  30.297  1.00  0.00     0.029 A 
ATOM     46  C   UNL A   1      42.507  31.212  30.153  1.00  0.00     0.049 A 
ATOM     47  H   UNL A   1      42.664  29.189  29.665  1.00  0.00     0.167 HD
ATOM     48  C   UNL A   1      42.868  25.084  28.120  1.00  0.00     0.037 A 
ATOM     49  C   UNL A   1      43.754  31.680  30.346  1.00  0.00     0.037 A 
ATOM     50  C   UNL A   1      44.230  25.464  28.396  1.00  0.00     0.049 A 
ATOM     51  C   UNL A   1      44.915  30.746  30.169  1.00  0.00     0.074 A 
ATOM     52  C   UNL A   1      45.380  24.705  28.260  1.00  0.00     0.029 A 
ATOM     53  N   UNL A   1      44.626  26.711  28.857  1.00  0.00    -0.354 N 
ATOM     54  N   UNL A   1      44.911  29.504  29.745  1.00  0.00    -0.248 NA
ATOM     55  C   UNL A   1      46.244  31.262  30.519  1.00  0.00     0.031 C 
ATOM     56  C   UNL A   1      46.469  25.482  28.670  1.00  0.00     0.029 A 
ATOM     57  C   UNL A   1      46.000  26.737  29.027  1.00  0.00     0.049 A 
ATOM     58  H   UNL A   1      44.021  27.466  29.035  1.00  0.00     0.167 HD
ATOM     59  C   UNL A   1      46.235  29.087  29.790  1.00  0.00     0.074 A 
ATOM     60  C   UNL A   1      47.016  30.219  30.247  1.00  0.00     0.031 C 
ATOM     61  C   UNL A   1      46.756  27.871  29.494  1.00  0.00     0.037 A 
BRANCH  48  62
ATOM     62  C   UNL A   1      42.617  23.692  27.608  1.00  0.00     0.058 A 
ATOM     63  C   UNL A   1      42.565  23.414  26.234  1.00  0.00     0.135 A 
ATOM     64  C   UNL A   1      42.501  22.612  28.499  1.00  0.00     0.135 A 
ATOM     65  F   UNL A   1      42.654  24.411  25.338  1.00  0.00    -0.206 F 
ATOM     66  C   UNL A   1      42.402  22.116  25.760  1.00  0.00     0.059 A 
ATOM     67  C   UNL A   1      42.357  21.303  28.048  1.00  0.00     0.059 A 
ATOM     68  F   UNL A   1      42.542  22.823  29.824  1.00  0.00    -0.206 F 
ATOM     69  C   UNL A   1      42.304  21.066  26.675  1.00  0.00     0.060 A 
BRANCH  69  70
ATOM     70  S   UNL A   1      42.123  19.384  26.039  1.00  0.00     0.124 S 
ATOM     71  O   UNL A   1      42.636  18.593  27.155  1.00  0.00    -0.237 OA
ATOM     72  O   UNL A   1      40.686  19.292  25.806  1.00  0.00    -0.237 OA
ATOM     73  O   UNL A   1      42.953  19.383  24.838  1.00  0.00    -0.744 OA
ENDBRANCH  69  70
ENDBRANCH  48  62
BRANCH  49  74
ATOM     74  C   UNL A   1      43.962  33.101  30.738  1.00  0.00     0.058 A 
ATOM     75  C   UNL A   1      44.175  34.095  29.773  1.00  0.00     0.135 A 
ATOM     76  C   UNL A   1      43.916  33.495  32.085  1.00  0.00     0.135 A 
ATOM     77  F   UNL A   1      44.235  33.768  28.474  1.00  0.00    -0.206 F 
ATOM     78  C   UNL A   1      44.340  35.431  30.129  1.00  0.00     0.059 A 
ATOM     79  C   UNL A   1      44.051  34.826  32.463  1.00  0.00     0.059 A 
ATOM     80  F   UNL A   1      43.702  32.583  33.045  1.00  0.00    -0.206 F 
ATOM     81  C   UNL A   1      44.270  35.787  31.477  1.00  0.00     0.060 A 
BRANCH  81  82
ATOM     82  S   UNL A   1      44.417  37.529  31.927  1.00  0.00     0.124 S 
ATOM     83  O   UNL A   1      43.812  38.182  30.773  1.00  0.00    -0.237 OA
ATOM     84  O   UNL A   1      43.656  37.593  33.171  1.00  0.00    -0.237 OA
ATOM     85  O   UNL A   1      45.858  37.714  32.076  1.00  0.00    -0.744 OA
ENDBRANCH  81  82
ENDBRANCH  49  74
BRANCH  61  86
ATOM     86  C   UNL A   1      48.235  27.697  29.674  1.00  0.00     0.058 A 
ATOM     87  C   UNL A   1      48.771  27.291  30.904  1.00  0.00     0.135 A 
ATOM     88  C   UNL A   1      49.114  27.873  28.595  1.00  0.00     0.135 A 
ATOM     89  F   UNL A   1      47.969  27.117  31.968  1.00  0.00    -0.206 F 
ATOM     90  C   UNL A   1      50.135  27.074  31.064  1.00  0.00     0.059 A 
ATOM     91  C   UNL A   1      50.480  27.643  28.726  1.00  0.00     0.059 A 
ATOM     92  F   UNL A   1      48.646  28.255  27.396  1.00  0.00    -0.206 F 
ATOM     93  C   UNL A   1      50.982  27.249  29.967  1.00  0.00     0.060 A 
BRANCH  93  94
ATOM     94  S   UNL A   1      52.744  26.920  30.178  1.00  0.00     0.124 S 
ATOM     95  O   UNL A   1      53.196  28.146  30.827  1.00  0.00    -0.237 OA
ATOM     96  O   UNL A   1      52.740  25.724  31.014  1.00  0.00    -0.237 OA
ATOM     97  O   UNL A   1      53.217  26.722  28.811  1.00  0.00    -0.744 OA
ENDBRANCH  93  94
ENDBRANCH  61  86
ENDBRANCH  35  36
ENDBRANCH  27  30
ENDBRANCH  25  26
ENDBRANCH   1  25
TORSDOF 15
ENDMDL
MODEL 2
REMARK VINA RESULT:     -11.7      1.316      2.229
REMARK SMILES Cc1cc(Br)c(C)c([C@@H]2[NH2+][C@H](C(=O)NCCCNC(=O)c3ccc(-c4c5nc(c(-c6c(F)cc(S(=O)(=O)[O-])cc6F)c6ccc([nH]6)c(-c6c(F)cc(S(=O)(=O)[O-])cc6F)c6nc(c(-c7c(F)cc(S(=O)(=O)[O-])cc7F)c7ccc4[nH]7)C=C6)C=C5)cc3)CS2)c1O
REMARK SMILES IDX 16 1 15 2 14 3 12 4 13 5 11 7 9 8 10 9 88 10 87 13 8 14 1 15
REMARK SMILES IDX 2 16 3 17 89 18 4 19 5 20 6 21 7 22 90 23 17 25 18 26 19 27
REMARK SMILES IDX 20 29 21 30 22 31 86 32 23 33 85 34 24 35 25 36 26 37 79 38
REMARK SMILES IDX 27 39 84 40 78 41 80 42 28 43 83 44 77 45 76 46 29 48 63 49
REMARK SMILES IDX 42 50 62 51 43 52 46 53 61 54 81 55 44 56 45 57 60 59 82 60
REMARK SMILES IDX 47 61 30 62 31 63 40 64 32 65 33 66 39 67 41 68 34 69 35 70
REMARK SMILES IDX 36 71 37 72 38 73 64 74 65 75 74 76 66 77 67 78 73 79 75 80
REMARK SMILES IDX 68 81 69 82 70 83 71 84 72 85 48 86 49 87 58 88 50 89 51 90
REMARK SMILES IDX 57 91 59 92 52 93 53 94 54 95 55 96 56 97
REMARK H PARENT 14 6 10 11 10 12 90 24 18 28 80 47 46 58
REMARK Flexibility Score: inf
ROOT
ATOM      1  C   UNL A   1      32.145  27.893  27.663  1.00  0.00     0.042 C 
ENDROOT
BRANCH   1   2
ATOM      2  C   UNL A   1      31.136  27.729  26.531  1.00  0.00     0.118 C 
BRANCH   2   3
ATOM      3  N   UNL A   1      30.612  26.381  26.405  1.00  0.00    -0.351 N 
ATOM      4  C   UNL A   1      30.995  25.340  25.613  1.00  0.00     0.279 C 
ATOM      5  O   UNL A   1      30.498  24.237  25.880  1.00  0.00    -0.268 OA
ATOM      6  H   UNL A   1      29.848  26.185  26.995  1.00  0.00     0.163 HD
BRANCH   4   7
ATOM      7  C   UNL A   1      32.035  25.443  24.482  1.00  0.00     0.283 C 
ATOM      8  C   UNL A   1      33.914  24.194  23.598  1.00  0.00     0.278 C 
ATOM      9  N   UNL A   1      33.310  24.778  24.804  1.00  0.00    -0.320 N 
ATOM     10  S   UNL A   1      32.894  24.596  22.161  1.00  0.00    -0.087 SA
ATOM     11  H   UNL A   1      33.952  25.463  25.202  1.00  0.00     0.348 HD
ATOM     12  H   UNL A   1      33.128  24.031  25.472  1.00  0.00     0.348 HD
ATOM     13  C   UNL A   1      31.444  24.938  23.175  1.00  0.00     0.151 C 
BRANCH   8  14
ATOM     14  C   UNL A   1      34.269  22.729  23.887  1.00  0.00     0.066 A 
ATOM     15  C   UNL A   1      32.542  19.548  25.249  1.00  0.00     0.048 C 
ATOM     16  C   UNL A   1      33.591  20.500  24.745  1.00  0.00    -0.008 A 
ATOM     17  C   UNL A   1      34.932  20.166  24.914  1.00  0.00     0.023 A 
ATOM     18  C   UNL A   1      33.276  21.761  24.210  1.00  0.00     0.128 A 
ATOM     19  C   UNL A   1      35.940  21.069  24.577  1.00  0.00     0.021 A 
ATOM     20  Br  UNL A   1      37.721  20.499  24.944  1.00  0.00    -0.051 Br
ATOM     21  C   UNL A   1      35.641  22.355  24.068  1.00  0.00    -0.023 A 
ATOM     22  C   UNL A   1      36.792  23.314  23.850  1.00  0.00     0.046 C 
BRANCH  18  23
ATOM     23  O   UNL A   1      31.954  22.102  24.099  1.00  0.00    -0.507 OA
ATOM     24  H   UNL A   1      31.290  21.489  24.345  1.00  0.00     0.293 HD
ENDBRANCH  18  23
ENDBRANCH   8  14
ENDBRANCH   4   7
ENDBRANCH   2   3
ENDBRANCH   1   2
BRANCH   1  25
ATOM     25  C   UNL A   1      33.415  28.644  27.272  1.00  0.00     0.118 C 
BRANCH  25  26
ATOM     26  N   UNL A   1      33.506  30.018  27.759  1.00  0.00    -0.352 N 
ATOM     27  C   UNL A   1      34.570  30.731  28.279  1.00  0.00     0.251 C 
ATOM     28  H   UNL A   1      32.663  30.523  27.709  1.00  0.00     0.163 HD
ATOM     29  O   UNL A   1      34.388  31.883  28.646  1.00  0.00    -0.269 OA
BRANCH  27  30
ATOM     30  C   UNL A   1      35.904  30.101  28.450  1.00  0.00     0.039 A 
ATOM     31  C   UNL A   1      36.302  29.563  29.669  1.00  0.00     0.014 A 
ATOM     32  C   UNL A   1      36.791  30.073  27.366  1.00  0.00     0.014 A 
ATOM     33  C   UNL A   1      37.636  29.234  29.872  1.00  0.00     0.010 A 
ATOM     34  C   UNL A   1      38.108  29.622  27.541  1.00  0.00     0.010 A 
ATOM     35  C   UNL A   1      38.563  29.263  28.815  1.00  0.00    -0.014 A 
BRANCH  35  36
ATOM     36  C   UNL A   1      39.984  28.922  29.112  1.00  0.00     0.031 A 
ATOM     37  C   UNL A   1      40.566  27.588  28.717  1.00  0.00     0.074 A 
ATOM     38  C   UNL A   1      40.787  29.889  29.605  1.00  0.00     0.049 A 
ATOM     39  N   UNL A   1      41.816  27.195  28.749  1.00  0.00    -0.248 NA
ATOM     40  C   UNL A   1      39.636  26.559  28.227  1.00  0.00     0.031 C 
ATOM     41  C   UNL A   1      40.334  31.219  30.026  1.00  0.00     0.029 A 
ATOM     42  N   UNL A   1      42.148  29.939  29.768  1.00  0.00    -0.354 N 
ATOM     43  C   UNL A   1      41.819  25.881  28.292  1.00  0.00     0.074 A 
ATOM     44  C   UNL A   1      40.444  25.527  28.018  1.00  0.00     0.031 C 
ATOM     45  C   UNL A   1      41.401  31.987  30.285  1.00  0.00     0.029 A 
ATOM     46  C   UNL A   1      42.610  31.187  30.126  1.00  0.00     0.049 A 
ATOM     47  H   UNL A   1      42.737  29.161  29.642  1.00  0.00     0.167 HD
ATOM     48  C   UNL A   1      42.873  25.050  28.105  1.00  0.00     0.037 A 
ATOM     49  C   UNL A   1      43.865  31.641  30.302  1.00  0.00     0.037 A 
ATOM     50  C   UNL A   1      44.242  25.415  28.361  1.00  0.00     0.049 A 
ATOM     51  C   UNL A   1      45.013  30.692  30.111  1.00  0.00     0.074 A 
ATOM     52  C   UNL A   1      45.381  24.642  28.212  1.00  0.00     0.029 A 
ATOM     53  N   UNL A   1      44.659  26.658  28.813  1.00  0.00    -0.354 N 
ATOM     54  N   UNL A   1      44.989  29.450  29.691  1.00  0.00    -0.248 NA
ATOM     55  C   UNL A   1      46.352  31.194  30.442  1.00  0.00     0.031 C 
ATOM     56  C   UNL A   1      46.484  25.408  28.605  1.00  0.00     0.029 A 
ATOM     57  C   UNL A   1      46.036  26.669  28.965  1.00  0.00     0.049 A 
ATOM     58  H   UNL A   1      44.065  27.421  28.998  1.00  0.00     0.167 HD
ATOM     59  C   UNL A   1      46.308  29.018  29.719  1.00  0.00     0.074 A 
ATOM     60  C   UNL A   1      47.108  30.141  30.163  1.00  0.00     0.031 C 
ATOM     61  C   UNL A   1      46.810  27.795  29.419  1.00  0.00     0.037 A 
BRANCH  48  62
ATOM     62  C   UNL A   1      42.598  23.660  27.599  1.00  0.00     0.058 A 
ATOM     63  C   UNL A   1      42.551  23.374  26.227  1.00  0.00     0.135 A 
ATOM     64  C   UNL A   1      42.455  22.588  28.497  1.00  0.00     0.135 A 
ATOM     65  F   UNL A   1      42.666  24.364  25.325  1.00  0.00    -0.206 F 
ATOM     66  C   UNL A   1      42.367  22.076  25.760  1.00  0.00     0.059 A 
ATOM     67  C   UNL A   1      42.289  21.280  28.052  1.00  0.00     0.059 A 
ATOM     68  F   UNL A   1      42.490  22.807  29.820  1.00  0.00    -0.206 F 
ATOM     69  C   UNL A   1      42.241  21.034  26.680  1.00  0.00     0.060 A 
BRANCH  69  70
ATOM     70  S   UNL A   1      42.033  19.353  26.054  1.00  0.00     0.124 S 
ATOM     71  O   UNL A   1      42.972  19.339  24.936  1.00  0.00    -0.237 OA
ATOM     72  O   UNL A   1      42.410  18.542  27.207  1.00  0.00    -0.237 OA
ATOM     73  O   UNL A   1      40.622  19.298  25.687  1.00  0.00    -0.744 OA
ENDBRANCH  69  70
ENDBRANCH  48  62
BRANCH  49  74
ATOM     74  C   UNL A   1      44.094  33.060  30.687  1.00  0.00     0.058 A 
ATOM     75  C   UNL A   1      44.119  33.452  32.033  1.00  0.00     0.135 A 
ATOM     76  C   UNL A   1      44.327  34.046  29.715  1.00  0.00     0.135 A 
ATOM     77  F   UNL A   1      43.895  32.549  32.999  1.00  0.00    -0.206 F 
ATOM     78  C   UNL A   1      44.364  34.771  32.403  1.00  0.00     0.059 A 
ATOM     79  C   UNL A   1      44.601  35.364  30.060  1.00  0.00     0.059 A 
ATOM     80  F   UNL A   1      44.327  33.720  28.413  1.00  0.00    -0.206 F 
ATOM     81  C   UNL A   1      44.609  35.720  31.408  1.00  0.00     0.060 A 
BRANCH  81  82
ATOM     82  S   UNL A   1      44.992  37.415  31.896  1.00  0.00     0.124 S 
ATOM     83  O   UNL A   1      45.183  37.269  33.334  1.00  0.00    -0.237 OA
ATOM     84  O   UNL A   1      46.192  37.698  31.116  1.00  0.00    -0.237 OA
ATOM     85  O   UNL A   1      43.801  38.156  31.488  1.00  0.00    -0.744 OA
ENDBRANCH  81  82
ENDBRANCH  49  74
BRANCH  61  86
ATOM     86  C   UNL A   1      48.289  27.604  29.580  1.00  0.00     0.058 A 
ATOM     87  C   UNL A   1      49.176  27.914  28.538  1.00  0.00     0.135 A 
ATOM     88  C   UNL A   1      48.829  27.172  30.801  1.00  0.00     0.135 A 
ATOM     89  F   UNL A   1      48.706  28.324  27.349  1.00  0.00    -0.206 F 
ATOM     90  C   UNL A   1      50.552  27.792  28.698  1.00  0.00     0.059 A 
ATOM     91  C   UNL A   1      50.203  27.063  30.990  1.00  0.00     0.059 A 
ATOM     92  F   UNL A   1      48.020  26.871  31.829  1.00  0.00    -0.206 F 
ATOM     93  C   UNL A   1      51.056  27.369  29.929  1.00  0.00     0.060 A 
BRANCH  93  94
ATOM     94  S   UNL A   1      52.846  27.260  30.136  1.00  0.00     0.124 S 
ATOM     95  O   UNL A   1      53.177  28.621  30.546  1.00  0.00    -0.237 OA
ATOM     96  O   UNL A   1      52.979  26.237  31.168  1.00  0.00    -0.237 OA
ATOM     97  O   UNL A   1      53.318  26.872  28.811  1.00  0.00    -0.744 OA
ENDBRANCH  93  94
ENDBRANCH  61  86
ENDBRANCH  35  36
ENDBRANCH  27  30
ENDBRANCH  25  26
ENDBRANCH   1  25
TORSDOF 15
ENDMDL
MODEL 3
REMARK VINA RESULT:     -11.6      5.834     11.001
REMARK SMILES Cc1cc(Br)c(C)c([C@@H]2[NH2+][C@H](C(=O)NCCCNC(=O)c3ccc(-c4c5nc(c(-c6c(F)cc(S(=O)(=O)[O-])cc6F)c6ccc([nH]6)c(-c6c(F)cc(S(=O)(=O)[O-])cc6F)c6nc(c(-c7c(F)cc(S(=O)(=O)[O-])cc7F)c7ccc4[nH]7)C=C6)C=C5)cc3)CS2)c1O
REMARK SMILES IDX 16 1 15 2 14 3 12 4 13 5 11 7 9 8 10 9 88 10 87 13 8 14 1 15
REMARK SMILES IDX 2 16 3 17 89 18 4 19 5 20 6 21 7 22 90 23 17 25 18 26 19 27
REMARK SMILES IDX 20 29 21 30 22 31 86 32 23 33 85 34 24 35 25 36 26 37 79 38
REMARK SMILES IDX 27 39 84 40 78 41 80 42 28 43 83 44 77 45 76 46 29 48 63 49
REMARK SMILES IDX 42 50 62 51 43 52 46 53 61 54 81 55 44 56 45 57 60 59 82 60
REMARK SMILES IDX 47 61 30 62 31 63 40 64 32 65 33 66 39 67 41 68 34 69 35 70
REMARK SMILES IDX 36 71 37 72 38 73 64 74 65 75 74 76 66 77 67 78 73 79 75 80
REMARK SMILES IDX 68 81 69 82 70 83 71 84 72 85 48 86 49 87 58 88 50 89 51 90
REMARK SMILES IDX 57 91 59 92 52 93 53 94 54 95 55 96 56 97
REMARK H PARENT 14 6 10 11 10 12 90 24 18 28 80 47 46 58
REMARK Flexibility Score: inf
ROOT
ATOM      1  C   UNL A   1      40.401  21.498  27.314  1.00  0.00     0.042 C 
ENDROOT
BRANCH   1   2
ATOM      2  C   UNL A   1      40.671  20.608  26.105  1.00  0.00     0.118 C 
BRANCH   2   3
ATOM      3  N   UNL A   1      41.359  19.372  26.431  1.00  0.00    -0.351 N 
ATOM      4  C   UNL A   1      42.618  18.942  26.135  1.00  0.00     0.279 C 
ATOM      5  O   UNL A   1      43.006  17.929  26.734  1.00  0.00    -0.268 OA
ATOM      6  H   UNL A   1      40.824  18.734  26.957  1.00  0.00     0.163 HD
BRANCH   4   7
ATOM      7  C   UNL A   1      43.583  19.666  25.178  1.00  0.00     0.283 C 
ATOM      8  C   UNL A   1      44.797  21.758  25.032  1.00  0.00     0.278 C 
ATOM      9  N   UNL A   1      43.485  21.134  25.256  1.00  0.00    -0.320 N 
ATOM     10  S   UNL A   1      46.016  20.476  24.660  1.00  0.00    -0.087 SA
ATOM     11  H   UNL A   1      42.832  21.463  24.545  1.00  0.00     0.348 HD
ATOM     12  H   UNL A   1      43.156  21.390  26.186  1.00  0.00     0.348 HD
ATOM     13  C   UNL A   1      45.007  19.178  25.398  1.00  0.00     0.151 C 
BRANCH   8  14
ATOM     14  C   UNL A   1      45.068  22.751  26.171  1.00  0.00     0.066 A 
ATOM     15  C   UNL A   1      43.419  23.879  29.482  1.00  0.00     0.048 C 
ATOM     16  C   UNL A   1      44.348  23.801  28.301  1.00  0.00    -0.008 A 
ATOM     17  C   UNL A   1      45.205  24.870  28.056  1.00  0.00     0.023 A 
ATOM     18  C   UNL A   1      44.310  22.745  27.375  1.00  0.00     0.128 A 
ATOM     19  C   UNL A   1      45.995  24.901  26.907  1.00  0.00     0.021 A 
ATOM     20  Br  UNL A   1      47.052  26.469  26.670  1.00  0.00    -0.051 Br
ATOM     21  C   UNL A   1      45.945  23.863  25.947  1.00  0.00    -0.023 A 
ATOM     22  C   UNL A   1      46.741  24.041  24.672  1.00  0.00     0.046 C 
BRANCH  18  23
ATOM     23  O   UNL A   1      43.423  21.724  27.597  1.00  0.00    -0.507 OA
ATOM     24  H   UNL A   1      42.916  21.708  28.385  1.00  0.00     0.293 HD
ENDBRANCH  18  23
ENDBRANCH   8  14
ENDBRANCH   4   7
ENDBRANCH   2   3
ENDBRANCH   1   2
BRANCH   1  25
ATOM     25  C   UNL A   1      40.097  22.954  26.970  1.00  0.00     0.118 C 
BRANCH  25  26
ATOM     26  N   UNL A   1      41.091  23.621  26.134  1.00  0.00    -0.352 N 
ATOM     27  C   UNL A   1      41.633  24.890  26.202  1.00  0.00     0.251 C 
ATOM     28  H   UNL A   1      41.434  23.071  25.394  1.00  0.00     0.163 HD
ATOM     29  O   UNL A   1      42.449  25.232  25.358  1.00  0.00    -0.269 OA
BRANCH  27  30
ATOM     30  C   UNL A   1      41.197  25.856  27.244  1.00  0.00     0.039 A 
ATOM     31  C   UNL A   1      41.852  27.068  27.431  1.00  0.00     0.014 A 
ATOM     32  C   UNL A   1      40.117  25.525  28.073  1.00  0.00     0.014 A 
ATOM     33  C   UNL A   1      41.600  27.816  28.573  1.00  0.00     0.010 A 
ATOM     34  C   UNL A   1      39.781  26.348  29.159  1.00  0.00     0.010 A 
ATOM     35  C   UNL A   1      40.566  27.468  29.460  1.00  0.00    -0.014 A 
BRANCH  35  36
ATOM     36  C   UNL A   1      40.370  28.302  30.680  1.00  0.00     0.031 A 
ATOM     37  C   UNL A   1      41.350  28.252  31.825  1.00  0.00     0.074 A 
ATOM     38  C   UNL A   1      39.381  29.221  30.677  1.00  0.00     0.049 A 
ATOM     39  N   UNL A   1      41.421  29.027  32.880  1.00  0.00    -0.248 NA
ATOM     40  C   UNL A   1      42.379  27.202  31.794  1.00  0.00     0.031 C 
ATOM     41  C   UNL A   1      38.372  29.360  29.623  1.00  0.00     0.029 A 
ATOM     42  N   UNL A   1      39.102  30.252  31.538  1.00  0.00    -0.354 N 
ATOM     43  C   UNL A   1      42.492  28.556  33.633  1.00  0.00     0.074 A 
ATOM     44  C   UNL A   1      43.025  27.407  32.936  1.00  0.00     0.031 C 
ATOM     45  C   UNL A   1      37.662  30.478  29.837  1.00  0.00     0.029 A 
ATOM     46  C   UNL A   1      38.111  31.092  31.081  1.00  0.00     0.049 A 
ATOM     47  H   UNL A   1      39.563  30.378  32.398  1.00  0.00     0.167 HD
ATOM     48  C   UNL A   1      42.993  29.044  34.793  1.00  0.00     0.037 A 
ATOM     49  C   UNL A   1      37.619  32.233  31.599  1.00  0.00     0.037 A 
ATOM     50  C   UNL A   1      42.470  30.201  35.474  1.00  0.00     0.049 A 
ATOM     51  C   UNL A   1      38.177  32.739  32.898  1.00  0.00     0.074 A 
ATOM     52  C   UNL A   1      42.902  30.771  36.659  1.00  0.00     0.029 A 
ATOM     53  N   UNL A   1      41.405  30.969  35.026  1.00  0.00    -0.354 N 
ATOM     54  N   UNL A   1      39.182  32.268  33.598  1.00  0.00    -0.248 NA
ATOM     55  C   UNL A   1      37.522  33.911  33.491  1.00  0.00     0.031 C 
ATOM     56  C   UNL A   1      42.077  31.864  36.946  1.00  0.00     0.029 A 
ATOM     57  C   UNL A   1      41.154  31.996  35.920  1.00  0.00     0.049 A 
ATOM     58  H   UNL A   1      40.902  30.807  34.196  1.00  0.00     0.167 HD
ATOM     59  C   UNL A   1      39.270  33.080  34.721  1.00  0.00     0.074 A 
ATOM     60  C   UNL A   1      38.242  34.092  34.589  1.00  0.00     0.031 C 
ATOM     61  C   UNL A   1      40.118  32.986  35.775  1.00  0.00     0.037 A 
BRANCH  48  62
ATOM     62  C   UNL A   1      44.167  28.337  35.411  1.00  0.00     0.058 A 
ATOM     63  C   UNL A   1      45.487  28.711  35.119  1.00  0.00     0.135 A 
ATOM     64  C   UNL A   1      43.971  27.323  36.365  1.00  0.00     0.135 A 
ATOM     65  F   UNL A   1      45.733  29.663  34.203  1.00  0.00    -0.206 F 
ATOM     66  C   UNL A   1      46.572  28.103  35.744  1.00  0.00     0.059 A 
ATOM     67  C   UNL A   1      45.040  26.714  37.016  1.00  0.00     0.059 A 
ATOM     68  F   UNL A   1      42.729  26.925  36.680  1.00  0.00    -0.206 F 
ATOM     69  C   UNL A   1      46.338  27.108  36.695  1.00  0.00     0.060 A 
BRANCH  69  70
ATOM     70  S   UNL A   1      47.758  26.352  37.517  1.00  0.00     0.124 S 
ATOM     71  O   UNL A   1      47.112  25.327  38.332  1.00  0.00    -0.237 OA
ATOM     72  O   UNL A   1      48.546  25.862  36.391  1.00  0.00    -0.237 OA
ATOM     73  O   UNL A   1      48.352  27.460  38.260  1.00  0.00    -0.744 OA
ENDBRANCH  69  70
ENDBRANCH  48  62
BRANCH  49  74
ATOM     74  C   UNL A   1      36.536  32.966  30.889  1.00  0.00     0.058 A 
ATOM     75  C   UNL A   1      35.203  32.879  31.313  1.00  0.00     0.135 A 
ATOM     76  C   UNL A   1      36.820  33.794  29.791  1.00  0.00     0.135 A 
ATOM     77  F   UNL A   1      34.879  32.095  32.352  1.00  0.00    -0.206 F 
ATOM     78  C   UNL A   1      34.187  33.585  30.674  1.00  0.00     0.059 A 
ATOM     79  C   UNL A   1      35.828  34.530  29.153  1.00  0.00     0.059 A 
ATOM     80  F   UNL A   1      38.082  33.921  29.354  1.00  0.00    -0.206 F 
ATOM     81  C   UNL A   1      34.512  34.413  29.597  1.00  0.00     0.060 A 
BRANCH  81  82
ATOM     82  S   UNL A   1      33.203  35.377  28.813  1.00  0.00     0.124 S 
ATOM     83  O   UNL A   1      33.973  36.342  28.039  1.00  0.00    -0.237 OA
ATOM     84  O   UNL A   1      32.490  34.363  28.043  1.00  0.00    -0.237 OA
ATOM     85  O   UNL A   1      32.464  35.921  29.949  1.00  0.00    -0.744 OA
ENDBRANCH  81  82
ENDBRANCH  49  74
BRANCH  61  86
ATOM     86  C   UNL A   1      39.955  33.991  36.876  1.00  0.00     0.058 A 
ATOM     87  C   UNL A   1      40.564  35.253  36.799  1.00  0.00     0.135 A 
ATOM     88  C   UNL A   1      39.135  33.719  37.981  1.00  0.00     0.135 A 
ATOM     89  F   UNL A   1      41.364  35.556  35.764  1.00  0.00    -0.206 F 
ATOM     90  C   UNL A   1      40.373  36.210  37.789  1.00  0.00     0.059 A 
ATOM     91  C   UNL A   1      38.913  34.669  38.974  1.00  0.00     0.059 A 
ATOM     92  F   UNL A   1      38.526  32.528  38.095  1.00  0.00    -0.206 F 
ATOM     93  C   UNL A   1      39.543  35.910  38.871  1.00  0.00     0.060 A 
BRANCH  93  94
ATOM     94  S   UNL A   1      39.268  37.179  40.124  1.00  0.00     0.124 S 
ATOM     95  O   UNL A   1      38.527  36.436  41.137  1.00  0.00    -0.237 OA
ATOM     96  O   UNL A   1      40.630  37.559  40.487  1.00  0.00    -0.237 OA
ATOM     97  O   UNL A   1      38.507  38.201  39.412  1.00  0.00    -0.744 OA
ENDBRANCH  93  94
ENDBRANCH  61  86
ENDBRANCH  35  36
ENDBRANCH  27  30
ENDBRANCH  25  26
ENDBRANCH   1  25
TORSDOF 15
ENDMDL
