MODEL 1
REMARK VINA RESULT:     -10.3      0.000      0.000
REMARK SMILES CN(C)C(=O)Cc1nc(C[N@H+](C)CC(=O)NCCCNC(=O)c2ccc(-c3c4nc(c(-c5c(F)cc(S(=O)(=O)[O-])cc5F)c5ccc([nH]5)c(-c5c(F)cc(S(=O)(=O)[O-])cc5F)c5nc(c(-c6c(F)cc(S(=O)(=O)[O-])cc6F)c6ccc3[nH]6)C=C5)C=C4)cc2)cs1
REMARK SMILES IDX 17 1 16 2 14 3 15 4 13 6 11 7 12 8 10 10 9 11 89 12 8 13
REMARK SMILES IDX 90 14 7 15 6 16 4 17 5 18 2 19 1 20 3 21 18 22 19 23 20 24
REMARK SMILES IDX 21 25 22 27 23 28 24 29 88 30 25 31 87 32 26 33 27 34 28 35
REMARK SMILES IDX 81 36 29 37 86 38 80 39 82 40 30 41 85 42 79 43 78 44 31 46
REMARK SMILES IDX 65 47 44 48 64 49 45 50 48 51 63 52 83 53 46 54 47 55 62 57
REMARK SMILES IDX 84 58 49 59 32 60 33 61 42 62 34 63 35 64 41 65 43 66 36 67
REMARK SMILES IDX 37 68 38 69 39 70 40 71 66 72 67 73 76 74 68 75 69 76 75 77
REMARK SMILES IDX 77 78 70 79 71 80 72 81 73 82 74 83 50 84 51 85 60 86 52 87
REMARK SMILES IDX 53 88 59 89 61 90 54 91 55 92 56 93 57 94 58 95
REMARK H PARENT 16 5 11 9 20 26 82 45 48 56
REMARK Flexibility Score: inf
ROOT
ATOM      1  C   UNL A   1      42.900  22.371  27.926  1.00  0.00     0.118 C 
ENDROOT
BRANCH   1   2
ATOM      2  N   UNL A   1      43.470  22.429  29.265  1.00  0.00    -0.351 N 
ATOM      3  C   UNL A   1      43.781  23.502  30.060  1.00  0.00     0.275 C 
ATOM      4  O   UNL A   1      44.146  23.285  31.219  1.00  0.00    -0.269 OA
ATOM      5  H   UNL A   1      43.665  21.551  29.667  1.00  0.00     0.163 HD
BRANCH   3   6
ATOM      6  C   UNL A   1      43.703  24.929  29.504  1.00  0.00     0.363 C 
BRANCH   6   7
ATOM      7  N   UNL A   1      45.059  25.428  29.300  1.00  0.00    -0.325 N 
ATOM      8  C   UNL A   1      45.518  26.488  30.169  1.00  0.00     0.333 C 
ATOM      9  H   UNL A   1      44.924  25.946  28.431  1.00  0.00     0.348 HD
BRANCH   7  10
ATOM     10  C   UNL A   1      46.068  24.430  28.920  1.00  0.00     0.320 C 
BRANCH  10  11
ATOM     11  C   UNL A   1      46.286  24.440  27.430  1.00  0.00     0.106 A 
ATOM     12  C   UNL A   1      46.782  25.485  26.681  1.00  0.00     0.096 A 
ATOM     13  N   UNL A   1      45.986  23.313  26.673  1.00  0.00    -0.240 NA
ATOM     14  S   UNL A   1      46.848  25.110  25.030  1.00  0.00    -0.126 S 
ATOM     15  C   UNL A   1      46.213  23.556  25.393  1.00  0.00     0.102 A 
BRANCH  15  16
ATOM     16  C   UNL A   1      45.958  22.596  24.282  1.00  0.00     0.167 C 
BRANCH  16  17
ATOM     17  C   UNL A   1      44.716  21.785  24.601  1.00  0.00     0.228 C 
ATOM     18  O   UNL A   1      43.605  22.325  24.555  1.00  0.00    -0.274 OA
ATOM     19  N   UNL A   1      44.850  20.442  24.936  1.00  0.00    -0.348 N 
ATOM     20  C   UNL A   1      46.116  19.756  25.149  1.00  0.00     0.146 C 
ATOM     21  C   UNL A   1      43.650  19.740  25.355  1.00  0.00     0.146 C 
ENDBRANCH  16  17
ENDBRANCH  15  16
ENDBRANCH  10  11
ENDBRANCH   7  10
ENDBRANCH   6   7
ENDBRANCH   3   6
ENDBRANCH   1   2
BRANCH   1  22
ATOM     22  C   UNL A   1      41.428  21.950  27.856  1.00  0.00     0.042 C 
BRANCH  22  23
ATOM     23  C   UNL A   1      40.461  22.996  27.295  1.00  0.00     0.118 C 
BRANCH  23  24
ATOM     24  N   UNL A   1      41.036  23.787  26.225  1.00  0.00    -0.352 N 
ATOM     25  C   UNL A   1      41.232  25.144  26.128  1.00  0.00     0.251 C 
ATOM     26  H   UNL A   1      41.335  23.269  25.443  1.00  0.00     0.163 HD
ATOM     27  O   UNL A   1      41.589  25.605  25.044  1.00  0.00    -0.269 OA
BRANCH  25  28
ATOM     28  C   UNL A   1      41.002  26.064  27.271  1.00  0.00     0.039 A 
ATOM     29  C   UNL A   1      41.846  27.174  27.399  1.00  0.00     0.014 A 
ATOM     30  C   UNL A   1      40.048  25.819  28.265  1.00  0.00     0.014 A 
ATOM     31  C   UNL A   1      41.714  28.047  28.485  1.00  0.00     0.010 A 
ATOM     32  C   UNL A   1      39.879  26.723  29.323  1.00  0.00     0.010 A 
ATOM     33  C   UNL A   1      40.717  27.843  29.452  1.00  0.00    -0.014 A 
BRANCH  33  34
ATOM     34  C   UNL A   1      40.566  28.787  30.596  1.00  0.00     0.031 A 
ATOM     35  C   UNL A   1      41.455  28.678  31.809  1.00  0.00     0.074 A 
ATOM     36  C   UNL A   1      39.621  29.749  30.554  1.00  0.00     0.049 A 
ATOM     37  N   UNL A   1      41.465  29.409  32.896  1.00  0.00    -0.248 NA
ATOM     38  C   UNL A   1      42.456  27.601  31.804  1.00  0.00     0.031 C 
ATOM     39  C   UNL A   1      38.678  29.957  29.454  1.00  0.00     0.029 A 
ATOM     40  N   UNL A   1      39.298  30.733  31.457  1.00  0.00    -0.354 N 
ATOM     41  C   UNL A   1      42.463  28.879  33.706  1.00  0.00     0.074 A 
ATOM     42  C   UNL A   1      43.007  27.735  33.003  1.00  0.00     0.031 C 
ATOM     43  C   UNL A   1      37.899  31.015  29.736  1.00  0.00     0.029 A 
ATOM     44  C   UNL A   1      38.263  31.541  31.049  1.00  0.00     0.049 A 
ATOM     45  H   UNL A   1      39.764  30.848  32.317  1.00  0.00     0.167 HD
ATOM     46  C   UNL A   1      42.904  29.312  34.914  1.00  0.00     0.037 A 
ATOM     47  C   UNL A   1      37.668  32.587  31.660  1.00  0.00     0.037 A 
ATOM     48  C   UNL A   1      42.377  30.458  35.611  1.00  0.00     0.049 A 
ATOM     49  C   UNL A   1      38.158  33.036  33.010  1.00  0.00     0.074 A 
ATOM     50  C   UNL A   1      42.787  30.994  36.821  1.00  0.00     0.029 A 
ATOM     51  N   UNL A   1      41.323  31.243  35.166  1.00  0.00    -0.354 N 
ATOM     52  N   UNL A   1      39.135  32.548  33.737  1.00  0.00    -0.248 NA
ATOM     53  C   UNL A   1      37.467  34.180  33.622  1.00  0.00     0.031 C 
ATOM     54  C   UNL A   1      41.957  32.080  37.124  1.00  0.00     0.029 A 
ATOM     55  C   UNL A   1      41.058  32.247  36.084  1.00  0.00     0.049 A 
ATOM     56  H   UNL A   1      40.835  31.107  34.322  1.00  0.00     0.167 HD
ATOM     57  C   UNL A   1      39.193  33.343  34.876  1.00  0.00     0.074 A 
ATOM     58  C   UNL A   1      38.159  34.347  34.741  1.00  0.00     0.031 C 
ATOM     59  C   UNL A   1      40.030  33.248  35.939  1.00  0.00     0.037 A 
BRANCH  46  60
ATOM     60  C   UNL A   1      44.019  28.538  35.564  1.00  0.00     0.058 A 
ATOM     61  C   UNL A   1      45.367  28.836  35.308  1.00  0.00     0.135 A 
ATOM     62  C   UNL A   1      43.740  27.506  36.475  1.00  0.00     0.135 A 
ATOM     63  F   UNL A   1      45.691  29.807  34.438  1.00  0.00    -0.206 F 
ATOM     64  C   UNL A   1      46.399  28.117  35.903  1.00  0.00     0.059 A 
ATOM     65  C   UNL A   1      44.757  26.790  37.102  1.00  0.00     0.059 A 
ATOM     66  F   UNL A   1      42.470  27.183  36.762  1.00  0.00    -0.206 F 
ATOM     67  C   UNL A   1      46.083  27.091  36.795  1.00  0.00     0.060 A 
BRANCH  67  68
ATOM     68  S   UNL A   1      47.429  26.157  37.554  1.00  0.00     0.124 S 
ATOM     69  O   UNL A   1      47.105  24.794  37.140  1.00  0.00    -0.237 OA
ATOM     70  O   UNL A   1      48.612  26.741  36.920  1.00  0.00    -0.237 OA
ATOM     71  O   UNL A   1      47.282  26.436  38.973  1.00  0.00    -0.744 OA
ENDBRANCH  67  68
ENDBRANCH  46  60
BRANCH  47  72
ATOM     72  C   UNL A   1      36.550  33.298  30.985  1.00  0.00     0.058 A 
ATOM     73  C   UNL A   1      35.228  33.151  31.433  1.00  0.00     0.135 A 
ATOM     74  C   UNL A   1      36.779  34.145  29.890  1.00  0.00     0.135 A 
ATOM     75  F   UNL A   1      34.958  32.344  32.470  1.00  0.00    -0.206 F 
ATOM     76  C   UNL A   1      34.172  33.810  30.813  1.00  0.00     0.059 A 
ATOM     77  C   UNL A   1      35.743  34.833  29.269  1.00  0.00     0.059 A 
ATOM     78  F   UNL A   1      38.028  34.329  29.432  1.00  0.00    -0.206 F 
ATOM     79  C   UNL A   1      34.440  34.652  29.732  1.00  0.00     0.060 A 
BRANCH  79  80
ATOM     80  S   UNL A   1      33.070  35.549  28.970  1.00  0.00     0.124 S 
ATOM     81  O   UNL A   1      33.772  36.620  28.272  1.00  0.00    -0.237 OA
ATOM     82  O   UNL A   1      32.463  34.525  28.126  1.00  0.00    -0.237 OA
ATOM     83  O   UNL A   1      32.264  35.963  30.115  1.00  0.00    -0.744 OA
ENDBRANCH  79  80
ENDBRANCH  47  72
BRANCH  59  84
ATOM     84  C   UNL A   1      39.888  34.275  37.029  1.00  0.00     0.058 A 
ATOM     85  C   UNL A   1      40.514  35.529  36.948  1.00  0.00     0.135 A 
ATOM     86  C   UNL A   1      39.080  34.017  38.149  1.00  0.00     0.135 A 
ATOM     87  F   UNL A   1      41.303  35.823  35.903  1.00  0.00    -0.206 F 
ATOM     88  C   UNL A   1      40.359  36.484  37.948  1.00  0.00     0.059 A 
ATOM     89  C   UNL A   1      38.892  34.967  39.149  1.00  0.00     0.059 A 
ATOM     90  F   UNL A   1      38.452  32.837  38.272  1.00  0.00    -0.206 F 
ATOM     91  C   UNL A   1      39.546  36.194  39.045  1.00  0.00     0.060 A 
BRANCH  91  92
ATOM     92  S   UNL A   1      39.327  37.454  40.320  1.00  0.00     0.124 S 
ATOM     93  O   UNL A   1      38.203  38.218  39.789  1.00  0.00    -0.237 OA
ATOM     94  O   UNL A   1      39.045  36.653  41.508  1.00  0.00    -0.237 OA
ATOM     95  O   UNL A   1      40.610  38.151  40.333  1.00  0.00    -0.744 OA
ENDBRANCH  91  92
ENDBRANCH  59  84
ENDBRANCH  33  34
ENDBRANCH  25  28
ENDBRANCH  23  24
ENDBRANCH  22  23
ENDBRANCH   1  22
TORSDOF 18
ENDMDL
MODEL 2
REMARK VINA RESULT:     -10.2      5.792     13.872
REMARK SMILES CN(C)C(=O)Cc1nc(C[N@H+](C)CC(=O)NCCCNC(=O)c2ccc(-c3c4nc(c(-c5c(F)cc(S(=O)(=O)[O-])cc5F)c5ccc([nH]5)c(-c5c(F)cc(S(=O)(=O)[O-])cc5F)c5nc(c(-c6c(F)cc(S(=O)(=O)[O-])cc6F)c6ccc3[nH]6)C=C5)C=C4)cc2)cs1
REMARK SMILES IDX 17 1 16 2 14 3 15 4 13 6 11 7 12 8 10 10 9 11 89 12 8 13
REMARK SMILES IDX 90 14 7 15 6 16 4 17 5 18 2 19 1 20 3 21 18 22 19 23 20 24
REMARK SMILES IDX 21 25 22 27 23 28 24 29 88 30 25 31 87 32 26 33 27 34 28 35
REMARK SMILES IDX 81 36 29 37 86 38 80 39 82 40 30 41 85 42 79 43 78 44 31 46
REMARK SMILES IDX 65 47 44 48 64 49 45 50 48 51 63 52 83 53 46 54 47 55 62 57
REMARK SMILES IDX 84 58 49 59 32 60 33 61 42 62 34 63 35 64 41 65 43 66 36 67
REMARK SMILES IDX 37 68 38 69 39 70 40 71 66 72 67 73 76 74 68 75 69 76 75 77
REMARK SMILES IDX 77 78 70 79 71 80 72 81 73 82 74 83 50 84 51 85 60 86 52 87
REMARK SMILES IDX 53 88 59 89 61 90 54 91 55 92 56 93 57 94 58 95
REMARK H PARENT 16 5 11 9 20 26 82 45 48 56
REMARK Flexibility Score: inf
ROOT
ATOM      1  C   UNL A   1      35.351  34.436  28.491  1.00  0.00     0.118 C 
ENDROOT
BRANCH   1   2
ATOM      2  N   UNL A   1      34.449  35.562  28.286  1.00  0.00    -0.351 N 
ATOM      3  C   UNL A   1      33.453  36.067  29.081  1.00  0.00     0.275 C 
ATOM      4  O   UNL A   1      32.904  37.117  28.735  1.00  0.00    -0.269 OA
ATOM      5  H   UNL A   1      34.575  36.039  27.434  1.00  0.00     0.163 HD
BRANCH   3   6
ATOM      6  C   UNL A   1      33.020  35.324  30.351  1.00  0.00     0.363 C 
BRANCH   6   7
ATOM      7  N   UNL A   1      33.909  35.705  31.444  1.00  0.00    -0.325 N 
ATOM      8  C   UNL A   1      33.781  37.045  31.971  1.00  0.00     0.333 C 
ATOM      9  H   UNL A   1      34.787  35.791  30.931  1.00  0.00     0.348 HD
BRANCH   7  10
ATOM     10  C   UNL A   1      34.216  34.658  32.427  1.00  0.00     0.320 C 
BRANCH  10  11
ATOM     11  C   UNL A   1      35.703  34.430  32.507  1.00  0.00     0.106 A 
ATOM     12  C   UNL A   1      36.552  34.900  33.486  1.00  0.00     0.096 A 
ATOM     13  N   UNL A   1      36.347  33.673  31.536  1.00  0.00    -0.240 NA
ATOM     14  S   UNL A   1      38.162  34.450  33.202  1.00  0.00    -0.126 S 
ATOM     15  C   UNL A   1      37.647  33.637  31.779  1.00  0.00     0.102 A 
BRANCH  15  16
ATOM     16  C   UNL A   1      38.660  32.960  30.921  1.00  0.00     0.167 C 
BRANCH  16  17
ATOM     17  C   UNL A   1      39.233  33.967  29.941  1.00  0.00     0.228 C 
ATOM     18  O   UNL A   1      38.557  34.332  28.973  1.00  0.00    -0.274 OA
ATOM     19  N   UNL A   1      40.514  34.466  30.153  1.00  0.00    -0.348 N 
ATOM     20  C   UNL A   1      41.435  33.998  31.179  1.00  0.00     0.146 C 
ATOM     21  C   UNL A   1      41.069  35.328  29.125  1.00  0.00     0.146 C 
ENDBRANCH  16  17
ENDBRANCH  15  16
ENDBRANCH  10  11
ENDBRANCH   7  10
ENDBRANCH   6   7
ENDBRANCH   3   6
ENDBRANCH   1   2
BRANCH   1  22
ATOM     22  C   UNL A   1      34.815  33.074  28.037  1.00  0.00     0.042 C 
BRANCH  22  23
ATOM     23  C   UNL A   1      35.748  31.881  28.258  1.00  0.00     0.118 C 
BRANCH  23  24
ATOM     24  N   UNL A   1      35.527  31.213  29.525  1.00  0.00    -0.352 N 
ATOM     25  C   UNL A   1      36.279  30.263  30.175  1.00  0.00     0.251 C 
ATOM     26  H   UNL A   1      34.707  31.484  29.998  1.00  0.00     0.163 HD
ATOM     27  O   UNL A   1      35.799  29.719  31.169  1.00  0.00    -0.269 OA
BRANCH  25  28
ATOM     28  C   UNL A   1      37.628  29.857  29.701  1.00  0.00     0.039 A 
ATOM     29  C   UNL A   1      38.570  29.472  30.662  1.00  0.00     0.014 A 
ATOM     30  C   UNL A   1      38.017  29.933  28.359  1.00  0.00     0.014 A 
ATOM     31  C   UNL A   1      39.874  29.132  30.283  1.00  0.00     0.010 A 
ATOM     32  C   UNL A   1      39.307  29.540  27.974  1.00  0.00     0.010 A 
ATOM     33  C   UNL A   1      40.254  29.143  28.932  1.00  0.00    -0.014 A 
BRANCH  33  34
ATOM     34  C   UNL A   1      41.638  28.760  28.531  1.00  0.00     0.031 A 
ATOM     35  C   UNL A   1      42.746  29.782  28.507  1.00  0.00     0.074 A 
ATOM     36  C   UNL A   1      41.907  27.485  28.177  1.00  0.00     0.049 A 
ATOM     37  N   UNL A   1      44.006  29.629  28.183  1.00  0.00    -0.248 NA
ATOM     38  C   UNL A   1      42.390  31.157  28.887  1.00  0.00     0.031 C 
ATOM     39  C   UNL A   1      40.928  26.398  28.133  1.00  0.00     0.029 A 
ATOM     40  N   UNL A   1      43.082  26.888  27.790  1.00  0.00    -0.354 N 
ATOM     41  C   UNL A   1      44.591  30.884  28.312  1.00  0.00     0.074 A 
ATOM     42  C   UNL A   1      43.536  31.797  28.701  1.00  0.00     0.031 C 
ATOM     43  C   UNL A   1      41.546  25.264  27.764  1.00  0.00     0.029 A 
ATOM     44  C   UNL A   1      42.957  25.547  27.513  1.00  0.00     0.049 A 
ATOM     45  H   UNL A   1      43.934  27.375  27.717  1.00  0.00     0.167 HD
ATOM     46  C   UNL A   1      45.888  31.243  28.143  1.00  0.00     0.037 A 
ATOM     47  C   UNL A   1      43.869  24.644  27.101  1.00  0.00     0.037 A 
ATOM     48  C   UNL A   1      46.944  30.337  27.770  1.00  0.00     0.049 A 
ATOM     49  C   UNL A   1      45.298  25.070  26.898  1.00  0.00     0.074 A 
ATOM     50  C   UNL A   1      48.294  30.604  27.614  1.00  0.00     0.029 A 
ATOM     51  N   UNL A   1      46.772  28.989  27.492  1.00  0.00    -0.354 N 
ATOM     52  N   UNL A   1      45.838  26.253  27.071  1.00  0.00    -0.248 NA
ATOM     53  C   UNL A   1      46.243  24.038  26.446  1.00  0.00     0.031 C 
ATOM     54  C   UNL A   1      48.932  29.427  27.205  1.00  0.00     0.029 A 
ATOM     55  C   UNL A   1      47.986  28.416  27.147  1.00  0.00     0.049 A 
ATOM     56  H   UNL A   1      45.913  28.509  27.532  1.00  0.00     0.167 HD
ATOM     57  C   UNL A   1      47.189  26.099  26.778  1.00  0.00     0.074 A 
ATOM     58  C   UNL A   1      47.386  24.710  26.423  1.00  0.00     0.031 C 
ATOM     59  C   UNL A   1      48.176  27.029  26.801  1.00  0.00     0.037 A 
BRANCH  46  60
ATOM     60  C   UNL A   1      46.240  32.691  28.362  1.00  0.00     0.058 A 
ATOM     61  C   UNL A   1      46.179  33.628  27.318  1.00  0.00     0.135 A 
ATOM     62  C   UNL A   1      46.614  33.154  29.634  1.00  0.00     0.135 A 
ATOM     63  F   UNL A   1      45.836  33.238  26.079  1.00  0.00    -0.206 F 
ATOM     64  C   UNL A   1      46.511  34.965  27.517  1.00  0.00     0.059 A 
ATOM     65  C   UNL A   1      46.925  34.492  29.863  1.00  0.00     0.059 A 
ATOM     66  F   UNL A   1      46.683  32.303  30.670  1.00  0.00    -0.206 F 
ATOM     67  C   UNL A   1      46.888  35.386  28.793  1.00  0.00     0.060 A 
BRANCH  67  68
ATOM     68  S   UNL A   1      47.326  37.120  29.039  1.00  0.00     0.124 S 
ATOM     69  O   UNL A   1      48.555  37.000  29.820  1.00  0.00    -0.237 OA
ATOM     70  O   UNL A   1      47.497  37.598  27.666  1.00  0.00    -0.237 OA
ATOM     71  O   UNL A   1      46.180  37.666  29.749  1.00  0.00    -0.744 OA
ENDBRANCH  67  68
ENDBRANCH  46  60
BRANCH  47  72
ATOM     72  C   UNL A   1      43.461  23.232  26.871  1.00  0.00     0.058 A 
ATOM     73  C   UNL A   1      43.336  22.721  25.570  1.00  0.00     0.135 A 
ATOM     74  C   UNL A   1      43.198  22.365  27.943  1.00  0.00     0.135 A 
ATOM     75  F   UNL A   1      43.567  23.514  24.513  1.00  0.00    -0.206 F 
ATOM     76  C   UNL A   1      42.956  21.403  25.339  1.00  0.00     0.059 A 
ATOM     77  C   UNL A   1      42.839  21.038  27.737  1.00  0.00     0.059 A 
ATOM     78  F   UNL A   1      43.316  22.804  29.206  1.00  0.00    -0.206 F 
ATOM     79  C   UNL A   1      42.712  20.567  26.430  1.00  0.00     0.060 A 
BRANCH  79  80
ATOM     80  S   UNL A   1      42.275  18.842  26.122  1.00  0.00     0.124 S 
ATOM     81  O   UNL A   1      40.870  18.956  25.752  1.00  0.00    -0.237 OA
ATOM     82  O   UNL A   1      43.194  18.480  25.047  1.00  0.00    -0.237 OA
ATOM     83  O   UNL A   1      42.541  18.197  27.405  1.00  0.00    -0.744 OA
ENDBRANCH  79  80
ENDBRANCH  47  72
BRANCH  59  84
ATOM     84  C   UNL A   1      49.569  26.571  26.465  1.00  0.00     0.058 A 
ATOM     85  C   UNL A   1      50.065  26.619  25.152  1.00  0.00     0.135 A 
ATOM     86  C   UNL A   1      50.434  26.121  27.476  1.00  0.00     0.135 A 
ATOM     87  F   UNL A   1      49.277  27.033  24.148  1.00  0.00    -0.206 F 
ATOM     88  C   UNL A   1      51.363  26.217  24.851  1.00  0.00     0.059 A 
ATOM     89  C   UNL A   1      51.743  25.738  27.201  1.00  0.00     0.059 A 
ATOM     90  F   UNL A   1      50.013  26.064  28.749  1.00  0.00    -0.206 F 
ATOM     91  C   UNL A   1      52.195  25.778  25.882  1.00  0.00     0.060 A 
BRANCH  91  92
ATOM     92  S   UNL A   1      53.887  25.291  25.484  1.00  0.00     0.124 S 
ATOM     93  O   UNL A   1      54.390  26.488  24.819  1.00  0.00    -0.237 OA
ATOM     94  O   UNL A   1      54.453  25.012  26.801  1.00  0.00    -0.237 OA
ATOM     95  O   UNL A   1      53.712  24.123  24.625  1.00  0.00    -0.744 OA
ENDBRANCH  91  92
ENDBRANCH  59  84
ENDBRANCH  33  34
ENDBRANCH  25  28
ENDBRANCH  23  24
ENDBRANCH  22  23
ENDBRANCH   1  22
TORSDOF 18
ENDMDL
MODEL 3
REMARK VINA RESULT:     -10.1      3.610      5.988
REMARK SMILES CN(C)C(=O)Cc1nc(C[N@H+](C)CC(=O)NCCCNC(=O)c2ccc(-c3c4nc(c(-c5c(F)cc(S(=O)(=O)[O-])cc5F)c5ccc([nH]5)c(-c5c(F)cc(S(=O)(=O)[O-])cc5F)c5nc(c(-c6c(F)cc(S(=O)(=O)[O-])cc6F)c6ccc3[nH]6)C=C5)C=C4)cc2)cs1
REMARK SMILES IDX 17 1 16 2 14 3 15 4 13 6 11 7 12 8 10 10 9 11 89 12 8 13
REMARK SMILES IDX 90 14 7 15 6 16 4 17 5 18 2 19 1 20 3 21 18 22 19 23 20 24
REMARK SMILES IDX 21 25 22 27 23 28 24 29 88 30 25 31 87 32 26 33 27 34 28 35
REMARK SMILES IDX 81 36 29 37 86 38 80 39 82 40 30 41 85 42 79 43 78 44 31 46
REMARK SMILES IDX 65 47 44 48 64 49 45 50 48 51 63 52 83 53 46 54 47 55 62 57
REMARK SMILES IDX 84 58 49 59 32 60 33 61 42 62 34 63 35 64 41 65 43 66 36 67
REMARK SMILES IDX 37 68 38 69 39 70 40 71 66 72 67 73 76 74 68 75 69 76 75 77
REMARK SMILES IDX 77 78 70 79 71 80 72 81 73 82 74 83 50 84 51 85 60 86 52 87
REMARK SMILES IDX 53 88 59 89 61 90 54 91 55 92 56 93 57 94 58 95
REMARK H PARENT 16 5 11 9 20 26 82 45 48 56
REMARK Flexibility Score: inf
ROOT
ATOM      1  C   UNL A   1      38.320  23.232  26.232  1.00  0.00     0.118 C 
ENDROOT
BRANCH   1   2
ATOM      2  N   UNL A   1      37.831  23.238  24.860  1.00  0.00    -0.351 N 
ATOM      3  C   UNL A   1      36.917  22.432  24.231  1.00  0.00     0.275 C 
ATOM      4  O   UNL A   1      36.578  22.719  23.080  1.00  0.00    -0.269 OA
ATOM      5  H   UNL A   1      38.222  23.938  24.288  1.00  0.00     0.163 HD
BRANCH   3   6
ATOM      6  C   UNL A   1      36.360  21.190  24.938  1.00  0.00     0.363 C 
BRANCH   6   7
ATOM      7  N   UNL A   1      34.914  21.335  25.069  1.00  0.00    -0.325 N 
ATOM      8  C   UNL A   1      34.100  20.171  24.802  1.00  0.00     0.333 C 
ATOM      9  H   UNL A   1      34.720  21.892  24.237  1.00  0.00     0.348 HD
BRANCH   7  10
ATOM     10  C   UNL A   1      34.444  22.209  26.153  1.00  0.00     0.320 C 
BRANCH  10  11
ATOM     11  C   UNL A   1      33.368  23.137  25.653  1.00  0.00     0.106 A 
ATOM     12  C   UNL A   1      32.344  23.680  26.399  1.00  0.00     0.096 A 
ATOM     13  N   UNL A   1      33.350  23.532  24.321  1.00  0.00    -0.240 NA
ATOM     14  S   UNL A   1      31.321  24.653  25.461  1.00  0.00    -0.126 S 
ATOM     15  C   UNL A   1      32.303  24.307  24.094  1.00  0.00     0.102 A 
BRANCH  15  16
ATOM     16  C   UNL A   1      31.932  24.878  22.769  1.00  0.00     0.167 C 
BRANCH  16  17
ATOM     17  C   UNL A   1      32.946  25.941  22.385  1.00  0.00     0.228 C 
ATOM     18  O   UNL A   1      34.026  25.604  21.887  1.00  0.00    -0.274 OA
ATOM     19  N   UNL A   1      32.639  27.281  22.599  1.00  0.00    -0.348 N 
ATOM     20  C   UNL A   1      31.460  27.766  23.301  1.00  0.00     0.146 C 
ATOM     21  C   UNL A   1      33.686  28.251  22.334  1.00  0.00     0.146 C 
ENDBRANCH  16  17
ENDBRANCH  15  16
ENDBRANCH  10  11
ENDBRANCH   7  10
ENDBRANCH   6   7
ENDBRANCH   3   6
ENDBRANCH   1   2
BRANCH   1  22
ATOM     22  C   UNL A   1      39.555  22.361  26.485  1.00  0.00     0.042 C 
BRANCH  22  23
ATOM     23  C   UNL A   1      40.789  23.090  27.023  1.00  0.00     0.118 C 
BRANCH  23  24
ATOM     24  N   UNL A   1      41.498  23.836  26.004  1.00  0.00    -0.352 N 
ATOM     25  C   UNL A   1      41.864  25.160  25.963  1.00  0.00     0.251 C 
ATOM     26  H   UNL A   1      41.760  23.310  25.214  1.00  0.00     0.163 HD
ATOM     27  O   UNL A   1      42.317  25.608  24.909  1.00  0.00    -0.269 OA
BRANCH  25  28
ATOM     28  C   UNL A   1      41.706  26.066  27.131  1.00  0.00     0.039 A 
ATOM     29  C   UNL A   1      40.606  25.861  27.973  1.00  0.00     0.014 A 
ATOM     30  C   UNL A   1      42.549  27.157  27.366  1.00  0.00     0.014 A 
ATOM     31  C   UNL A   1      40.373  26.714  29.057  1.00  0.00     0.010 A 
ATOM     32  C   UNL A   1      42.346  27.979  28.484  1.00  0.00     0.010 A 
ATOM     33  C   UNL A   1      41.250  27.774  29.338  1.00  0.00    -0.014 A 
BRANCH  33  34
ATOM     34  C   UNL A   1      41.009  28.668  30.507  1.00  0.00     0.031 A 
ATOM     35  C   UNL A   1      41.863  28.565  31.746  1.00  0.00     0.074 A 
ATOM     36  C   UNL A   1      40.014  29.578  30.464  1.00  0.00     0.049 A 
ATOM     37  N   UNL A   1      41.795  29.256  32.857  1.00  0.00    -0.248 NA
ATOM     38  C   UNL A   1      42.921  27.544  31.740  1.00  0.00     0.031 C 
ATOM     39  C   UNL A   1      39.098  29.772  29.340  1.00  0.00     0.029 A 
ATOM     40  N   UNL A   1      39.607  30.509  31.388  1.00  0.00    -0.354 N 
ATOM     41  C   UNL A   1      42.794  28.753  33.683  1.00  0.00     0.074 A 
ATOM     42  C   UNL A   1      43.424  27.666  32.961  1.00  0.00     0.031 C 
ATOM     43  C   UNL A   1      38.252  30.775  29.629  1.00  0.00     0.029 A 
ATOM     44  C   UNL A   1      38.542  31.274  30.971  1.00  0.00     0.049 A 
ATOM     45  H   UNL A   1      40.036  30.619  32.267  1.00  0.00     0.167 HD
ATOM     46  C   UNL A   1      43.170  29.167  34.920  1.00  0.00     0.037 A 
ATOM     47  C   UNL A   1      37.870  32.263  31.595  1.00  0.00     0.037 A 
ATOM     48  C   UNL A   1      42.557  30.256  35.636  1.00  0.00     0.049 A 
ATOM     49  C   UNL A   1      38.289  32.690  32.976  1.00  0.00     0.074 A 
ATOM     50  C   UNL A   1      42.896  30.771  36.876  1.00  0.00     0.029 A 
ATOM     51  N   UNL A   1      41.476  30.998  35.180  1.00  0.00    -0.354 N 
ATOM     52  N   UNL A   1      39.267  32.232  33.720  1.00  0.00    -0.248 NA
ATOM     53  C   UNL A   1      37.515  33.773  33.601  1.00  0.00     0.031 C 
ATOM     54  C   UNL A   1      41.997  31.799  37.187  1.00  0.00     0.029 A 
ATOM     55  C   UNL A   1      41.125  31.953  36.122  1.00  0.00     0.049 A 
ATOM     56  H   UNL A   1      41.025  30.865  34.315  1.00  0.00     0.167 HD
ATOM     57  C   UNL A   1      39.243  32.988  34.887  1.00  0.00     0.074 A 
ATOM     58  C   UNL A   1      38.160  33.938  34.749  1.00  0.00     0.031 C 
ATOM     59  C   UNL A   1      40.048  32.901  35.974  1.00  0.00     0.037 A 
BRANCH  46  60
ATOM     60  C   UNL A   1      44.305  28.432  35.582  1.00  0.00     0.058 A 
ATOM     61  C   UNL A   1      44.075  27.342  36.437  1.00  0.00     0.135 A 
ATOM     62  C   UNL A   1      45.638  28.801  35.337  1.00  0.00     0.135 A 
ATOM     63  F   UNL A   1      42.820  26.952  36.713  1.00  0.00    -0.206 F 
ATOM     64  C   UNL A   1      45.123  26.666  37.054  1.00  0.00     0.059 A 
ATOM     65  C   UNL A   1      46.703  28.122  35.924  1.00  0.00     0.059 A 
ATOM     66  F   UNL A   1      45.916  29.831  34.523  1.00  0.00    -0.206 F 
ATOM     67  C   UNL A   1      46.434  27.068  36.795  1.00  0.00     0.060 A 
BRANCH  67  68
ATOM     68  S   UNL A   1      47.786  26.191  37.609  1.00  0.00     0.124 S 
ATOM     69  O   UNL A   1      48.181  27.155  38.634  1.00  0.00    -0.237 OA
ATOM     70  O   UNL A   1      47.123  24.984  38.105  1.00  0.00    -0.237 OA
ATOM     71  O   UNL A   1      48.749  25.977  36.542  1.00  0.00    -0.744 OA
ENDBRANCH  67  68
ENDBRANCH  46  60
BRANCH  47  72
ATOM     72  C   UNL A   1      36.737  32.936  30.906  1.00  0.00     0.058 A 
ATOM     73  C   UNL A   1      35.408  32.639  31.247  1.00  0.00     0.135 A 
ATOM     74  C   UNL A   1      36.957  33.893  29.903  1.00  0.00     0.135 A 
ATOM     75  F   UNL A   1      35.147  31.724  32.192  1.00  0.00    -0.206 F 
ATOM     76  C   UNL A   1      34.338  33.261  30.613  1.00  0.00     0.059 A 
ATOM     77  C   UNL A   1      35.904  34.544  29.271  1.00  0.00     0.059 A 
ATOM     78  F   UNL A   1      38.210  34.220  29.551  1.00  0.00    -0.206 F 
ATOM     79  C   UNL A   1      34.596  34.215  29.627  1.00  0.00     0.060 A 
BRANCH  79  80
ATOM     80  S   UNL A   1      33.201  35.059  28.849  1.00  0.00     0.124 S 
ATOM     81  O   UNL A   1      32.338  35.317  29.995  1.00  0.00    -0.237 OA
ATOM     82  O   UNL A   1      33.843  36.227  28.254  1.00  0.00    -0.237 OA
ATOM     83  O   UNL A   1      32.706  34.072  27.893  1.00  0.00    -0.744 OA
ENDBRANCH  79  80
ENDBRANCH  47  72
BRANCH  59  84
ATOM     84  C   UNL A   1      39.813  33.879  37.093  1.00  0.00     0.058 A 
ATOM     85  C   UNL A   1      38.997  33.563  38.191  1.00  0.00     0.135 A 
ATOM     86  C   UNL A   1      40.448  35.132  37.087  1.00  0.00     0.135 A 
ATOM     87  F   UNL A   1      38.362  32.382  38.241  1.00  0.00    -0.206 F 
ATOM     88  C   UNL A   1      38.803  34.462  39.235  1.00  0.00     0.059 A 
ATOM     89  C   UNL A   1      40.286  36.038  38.132  1.00  0.00     0.059 A 
ATOM     90  F   UNL A   1      41.244  35.482  36.065  1.00  0.00    -0.206 F 
ATOM     91  C   UNL A   1      39.452  35.698  39.196  1.00  0.00     0.060 A 
BRANCH  91  92
ATOM     92  S   UNL A   1      39.218  36.844  40.572  1.00  0.00     0.124 S 
ATOM     93  O   UNL A   1      40.596  37.113  40.968  1.00  0.00    -0.237 OA
ATOM     94  O   UNL A   1      38.511  37.954  39.940  1.00  0.00    -0.237 OA
ATOM     95  O   UNL A   1      38.430  36.071  41.528  1.00  0.00    -0.744 OA
ENDBRANCH  91  92
ENDBRANCH  59  84
ENDBRANCH  33  34
ENDBRANCH  25  28
ENDBRANCH  23  24
ENDBRANCH  22  23
ENDBRANCH   1  22
TORSDOF 18
ENDMDL
