MODEL 1
REMARK VINA RESULT:     -11.7      0.000      0.000
REMARK SMILES O=C(CCCN1C(=O)C(=O)/C(=C(/[O-])c2ccccc2)[C@@H]1/C=C/c1ccccc1)NCCCNC(=O)c1ccc(-c2c3nc(c(-c4c(F)cc(S(=O)(=O)[O-])cc4F)c4ccc([nH]4)c(-c4c(F)cc(S(=O)(=O)[O-])cc4F)c4nc(c(-c5c(F)cc(S(=O)(=O)[O-])cc5F)c5ccc2[nH]5)C=C4)C=C3)cc1
REMARK SMILES IDX 30 1 29 2 1 3 2 4 3 6 4 7 5 8 6 9 7 10 20 11 8 12 9 13 11 14
REMARK SMILES IDX 10 15 12 16 13 17 21 18 22 19 23 20 24 21 28 22 25 23 27 24
REMARK SMILES IDX 26 25 14 26 15 27 19 28 16 29 18 30 17 31 31 32 32 33 33 34
REMARK SMILES IDX 34 35 35 37 36 38 37 39 101 40 38 41 100 42 39 43 40 44
REMARK SMILES IDX 41 45 94 46 42 47 99 48 93 49 95 50 43 51 98 52 92 53 91 54
REMARK SMILES IDX 44 56 78 57 57 58 77 59 58 60 61 61 76 62 96 63 59 64 60 65
REMARK SMILES IDX 75 67 97 68 62 69 45 70 46 71 55 72 47 73 48 74 54 75 56 76
REMARK SMILES IDX 49 77 50 78 51 79 52 80 53 81 79 82 80 83 89 84 81 85 82 86
REMARK SMILES IDX 88 87 90 88 83 89 84 90 85 91 86 92 87 93 63 94 64 95 73 96
REMARK SMILES IDX 65 97 66 98 72 99 74 100 67 101 68 102 69 103 70 104 71 105
REMARK H PARENT 29 5 33 36 95 55 61 66
REMARK Flexibility Score: inf
ROOT
ATOM      1  C   UNL A   1      35.932  33.148  28.355  1.00  0.00     0.117 C 
ENDROOT
BRANCH   1   2
ATOM      2  N   UNL A   1      34.624  32.613  28.045  1.00  0.00    -0.356 N 
ATOM      3  O   UNL A   1      33.533  34.635  27.985  1.00  0.00    -0.275 OA
ATOM      4  C   UNL A   1      33.520  33.415  27.883  1.00  0.00     0.220 C 
ATOM      5  H   UNL A   1      34.521  31.638  27.945  1.00  0.00     0.163 HD
BRANCH   4   6
ATOM      6  C   UNL A   1      32.261  32.634  27.579  1.00  0.00     0.102 C 
BRANCH   6   7
ATOM      7  C   UNL A   1      32.460  31.542  26.530  1.00  0.00     0.031 C 
BRANCH   7   8
ATOM      8  C   UNL A   1      32.019  30.124  26.916  1.00  0.00     0.121 C 
BRANCH   8   9
ATOM      9  N   UNL A   1      32.192  29.064  25.918  1.00  0.00    -0.325 N 
ATOM     10  C   UNL A   1      33.372  28.339  25.890  1.00  0.00     0.295 C 
ATOM     11  C   UNL A   1      31.126  28.406  25.174  1.00  0.00     0.143 C 
ATOM     12  O   UNL A   1      34.397  28.547  26.509  1.00  0.00    -0.265 OA
ATOM     13  C   UNL A   1      33.156  27.142  24.975  1.00  0.00     0.248 C 
ATOM     14  C   UNL A   1      31.724  27.157  24.569  1.00  0.00     0.024 C 
ATOM     15  O   UNL A   1      34.030  26.361  24.672  1.00  0.00    -0.283 OA
ATOM     16  C   UNL A   1      31.128  26.266  23.750  1.00  0.00    -0.092 C 
ATOM     17  O   UNL A   1      29.801  26.340  23.369  1.00  0.00    -0.872 OA
BRANCH  11  18
ATOM     18  C   UNL A   1      30.565  29.326  24.125  1.00  0.00     0.003 C 
ATOM     19  C   UNL A   1      29.305  29.785  24.050  1.00  0.00     0.006 C 
BRANCH  19  20
ATOM     20  C   UNL A   1      28.895  30.627  22.927  1.00  0.00    -0.026 A 
ATOM     21  C   UNL A   1      28.479  30.063  21.718  1.00  0.00     0.008 A 
ATOM     22  C   UNL A   1      28.879  32.018  23.082  1.00  0.00     0.008 A 
ATOM     23  C   UNL A   1      28.057  30.889  20.672  1.00  0.00     0.001 A 
ATOM     24  C   UNL A   1      28.454  32.840  22.039  1.00  0.00     0.001 A 
ATOM     25  C   UNL A   1      28.044  32.275  20.834  1.00  0.00     0.000 A 
ENDBRANCH  19  20
ENDBRANCH  11  18
BRANCH  16  26
ATOM     26  C   UNL A   1      31.821  25.163  23.066  1.00  0.00    -0.033 A 
ATOM     27  C   UNL A   1      32.408  25.410  21.815  1.00  0.00     0.007 A 
ATOM     28  C   UNL A   1      31.895  23.876  23.608  1.00  0.00     0.007 A 
ATOM     29  C   UNL A   1      33.085  24.398  21.133  1.00  0.00     0.001 A 
ATOM     30  C   UNL A   1      32.579  22.864  22.928  1.00  0.00     0.001 A 
ATOM     31  C   UNL A   1      33.176  23.126  21.695  1.00  0.00     0.000 A 
ENDBRANCH  16  26
ENDBRANCH   8   9
ENDBRANCH   7   8
ENDBRANCH   6   7
ENDBRANCH   4   6
ENDBRANCH   1   2
BRANCH   1  32
ATOM     32  C   UNL A   1      35.951  33.868  29.699  1.00  0.00     0.042 C 
BRANCH  32  33
ATOM     33  C   UNL A   1      36.845  33.230  30.763  1.00  0.00     0.118 C 
BRANCH  33  34
ATOM     34  N   UNL A   1      36.302  31.999  31.305  1.00  0.00    -0.352 N 
ATOM     35  C   UNL A   1      36.762  30.709  31.202  1.00  0.00     0.251 C 
ATOM     36  H   UNL A   1      35.476  32.105  31.830  1.00  0.00     0.163 HD
ATOM     37  O   UNL A   1      36.053  29.791  31.608  1.00  0.00    -0.269 OA
BRANCH  35  38
ATOM     38  C   UNL A   1      38.077  30.410  30.588  1.00  0.00     0.039 A 
ATOM     39  C   UNL A   1      39.175  30.227  31.432  1.00  0.00     0.014 A 
ATOM     40  C   UNL A   1      38.249  30.343  29.202  1.00  0.00     0.014 A 
ATOM     41  C   UNL A   1      40.428  29.923  30.891  1.00  0.00     0.010 A 
ATOM     42  C   UNL A   1      39.483  29.970  28.667  1.00  0.00     0.010 A 
ATOM     43  C   UNL A   1      40.588  29.758  29.504  1.00  0.00    -0.014 A 
BRANCH  43  44
ATOM     44  C   UNL A   1      41.903  29.350  28.943  1.00  0.00     0.031 A 
ATOM     45  C   UNL A   1      43.034  30.336  28.823  1.00  0.00     0.074 A 
ATOM     46  C   UNL A   1      42.071  28.082  28.512  1.00  0.00     0.049 A 
ATOM     47  N   UNL A   1      44.253  30.143  28.385  1.00  0.00    -0.248 NA
ATOM     48  C   UNL A   1      42.756  31.724  29.222  1.00  0.00     0.031 C 
ATOM     49  C   UNL A   1      41.034  27.047  28.508  1.00  0.00     0.029 A 
ATOM     50  N   UNL A   1      43.174  27.447  27.999  1.00  0.00    -0.354 N 
ATOM     51  C   UNL A   1      44.884  31.380  28.450  1.00  0.00     0.074 A 
ATOM     52  C   UNL A   1      43.895  32.328  28.917  1.00  0.00     0.031 C 
ATOM     53  C   UNL A   1      41.561  25.899  28.053  1.00  0.00     0.029 A 
ATOM     54  C   UNL A   1      42.962  26.119  27.710  1.00  0.00     0.049 A 
ATOM     55  H   UNL A   1      44.037  27.899  27.852  1.00  0.00     0.167 HD
ATOM     56  C   UNL A   1      46.173  31.694  28.172  1.00  0.00     0.037 A 
ATOM     57  C   UNL A   1      43.802  25.181  27.234  1.00  0.00     0.037 A 
ATOM     58  C   UNL A   1      47.162  30.743  27.730  1.00  0.00     0.049 A 
ATOM     59  C   UNL A   1      45.238  25.543  26.972  1.00  0.00     0.074 A 
ATOM     60  C   UNL A   1      48.508  30.953  27.477  1.00  0.00     0.029 A 
ATOM     61  N   UNL A   1      46.916  29.402  27.478  1.00  0.00    -0.354 N 
ATOM     62  N   UNL A   1      45.832  26.704  27.107  1.00  0.00    -0.248 NA
ATOM     63  C   UNL A   1      46.120  24.463  26.510  1.00  0.00     0.031 C 
ATOM     64  C   UNL A   1      49.066  29.747  27.039  1.00  0.00     0.029 A 
ATOM     65  C   UNL A   1      48.080  28.774  27.061  1.00  0.00     0.049 A 
ATOM     66  H   UNL A   1      46.042  28.959  27.580  1.00  0.00     0.167 HD
ATOM     67  C   UNL A   1      47.165  26.490  26.771  1.00  0.00     0.074 A 
ATOM     68  C   UNL A   1      47.290  25.083  26.444  1.00  0.00     0.031 C 
ATOM     69  C   UNL A   1      48.191  27.375  26.735  1.00  0.00     0.037 A 
BRANCH  56  70
ATOM     70  C   UNL A   1      46.593  33.129  28.348  1.00  0.00     0.058 A 
ATOM     71  C   UNL A   1      47.107  33.600  29.566  1.00  0.00     0.135 A 
ATOM     72  C   UNL A   1      46.515  34.034  27.276  1.00  0.00     0.135 A 
ATOM     73  F   UNL A   1      47.190  32.781  30.626  1.00  0.00    -0.206 F 
ATOM     74  C   UNL A   1      47.500  34.925  29.727  1.00  0.00     0.059 A 
ATOM     75  C   UNL A   1      46.928  35.358  27.408  1.00  0.00     0.059 A 
ATOM     76  F   UNL A   1      46.033  33.638  26.089  1.00  0.00    -0.206 F 
ATOM     77  C   UNL A   1      47.405  35.798  28.642  1.00  0.00     0.060 A 
BRANCH  77  78
ATOM     78  S   UNL A   1      47.923  37.512  28.865  1.00  0.00     0.124 S 
ATOM     79  O   UNL A   1      49.350  37.352  29.128  1.00  0.00    -0.237 OA
ATOM     80  O   UNL A   1      47.579  38.113  27.580  1.00  0.00    -0.237 OA
ATOM     81  O   UNL A   1      47.123  37.965  29.998  1.00  0.00    -0.744 OA
ENDBRANCH  77  78
ENDBRANCH  56  70
BRANCH  57  82
ATOM     82  C   UNL A   1      43.315  23.793  27.018  1.00  0.00     0.058 A 
ATOM     83  C   UNL A   1      43.005  23.329  25.731  1.00  0.00     0.135 A 
ATOM     84  C   UNL A   1      43.165  22.899  28.090  1.00  0.00     0.135 A 
ATOM     85  F   UNL A   1      43.129  24.148  24.676  1.00  0.00    -0.206 F 
ATOM     86  C   UNL A   1      42.545  22.035  25.514  1.00  0.00     0.059 A 
ATOM     87  C   UNL A   1      42.730  21.592  27.895  1.00  0.00     0.059 A 
ATOM     88  F   UNL A   1      43.468  23.289  29.338  1.00  0.00    -0.206 F 
ATOM     89  C   UNL A   1      42.412  21.173  26.604  1.00  0.00     0.060 A 
BRANCH  89  90
ATOM     90  S   UNL A   1      41.867  19.477  26.308  1.00  0.00     0.124 S 
ATOM     91  O   UNL A   1      40.425  19.652  26.174  1.00  0.00    -0.237 OA
ATOM     92  O   UNL A   1      42.586  19.131  25.084  1.00  0.00    -0.237 OA
ATOM     93  O   UNL A   1      42.311  18.769  27.505  1.00  0.00    -0.744 OA
ENDBRANCH  89  90
ENDBRANCH  57  82
BRANCH  69  94
ATOM     94  C   UNL A   1      49.544  26.838  26.355  1.00  0.00     0.058 A 
ATOM     95  C   UNL A   1      50.035  26.934  25.044  1.00  0.00     0.135 A 
ATOM     96  C   UNL A   1      50.358  26.219  27.317  1.00  0.00     0.135 A 
ATOM     97  F   UNL A   1      49.295  27.512  24.086  1.00  0.00    -0.206 F 
ATOM     98  C   UNL A   1      51.267  26.393  24.689  1.00  0.00     0.059 A 
ATOM     99  C   UNL A   1      51.606  25.697  26.991  1.00  0.00     0.059 A 
ATOM    100  F   UNL A   1      49.942  26.114  28.589  1.00  0.00    -0.206 F 
ATOM    101  C   UNL A   1      52.042  25.769  25.669  1.00  0.00     0.060 A 
BRANCH 101 102
ATOM    102  S   UNL A   1      53.633  25.058  25.196  1.00  0.00     0.124 S 
ATOM    103  O   UNL A   1      53.778  25.548  23.829  1.00  0.00    -0.237 OA
ATOM    104  O   UNL A   1      54.543  25.640  26.178  1.00  0.00    -0.237 OA
ATOM    105  O   UNL A   1      53.414  23.622  25.329  1.00  0.00    -0.744 OA
ENDBRANCH 101 102
ENDBRANCH  69  94
ENDBRANCH  43  44
ENDBRANCH  35  38
ENDBRANCH  33  34
ENDBRANCH  32  33
ENDBRANCH   1  32
TORSDOF 19
ENDMDL
MODEL 2
REMARK VINA RESULT:     -11.7      4.012     11.065
REMARK SMILES O=C(CCCN1C(=O)C(=O)/C(=C(/[O-])c2ccccc2)[C@@H]1/C=C/c1ccccc1)NCCCNC(=O)c1ccc(-c2c3nc(c(-c4c(F)cc(S(=O)(=O)[O-])cc4F)c4ccc([nH]4)c(-c4c(F)cc(S(=O)(=O)[O-])cc4F)c4nc(c(-c5c(F)cc(S(=O)(=O)[O-])cc5F)c5ccc2[nH]5)C=C4)C=C3)cc1
REMARK SMILES IDX 30 1 29 2 1 3 2 4 3 6 4 7 5 8 6 9 7 10 20 11 8 12 9 13 11 14
REMARK SMILES IDX 10 15 12 16 13 17 21 18 22 19 23 20 24 21 28 22 25 23 27 24
REMARK SMILES IDX 26 25 14 26 15 27 19 28 16 29 18 30 17 31 31 32 32 33 33 34
REMARK SMILES IDX 34 35 35 37 36 38 37 39 101 40 38 41 100 42 39 43 40 44
REMARK SMILES IDX 41 45 94 46 42 47 99 48 93 49 95 50 43 51 98 52 92 53 91 54
REMARK SMILES IDX 44 56 78 57 57 58 77 59 58 60 61 61 76 62 96 63 59 64 60 65
REMARK SMILES IDX 75 67 97 68 62 69 45 70 46 71 55 72 47 73 48 74 54 75 56 76
REMARK SMILES IDX 49 77 50 78 51 79 52 80 53 81 79 82 80 83 89 84 81 85 82 86
REMARK SMILES IDX 88 87 90 88 83 89 84 90 85 91 86 92 87 93 63 94 64 95 73 96
REMARK SMILES IDX 65 97 66 98 72 99 74 100 67 101 68 102 69 103 70 104 71 105
REMARK H PARENT 29 5 33 36 95 55 61 66
REMARK Flexibility Score: inf
ROOT
ATOM      1  C   UNL A   1      34.030  34.607  29.750  1.00  0.00     0.117 C 
ENDROOT
BRANCH   1   2
ATOM      2  N   UNL A   1      35.019  34.475  30.798  1.00  0.00    -0.356 N 
ATOM      3  O   UNL A   1      33.524  34.185  32.519  1.00  0.00    -0.275 OA
ATOM      4  C   UNL A   1      34.675  34.272  32.114  1.00  0.00     0.220 C 
ATOM      5  H   UNL A   1      35.974  34.532  30.560  1.00  0.00     0.163 HD
BRANCH   4   6
ATOM      6  C   UNL A   1      35.874  34.180  33.031  1.00  0.00     0.102 C 
BRANCH   6   7
ATOM      7  C   UNL A   1      36.056  32.799  33.659  1.00  0.00     0.031 C 
BRANCH   7   8
ATOM      8  C   UNL A   1      36.652  31.705  32.764  1.00  0.00     0.121 C 
BRANCH   8   9
ATOM      9  N   UNL A   1      37.912  31.089  33.192  1.00  0.00    -0.325 N 
ATOM     10  C   UNL A   1      38.003  29.710  33.279  1.00  0.00     0.295 C 
ATOM     11  C   UNL A   1      39.223  31.726  33.183  1.00  0.00     0.143 C 
ATOM     12  O   UNL A   1      37.111  28.890  33.182  1.00  0.00    -0.265 OA
ATOM     13  C   UNL A   1      39.473  29.355  33.452  1.00  0.00     0.248 C 
ATOM     14  C   UNL A   1      40.244  30.622  33.336  1.00  0.00     0.024 C 
ATOM     15  O   UNL A   1      39.874  28.229  33.647  1.00  0.00    -0.283 OA
ATOM     16  C   UNL A   1      41.583  30.742  33.439  1.00  0.00    -0.092 C 
ATOM     17  O   UNL A   1      42.256  31.948  33.362  1.00  0.00    -0.872 OA
BRANCH  11  18
ATOM     18  C   UNL A   1      39.325  32.744  34.284  1.00  0.00     0.003 C 
ATOM     19  C   UNL A   1      39.045  32.554  35.583  1.00  0.00     0.006 C 
BRANCH  19  20
ATOM     20  C   UNL A   1      39.133  33.668  36.526  1.00  0.00    -0.026 A 
ATOM     21  C   UNL A   1      38.782  33.506  37.868  1.00  0.00     0.008 A 
ATOM     22  C   UNL A   1      39.617  34.905  36.082  1.00  0.00     0.008 A 
ATOM     23  C   UNL A   1      38.910  34.578  38.757  1.00  0.00     0.001 A 
ATOM     24  C   UNL A   1      39.748  35.972  36.971  1.00  0.00     0.001 A 
ATOM     25  C   UNL A   1      39.393  35.807  38.308  1.00  0.00     0.000 A 
ENDBRANCH  19  20
ENDBRANCH  11  18
BRANCH  16  26
ATOM     26  C   UNL A   1      42.501  29.636  33.754  1.00  0.00    -0.033 A 
ATOM     27  C   UNL A   1      43.015  28.866  32.699  1.00  0.00     0.007 A 
ATOM     28  C   UNL A   1      42.861  29.314  35.068  1.00  0.00     0.007 A 
ATOM     29  C   UNL A   1      43.898  27.815  32.949  1.00  0.00     0.001 A 
ATOM     30  C   UNL A   1      43.751  28.265  35.316  1.00  0.00     0.001 A 
ATOM     31  C   UNL A   1      44.271  27.520  34.258  1.00  0.00     0.000 A 
ENDBRANCH  16  26
ENDBRANCH   8   9
ENDBRANCH   7   8
ENDBRANCH   6   7
ENDBRANCH   4   6
ENDBRANCH   1   2
BRANCH   1  32
ATOM     32  C   UNL A   1      34.200  33.548  28.667  1.00  0.00     0.042 C 
BRANCH  32  33
ATOM     33  C   UNL A   1      35.005  32.318  29.085  1.00  0.00     0.118 C 
BRANCH  33  34
ATOM     34  N   UNL A   1      34.416  31.068  28.645  1.00  0.00    -0.352 N 
ATOM     35  C   UNL A   1      35.016  29.900  28.240  1.00  0.00     0.251 C 
ATOM     36  H   UNL A   1      33.431  31.054  28.635  1.00  0.00     0.163 HD
ATOM     37  O   UNL A   1      34.320  29.013  27.752  1.00  0.00    -0.269 OA
BRANCH  35  38
ATOM     38  C   UNL A   1      36.480  29.710  28.358  1.00  0.00     0.039 A 
ATOM     39  C   UNL A   1      36.998  29.306  29.591  1.00  0.00     0.014 A 
ATOM     40  C   UNL A   1      37.347  29.955  27.289  1.00  0.00     0.014 A 
ATOM     41  C   UNL A   1      38.372  29.096  29.736  1.00  0.00     0.010 A 
ATOM     42  C   UNL A   1      38.710  29.677  27.414  1.00  0.00     0.010 A 
ATOM     43  C   UNL A   1      39.239  29.247  28.640  1.00  0.00    -0.014 A 
BRANCH  43  44
ATOM     44  C   UNL A   1      40.687  28.938  28.778  1.00  0.00     0.031 A 
ATOM     45  C   UNL A   1      41.227  27.579  28.421  1.00  0.00     0.074 A 
ATOM     46  C   UNL A   1      41.520  29.886  29.256  1.00  0.00     0.049 A 
ATOM     47  N   UNL A   1      42.464  27.149  28.454  1.00  0.00    -0.248 NA
ATOM     48  C   UNL A   1      40.252  26.563  27.997  1.00  0.00     0.031 C 
ATOM     49  C   UNL A   1      41.114  31.220  29.704  1.00  0.00     0.029 A 
ATOM     50  N   UNL A   1      42.880  29.875  29.441  1.00  0.00    -0.354 N 
ATOM     51  C   UNL A   1      42.415  25.816  28.061  1.00  0.00     0.074 A 
ATOM     52  C   UNL A   1      41.020  25.493  27.849  1.00  0.00     0.031 C 
ATOM     53  C   UNL A   1      42.204  31.910  30.075  1.00  0.00     0.029 A 
ATOM     54  C   UNL A   1      43.382  31.064  29.916  1.00  0.00     0.049 A 
ATOM     55  H   UNL A   1      43.444  29.090  29.251  1.00  0.00     0.167 HD
ATOM     56  C   UNL A   1      43.438  24.948  27.868  1.00  0.00     0.037 A 
ATOM     57  C   UNL A   1      44.649  31.436  30.184  1.00  0.00     0.037 A 
ATOM     58  C   UNL A   1      44.829  25.278  28.056  1.00  0.00     0.049 A 
ATOM     59  C   UNL A   1      45.770  30.470  29.923  1.00  0.00     0.074 A 
ATOM     60  C   UNL A   1      45.942  24.485  27.832  1.00  0.00     0.029 A 
ATOM     61  N   UNL A   1      45.299  26.502  28.509  1.00  0.00    -0.354 N 
ATOM     62  N   UNL A   1      45.709  29.235  29.485  1.00  0.00    -0.248 NA
ATOM     63  C   UNL A   1      47.134  30.953  30.178  1.00  0.00     0.031 C 
ATOM     64  C   UNL A   1      47.082  25.218  28.182  1.00  0.00     0.029 A 
ATOM     65  C   UNL A   1      46.683  26.482  28.583  1.00  0.00     0.049 A 
ATOM     66  H   UNL A   1      44.732  27.273  28.743  1.00  0.00     0.167 HD
ATOM     67  C   UNL A   1      47.027  28.802  29.386  1.00  0.00     0.074 A 
ATOM     68  C   UNL A   1      47.863  29.914  29.794  1.00  0.00     0.031 C 
ATOM     69  C   UNL A   1      47.503  27.594  28.994  1.00  0.00     0.037 A 
BRANCH  56  70
ATOM     70  C   UNL A   1      43.092  23.553  27.420  1.00  0.00     0.058 A 
ATOM     71  C   UNL A   1      43.027  23.212  26.060  1.00  0.00     0.135 A 
ATOM     72  C   UNL A   1      42.859  22.536  28.361  1.00  0.00     0.135 A 
ATOM     73  F   UNL A   1      43.227  24.149  25.119  1.00  0.00    -0.206 F 
ATOM     74  C   UNL A   1      42.712  21.922  25.646  1.00  0.00     0.059 A 
ATOM     75  C   UNL A   1      42.569  21.231  27.969  1.00  0.00     0.059 A 
ATOM     76  F   UNL A   1      42.910  22.804  29.675  1.00  0.00    -0.206 F 
ATOM     77  C   UNL A   1      42.482  20.938  26.609  1.00  0.00     0.060 A 
BRANCH  77  78
ATOM     78  S   UNL A   1      42.080  19.267  26.057  1.00  0.00     0.124 S 
ATOM     79  O   UNL A   1      42.894  19.157  24.851  1.00  0.00    -0.237 OA
ATOM     80  O   UNL A   1      42.509  18.452  27.188  1.00  0.00    -0.237 OA
ATOM     81  O   UNL A   1      40.638  19.320  25.837  1.00  0.00    -0.744 OA
ENDBRANCH  77  78
ENDBRANCH  56  70
BRANCH  57  82
ATOM     82  C   UNL A   1      44.926  32.807  30.686  1.00  0.00     0.058 A 
ATOM     83  C   UNL A   1      45.162  33.042  32.049  1.00  0.00     0.135 A 
ATOM     84  C   UNL A   1      44.975  33.906  29.814  1.00  0.00     0.135 A 
ATOM     85  F   UNL A   1      45.122  32.024  32.921  1.00  0.00    -0.206 F 
ATOM     86  C   UNL A   1      45.420  34.320  32.534  1.00  0.00     0.059 A 
ATOM     87  C   UNL A   1      45.254  35.190  30.272  1.00  0.00     0.059 A 
ATOM     88  F   UNL A   1      44.775  33.730  28.499  1.00  0.00    -0.206 F 
ATOM     89  C   UNL A   1      45.465  35.388  31.636  1.00  0.00     0.060 A 
BRANCH  89  90
ATOM     90  S   UNL A   1      45.854  37.036  32.265  1.00  0.00     0.124 S 
ATOM     91  O   UNL A   1      44.534  37.520  32.653  1.00  0.00    -0.237 OA
ATOM     92  O   UNL A   1      46.773  36.738  33.360  1.00  0.00    -0.237 OA
ATOM     93  O   UNL A   1      46.459  37.698  31.114  1.00  0.00    -0.744 OA
ENDBRANCH  89  90
ENDBRANCH  57  82
BRANCH  69  94
ATOM     94  C   UNL A   1      48.997  27.426  28.962  1.00  0.00     0.058 A 
ATOM     95  C   UNL A   1      49.752  27.730  27.818  1.00  0.00     0.135 A 
ATOM     96  C   UNL A   1      49.683  26.954  30.093  1.00  0.00     0.135 A 
ATOM     97  F   UNL A   1      49.145  28.179  26.709  1.00  0.00    -0.206 F 
ATOM     98  C   UNL A   1      51.128  27.528  27.780  1.00  0.00     0.059 A 
ATOM     99  C   UNL A   1      51.063  26.771  30.088  1.00  0.00     0.059 A 
ATOM    100  F   UNL A   1      49.012  26.662  31.218  1.00  0.00    -0.206 F 
ATOM    101  C   UNL A   1      51.773  27.040  28.919  1.00  0.00     0.060 A 
BRANCH 101 102
ATOM    102  S   UNL A   1      53.557  26.768  28.856  1.00  0.00     0.124 S 
ATOM    103  O   UNL A   1      53.688  25.962  27.647  1.00  0.00    -0.237 OA
ATOM    104  O   UNL A   1      54.081  28.127  28.773  1.00  0.00    -0.237 OA
ATOM    105  O   UNL A   1      53.836  26.072  30.108  1.00  0.00    -0.744 OA
ENDBRANCH 101 102
ENDBRANCH  69  94
ENDBRANCH  43  44
ENDBRANCH  35  38
ENDBRANCH  33  34
ENDBRANCH  32  33
ENDBRANCH   1  32
TORSDOF 19
ENDMDL
MODEL 3
REMARK VINA RESULT:     -11.6      4.569      8.912
REMARK SMILES O=C(CCCN1C(=O)C(=O)/C(=C(/[O-])c2ccccc2)[C@@H]1/C=C/c1ccccc1)NCCCNC(=O)c1ccc(-c2c3nc(c(-c4c(F)cc(S(=O)(=O)[O-])cc4F)c4ccc([nH]4)c(-c4c(F)cc(S(=O)(=O)[O-])cc4F)c4nc(c(-c5c(F)cc(S(=O)(=O)[O-])cc5F)c5ccc2[nH]5)C=C4)C=C3)cc1
REMARK SMILES IDX 30 1 29 2 1 3 2 4 3 6 4 7 5 8 6 9 7 10 20 11 8 12 9 13 11 14
REMARK SMILES IDX 10 15 12 16 13 17 21 18 22 19 23 20 24 21 28 22 25 23 27 24
REMARK SMILES IDX 26 25 14 26 15 27 19 28 16 29 18 30 17 31 31 32 32 33 33 34
REMARK SMILES IDX 34 35 35 37 36 38 37 39 101 40 38 41 100 42 39 43 40 44
REMARK SMILES IDX 41 45 94 46 42 47 99 48 93 49 95 50 43 51 98 52 92 53 91 54
REMARK SMILES IDX 44 56 78 57 57 58 77 59 58 60 61 61 76 62 96 63 59 64 60 65
REMARK SMILES IDX 75 67 97 68 62 69 45 70 46 71 55 72 47 73 48 74 54 75 56 76
REMARK SMILES IDX 49 77 50 78 51 79 52 80 53 81 79 82 80 83 89 84 81 85 82 86
REMARK SMILES IDX 88 87 90 88 83 89 84 90 85 91 86 92 87 93 63 94 64 95 73 96
REMARK SMILES IDX 65 97 66 98 72 99 74 100 67 101 68 102 69 103 70 104 71 105
REMARK H PARENT 29 5 33 36 95 55 61 66
REMARK Flexibility Score: inf
ROOT
ATOM      1  C   UNL A   1      34.858  32.687  30.823  1.00  0.00     0.117 C 
ENDROOT
BRANCH   1   2
ATOM      2  N   UNL A   1      35.298  33.470  31.958  1.00  0.00    -0.356 N 
ATOM      3  O   UNL A   1      33.370  33.236  33.187  1.00  0.00    -0.275 OA
ATOM      4  C   UNL A   1      34.504  33.680  33.060  1.00  0.00     0.220 C 
ATOM      5  H   UNL A   1      36.200  33.866  31.940  1.00  0.00     0.163 HD
BRANCH   4   6
ATOM      6  C   UNL A   1      35.168  34.539  34.112  1.00  0.00     0.102 C 
BRANCH   6   7
ATOM      7  C   UNL A   1      36.059  33.750  35.070  1.00  0.00     0.031 C 
BRANCH   7   8
ATOM      8  C   UNL A   1      37.574  33.881  34.872  1.00  0.00     0.121 C 
BRANCH   8   9
ATOM      9  N   UNL A   1      38.372  32.652  34.912  1.00  0.00    -0.325 N 
ATOM     10  C   UNL A   1      38.463  31.859  33.781  1.00  0.00     0.295 C 
ATOM     11  C   UNL A   1      39.407  32.336  35.889  1.00  0.00     0.143 C 
ATOM     12  O   UNL A   1      37.839  31.955  32.742  1.00  0.00    -0.265 OA
ATOM     13  C   UNL A   1      39.569  30.840  34.020  1.00  0.00     0.248 C 
ATOM     14  C   UNL A   1      40.198  31.178  35.325  1.00  0.00     0.024 C 
ATOM     15  O   UNL A   1      39.836  29.944  33.250  1.00  0.00    -0.283 OA
ATOM     16  C   UNL A   1      41.215  30.509  35.906  1.00  0.00    -0.092 C 
ATOM     17  O   UNL A   1      41.745  30.837  37.141  1.00  0.00    -0.872 OA
BRANCH  11  18
ATOM     18  C   UNL A   1      38.794  32.004  37.221  1.00  0.00     0.003 C 
ATOM     19  C   UNL A   1      37.936  32.763  37.922  1.00  0.00     0.006 C 
BRANCH  19  20
ATOM     20  C   UNL A   1      37.477  32.327  39.240  1.00  0.00    -0.026 A 
ATOM     21  C   UNL A   1      38.345  32.306  40.335  1.00  0.00     0.008 A 
ATOM     22  C   UNL A   1      36.135  31.967  39.415  1.00  0.00     0.008 A 
ATOM     23  C   UNL A   1      37.872  31.920  41.593  1.00  0.00     0.001 A 
ATOM     24  C   UNL A   1      35.664  31.586  40.671  1.00  0.00     0.001 A 
ATOM     25  C   UNL A   1      36.534  31.562  41.759  1.00  0.00     0.000 A 
ENDBRANCH  19  20
ENDBRANCH  11  18
BRANCH  16  26
ATOM     26  C   UNL A   1      41.828  29.285  35.368  1.00  0.00    -0.033 A 
ATOM     27  C   UNL A   1      41.384  28.043  35.847  1.00  0.00     0.007 A 
ATOM     28  C   UNL A   1      42.851  29.317  34.414  1.00  0.00     0.007 A 
ATOM     29  C   UNL A   1      41.928  26.854  35.358  1.00  0.00     0.001 A 
ATOM     30  C   UNL A   1      43.391  28.127  33.920  1.00  0.00     0.001 A 
ATOM     31  C   UNL A   1      42.928  26.898  34.389  1.00  0.00     0.000 A 
ENDBRANCH  16  26
ENDBRANCH   8   9
ENDBRANCH   7   8
ENDBRANCH   6   7
ENDBRANCH   4   6
ENDBRANCH   1   2
BRANCH   1  32
ATOM     32  C   UNL A   1      34.425  33.566  29.655  1.00  0.00     0.042 C 
BRANCH  32  33
ATOM     33  C   UNL A   1      34.695  32.981  28.269  1.00  0.00     0.118 C 
BRANCH  33  34
ATOM     34  N   UNL A   1      33.922  31.786  27.989  1.00  0.00    -0.352 N 
ATOM     35  C   UNL A   1      34.326  30.479  27.871  1.00  0.00     0.251 C 
ATOM     36  H   UNL A   1      32.957  31.937  27.864  1.00  0.00     0.163 HD
ATOM     37  O   UNL A   1      33.520  29.643  27.468  1.00  0.00    -0.269 OA
BRANCH  35  38
ATOM     38  C   UNL A   1      35.713  30.072  28.195  1.00  0.00     0.039 A 
ATOM     39  C   UNL A   1      36.674  30.134  27.183  1.00  0.00     0.014 A 
ATOM     40  C   UNL A   1      36.070  29.601  29.462  1.00  0.00     0.014 A 
ATOM     41  C   UNL A   1      37.998  29.779  27.456  1.00  0.00     0.010 A 
ATOM     42  C   UNL A   1      37.405  29.314  29.753  1.00  0.00     0.010 A 
ATOM     43  C   UNL A   1      38.384  29.396  28.752  1.00  0.00    -0.014 A 
BRANCH  43  44
ATOM     44  C   UNL A   1      39.811  29.103  29.056  1.00  0.00     0.031 A 
ATOM     45  C   UNL A   1      40.685  30.126  29.730  1.00  0.00     0.074 A 
ATOM     46  C   UNL A   1      40.329  27.911  28.697  1.00  0.00     0.049 A 
ATOM     47  N   UNL A   1      41.939  30.026  30.094  1.00  0.00    -0.248 NA
ATOM     48  C   UNL A   1      40.085  31.440  30.010  1.00  0.00     0.031 C 
ATOM     49  C   UNL A   1      39.608  26.858  27.976  1.00  0.00     0.029 A 
ATOM     50  N   UNL A   1      41.580  27.380  28.891  1.00  0.00    -0.354 N 
ATOM     51  C   UNL A   1      42.279  31.260  30.639  1.00  0.00     0.074 A 
ATOM     52  C   UNL A   1      41.114  32.110  30.506  1.00  0.00     0.031 C 
ATOM     53  C   UNL A   1      40.416  25.797  27.823  1.00  0.00     0.029 A 
ATOM     54  C   UNL A   1      41.717  26.099  28.411  1.00  0.00     0.049 A 
ATOM     55  H   UNL A   1      42.310  27.871  29.333  1.00  0.00     0.167 HD
ATOM     56  C   UNL A   1      43.442  31.643  31.220  1.00  0.00     0.037 A 
ATOM     57  C   UNL A   1      42.767  25.256  28.449  1.00  0.00     0.037 A 
ATOM     58  C   UNL A   1      44.593  30.787  31.373  1.00  0.00     0.049 A 
ATOM     59  C   UNL A   1      44.033  25.689  29.135  1.00  0.00     0.074 A 
ATOM     60  C   UNL A   1      45.797  31.065  31.998  1.00  0.00     0.029 A 
ATOM     61  N   UNL A   1      44.682  29.487  30.901  1.00  0.00    -0.354 N 
ATOM     62  N   UNL A   1      44.310  26.836  29.706  1.00  0.00    -0.248 NA
ATOM     63  C   UNL A   1      45.123  24.705  29.196  1.00  0.00     0.031 C 
ATOM     64  C   UNL A   1      46.626  29.945  31.873  1.00  0.00     0.029 A 
ATOM     65  C   UNL A   1      45.923  28.953  31.209  1.00  0.00     0.049 A 
ATOM     66  H   UNL A   1      43.967  29.011  30.417  1.00  0.00     0.167 HD
ATOM     67  C   UNL A   1      45.597  26.705  30.217  1.00  0.00     0.074 A 
ATOM     68  C   UNL A   1      46.034  25.359  29.902  1.00  0.00     0.031 C 
ATOM     69  C   UNL A   1      46.348  27.614  30.887  1.00  0.00     0.037 A 
BRANCH  56  70
ATOM     70  C   UNL A   1      43.527  33.051  31.745  1.00  0.00     0.058 A 
ATOM     71  C   UNL A   1      43.263  33.352  33.090  1.00  0.00     0.135 A 
ATOM     72  C   UNL A   1      43.912  34.107  30.902  1.00  0.00     0.135 A 
ATOM     73  F   UNL A   1      42.877  32.383  33.936  1.00  0.00    -0.206 F 
ATOM     74  C   UNL A   1      43.347  34.653  33.576  1.00  0.00     0.059 A 
ATOM     75  C   UNL A   1      44.028  35.413  31.374  1.00  0.00     0.059 A 
ATOM     76  F   UNL A   1      44.178  33.878  29.607  1.00  0.00    -0.206 F 
ATOM     77  C   UNL A   1      43.728  35.677  32.709  1.00  0.00     0.060 A 
BRANCH  77  78
ATOM     78  S   UNL A   1      43.837  37.359  33.356  1.00  0.00     0.124 S 
ATOM     79  O   UNL A   1      42.644  37.425  34.194  1.00  0.00    -0.237 OA
ATOM     80  O   UNL A   1      45.111  37.340  34.067  1.00  0.00    -0.237 OA
ATOM     81  O   UNL A   1      43.807  38.188  32.155  1.00  0.00    -0.744 OA
ENDBRANCH  77  78
ENDBRANCH  56  70
BRANCH  57  82
ATOM     82  C   UNL A   1      42.647  23.898  27.857  1.00  0.00     0.058 A 
ATOM     83  C   UNL A   1      42.456  22.771  28.669  1.00  0.00     0.135 A 
ATOM     84  C   UNL A   1      42.707  23.701  26.468  1.00  0.00     0.135 A 
ATOM     85  F   UNL A   1      42.397  22.908  30.002  1.00  0.00    -0.206 F 
ATOM     86  C   UNL A   1      42.345  21.494  28.130  1.00  0.00     0.059 A 
ATOM     87  C   UNL A   1      42.575  22.437  25.904  1.00  0.00     0.059 A 
ATOM     88  F   UNL A   1      42.869  24.751  25.647  1.00  0.00    -0.206 F 
ATOM     89  C   UNL A   1      42.405  21.338  26.744  1.00  0.00     0.060 A 
BRANCH  89  90
ATOM     90  S   UNL A   1      42.206  19.683  26.048  1.00  0.00     0.124 S 
ATOM     91  O   UNL A   1      40.788  19.679  25.703  1.00  0.00    -0.237 OA
ATOM     92  O   UNL A   1      43.138  19.708  24.924  1.00  0.00    -0.237 OA
ATOM     93  O   UNL A   1      42.592  18.808  27.151  1.00  0.00    -0.744 OA
ENDBRANCH  89  90
ENDBRANCH  57  82
BRANCH  69  94
ATOM     94  C   UNL A   1      47.710  27.170  31.345  1.00  0.00     0.058 A 
ATOM     95  C   UNL A   1      48.863  27.411  30.581  1.00  0.00     0.135 A 
ATOM     96  C   UNL A   1      47.863  26.493  32.566  1.00  0.00     0.135 A 
ATOM     97  F   UNL A   1      48.771  28.049  29.404  1.00  0.00    -0.206 F 
ATOM     98  C   UNL A   1      50.113  26.956  30.989  1.00  0.00     0.059 A 
ATOM     99  C   UNL A   1      49.107  26.054  33.007  1.00  0.00     0.059 A 
ATOM    100  F   UNL A   1      46.795  26.249  33.342  1.00  0.00    -0.206 F 
ATOM    101  C   UNL A   1      50.223  26.271  32.201  1.00  0.00     0.060 A 
BRANCH 101 102
ATOM    102  S   UNL A   1      51.847  25.672  32.715  1.00  0.00     0.124 S 
ATOM    103  O   UNL A   1      52.471  25.378  31.430  1.00  0.00    -0.237 OA
ATOM    104  O   UNL A   1      52.392  26.817  33.438  1.00  0.00    -0.237 OA
ATOM    105  O   UNL A   1      51.532  24.511  33.541  1.00  0.00    -0.744 OA
ENDBRANCH 101 102
ENDBRANCH  69  94
ENDBRANCH  43  44
ENDBRANCH  35  38
ENDBRANCH  33  34
ENDBRANCH  32  33
ENDBRANCH   1  32
TORSDOF 19
ENDMDL
