MODEL 1
REMARK VINA RESULT:     -11.5      0.000      0.000
REMARK SMILES C[C@@H](C(=O)NCCCNC(=O)c1ccc(-c2c3nc(c(-c4c(F)cc(S(=O)(=O)[O-])cc4F)c4ccc([nH]4)c(-c4c(F)cc(S(=O)(=O)[O-])cc4F)c4nc(c(-c5c(F)cc(S(=O)(=O)[O-])cc5F)c5ccc2[nH]5)C=C4)C=C3)cc1)c1ccc(C[C@H]2CCC[C@@H]2O)cc1F
REMARK SMILES IDX 6 1 5 2 3 3 4 4 2 6 1 7 78 8 79 9 90 10 80 11 89 12 91 13
REMARK SMILES IDX 81 14 82 15 83 16 84 17 87 18 85 19 86 20 88 21 7 23 8 24
REMARK SMILES IDX 9 25 10 26 11 28 12 29 13 30 77 31 14 32 76 33 15 34 16 35
REMARK SMILES IDX 17 36 70 37 18 38 75 39 69 40 71 41 19 42 74 43 68 44 67 45
REMARK SMILES IDX 20 47 54 48 33 49 53 50 34 51 37 52 52 53 72 54 35 55 36 56
REMARK SMILES IDX 51 58 73 59 38 60 21 61 22 62 31 63 23 64 24 65 30 66 32 67
REMARK SMILES IDX 25 68 26 69 27 70 28 71 29 72 55 73 56 74 65 75 57 76 58 77
REMARK SMILES IDX 64 78 66 79 59 80 60 81 61 82 62 83 63 84 39 85 40 86 49 87
REMARK SMILES IDX 41 88 42 89 48 90 50 91 43 92 44 93 45 94 46 95 47 96
REMARK H PARENT 5 5 88 22 9 27 71 46 37 57
REMARK Flexibility Score: inf
ROOT
ATOM      1  C   UNL A   1      31.764  28.073  25.451  1.00  0.00     0.117 C 
ENDROOT
BRANCH   1   2
ATOM      2  N   UNL A   1      31.117  26.919  24.855  1.00  0.00    -0.356 N 
ATOM      3  C   UNL A   1      31.588  26.024  23.937  1.00  0.00     0.227 C 
ATOM      4  O   UNL A   1      30.762  25.263  23.428  1.00  0.00    -0.274 OA
ATOM      5  H   UNL A   1      30.195  26.756  25.160  1.00  0.00     0.163 HD
BRANCH   3   6
ATOM      6  C   UNL A   1      33.090  25.994  23.582  1.00  0.00     0.108 C 
ATOM      7  C   UNL A   1      33.266  26.399  22.114  1.00  0.00     0.023 C 
BRANCH   6   8
ATOM      8  C   UNL A   1      33.717  24.641  23.916  1.00  0.00    -0.000 A 
ATOM      9  C   UNL A   1      33.671  23.540  23.050  1.00  0.00     0.008 A 
ATOM     10  C   UNL A   1      34.352  24.462  25.153  1.00  0.00     0.127 A 
ATOM     11  C   UNL A   1      34.165  22.296  23.444  1.00  0.00     0.004 A 
ATOM     12  C   UNL A   1      34.805  23.211  25.569  1.00  0.00     0.043 A 
ATOM     13  F   UNL A   1      34.507  25.506  25.982  1.00  0.00    -0.207 F 
ATOM     14  C   UNL A   1      34.669  22.099  24.732  1.00  0.00    -0.045 A 
BRANCH  14  15
ATOM     15  C   UNL A   1      35.004  20.710  25.217  1.00  0.00     0.041 C 
BRANCH  15  16
ATOM     16  C   UNL A   1      34.108  19.578  24.676  1.00  0.00     0.022 C 
ATOM     17  C   UNL A   1      34.808  18.236  24.402  1.00  0.00     0.007 C 
ATOM     18  C   UNL A   1      32.899  19.203  25.540  1.00  0.00     0.117 C 
ATOM     19  C   UNL A   1      33.794  17.144  24.761  1.00  0.00     0.003 C 
ATOM     20  C   UNL A   1      32.470  17.864  24.960  1.00  0.00     0.032 C 
BRANCH  18  21
ATOM     21  O   UNL A   1      31.873  20.174  25.434  1.00  0.00    -0.393 OA
ATOM     22  H   UNL A   1      31.963  20.820  26.153  1.00  0.00     0.210 HD
ENDBRANCH  18  21
ENDBRANCH  15  16
ENDBRANCH  14  15
ENDBRANCH   6   8
ENDBRANCH   3   6
ENDBRANCH   1   2
BRANCH   1  23
ATOM     23  C   UNL A   1      32.283  27.754  26.854  1.00  0.00     0.042 C 
BRANCH  23  24
ATOM     24  C   UNL A   1      33.648  28.356  27.168  1.00  0.00     0.118 C 
BRANCH  24  25
ATOM     25  N   UNL A   1      33.556  29.750  27.567  1.00  0.00    -0.352 N 
ATOM     26  C   UNL A   1      34.478  30.546  28.198  1.00  0.00     0.251 C 
ATOM     27  H   UNL A   1      32.702  30.191  27.352  1.00  0.00     0.163 HD
ATOM     28  O   UNL A   1      34.119  31.641  28.631  1.00  0.00    -0.269 OA
BRANCH  26  29
ATOM     29  C   UNL A   1      35.883  30.107  28.373  1.00  0.00     0.039 A 
ATOM     30  C   UNL A   1      36.295  29.676  29.638  1.00  0.00     0.014 A 
ATOM     31  C   UNL A   1      36.812  30.183  27.331  1.00  0.00     0.014 A 
ATOM     32  C   UNL A   1      37.624  29.302  29.852  1.00  0.00     0.010 A 
ATOM     33  C   UNL A   1      38.119  29.736  27.525  1.00  0.00     0.010 A 
ATOM     34  C   UNL A   1      38.546  29.318  28.794  1.00  0.00    -0.014 A 
BRANCH  34  35
ATOM     35  C   UNL A   1      39.972  28.962  29.016  1.00  0.00     0.031 A 
ATOM     36  C   UNL A   1      40.921  29.983  29.589  1.00  0.00     0.074 A 
ATOM     37  C   UNL A   1      40.423  27.740  28.672  1.00  0.00     0.049 A 
ATOM     38  N   UNL A   1      42.205  29.885  29.815  1.00  0.00    -0.248 NA
ATOM     39  C   UNL A   1      40.353  31.299  29.926  1.00  0.00     0.031 C 
ATOM     40  C   UNL A   1      39.617  26.680  28.065  1.00  0.00     0.029 A 
ATOM     41  N   UNL A   1      41.673  27.185  28.781  1.00  0.00    -0.354 N 
ATOM     42  C   UNL A   1      42.602  31.125  30.303  1.00  0.00     0.074 A 
ATOM     43  C   UNL A   1      41.433  31.977  30.287  1.00  0.00     0.031 C 
ATOM     44  C   UNL A   1      40.389  25.598  27.869  1.00  0.00     0.029 A 
ATOM     45  C   UNL A   1      41.748  25.894  28.315  1.00  0.00     0.049 A 
ATOM     46  H   UNL A   1      42.446  27.667  29.156  1.00  0.00     0.167 HD
ATOM     47  C   UNL A   1      43.820  31.514  30.750  1.00  0.00     0.037 A 
ATOM     48  C   UNL A   1      42.791  25.044  28.257  1.00  0.00     0.037 A 
ATOM     49  C   UNL A   1      44.973  30.654  30.794  1.00  0.00     0.049 A 
ATOM     50  C   UNL A   1      44.125  25.481  28.798  1.00  0.00     0.074 A 
ATOM     51  C   UNL A   1      46.246  30.939  31.260  1.00  0.00     0.029 A 
ATOM     52  N   UNL A   1      44.992  29.334  30.366  1.00  0.00    -0.354 N 
ATOM     53  N   UNL A   1      44.471  26.644  29.295  1.00  0.00    -0.248 NA
ATOM     54  C   UNL A   1      45.205  24.484  28.792  1.00  0.00     0.031 C 
ATOM     55  C   UNL A   1      47.039  29.798  31.092  1.00  0.00     0.029 A 
ATOM     56  C   UNL A   1      46.251  28.791  30.559  1.00  0.00     0.049 A 
ATOM     57  H   UNL A   1      44.223  28.855  29.982  1.00  0.00     0.167 HD
ATOM     58  C   UNL A   1      45.798  26.510  29.690  1.00  0.00     0.074 A 
ATOM     59  C   UNL A   1      46.189  25.151  29.380  1.00  0.00     0.031 C 
ATOM     60  C   UNL A   1      46.617  27.429  30.260  1.00  0.00     0.037 A 
BRANCH  47  61
ATOM     61  C   UNL A   1      43.958  32.931  31.236  1.00  0.00     0.058 A 
ATOM     62  C   UNL A   1      44.349  33.969  30.372  1.00  0.00     0.135 A 
ATOM     63  C   UNL A   1      43.690  33.262  32.573  1.00  0.00     0.135 A 
ATOM     64  F   UNL A   1      44.634  33.707  29.086  1.00  0.00    -0.206 F 
ATOM     65  C   UNL A   1      44.507  35.273  30.826  1.00  0.00     0.059 A 
ATOM     66  C   UNL A   1      43.813  34.567  33.042  1.00  0.00     0.059 A 
ATOM     67  F   UNL A   1      43.311  32.311  33.443  1.00  0.00    -0.206 F 
ATOM     68  C   UNL A   1      44.242  35.562  32.165  1.00  0.00     0.060 A 
BRANCH  68  69
ATOM     69  S   UNL A   1      44.463  37.258  32.744  1.00  0.00     0.124 S 
ATOM     70  O   UNL A   1      43.737  37.229  34.010  1.00  0.00    -0.237 OA
ATOM     71  O   UNL A   1      45.915  37.368  32.849  1.00  0.00    -0.237 OA
ATOM     72  O   UNL A   1      43.852  38.059  31.688  1.00  0.00    -0.744 OA
ENDBRANCH  68  69
ENDBRANCH  47  61
BRANCH  48  73
ATOM     73  C   UNL A   1      42.601  23.679  27.701  1.00  0.00     0.058 A 
ATOM     74  C   UNL A   1      42.675  23.444  26.320  1.00  0.00     0.135 A 
ATOM     75  C   UNL A   1      42.369  22.579  28.540  1.00  0.00     0.135 A 
ATOM     76  F   UNL A   1      42.892  24.465  25.478  1.00  0.00    -0.206 F 
ATOM     77  C   UNL A   1      42.510  22.169  25.787  1.00  0.00     0.059 A 
ATOM     78  C   UNL A   1      42.224  21.290  28.033  1.00  0.00     0.059 A 
ATOM     79  F   UNL A   1      42.309  22.748  29.870  1.00  0.00    -0.206 F 
ATOM     80  C   UNL A   1      42.287  21.098  26.653  1.00  0.00     0.060 A 
BRANCH  80  81
ATOM     81  S   UNL A   1      42.134  19.438  25.958  1.00  0.00     0.124 S 
ATOM     82  O   UNL A   1      40.701  19.363  25.693  1.00  0.00    -0.237 OA
ATOM     83  O   UNL A   1      42.998  19.514  24.785  1.00  0.00    -0.237 OA
ATOM     84  O   UNL A   1      42.623  18.580  27.032  1.00  0.00    -0.744 OA
ENDBRANCH  80  81
ENDBRANCH  48  73
BRANCH  60  85
ATOM     85  C   UNL A   1      48.002  26.979  30.635  1.00  0.00     0.058 A 
ATOM     86  C   UNL A   1      49.106  27.205  29.799  1.00  0.00     0.135 A 
ATOM     87  C   UNL A   1      48.228  26.343  31.867  1.00  0.00     0.135 A 
ATOM     88  F   UNL A   1      48.942  27.807  28.611  1.00  0.00    -0.206 F 
ATOM     89  C   UNL A   1      50.384  26.789  30.158  1.00  0.00     0.059 A 
ATOM     90  C   UNL A   1      49.501  25.940  32.256  1.00  0.00     0.059 A 
ATOM     91  F   UNL A   1      47.207  26.114  32.708  1.00  0.00    -0.206 F 
ATOM     92  C   UNL A   1      50.571  26.153  31.388  1.00  0.00     0.060 A 
BRANCH  92  93
ATOM     93  S   UNL A   1      52.235  25.629  31.852  1.00  0.00     0.124 S 
ATOM     94  O   UNL A   1      52.007  24.240  32.237  1.00  0.00    -0.237 OA
ATOM     95  O   UNL A   1      52.985  25.829  30.615  1.00  0.00    -0.237 OA
ATOM     96  O   UNL A   1      52.584  26.534  32.942  1.00  0.00    -0.744 OA
ENDBRANCH  92  93
ENDBRANCH  60  85
ENDBRANCH  34  35
ENDBRANCH  26  29
ENDBRANCH  24  25
ENDBRANCH  23  24
ENDBRANCH   1  23
TORSDOF 17
ENDMDL
MODEL 2
REMARK VINA RESULT:     -11.5      2.871      3.748
REMARK SMILES C[C@@H](C(=O)NCCCNC(=O)c1ccc(-c2c3nc(c(-c4c(F)cc(S(=O)(=O)[O-])cc4F)c4ccc([nH]4)c(-c4c(F)cc(S(=O)(=O)[O-])cc4F)c4nc(c(-c5c(F)cc(S(=O)(=O)[O-])cc5F)c5ccc2[nH]5)C=C4)C=C3)cc1)c1ccc(C[C@H]2CCC[C@@H]2O)cc1F
REMARK SMILES IDX 6 1 5 2 3 3 4 4 2 6 1 7 78 8 79 9 90 10 80 11 89 12 91 13
REMARK SMILES IDX 81 14 82 15 83 16 84 17 87 18 85 19 86 20 88 21 7 23 8 24
REMARK SMILES IDX 9 25 10 26 11 28 12 29 13 30 77 31 14 32 76 33 15 34 16 35
REMARK SMILES IDX 17 36 70 37 18 38 75 39 69 40 71 41 19 42 74 43 68 44 67 45
REMARK SMILES IDX 20 47 54 48 33 49 53 50 34 51 37 52 52 53 72 54 35 55 36 56
REMARK SMILES IDX 51 58 73 59 38 60 21 61 22 62 31 63 23 64 24 65 30 66 32 67
REMARK SMILES IDX 25 68 26 69 27 70 28 71 29 72 55 73 56 74 65 75 57 76 58 77
REMARK SMILES IDX 64 78 66 79 59 80 60 81 61 82 62 83 63 84 39 85 40 86 49 87
REMARK SMILES IDX 41 88 42 89 48 90 50 91 43 92 44 93 45 94 46 95 47 96
REMARK H PARENT 5 5 88 22 9 27 71 46 37 57
REMARK Flexibility Score: inf
ROOT
ATOM      1  C   UNL A   1      34.090  29.000  27.125  1.00  0.00     0.117 C 
ENDROOT
BRANCH   1   2
ATOM      2  N   UNL A   1      32.830  28.538  27.674  1.00  0.00    -0.356 N 
ATOM      3  C   UNL A   1      31.864  27.749  27.115  1.00  0.00     0.227 C 
ATOM      4  O   UNL A   1      30.786  27.684  27.709  1.00  0.00    -0.274 OA
ATOM      5  H   UNL A   1      32.640  28.839  28.591  1.00  0.00     0.163 HD
BRANCH   3   6
ATOM      6  C   UNL A   1      32.148  26.988  25.802  1.00  0.00     0.108 C 
ATOM      7  C   UNL A   1      30.917  27.083  24.892  1.00  0.00     0.023 C 
BRANCH   6   8
ATOM      8  C   UNL A   1      32.591  25.551  26.073  1.00  0.00    -0.000 A 
ATOM      9  C   UNL A   1      33.917  25.119  25.936  1.00  0.00     0.008 A 
ATOM     10  C   UNL A   1      31.638  24.596  26.452  1.00  0.00     0.127 A 
ATOM     11  C   UNL A   1      34.254  23.774  26.091  1.00  0.00     0.004 A 
ATOM     12  C   UNL A   1      31.961  23.243  26.563  1.00  0.00     0.043 A 
ATOM     13  F   UNL A   1      30.372  24.972  26.688  1.00  0.00    -0.207 F 
ATOM     14  C   UNL A   1      33.270  22.811  26.333  1.00  0.00    -0.045 A 
BRANCH  14  15
ATOM     15  C   UNL A   1      33.613  21.342  26.289  1.00  0.00     0.041 C 
BRANCH  15  16
ATOM     16  C   UNL A   1      32.686  20.464  25.426  1.00  0.00     0.022 C 
ATOM     17  C   UNL A   1      32.565  20.862  23.945  1.00  0.00     0.007 C 
ATOM     18  C   UNL A   1      33.016  18.967  25.389  1.00  0.00     0.117 C 
ATOM     19  C   UNL A   1      32.434  19.552  23.161  1.00  0.00     0.003 C 
ATOM     20  C   UNL A   1      32.203  18.471  24.203  1.00  0.00     0.032 C 
BRANCH  18  21
ATOM     21  O   UNL A   1      32.632  18.328  26.593  1.00  0.00    -0.393 OA
ATOM     22  H   UNL A   1      31.665  18.342  26.673  1.00  0.00     0.210 HD
ENDBRANCH  18  21
ENDBRANCH  15  16
ENDBRANCH  14  15
ENDBRANCH   6   8
ENDBRANCH   3   6
ENDBRANCH   1   2
BRANCH   1  23
ATOM     23  C   UNL A   1      34.303  30.489  27.402  1.00  0.00     0.042 C 
BRANCH  23  24
ATOM     24  C   UNL A   1      35.630  30.817  28.075  1.00  0.00     0.118 C 
BRANCH  24  25
ATOM     25  N   UNL A   1      35.557  30.705  29.522  1.00  0.00    -0.352 N 
ATOM     26  C   UNL A   1      36.471  30.201  30.412  1.00  0.00     0.251 C 
ATOM     27  H   UNL A   1      34.724  31.043  29.925  1.00  0.00     0.163 HD
ATOM     28  O   UNL A   1      36.121  30.009  31.576  1.00  0.00    -0.269 OA
BRANCH  26  29
ATOM     29  C   UNL A   1      37.855  29.877  29.994  1.00  0.00     0.039 A 
ATOM     30  C   UNL A   1      38.188  29.988  28.640  1.00  0.00     0.014 A 
ATOM     31  C   UNL A   1      38.805  29.400  30.903  1.00  0.00     0.014 A 
ATOM     32  C   UNL A   1      39.470  29.644  28.204  1.00  0.00     0.010 A 
ATOM     33  C   UNL A   1      40.106  29.130  30.479  1.00  0.00     0.010 A 
ATOM     34  C   UNL A   1      40.444  29.222  29.122  1.00  0.00    -0.014 A 
BRANCH  34  35
ATOM     35  C   UNL A   1      41.799  28.813  28.666  1.00  0.00     0.031 A 
ATOM     36  C   UNL A   1      42.905  29.833  28.583  1.00  0.00     0.074 A 
ATOM     37  C   UNL A   1      42.028  27.538  28.295  1.00  0.00     0.049 A 
ATOM     38  N   UNL A   1      44.137  29.688  28.170  1.00  0.00    -0.248 NA
ATOM     39  C   UNL A   1      42.570  31.207  28.995  1.00  0.00     0.031 C 
ATOM     40  C   UNL A   1      41.030  26.466  28.284  1.00  0.00     0.029 A 
ATOM     41  N   UNL A   1      43.175  26.929  27.851  1.00  0.00    -0.354 N 
ATOM     42  C   UNL A   1      44.718  30.948  28.254  1.00  0.00     0.074 A 
ATOM     43  C   UNL A   1      43.687  31.858  28.704  1.00  0.00     0.031 C 
ATOM     44  C   UNL A   1      41.612  25.329  27.870  1.00  0.00     0.029 A 
ATOM     45  C   UNL A   1      43.015  25.594  27.564  1.00  0.00     0.049 A 
ATOM     46  H   UNL A   1      44.031  27.403  27.745  1.00  0.00     0.167 HD
ATOM     47  C   UNL A   1      45.999  31.313  28.007  1.00  0.00     0.037 A 
ATOM     48  C   UNL A   1      43.900  24.685  27.109  1.00  0.00     0.037 A 
ATOM     49  C   UNL A   1      47.029  30.399  27.589  1.00  0.00     0.049 A 
ATOM     50  C   UNL A   1      45.328  25.102  26.882  1.00  0.00     0.074 A 
ATOM     51  C   UNL A   1      48.368  30.660  27.343  1.00  0.00     0.029 A 
ATOM     52  N   UNL A   1      46.840  29.043  27.365  1.00  0.00    -0.354 N 
ATOM     53  N   UNL A   1      45.870  26.289  27.007  1.00  0.00    -0.248 NA
ATOM     54  C   UNL A   1      46.270  24.051  26.472  1.00  0.00     0.031 C 
ATOM     55  C   UNL A   1      48.981  29.465  26.949  1.00  0.00     0.029 A 
ATOM     56  C   UNL A   1      48.035  28.453  26.988  1.00  0.00     0.049 A 
ATOM     57  H   UNL A   1      45.982  28.570  27.461  1.00  0.00     0.167 HD
ATOM     58  C   UNL A   1      47.221  26.124  26.724  1.00  0.00     0.074 A 
ATOM     59  C   UNL A   1      47.415  24.719  26.428  1.00  0.00     0.031 C 
ATOM     60  C   UNL A   1      48.212  27.049  26.713  1.00  0.00     0.037 A 
BRANCH  47  61
ATOM     61  C   UNL A   1      46.353  32.764  28.193  1.00  0.00     0.058 A 
ATOM     62  C   UNL A   1      46.842  33.249  29.417  1.00  0.00     0.135 A 
ATOM     63  C   UNL A   1      46.212  33.678  27.138  1.00  0.00     0.135 A 
ATOM     64  F   UNL A   1      46.982  32.422  30.465  1.00  0.00    -0.206 F 
ATOM     65  C   UNL A   1      47.140  34.595  29.600  1.00  0.00     0.059 A 
ATOM     66  C   UNL A   1      46.532  35.025  27.290  1.00  0.00     0.059 A 
ATOM     67  F   UNL A   1      45.751  33.269  25.944  1.00  0.00    -0.206 F 
ATOM     68  C   UNL A   1      46.976  35.477  28.531  1.00  0.00     0.060 A 
BRANCH  68  69
ATOM     69  S   UNL A   1      47.355  37.224  28.786  1.00  0.00     0.124 S 
ATOM     70  O   UNL A   1      46.022  37.818  28.745  1.00  0.00    -0.237 OA
ATOM     71  O   UNL A   1      48.005  37.217  30.093  1.00  0.00    -0.237 OA
ATOM     72  O   UNL A   1      48.223  37.550  27.660  1.00  0.00    -0.744 OA
ENDBRANCH  68  69
ENDBRANCH  47  61
BRANCH  48  73
ATOM     73  C   UNL A   1      43.467  23.282  26.881  1.00  0.00     0.058 A 
ATOM     74  C   UNL A   1      43.380  22.754  25.584  1.00  0.00     0.135 A 
ATOM     75  C   UNL A   1      43.157  22.434  27.954  1.00  0.00     0.135 A 
ATOM     76  F   UNL A   1      43.663  23.529  24.526  1.00  0.00    -0.206 F 
ATOM     77  C   UNL A   1      42.986  21.439  25.357  1.00  0.00     0.059 A 
ATOM     78  C   UNL A   1      42.783  21.108  27.754  1.00  0.00     0.059 A 
ATOM     79  F   UNL A   1      43.244  22.885  29.216  1.00  0.00    -0.206 F 
ATOM     80  C   UNL A   1      42.692  20.623  26.450  1.00  0.00     0.060 A 
BRANCH  80  81
ATOM     81  S   UNL A   1      42.240  18.900  26.149  1.00  0.00     0.124 S 
ATOM     82  O   UNL A   1      42.551  18.287  27.435  1.00  0.00    -0.237 OA
ATOM     83  O   UNL A   1      40.823  19.007  25.817  1.00  0.00    -0.237 OA
ATOM     84  O   UNL A   1      43.107  18.517  25.040  1.00  0.00    -0.744 OA
ENDBRANCH  80  81
ENDBRANCH  48  73
BRANCH  60  85
ATOM     85  C   UNL A   1      49.605  26.565  26.422  1.00  0.00     0.058 A 
ATOM     86  C   UNL A   1      50.418  26.003  27.418  1.00  0.00     0.135 A 
ATOM     87  C   UNL A   1      50.117  26.633  25.115  1.00  0.00     0.135 A 
ATOM     88  F   UNL A   1      49.976  25.918  28.682  1.00  0.00    -0.206 F 
ATOM     89  C   UNL A   1      51.704  25.554  27.135  1.00  0.00     0.059 A 
ATOM     90  C   UNL A   1      51.391  26.167  24.806  1.00  0.00     0.059 A 
ATOM     91  F   UNL A   1      49.374  27.150  24.124  1.00  0.00    -0.206 F 
ATOM     92  C   UNL A   1      52.183  25.644  25.827  1.00  0.00     0.060 A 
BRANCH  92  93
ATOM     93  S   UNL A   1      53.848  25.044  25.467  1.00  0.00     0.124 S 
ATOM     94  O   UNL A   1      53.639  23.600  25.445  1.00  0.00    -0.237 OA
ATOM     95  O   UNL A   1      54.133  25.663  24.175  1.00  0.00    -0.237 OA
ATOM     96  O   UNL A   1      54.639  25.549  26.584  1.00  0.00    -0.744 OA
ENDBRANCH  92  93
ENDBRANCH  60  85
ENDBRANCH  34  35
ENDBRANCH  26  29
ENDBRANCH  24  25
ENDBRANCH  23  24
ENDBRANCH   1  23
TORSDOF 17
ENDMDL
MODEL 3
REMARK VINA RESULT:     -11.3      2.889      3.840
REMARK SMILES C[C@@H](C(=O)NCCCNC(=O)c1ccc(-c2c3nc(c(-c4c(F)cc(S(=O)(=O)[O-])cc4F)c4ccc([nH]4)c(-c4c(F)cc(S(=O)(=O)[O-])cc4F)c4nc(c(-c5c(F)cc(S(=O)(=O)[O-])cc5F)c5ccc2[nH]5)C=C4)C=C3)cc1)c1ccc(C[C@H]2CCC[C@@H]2O)cc1F
REMARK SMILES IDX 6 1 5 2 3 3 4 4 2 6 1 7 78 8 79 9 90 10 80 11 89 12 91 13
REMARK SMILES IDX 81 14 82 15 83 16 84 17 87 18 85 19 86 20 88 21 7 23 8 24
REMARK SMILES IDX 9 25 10 26 11 28 12 29 13 30 77 31 14 32 76 33 15 34 16 35
REMARK SMILES IDX 17 36 70 37 18 38 75 39 69 40 71 41 19 42 74 43 68 44 67 45
REMARK SMILES IDX 20 47 54 48 33 49 53 50 34 51 37 52 52 53 72 54 35 55 36 56
REMARK SMILES IDX 51 58 73 59 38 60 21 61 22 62 31 63 23 64 24 65 30 66 32 67
REMARK SMILES IDX 25 68 26 69 27 70 28 71 29 72 55 73 56 74 65 75 57 76 58 77
REMARK SMILES IDX 64 78 66 79 59 80 60 81 61 82 62 83 63 84 39 85 40 86 49 87
REMARK SMILES IDX 41 88 42 89 48 90 50 91 43 92 44 93 45 94 46 95 47 96
REMARK H PARENT 5 5 88 22 9 27 71 46 37 57
REMARK Flexibility Score: inf
ROOT
ATOM      1  C   UNL A   1      34.578  29.732  27.416  1.00  0.00     0.117 C 
ENDROOT
BRANCH   1   2
ATOM      2  N   UNL A   1      33.403  28.960  27.772  1.00  0.00    -0.356 N 
ATOM      3  C   UNL A   1      32.396  28.479  26.985  1.00  0.00     0.227 C 
ATOM      4  O   UNL A   1      31.398  28.042  27.564  1.00  0.00    -0.274 OA
ATOM      5  H   UNL A   1      33.319  28.750  28.730  1.00  0.00     0.163 HD
BRANCH   3   6
ATOM      6  C   UNL A   1      32.537  28.495  25.448  1.00  0.00     0.108 C 
ATOM      7  C   UNL A   1      31.221  28.982  24.829  1.00  0.00     0.023 C 
BRANCH   6   8
ATOM      8  C   UNL A   1      32.991  27.137  24.913  1.00  0.00    -0.000 A 
ATOM      9  C   UNL A   1      33.214  26.025  25.736  1.00  0.00     0.008 A 
ATOM     10  C   UNL A   1      33.226  26.981  23.541  1.00  0.00     0.127 A 
ATOM     11  C   UNL A   1      33.730  24.838  25.215  1.00  0.00     0.004 A 
ATOM     12  C   UNL A   1      33.785  25.813  23.022  1.00  0.00     0.043 A 
ATOM     13  F   UNL A   1      32.941  27.982  22.695  1.00  0.00    -0.207 F 
ATOM     14  C   UNL A   1      34.090  24.743  23.868  1.00  0.00    -0.045 A 
BRANCH  14  15
ATOM     15  C   UNL A   1      34.839  23.534  23.362  1.00  0.00     0.041 C 
BRANCH  15  16
ATOM     16  C   UNL A   1      35.493  22.651  24.443  1.00  0.00     0.022 C 
ATOM     17  C   UNL A   1      34.862  21.263  24.652  1.00  0.00     0.007 C 
ATOM     18  C   UNL A   1      36.988  22.363  24.265  1.00  0.00     0.117 C 
ATOM     19  C   UNL A   1      36.020  20.314  24.980  1.00  0.00     0.003 C 
ATOM     20  C   UNL A   1      37.226  21.206  25.223  1.00  0.00     0.032 C 
BRANCH  18  21
ATOM     21  O   UNL A   1      37.770  23.494  24.603  1.00  0.00    -0.393 OA
ATOM     22  H   UNL A   1      37.486  24.255  24.071  1.00  0.00     0.210 HD
ENDBRANCH  18  21
ENDBRANCH  15  16
ENDBRANCH  14  15
ENDBRANCH   6   8
ENDBRANCH   3   6
ENDBRANCH   1   2
BRANCH   1  23
ATOM     23  C   UNL A   1      34.429  31.196  27.835  1.00  0.00     0.042 C 
BRANCH  23  24
ATOM     24  C   UNL A   1      35.625  31.755  28.595  1.00  0.00     0.118 C 
BRANCH  24  25
ATOM     25  N   UNL A   1      35.561  31.461  30.016  1.00  0.00    -0.352 N 
ATOM     26  C   UNL A   1      36.396  30.701  30.794  1.00  0.00     0.251 C 
ATOM     27  H   UNL A   1      34.803  31.870  30.493  1.00  0.00     0.163 HD
ATOM     28  O   UNL A   1      36.041  30.412  31.937  1.00  0.00    -0.269 OA
BRANCH  26  29
ATOM     29  C   UNL A   1      37.700  30.218  30.282  1.00  0.00     0.039 A 
ATOM     30  C   UNL A   1      38.709  29.916  31.201  1.00  0.00     0.014 A 
ATOM     31  C   UNL A   1      37.963  30.127  28.912  1.00  0.00     0.014 A 
ATOM     32  C   UNL A   1      39.966  29.504  30.752  1.00  0.00     0.010 A 
ATOM     33  C   UNL A   1      39.193  29.642  28.466  1.00  0.00     0.010 A 
ATOM     34  C   UNL A   1      40.216  29.353  29.379  1.00  0.00    -0.014 A 
BRANCH  34  35
ATOM     35  C   UNL A   1      41.560  28.957  28.885  1.00  0.00     0.031 A 
ATOM     36  C   UNL A   1      42.657  29.985  28.781  1.00  0.00     0.074 A 
ATOM     37  C   UNL A   1      41.788  27.686  28.496  1.00  0.00     0.049 A 
ATOM     38  N   UNL A   1      43.879  29.851  28.335  1.00  0.00    -0.248 NA
ATOM     39  C   UNL A   1      42.325  31.354  29.213  1.00  0.00     0.031 C 
ATOM     40  C   UNL A   1      40.797  26.609  28.503  1.00  0.00     0.029 A 
ATOM     41  N   UNL A   1      42.926  27.089  28.017  1.00  0.00    -0.354 N 
ATOM     42  C   UNL A   1      44.454  31.115  28.414  1.00  0.00     0.074 A 
ATOM     43  C   UNL A   1      43.429  32.014  28.899  1.00  0.00     0.031 C 
ATOM     44  C   UNL A   1      41.375  25.479  28.063  1.00  0.00     0.029 A 
ATOM     45  C   UNL A   1      42.768  25.756  27.722  1.00  0.00     0.049 A 
ATOM     46  H   UNL A   1      43.776  27.570  27.893  1.00  0.00     0.167 HD
ATOM     47  C   UNL A   1      45.726  31.490  28.136  1.00  0.00     0.037 A 
ATOM     48  C   UNL A   1      43.646  24.857  27.237  1.00  0.00     0.037 A 
ATOM     49  C   UNL A   1      46.750  30.587  27.683  1.00  0.00     0.049 A 
ATOM     50  C   UNL A   1      45.065  25.285  26.976  1.00  0.00     0.074 A 
ATOM     51  C   UNL A   1      48.080  30.859  27.405  1.00  0.00     0.029 A 
ATOM     52  N   UNL A   1      46.564  29.232  27.453  1.00  0.00    -0.354 N 
ATOM     53  N   UNL A   1      45.602  26.475  27.097  1.00  0.00    -0.248 NA
ATOM     54  C   UNL A   1      46.002  24.244  26.532  1.00  0.00     0.031 C 
ATOM     55  C   UNL A   1      48.690  29.671  26.984  1.00  0.00     0.029 A 
ATOM     56  C   UNL A   1      47.752  28.653  27.039  1.00  0.00     0.049 A 
ATOM     57  H   UNL A   1      45.712  28.752  27.567  1.00  0.00     0.167 HD
ATOM     58  C   UNL A   1      46.947  26.320  26.776  1.00  0.00     0.074 A 
ATOM     59  C   UNL A   1      47.141  24.920  26.463  1.00  0.00     0.031 C 
ATOM     60  C   UNL A   1      47.931  27.253  26.747  1.00  0.00     0.037 A 
BRANCH  47  61
ATOM     61  C   UNL A   1      46.075  32.942  28.325  1.00  0.00     0.058 A 
ATOM     62  C   UNL A   1      45.948  33.870  27.278  1.00  0.00     0.135 A 
ATOM     63  C   UNL A   1      46.532  33.415  29.565  1.00  0.00     0.135 A 
ATOM     64  F   UNL A   1      45.531  33.470  26.066  1.00  0.00    -0.206 F 
ATOM     65  C   UNL A   1      46.300  35.205  27.443  1.00  0.00     0.059 A 
ATOM     66  C   UNL A   1      46.862  34.754  29.760  1.00  0.00     0.059 A 
ATOM     67  F   UNL A   1      46.670  32.572  30.602  1.00  0.00    -0.206 F 
ATOM     68  C   UNL A   1      46.761  35.637  28.687  1.00  0.00     0.060 A 
BRANCH  68  69
ATOM     69  S   UNL A   1      47.226  37.371  28.883  1.00  0.00     0.124 S 
ATOM     70  O   UNL A   1      48.677  37.269  29.002  1.00  0.00    -0.237 OA
ATOM     71  O   UNL A   1      46.732  37.970  27.646  1.00  0.00    -0.237 OA
ATOM     72  O   UNL A   1      46.522  37.775  30.095  1.00  0.00    -0.744 OA
ENDBRANCH  68  69
ENDBRANCH  47  61
BRANCH  48  73
ATOM     73  C   UNL A   1      43.216  23.453  27.008  1.00  0.00     0.058 A 
ATOM     74  C   UNL A   1      42.835  23.012  25.731  1.00  0.00     0.135 A 
ATOM     75  C   UNL A   1      43.202  22.518  28.053  1.00  0.00     0.135 A 
ATOM     76  F   UNL A   1      42.829  23.871  24.701  1.00  0.00    -0.206 F 
ATOM     77  C   UNL A   1      42.441  21.698  25.501  1.00  0.00     0.059 A 
ATOM     78  C   UNL A   1      42.834  21.192  27.844  1.00  0.00     0.059 A 
ATOM     79  F   UNL A   1      43.577  22.885  29.289  1.00  0.00    -0.206 F 
ATOM     80  C   UNL A   1      42.446  20.795  26.564  1.00  0.00     0.060 A 
BRANCH  80  81
ATOM     81  S   UNL A   1      41.990  19.076  26.244  1.00  0.00     0.124 S 
ATOM     82  O   UNL A   1      42.190  18.471  27.556  1.00  0.00    -0.237 OA
ATOM     83  O   UNL A   1      40.605  19.202  25.803  1.00  0.00    -0.237 OA
ATOM     84  O   UNL A   1      42.934  18.668  25.209  1.00  0.00    -0.744 OA
ENDBRANCH  80  81
ENDBRANCH  48  73
BRANCH  60  85
ATOM     85  C   UNL A   1      49.319  26.780  26.415  1.00  0.00     0.058 A 
ATOM     86  C   UNL A   1      50.192  26.295  27.400  1.00  0.00     0.135 A 
ATOM     87  C   UNL A   1      49.764  26.781  25.083  1.00  0.00     0.135 A 
ATOM     88  F   UNL A   1      49.815  26.275  28.688  1.00  0.00    -0.206 F 
ATOM     89  C   UNL A   1      51.473  25.855  27.080  1.00  0.00     0.059 A 
ATOM     90  C   UNL A   1      51.032  26.323  24.738  1.00  0.00     0.059 A 
ATOM     91  F   UNL A   1      48.962  27.224  24.101  1.00  0.00    -0.206 F 
ATOM     92  C   UNL A   1      51.885  25.878  25.746  1.00  0.00     0.060 A 
BRANCH  92  93
ATOM     93  S   UNL A   1      53.544  25.291  25.338  1.00  0.00     0.124 S 
ATOM     94  O   UNL A   1      53.703  25.792  23.977  1.00  0.00    -0.237 OA
ATOM     95  O   UNL A   1      54.367  25.942  26.354  1.00  0.00    -0.237 OA
ATOM     96  O   UNL A   1      53.432  23.842  25.466  1.00  0.00    -0.744 OA
ENDBRANCH  92  93
ENDBRANCH  60  85
ENDBRANCH  34  35
ENDBRANCH  26  29
ENDBRANCH  24  25
ENDBRANCH  23  24
ENDBRANCH   1  23
TORSDOF 17
ENDMDL
