MODEL 1
REMARK VINA RESULT:     -13.1      0.000      0.000
REMARK SMILES CC[C@@H]1C=CCN1S(=O)(=O)c1sc2c(c1C(=O)NCCCNC(=O)c1ccc(-c3c4nc(c(-c5c(F)cc(S(=O)(=O)[O-])cc5F)c5ccc([nH]5)c(-c5c(F)cc(S(=O)(=O)[O-])cc5F)c5nc(c(-c6c(F)cc(S(=O)(=O)[O-])cc6F)c6ccc3[nH]6)C=C5)C=C4)cc1)CC[NH2+]C2
REMARK SMILES IDX 20 1 19 2 18 3 16 4 17 5 15 7 11 8 12 9 13 10 14 11 94 12
REMARK SMILES IDX 91 13 93 14 92 15 8 18 9 19 10 20 7 21 3 22 4 23 5 24 6 25
REMARK SMILES IDX 2 26 1 27 21 28 22 29 23 30 24 32 25 33 26 34 90 35 27 36
REMARK SMILES IDX 89 37 28 38 29 39 30 40 83 41 31 42 88 43 82 44 84 45 32 46
REMARK SMILES IDX 87 47 81 48 80 49 33 51 67 52 46 53 66 54 47 55 50 56 65 57
REMARK SMILES IDX 85 58 48 59 49 60 64 62 86 63 51 64 34 65 35 66 44 67 36 68
REMARK SMILES IDX 37 69 43 70 45 71 38 72 39 73 40 74 41 75 42 76 68 77 69 78
REMARK SMILES IDX 78 79 70 80 71 81 77 82 79 83 72 84 73 85 74 86 75 87 76 88
REMARK SMILES IDX 52 89 53 90 62 91 54 92 55 93 61 94 63 95 56 96 57 97 58 98
REMARK SMILES IDX 59 99 60 100
REMARK H PARENT 18 6 93 16 93 17 22 31 84 50 50 61
REMARK Flexibility Score: inf
ROOT
ATOM      1  C   UNL A   1      37.190  22.189  24.710  1.00  0.00     0.042 C 
ENDROOT
BRANCH   1   2
ATOM      2  C   UNL A   1      36.771  20.896  25.408  1.00  0.00     0.118 C 
BRANCH   2   3
ATOM      3  N   UNL A   1      35.676  21.139  26.286  1.00  0.00    -0.352 N 
ATOM      4  C   UNL A   1      34.333  21.205  26.137  1.00  0.00     0.253 C 
ATOM      5  O   UNL A   1      33.800  21.377  27.243  1.00  0.00    -0.269 OA
ATOM      6  H   UNL A   1      35.962  21.296  27.214  1.00  0.00     0.163 HD
BRANCH   4   7
ATOM      7  C   UNL A   1      33.482  21.104  24.912  1.00  0.00     0.074 A 
ATOM      8  C   UNL A   1      32.628  21.967  24.170  1.00  0.00     0.148 A 
ATOM      9  S   UNL A   1      31.863  21.085  22.862  1.00  0.00    -0.120 S 
ATOM     10  C   UNL A   1      32.566  19.630  23.240  1.00  0.00     0.064 A 
ATOM     11  C   UNL A   1      33.465  19.746  24.269  1.00  0.00    -0.009 A 
ATOM     12  C   UNL A   1      32.261  18.387  22.461  1.00  0.00     0.308 C 
ATOM     13  C   UNL A   1      34.258  18.505  24.658  1.00  0.00     0.099 C 
ATOM     14  N   UNL A   1      32.741  17.181  23.155  1.00  0.00    -0.342 N 
ATOM     15  C   UNL A   1      34.131  17.383  23.604  1.00  0.00     0.265 C 
ATOM     16  H   UNL A   1      32.147  16.998  23.964  1.00  0.00     0.346 HD
ATOM     17  H   UNL A   1      32.705  16.388  22.515  1.00  0.00     0.346 HD
BRANCH   8  18
ATOM     18  S   UNL A   1      31.973  23.699  24.044  1.00  0.00     0.254 S 
ATOM     19  O   UNL A   1      31.426  24.034  25.340  1.00  0.00    -0.206 OA
ATOM     20  O   UNL A   1      31.066  23.752  22.919  1.00  0.00    -0.206 OA
BRANCH  18  21
ATOM     21  N   UNL A   1      33.276  24.786  23.743  1.00  0.00    -0.186 NA
ATOM     22  C   UNL A   1      32.868  26.235  23.561  1.00  0.00     0.096 C 
ATOM     23  C   UNL A   1      33.442  26.910  24.766  1.00  0.00    -0.010 C 
ATOM     24  C   UNL A   1      34.275  26.109  25.425  1.00  0.00    -0.013 C 
ATOM     25  C   UNL A   1      34.331  24.758  24.808  1.00  0.00     0.130 C 
BRANCH  22  26
ATOM     26  C   UNL A   1      33.506  26.793  22.271  1.00  0.00     0.021 C 
ATOM     27  C   UNL A   1      33.968  28.244  22.371  1.00  0.00     0.006 C 
ENDBRANCH  22  26
ENDBRANCH  18  21
ENDBRANCH   8  18
ENDBRANCH   4   7
ENDBRANCH   2   3
ENDBRANCH   1   2
BRANCH   1  28
ATOM     28  C   UNL A   1      38.093  23.029  25.592  1.00  0.00     0.118 C 
BRANCH  28  29
ATOM     29  N   UNL A   1      38.917  22.175  26.456  1.00  0.00    -0.352 N 
ATOM     30  C   UNL A   1      40.081  22.486  27.128  1.00  0.00     0.251 C 
ATOM     31  H   UNL A   1      38.595  21.252  26.572  1.00  0.00     0.163 HD
ATOM     32  O   UNL A   1      40.825  21.602  27.534  1.00  0.00    -0.269 OA
BRANCH  30  33
ATOM     33  C   UNL A   1      40.415  23.906  27.313  1.00  0.00     0.039 A 
ATOM     34  C   UNL A   1      39.590  24.905  26.802  1.00  0.00     0.014 A 
ATOM     35  C   UNL A   1      41.504  24.220  28.121  1.00  0.00     0.014 A 
ATOM     36  C   UNL A   1      39.797  26.213  27.228  1.00  0.00     0.010 A 
ATOM     37  C   UNL A   1      41.582  25.470  28.686  1.00  0.00     0.010 A 
ATOM     38  C   UNL A   1      40.756  26.487  28.225  1.00  0.00    -0.014 A 
BRANCH  38  39
ATOM     39  C   UNL A   1      40.789  27.800  28.872  1.00  0.00     0.031 A 
ATOM     40  C   UNL A   1      41.846  28.707  28.353  1.00  0.00     0.074 A 
ATOM     41  C   UNL A   1      39.894  28.259  29.776  1.00  0.00     0.049 A 
ATOM     42  N   UNL A   1      42.996  28.928  28.899  1.00  0.00    -0.248 NA
ATOM     43  C   UNL A   1      41.710  29.281  27.006  1.00  0.00     0.031 C 
ATOM     44  C   UNL A   1      38.642  27.642  30.227  1.00  0.00     0.029 A 
ATOM     45  N   UNL A   1      39.894  29.447  30.447  1.00  0.00    -0.354 N 
ATOM     46  C   UNL A   1      43.610  29.891  28.111  1.00  0.00     0.074 A 
ATOM     47  C   UNL A   1      42.888  29.899  26.865  1.00  0.00     0.031 C 
ATOM     48  C   UNL A   1      37.904  28.545  30.909  1.00  0.00     0.029 A 
ATOM     49  C   UNL A   1      38.707  29.734  31.114  1.00  0.00     0.049 A 
ATOM     50  H   UNL A   1      40.671  30.052  30.457  1.00  0.00     0.167 HD
ATOM     51  C   UNL A   1      44.469  30.788  28.670  1.00  0.00     0.037 A 
ATOM     52  C   UNL A   1      38.408  30.854  31.819  1.00  0.00     0.037 A 
ATOM     53  C   UNL A   1      44.879  30.359  29.989  1.00  0.00     0.049 A 
ATOM     54  C   UNL A   1      39.699  31.438  32.253  1.00  0.00     0.074 A 
ATOM     55  C   UNL A   1      45.465  29.220  30.511  1.00  0.00     0.029 A 
ATOM     56  N   UNL A   1      44.324  31.013  31.063  1.00  0.00    -0.354 N 
ATOM     57  N   UNL A   1      40.497  30.872  33.116  1.00  0.00    -0.248 NA
ATOM     58  C   UNL A   1      40.312  32.452  31.412  1.00  0.00     0.031 C 
ATOM     59  C   UNL A   1      44.815  29.009  31.765  1.00  0.00     0.029 A 
ATOM     60  C   UNL A   1      43.933  30.069  31.977  1.00  0.00     0.049 A 
ATOM     61  H   UNL A   1      44.224  31.987  31.159  1.00  0.00     0.167 HD
ATOM     62  C   UNL A   1      41.769  31.106  32.620  1.00  0.00     0.074 A 
ATOM     63  C   UNL A   1      41.598  32.180  31.643  1.00  0.00     0.031 C 
ATOM     64  C   UNL A   1      42.785  30.222  32.845  1.00  0.00     0.037 A 
BRANCH  51  65
ATOM     65  C   UNL A   1      44.590  32.233  28.234  1.00  0.00     0.058 A 
ATOM     66  C   UNL A   1      45.843  32.707  27.788  1.00  0.00     0.135 A 
ATOM     67  C   UNL A   1      43.633  33.232  28.521  1.00  0.00     0.135 A 
ATOM     68  F   UNL A   1      46.831  31.848  27.487  1.00  0.00    -0.206 F 
ATOM     69  C   UNL A   1      46.150  34.066  27.726  1.00  0.00     0.059 A 
ATOM     70  C   UNL A   1      43.900  34.590  28.413  1.00  0.00     0.059 A 
ATOM     71  F   UNL A   1      42.424  32.949  29.018  1.00  0.00    -0.206 F 
ATOM     72  C   UNL A   1      45.173  34.999  28.059  1.00  0.00     0.060 A 
BRANCH  72  73
ATOM     73  S   UNL A   1      45.592  36.749  28.075  1.00  0.00     0.124 S 
ATOM     74  O   UNL A   1      45.794  37.010  26.655  1.00  0.00    -0.237 OA
ATOM     75  O   UNL A   1      44.397  37.338  28.672  1.00  0.00    -0.237 OA
ATOM     76  O   UNL A   1      46.790  36.798  28.908  1.00  0.00    -0.744 OA
ENDBRANCH  72  73
ENDBRANCH  51  65
BRANCH  52  77
ATOM     77  C   UNL A   1      37.134  31.620  31.849  1.00  0.00     0.058 A 
ATOM     78  C   UNL A   1      36.585  32.041  33.076  1.00  0.00     0.135 A 
ATOM     79  C   UNL A   1      36.610  32.232  30.693  1.00  0.00     0.135 A 
ATOM     80  F   UNL A   1      37.018  31.507  34.228  1.00  0.00    -0.206 F 
ATOM     81  C   UNL A   1      35.651  33.078  33.160  1.00  0.00     0.059 A 
ATOM     82  C   UNL A   1      35.670  33.260  30.752  1.00  0.00     0.059 A 
ATOM     83  F   UNL A   1      37.070  31.918  29.473  1.00  0.00    -0.206 F 
ATOM     84  C   UNL A   1      35.225  33.705  31.992  1.00  0.00     0.060 A 
BRANCH  84  85
ATOM     85  S   UNL A   1      34.206  35.195  32.107  1.00  0.00     0.124 S 
ATOM     86  O   UNL A   1      35.033  36.062  32.939  1.00  0.00    -0.237 OA
ATOM     87  O   UNL A   1      34.075  35.590  30.709  1.00  0.00    -0.237 OA
ATOM     88  O   UNL A   1      32.976  34.715  32.732  1.00  0.00    -0.744 OA
ENDBRANCH  84  85
ENDBRANCH  52  77
BRANCH  64  89
ATOM     89  C   UNL A   1      42.623  29.221  33.962  1.00  0.00     0.058 A 
ATOM     90  C   UNL A   1      42.928  29.446  35.316  1.00  0.00     0.135 A 
ATOM     91  C   UNL A   1      42.040  27.985  33.638  1.00  0.00     0.135 A 
ATOM     92  F   UNL A   1      43.387  30.633  35.737  1.00  0.00    -0.206 F 
ATOM     93  C   UNL A   1      42.725  28.460  36.288  1.00  0.00     0.059 A 
ATOM     94  C   UNL A   1      41.796  27.005  34.593  1.00  0.00     0.059 A 
ATOM     95  F   UNL A   1      41.670  27.727  32.373  1.00  0.00    -0.206 F 
ATOM     96  C   UNL A   1      42.163  27.239  35.914  1.00  0.00     0.060 A 
BRANCH  96  97
ATOM     97  S   UNL A   1      41.877  25.973  37.170  1.00  0.00     0.124 S 
ATOM     98  O   UNL A   1      40.484  26.210  37.533  1.00  0.00    -0.237 OA
ATOM     99  O   UNL A   1      42.142  24.736  36.440  1.00  0.00    -0.237 OA
ATOM    100  O   UNL A   1      42.854  26.294  38.208  1.00  0.00    -0.744 OA
ENDBRANCH  96  97
ENDBRANCH  64  89
ENDBRANCH  38  39
ENDBRANCH  30  33
ENDBRANCH  28  29
ENDBRANCH   1  28
TORSDOF 16
ENDMDL
MODEL 2
REMARK VINA RESULT:     -13.0      1.580      2.331
REMARK SMILES CC[C@@H]1C=CCN1S(=O)(=O)c1sc2c(c1C(=O)NCCCNC(=O)c1ccc(-c3c4nc(c(-c5c(F)cc(S(=O)(=O)[O-])cc5F)c5ccc([nH]5)c(-c5c(F)cc(S(=O)(=O)[O-])cc5F)c5nc(c(-c6c(F)cc(S(=O)(=O)[O-])cc6F)c6ccc3[nH]6)C=C5)C=C4)cc1)CC[NH2+]C2
REMARK SMILES IDX 20 1 19 2 18 3 16 4 17 5 15 7 11 8 12 9 13 10 14 11 94 12
REMARK SMILES IDX 91 13 93 14 92 15 8 18 9 19 10 20 7 21 3 22 4 23 5 24 6 25
REMARK SMILES IDX 2 26 1 27 21 28 22 29 23 30 24 32 25 33 26 34 90 35 27 36
REMARK SMILES IDX 89 37 28 38 29 39 30 40 83 41 31 42 88 43 82 44 84 45 32 46
REMARK SMILES IDX 87 47 81 48 80 49 33 51 67 52 46 53 66 54 47 55 50 56 65 57
REMARK SMILES IDX 85 58 48 59 49 60 64 62 86 63 51 64 34 65 35 66 44 67 36 68
REMARK SMILES IDX 37 69 43 70 45 71 38 72 39 73 40 74 41 75 42 76 68 77 69 78
REMARK SMILES IDX 78 79 70 80 71 81 77 82 79 83 72 84 73 85 74 86 75 87 76 88
REMARK SMILES IDX 52 89 53 90 62 91 54 92 55 93 61 94 63 95 56 96 57 97 58 98
REMARK SMILES IDX 59 99 60 100
REMARK H PARENT 18 6 93 16 93 17 22 31 84 50 50 61
REMARK Flexibility Score: inf
ROOT
ATOM      1  C   UNL A   1      38.339  22.581  26.406  1.00  0.00     0.042 C 
ENDROOT
BRANCH   1   2
ATOM      2  C   UNL A   1      37.233  23.453  25.813  1.00  0.00     0.118 C 
BRANCH   2   3
ATOM      3  N   UNL A   1      37.169  23.279  24.401  1.00  0.00    -0.352 N 
ATOM      4  C   UNL A   1      36.166  23.150  23.501  1.00  0.00     0.253 C 
ATOM      5  O   UNL A   1      36.639  23.092  22.358  1.00  0.00    -0.269 OA
ATOM      6  H   UNL A   1      38.059  23.244  23.983  1.00  0.00     0.163 HD
BRANCH   4   7
ATOM      7  C   UNL A   1      34.686  23.074  23.697  1.00  0.00     0.074 A 
ATOM      8  C   UNL A   1      33.564  23.915  23.455  1.00  0.00     0.148 A 
ATOM      9  S   UNL A   1      32.101  23.165  24.062  1.00  0.00    -0.120 S 
ATOM     10  C   UNL A   1      32.867  21.816  24.654  1.00  0.00     0.064 A 
ATOM     11  C   UNL A   1      34.202  21.807  24.344  1.00  0.00    -0.009 A 
ATOM     12  C   UNL A   1      32.112  20.739  25.372  1.00  0.00     0.308 C 
ATOM     13  C   UNL A   1      35.011  20.579  24.742  1.00  0.00     0.099 C 
ATOM     14  N   UNL A   1      33.020  19.815  26.071  1.00  0.00    -0.342 N 
ATOM     15  C   UNL A   1      34.105  19.401  25.163  1.00  0.00     0.265 C 
ATOM     16  H   UNL A   1      33.419  20.284  26.884  1.00  0.00     0.346 HD
ATOM     17  H   UNL A   1      32.497  18.992  26.370  1.00  0.00     0.346 HD
BRANCH   8  18
ATOM     18  S   UNL A   1      33.024  25.543  22.745  1.00  0.00     0.254 S 
ATOM     19  O   UNL A   1      31.642  25.387  22.348  1.00  0.00    -0.206 OA
ATOM     20  O   UNL A   1      33.963  25.911  21.708  1.00  0.00    -0.206 OA
BRANCH  18  21
ATOM     21  N   UNL A   1      33.070  26.750  23.973  1.00  0.00    -0.186 NA
ATOM     22  C   UNL A   1      31.713  27.239  24.439  1.00  0.00     0.096 C 
ATOM     23  C   UNL A   1      31.627  26.737  25.845  1.00  0.00    -0.010 C 
ATOM     24  C   UNL A   1      32.800  26.273  26.271  1.00  0.00    -0.013 C 
ATOM     25  C   UNL A   1      33.826  26.324  25.197  1.00  0.00     0.130 C 
BRANCH  22  26
ATOM     26  C   UNL A   1      31.682  28.782  24.410  1.00  0.00     0.021 C 
ATOM     27  C   UNL A   1      30.399  29.377  23.834  1.00  0.00     0.006 C 
ENDBRANCH  22  26
ENDBRANCH  18  21
ENDBRANCH   8  18
ENDBRANCH   4   7
ENDBRANCH   2   3
ENDBRANCH   1   2
BRANCH   1  28
ATOM     28  C   UNL A   1      39.546  23.409  26.800  1.00  0.00     0.118 C 
BRANCH  28  29
ATOM     29  N   UNL A   1      40.781  22.812  26.277  1.00  0.00    -0.352 N 
ATOM     30  C   UNL A   1      41.962  23.429  25.925  1.00  0.00     0.251 C 
ATOM     31  H   UNL A   1      40.763  21.834  26.162  1.00  0.00     0.163 HD
ATOM     32  O   UNL A   1      42.776  22.862  25.205  1.00  0.00    -0.269 OA
BRANCH  30  33
ATOM     33  C   UNL A   1      42.201  24.797  26.411  1.00  0.00     0.039 A 
ATOM     34  C   UNL A   1      41.625  25.891  25.772  1.00  0.00     0.014 A 
ATOM     35  C   UNL A   1      42.907  24.953  27.600  1.00  0.00     0.014 A 
ATOM     36  C   UNL A   1      41.655  27.123  26.417  1.00  0.00     0.010 A 
ATOM     37  C   UNL A   1      42.766  26.115  28.317  1.00  0.00     0.010 A 
ATOM     38  C   UNL A   1      42.170  27.222  27.725  1.00  0.00    -0.014 A 
BRANCH  38  39
ATOM     39  C   UNL A   1      41.957  28.439  28.510  1.00  0.00     0.031 A 
ATOM     40  C   UNL A   1      43.012  29.471  28.331  1.00  0.00     0.074 A 
ATOM     41  C   UNL A   1      40.862  28.719  29.252  1.00  0.00     0.049 A 
ATOM     42  N   UNL A   1      44.004  29.692  29.127  1.00  0.00    -0.248 NA
ATOM     43  C   UNL A   1      43.098  30.205  27.059  1.00  0.00     0.031 C 
ATOM     44  C   UNL A   1      39.604  27.971  29.357  1.00  0.00     0.029 A 
ATOM     45  N   UNL A   1      40.622  29.808  30.039  1.00  0.00    -0.354 N 
ATOM     46  C   UNL A   1      44.677  30.786  28.600  1.00  0.00     0.074 A 
ATOM     47  C   UNL A   1      44.221  30.909  27.239  1.00  0.00     0.031 C 
ATOM     48  C   UNL A   1      38.667  28.730  29.968  1.00  0.00     0.029 A 
ATOM     49  C   UNL A   1      39.305  29.931  30.470  1.00  0.00     0.049 A 
ATOM     50  H   UNL A   1      41.324  30.455  30.280  1.00  0.00     0.167 HD
ATOM     51  C   UNL A   1      45.323  31.656  29.426  1.00  0.00     0.037 A 
ATOM     52  C   UNL A   1      38.772  30.929  31.219  1.00  0.00     0.037 A 
ATOM     53  C   UNL A   1      45.496  31.086  30.743  1.00  0.00     0.049 A 
ATOM     54  C   UNL A   1      39.893  31.532  31.979  1.00  0.00     0.074 A 
ATOM     55  C   UNL A   1      46.064  29.928  31.243  1.00  0.00     0.029 A 
ATOM     56  N   UNL A   1      44.682  31.559  31.744  1.00  0.00    -0.354 N 
ATOM     57  N   UNL A   1      40.549  30.911  32.920  1.00  0.00    -0.248 NA
ATOM     58  C   UNL A   1      40.570  32.684  31.406  1.00  0.00     0.031 C 
ATOM     59  C   UNL A   1      45.198  29.516  32.301  1.00  0.00     0.029 A 
ATOM     60  C   UNL A   1      44.201  30.482  32.443  1.00  0.00     0.049 A 
ATOM     61  H   UNL A   1      44.479  32.504  31.928  1.00  0.00     0.167 HD
ATOM     62  C   UNL A   1      41.869  31.288  32.731  1.00  0.00     0.074 A 
ATOM     63  C   UNL A   1      41.803  32.465  31.869  1.00  0.00     0.031 C 
ATOM     64  C   UNL A   1      42.894  30.448  33.063  1.00  0.00     0.037 A 
BRANCH  51  65
ATOM     65  C   UNL A   1      45.400  33.150  29.192  1.00  0.00     0.058 A 
ATOM     66  C   UNL A   1      44.214  33.855  28.893  1.00  0.00     0.135 A 
ATOM     67  C   UNL A   1      46.601  33.853  28.946  1.00  0.00     0.135 A 
ATOM     68  F   UNL A   1      43.013  33.284  29.084  1.00  0.00    -0.206 F 
ATOM     69  C   UNL A   1      44.223  35.119  28.305  1.00  0.00     0.059 A 
ATOM     70  C   UNL A   1      46.631  35.135  28.412  1.00  0.00     0.059 A 
ATOM     71  F   UNL A   1      47.807  33.300  29.112  1.00  0.00    -0.206 F 
ATOM     72  C   UNL A   1      45.441  35.743  28.053  1.00  0.00     0.060 A 
BRANCH  72  73
ATOM     73  S   UNL A   1      45.463  37.331  27.207  1.00  0.00     0.124 S 
ATOM     74  O   UNL A   1      44.051  37.506  26.888  1.00  0.00    -0.237 OA
ATOM     75  O   UNL A   1      46.002  38.213  28.237  1.00  0.00    -0.237 OA
ATOM     76  O   UNL A   1      46.347  37.091  26.070  1.00  0.00    -0.744 OA
ENDBRANCH  72  73
ENDBRANCH  51  65
BRANCH  52  77
ATOM     77  C   UNL A   1      37.455  31.602  31.069  1.00  0.00     0.058 A 
ATOM     78  C   UNL A   1      36.410  31.334  31.974  1.00  0.00     0.135 A 
ATOM     79  C   UNL A   1      37.296  32.744  30.259  1.00  0.00     0.135 A 
ATOM     80  F   UNL A   1      36.474  30.263  32.780  1.00  0.00    -0.206 F 
ATOM     81  C   UNL A   1      35.326  32.200  32.141  1.00  0.00     0.059 A 
ATOM     82  C   UNL A   1      36.217  33.616  30.400  1.00  0.00     0.059 A 
ATOM     83  F   UNL A   1      38.236  33.103  29.372  1.00  0.00    -0.206 F 
ATOM     84  C   UNL A   1      35.256  33.358  31.371  1.00  0.00     0.060 A 
BRANCH  84  85
ATOM     85  S   UNL A   1      33.991  34.596  31.745  1.00  0.00     0.124 S 
ATOM     86  O   UNL A   1      33.293  34.710  30.470  1.00  0.00    -0.237 OA
ATOM     87  O   UNL A   1      33.245  33.960  32.825  1.00  0.00    -0.237 OA
ATOM     88  O   UNL A   1      34.771  35.766  32.139  1.00  0.00    -0.744 OA
ENDBRANCH  84  85
ENDBRANCH  52  77
BRANCH  64  89
ATOM     89  C   UNL A   1      42.600  29.303  33.999  1.00  0.00     0.058 A 
ATOM     90  C   UNL A   1      41.980  28.091  33.644  1.00  0.00     0.135 A 
ATOM     91  C   UNL A   1      43.057  29.420  35.322  1.00  0.00     0.135 A 
ATOM     92  F   UNL A   1      41.608  27.845  32.380  1.00  0.00    -0.206 F 
ATOM     93  C   UNL A   1      41.767  27.074  34.581  1.00  0.00     0.059 A 
ATOM     94  C   UNL A   1      42.888  28.407  36.260  1.00  0.00     0.059 A 
ATOM     95  F   UNL A   1      43.710  30.527  35.713  1.00  0.00    -0.206 F 
ATOM     96  C   UNL A   1      42.220  27.245  35.889  1.00  0.00     0.060 A 
BRANCH  96  97
ATOM     97  S   UNL A   1      41.967  25.925  37.095  1.00  0.00     0.124 S 
ATOM     98  O   UNL A   1      42.800  26.364  38.210  1.00  0.00    -0.237 OA
ATOM     99  O   UNL A   1      40.526  25.973  37.322  1.00  0.00    -0.237 OA
ATOM    100  O   UNL A   1      42.439  24.730  36.399  1.00  0.00    -0.744 OA
ENDBRANCH  96  97
ENDBRANCH  64  89
ENDBRANCH  38  39
ENDBRANCH  30  33
ENDBRANCH  28  29
ENDBRANCH   1  28
TORSDOF 16
ENDMDL
MODEL 3
REMARK VINA RESULT:     -12.9      3.250      9.686
REMARK SMILES CC[C@@H]1C=CCN1S(=O)(=O)c1sc2c(c1C(=O)NCCCNC(=O)c1ccc(-c3c4nc(c(-c5c(F)cc(S(=O)(=O)[O-])cc5F)c5ccc([nH]5)c(-c5c(F)cc(S(=O)(=O)[O-])cc5F)c5nc(c(-c6c(F)cc(S(=O)(=O)[O-])cc6F)c6ccc3[nH]6)C=C5)C=C4)cc1)CC[NH2+]C2
REMARK SMILES IDX 20 1 19 2 18 3 16 4 17 5 15 7 11 8 12 9 13 10 14 11 94 12
REMARK SMILES IDX 91 13 93 14 92 15 8 18 9 19 10 20 7 21 3 22 4 23 5 24 6 25
REMARK SMILES IDX 2 26 1 27 21 28 22 29 23 30 24 32 25 33 26 34 90 35 27 36
REMARK SMILES IDX 89 37 28 38 29 39 30 40 83 41 31 42 88 43 82 44 84 45 32 46
REMARK SMILES IDX 87 47 81 48 80 49 33 51 67 52 46 53 66 54 47 55 50 56 65 57
REMARK SMILES IDX 85 58 48 59 49 60 64 62 86 63 51 64 34 65 35 66 44 67 36 68
REMARK SMILES IDX 37 69 43 70 45 71 38 72 39 73 40 74 41 75 42 76 68 77 69 78
REMARK SMILES IDX 78 79 70 80 71 81 77 82 79 83 72 84 73 85 74 86 75 87 76 88
REMARK SMILES IDX 52 89 53 90 62 91 54 92 55 93 61 94 63 95 56 96 57 97 58 98
REMARK SMILES IDX 59 99 60 100
REMARK H PARENT 18 6 93 16 93 17 22 31 84 50 50 61
REMARK Flexibility Score: inf
ROOT
ATOM      1  C   UNL A   1      32.860  30.874  27.449  1.00  0.00     0.042 C 
ENDROOT
BRANCH   1   2
ATOM      2  C   UNL A   1      33.438  29.510  27.074  1.00  0.00     0.118 C 
BRANCH   2   3
ATOM      3  N   UNL A   1      33.660  29.434  25.670  1.00  0.00    -0.352 N 
ATOM      4  C   UNL A   1      33.036  28.819  24.639  1.00  0.00     0.253 C 
ATOM      5  O   UNL A   1      33.590  29.127  23.574  1.00  0.00    -0.269 OA
ATOM      6  H   UNL A   1      34.448  29.947  25.383  1.00  0.00     0.163 HD
BRANCH   4   7
ATOM      7  C   UNL A   1      31.863  27.893  24.623  1.00  0.00     0.074 A 
ATOM      8  C   UNL A   1      31.600  26.545  24.999  1.00  0.00     0.148 A 
ATOM      9  S   UNL A   1      29.958  26.105  24.573  1.00  0.00    -0.120 S 
ATOM     10  C   UNL A   1      29.588  27.575  23.894  1.00  0.00     0.064 A 
ATOM     11  C   UNL A   1      30.607  28.479  24.040  1.00  0.00    -0.009 A 
ATOM     12  C   UNL A   1      28.249  27.835  23.272  1.00  0.00     0.308 C 
ATOM     13  C   UNL A   1      30.367  29.900  23.548  1.00  0.00     0.099 C 
ATOM     14  N   UNL A   1      28.255  29.068  22.470  1.00  0.00    -0.342 N 
ATOM     15  C   UNL A   1      28.876  30.162  23.240  1.00  0.00     0.265 C 
ATOM     16  H   UNL A   1      28.788  28.912  21.614  1.00  0.00     0.346 HD
ATOM     17  H   UNL A   1      27.296  29.322  22.236  1.00  0.00     0.346 HD
BRANCH   8  18
ATOM     18  S   UNL A   1      32.333  25.023  25.768  1.00  0.00     0.254 S 
ATOM     19  O   UNL A   1      31.497  24.682  26.897  1.00  0.00    -0.206 OA
ATOM     20  O   UNL A   1      33.728  25.291  26.044  1.00  0.00    -0.206 OA
BRANCH  18  21
ATOM     21  N   UNL A   1      32.243  23.714  24.651  1.00  0.00    -0.186 NA
ATOM     22  C   UNL A   1      33.579  23.247  24.106  1.00  0.00     0.096 C 
ATOM     23  C   UNL A   1      33.735  21.881  24.694  1.00  0.00    -0.010 C 
ATOM     24  C   UNL A   1      32.607  21.462  25.263  1.00  0.00    -0.013 C 
ATOM     25  C   UNL A   1      31.551  22.505  25.207  1.00  0.00     0.130 C 
BRANCH  22  26
ATOM     26  C   UNL A   1      33.510  23.171  22.566  1.00  0.00     0.021 C 
ATOM     27  C   UNL A   1      32.930  24.415  21.898  1.00  0.00     0.006 C 
ENDBRANCH  22  26
ENDBRANCH  18  21
ENDBRANCH   8  18
ENDBRANCH   4   7
ENDBRANCH   2   3
ENDBRANCH   1   2
BRANCH   1  28
ATOM     28  C   UNL A   1      33.949  31.918  27.591  1.00  0.00     0.118 C 
BRANCH  28  29
ATOM     29  N   UNL A   1      34.028  32.403  28.974  1.00  0.00    -0.352 N 
ATOM     30  C   UNL A   1      34.961  32.106  29.946  1.00  0.00     0.251 C 
ATOM     31  H   UNL A   1      33.317  33.026  29.247  1.00  0.00     0.163 HD
ATOM     32  O   UNL A   1      34.722  32.315  31.129  1.00  0.00    -0.269 OA
BRANCH  30  33
ATOM     33  C   UNL A   1      36.234  31.503  29.523  1.00  0.00     0.039 A 
ATOM     34  C   UNL A   1      37.422  32.226  29.589  1.00  0.00     0.014 A 
ATOM     35  C   UNL A   1      36.235  30.154  29.182  1.00  0.00     0.014 A 
ATOM     36  C   UNL A   1      38.622  31.539  29.439  1.00  0.00     0.010 A 
ATOM     37  C   UNL A   1      37.414  29.451  29.229  1.00  0.00     0.010 A 
ATOM     38  C   UNL A   1      38.620  30.134  29.323  1.00  0.00    -0.014 A 
BRANCH  38  39
ATOM     39  C   UNL A   1      39.872  29.385  29.443  1.00  0.00     0.031 A 
ATOM     40  C   UNL A   1      40.276  29.094  30.843  1.00  0.00     0.074 A 
ATOM     41  C   UNL A   1      40.583  28.864  28.417  1.00  0.00     0.049 A 
ATOM     42  N   UNL A   1      41.147  29.750  31.536  1.00  0.00    -0.248 NA
ATOM     43  C   UNL A   1      39.516  28.109  31.627  1.00  0.00     0.031 C 
ATOM     44  C   UNL A   1      40.235  28.803  26.992  1.00  0.00     0.029 A 
ATOM     45  N   UNL A   1      41.774  28.200  28.455  1.00  0.00    -0.354 N 
ATOM     46  C   UNL A   1      41.250  29.079  32.747  1.00  0.00     0.074 A 
ATOM     47  C   UNL A   1      40.084  28.238  32.831  1.00  0.00     0.031 C 
ATOM     48  C   UNL A   1      41.068  27.954  26.351  1.00  0.00     0.029 A 
ATOM     49  C   UNL A   1      42.122  27.566  27.267  1.00  0.00     0.049 A 
ATOM     50  H   UNL A   1      42.340  28.171  29.260  1.00  0.00     0.167 HD
ATOM     51  C   UNL A   1      42.431  29.068  33.426  1.00  0.00     0.037 A 
ATOM     52  C   UNL A   1      43.217  26.801  27.031  1.00  0.00     0.037 A 
ATOM     53  C   UNL A   1      43.328  30.083  32.920  1.00  0.00     0.049 A 
ATOM     54  C   UNL A   1      44.246  27.220  28.012  1.00  0.00     0.074 A 
ATOM     55  C   UNL A   1      43.255  31.452  32.736  1.00  0.00     0.029 A 
ATOM     56  N   UNL A   1      44.376  29.661  32.137  1.00  0.00    -0.354 N 
ATOM     57  N   UNL A   1      44.821  28.391  28.005  1.00  0.00    -0.248 NA
ATOM     58  C   UNL A   1      44.336  26.492  29.267  1.00  0.00     0.031 C 
ATOM     59  C   UNL A   1      43.929  31.697  31.500  1.00  0.00     0.029 A 
ATOM     60  C   UNL A   1      44.445  30.484  31.043  1.00  0.00     0.049 A 
ATOM     61  H   UNL A   1      44.972  28.902  32.327  1.00  0.00     0.167 HD
ATOM     62  C   UNL A   1      44.923  28.737  29.343  1.00  0.00     0.074 A 
ATOM     63  C   UNL A   1      44.722  27.485  30.069  1.00  0.00     0.031 C 
ATOM     64  C   UNL A   1      44.884  30.044  29.736  1.00  0.00     0.037 A 
BRANCH  51  65
ATOM     65  C   UNL A   1      42.941  27.885  34.222  1.00  0.00     0.058 A 
ATOM     66  C   UNL A   1      43.239  28.063  35.591  1.00  0.00     0.135 A 
ATOM     67  C   UNL A   1      43.434  26.693  33.646  1.00  0.00     0.135 A 
ATOM     68  F   UNL A   1      42.823  29.162  36.243  1.00  0.00    -0.206 F 
ATOM     69  C   UNL A   1      44.045  27.176  36.303  1.00  0.00     0.059 A 
ATOM     70  C   UNL A   1      44.192  25.768  34.351  1.00  0.00     0.059 A 
ATOM     71  F   UNL A   1      43.295  26.411  32.346  1.00  0.00    -0.206 F 
ATOM     72  C   UNL A   1      44.531  26.039  35.665  1.00  0.00     0.060 A 
BRANCH  72  73
ATOM     73  S   UNL A   1      45.651  24.941  36.548  1.00  0.00     0.124 S 
ATOM     74  O   UNL A   1      44.950  24.775  37.816  1.00  0.00    -0.237 OA
ATOM     75  O   UNL A   1      45.679  23.773  35.673  1.00  0.00    -0.237 OA
ATOM     76  O   UNL A   1      46.894  25.705  36.603  1.00  0.00    -0.744 OA
ENDBRANCH  72  73
ENDBRANCH  51  65
BRANCH  52  77
ATOM     77  C   UNL A   1      43.317  25.532  26.262  1.00  0.00     0.058 A 
ATOM     78  C   UNL A   1      44.349  25.347  25.322  1.00  0.00     0.135 A 
ATOM     79  C   UNL A   1      42.623  24.371  26.658  1.00  0.00     0.135 A 
ATOM     80  F   UNL A   1      45.058  26.398  24.883  1.00  0.00    -0.206 F 
ATOM     81  C   UNL A   1      44.739  24.080  24.881  1.00  0.00     0.059 A 
ATOM     82  C   UNL A   1      42.987  23.098  26.222  1.00  0.00     0.059 A 
ATOM     83  F   UNL A   1      41.631  24.428  27.559  1.00  0.00    -0.206 F 
ATOM     84  C   UNL A   1      44.072  22.956  25.364  1.00  0.00     0.060 A 
BRANCH  84  85
ATOM     85  S   UNL A   1      44.720  21.310  24.987  1.00  0.00     0.124 S 
ATOM     86  O   UNL A   1      44.635  21.279  23.531  1.00  0.00    -0.237 OA
ATOM     87  O   UNL A   1      46.067  21.372  25.545  1.00  0.00    -0.237 OA
ATOM     88  O   UNL A   1      43.801  20.417  25.687  1.00  0.00    -0.744 OA
ENDBRANCH  84  85
ENDBRANCH  52  77
BRANCH  64  89
ATOM     89  C   UNL A   1      45.142  31.107  28.697  1.00  0.00     0.058 A 
ATOM     90  C   UNL A   1      44.219  31.555  27.735  1.00  0.00     0.135 A 
ATOM     91  C   UNL A   1      46.382  31.766  28.745  1.00  0.00     0.135 A 
ATOM     92  F   UNL A   1      42.973  31.061  27.685  1.00  0.00    -0.206 F 
ATOM     93  C   UNL A   1      44.542  32.564  26.822  1.00  0.00     0.059 A 
ATOM     94  C   UNL A   1      46.710  32.796  27.870  1.00  0.00     0.059 A 
ATOM     95  F   UNL A   1      47.288  31.428  29.677  1.00  0.00    -0.206 F 
ATOM     96  C   UNL A   1      45.794  33.175  26.894  1.00  0.00     0.060 A 
BRANCH  96  97
ATOM     97  S   UNL A   1      46.207  34.494  25.732  1.00  0.00     0.124 S 
ATOM     98  O   UNL A   1      45.318  34.204  24.611  1.00  0.00    -0.237 OA
ATOM     99  O   UNL A   1      45.895  35.699  26.494  1.00  0.00    -0.237 OA
ATOM    100  O   UNL A   1      47.628  34.285  25.468  1.00  0.00    -0.744 OA
ENDBRANCH  96  97
ENDBRANCH  64  89
ENDBRANCH  38  39
ENDBRANCH  30  33
ENDBRANCH  28  29
ENDBRANCH   1  28
TORSDOF 16
ENDMDL
