MODEL 1
REMARK VINA RESULT:     -12.8      0.000      0.000
REMARK SMILES O=C(NCCCNC(=O)c1ccccc1Nc1nc(Cl)nc(Nc2ccc(N3CCOCC3=O)cc2)n1)c1ccc(-c2c3nc(c(-c4c(F)cc(S(=O)(=O)[O-])cc4F)c4ccc([nH]4)c(-c4c(F)cc(S(=O)(=O)[O-])cc4F)c4nc(c(-c5c(F)cc(S(=O)(=O)[O-])cc5F)c5ccc2[nH]5)C=C4)C=C3)cc1
REMARK SMILES IDX 6 1 5 2 4 3 3 4 1 5 2 6 38 8 39 9 103 10 40 11 102 12 41 13
REMARK SMILES IDX 42 14 43 15 96 16 44 17 101 18 95 19 97 20 45 21 100 22
REMARK SMILES IDX 94 23 93 24 46 26 80 27 59 28 79 29 60 30 63 31 78 32 98 33
REMARK SMILES IDX 61 34 62 35 77 37 99 38 64 39 47 40 48 41 57 42 49 43 50 44
REMARK SMILES IDX 56 45 58 46 51 47 52 48 53 49 54 50 55 51 81 52 82 53 91 54
REMARK SMILES IDX 83 55 84 56 90 57 92 58 85 59 86 60 87 61 88 62 89 63 65 64
REMARK SMILES IDX 66 65 75 66 67 67 68 68 74 69 76 70 69 71 70 72 71 73 72 74
REMARK SMILES IDX 73 75 7 76 8 77 9 79 10 80 11 81 15 82 12 83 14 84 13 85
REMARK SMILES IDX 16 86 17 88 18 89 37 90 19 91 22 92 20 93 21 94 23 95 24 97
REMARK SMILES IDX 25 98 36 99 26 100 35 101 27 102 28 103 29 104 33 105 30 106
REMARK SMILES IDX 32 107 34 108 31 109
REMARK H PARENT 3 7 97 25 63 36 7 78 16 87 23 96
REMARK Flexibility Score: inf
ROOT
ATOM      1  C   UNL A   1      31.791  28.243  25.875  1.00  0.00     0.118 C 
ENDROOT
BRANCH   1   2
ATOM      2  C   UNL A   1      32.814  27.602  26.801  1.00  0.00     0.042 C 
BRANCH   2   3
ATOM      3  C   UNL A   1      34.070  28.430  27.033  1.00  0.00     0.118 C 
BRANCH   3   4
ATOM      4  N   UNL A   1      33.794  29.787  27.484  1.00  0.00    -0.352 N 
ATOM      5  O   UNL A   1      34.083  31.715  28.603  1.00  0.00    -0.269 OA
ATOM      6  C   UNL A   1      34.576  30.667  28.195  1.00  0.00     0.251 C 
ATOM      7  H   UNL A   1      32.904  30.129  27.243  1.00  0.00     0.163 HD
BRANCH   6   8
ATOM      8  C   UNL A   1      35.990  30.348  28.493  1.00  0.00     0.039 A 
ATOM      9  C   UNL A   1      36.993  30.579  27.551  1.00  0.00     0.014 A 
ATOM     10  C   UNL A   1      36.322  29.828  29.748  1.00  0.00     0.014 A 
ATOM     11  C   UNL A   1      38.288  30.132  27.792  1.00  0.00     0.010 A 
ATOM     12  C   UNL A   1      37.646  29.475  30.029  1.00  0.00     0.010 A 
ATOM     13  C   UNL A   1      38.634  29.591  29.039  1.00  0.00    -0.014 A 
BRANCH  13  14
ATOM     14  C   UNL A   1      40.047  29.219  29.306  1.00  0.00     0.031 A 
ATOM     15  C   UNL A   1      41.005  30.194  29.933  1.00  0.00     0.074 A 
ATOM     16  C   UNL A   1      40.459  27.978  28.982  1.00  0.00     0.049 A 
ATOM     17  N   UNL A   1      42.273  30.034  30.214  1.00  0.00    -0.248 NA
ATOM     18  C   UNL A   1      40.478  31.523  30.277  1.00  0.00     0.031 C 
ATOM     19  C   UNL A   1      39.623  26.954  28.350  1.00  0.00     0.029 A 
ATOM     20  N   UNL A   1      41.675  27.363  29.137  1.00  0.00    -0.354 N 
ATOM     21  C   UNL A   1      42.703  31.246  30.742  1.00  0.00     0.074 A 
ATOM     22  C   UNL A   1      41.564  32.139  30.724  1.00  0.00     0.031 C 
ATOM     23  C   UNL A   1      40.341  25.833  28.196  1.00  0.00     0.029 A 
ATOM     24  C   UNL A   1      41.702  26.076  28.656  1.00  0.00     0.049 A 
ATOM     25  H   UNL A   1      42.452  27.801  29.553  1.00  0.00     0.167 HD
ATOM     26  C   UNL A   1      43.935  31.579  31.201  1.00  0.00     0.037 A 
ATOM     27  C   UNL A   1      42.716  25.194  28.563  1.00  0.00     0.037 A 
ATOM     28  C   UNL A   1      45.057  30.674  31.228  1.00  0.00     0.049 A 
ATOM     29  C   UNL A   1      44.069  25.585  29.074  1.00  0.00     0.074 A 
ATOM     30  C   UNL A   1      46.330  30.899  31.723  1.00  0.00     0.029 A 
ATOM     31  N   UNL A   1      45.045  29.379  30.731  1.00  0.00    -0.354 N 
ATOM     32  N   UNL A   1      44.446  26.719  29.614  1.00  0.00    -0.248 NA
ATOM     33  C   UNL A   1      45.136  24.582  28.966  1.00  0.00     0.031 C 
ATOM     34  C   UNL A   1      47.101  29.754  31.485  1.00  0.00     0.029 A 
ATOM     35  C   UNL A   1      46.295  28.800  30.882  1.00  0.00     0.049 A 
ATOM     36  H   UNL A   1      44.263  28.936  30.330  1.00  0.00     0.167 HD
ATOM     37  C   UNL A   1      45.793  26.567  29.915  1.00  0.00     0.074 A 
ATOM     38  C   UNL A   1      46.160  25.223  29.514  1.00  0.00     0.031 C 
ATOM     39  C   UNL A   1      46.646  27.461  30.472  1.00  0.00     0.037 A 
BRANCH  26  40
ATOM     40  C   UNL A   1      44.140  32.989  31.684  1.00  0.00     0.058 A 
ATOM     41  C   UNL A   1      43.934  33.354  33.024  1.00  0.00     0.135 A 
ATOM     42  C   UNL A   1      44.564  33.990  30.793  1.00  0.00     0.135 A 
ATOM     43  F   UNL A   1      43.519  32.441  33.916  1.00  0.00    -0.206 F 
ATOM     44  C   UNL A   1      44.100  34.668  33.455  1.00  0.00     0.059 A 
ATOM     45  C   UNL A   1      44.761  35.304  31.207  1.00  0.00     0.059 A 
ATOM     46  F   UNL A   1      44.782  33.697  29.502  1.00  0.00    -0.206 F 
ATOM     47  C   UNL A   1      44.506  35.637  32.537  1.00  0.00     0.060 A 
BRANCH  47  48
ATOM     48  S   UNL A   1      44.688  37.342  33.102  1.00  0.00     0.124 S 
ATOM     49  O   UNL A   1      46.098  37.592  32.817  1.00  0.00    -0.237 OA
ATOM     50  O   UNL A   1      43.737  38.058  32.258  1.00  0.00    -0.237 OA
ATOM     51  O   UNL A   1      44.337  37.273  34.516  1.00  0.00    -0.744 OA
ENDBRANCH  47  48
ENDBRANCH  26  40
BRANCH  27  52
ATOM     52  C   UNL A   1      42.462  23.871  27.939  1.00  0.00     0.058 A 
ATOM     53  C   UNL A   1      42.435  23.717  26.546  1.00  0.00     0.135 A 
ATOM     54  C   UNL A   1      42.332  22.718  28.730  1.00  0.00     0.135 A 
ATOM     55  F   UNL A   1      42.553  24.791  25.751  1.00  0.00    -0.206 F 
ATOM     56  C   UNL A   1      42.296  22.465  25.958  1.00  0.00     0.059 A 
ATOM     57  C   UNL A   1      42.217  21.453  28.165  1.00  0.00     0.059 A 
ATOM     58  F   UNL A   1      42.373  22.813  30.069  1.00  0.00    -0.206 F 
ATOM     59  C   UNL A   1      42.198  21.338  26.776  1.00  0.00     0.060 A 
BRANCH  59  60
ATOM     60  S   UNL A   1      42.118  19.706  26.003  1.00  0.00     0.124 S 
ATOM     61  O   UNL A   1      42.549  18.843  27.096  1.00  0.00    -0.237 OA
ATOM     62  O   UNL A   1      40.709  19.611  25.632  1.00  0.00    -0.237 OA
ATOM     63  O   UNL A   1      43.047  19.821  24.882  1.00  0.00    -0.744 OA
ENDBRANCH  59  60
ENDBRANCH  27  52
BRANCH  39  64
ATOM     64  C   UNL A   1      48.062  27.013  30.696  1.00  0.00     0.058 A 
ATOM     65  C   UNL A   1      49.063  27.241  29.740  1.00  0.00     0.135 A 
ATOM     66  C   UNL A   1      48.433  26.405  31.906  1.00  0.00     0.135 A 
ATOM     67  F   UNL A   1      48.757  27.809  28.563  1.00  0.00    -0.206 F 
ATOM     68  C   UNL A   1      50.385  26.873  29.972  1.00  0.00     0.059 A 
ATOM     69  C   UNL A   1      49.752  26.050  32.168  1.00  0.00     0.059 A 
ATOM     70  F   UNL A   1      47.513  26.170  32.854  1.00  0.00    -0.206 F 
ATOM     71  C   UNL A   1      50.720  26.282  31.191  1.00  0.00     0.060 A 
BRANCH  71  72
ATOM     72  S   UNL A   1      52.447  25.857  31.503  1.00  0.00     0.124 S 
ATOM     73  O   UNL A   1      52.824  26.862  32.491  1.00  0.00    -0.237 OA
ATOM     74  O   UNL A   1      52.347  24.487  31.997  1.00  0.00    -0.237 OA
ATOM     75  O   UNL A   1      53.073  25.999  30.191  1.00  0.00    -0.744 OA
ENDBRANCH  71  72
ENDBRANCH  39  64
ENDBRANCH  13  14
ENDBRANCH   6   8
ENDBRANCH   3   4
ENDBRANCH   2   3
ENDBRANCH   1   2
BRANCH   1  76
ATOM     76  N   UNL A   1      32.350  28.637  24.588  1.00  0.00    -0.352 N 
ATOM     77  C   UNL A   1      31.713  28.939  23.411  1.00  0.00     0.253 C 
ATOM     78  H   UNL A   1      33.332  28.695  24.559  1.00  0.00     0.163 HD
ATOM     79  O   UNL A   1      32.377  29.183  22.405  1.00  0.00    -0.269 OA
BRANCH  77  80
ATOM     80  C   UNL A   1      30.238  28.965  23.328  1.00  0.00     0.063 A 
ATOM     81  C   UNL A   1      29.634  30.232  23.341  1.00  0.00     0.016 A 
ATOM     82  C   UNL A   1      29.458  27.792  23.284  1.00  0.00     0.054 A 
ATOM     83  C   UNL A   1      28.250  30.348  23.249  1.00  0.00     0.001 A 
ATOM     84  C   UNL A   1      28.070  27.940  23.133  1.00  0.00     0.027 A 
ATOM     85  C   UNL A   1      27.470  29.203  23.128  1.00  0.00     0.002 A 
BRANCH  82  86
ATOM     86  N   UNL A   1      30.040  26.518  23.364  1.00  0.00    -0.323 N 
ATOM     87  H   UNL A   1      29.574  25.893  23.965  1.00  0.00     0.170 HD
BRANCH  86  88
ATOM     88  C   UNL A   1      31.161  25.988  22.739  1.00  0.00     0.233 A 
ATOM     89  N   UNL A   1      31.273  26.028  21.423  1.00  0.00    -0.182 NA
ATOM     90  N   UNL A   1      32.085  25.479  23.547  1.00  0.00    -0.176 NA
ATOM     91  C   UNL A   1      32.409  25.527  20.969  1.00  0.00     0.228 A 
ATOM     92  C   UNL A   1      33.147  24.929  22.969  1.00  0.00     0.233 A 
ATOM     93  Cl  UNL A   1      32.617  25.554  19.274  1.00  0.00    -0.041 Cl
ATOM     94  N   UNL A   1      33.372  24.952  21.665  1.00  0.00    -0.182 NA
BRANCH  92  95
ATOM     95  N   UNL A   1      33.962  24.184  23.818  1.00  0.00    -0.324 N 
ATOM     96  H   UNL A   1      34.691  24.682  24.253  1.00  0.00     0.170 HD
BRANCH  95  97
ATOM     97  C   UNL A   1      33.882  22.828  24.134  1.00  0.00     0.041 A 
ATOM     98  C   UNL A   1      32.814  22.070  23.642  1.00  0.00     0.028 A 
ATOM     99  C   UNL A   1      34.892  22.176  24.842  1.00  0.00     0.028 A 
ATOM    100  C   UNL A   1      32.766  20.686  23.841  1.00  0.00     0.028 A 
ATOM    101  C   UNL A   1      34.816  20.804  25.095  1.00  0.00     0.028 A 
ATOM    102  C   UNL A   1      33.762  20.042  24.580  1.00  0.00     0.044 A 
BRANCH 102 103
ATOM    103  N   UNL A   1      33.735  18.629  24.756  1.00  0.00    -0.308 N 
ATOM    104  C   UNL A   1      32.415  17.989  24.758  1.00  0.00     0.154 C 
ATOM    105  C   UNL A   1      34.896  17.864  24.599  1.00  0.00     0.253 C 
ATOM    106  C   UNL A   1      32.451  16.542  25.232  1.00  0.00     0.183 C 
ATOM    107  C   UNL A   1      34.702  16.339  24.677  1.00  0.00     0.260 C 
ATOM    108  O   UNL A   1      36.034  18.327  24.514  1.00  0.00    -0.272 OA
ATOM    109  O   UNL A   1      33.402  15.813  24.461  1.00  0.00    -0.370 OA
ENDBRANCH 102 103
ENDBRANCH  95  97
ENDBRANCH  92  95
ENDBRANCH  86  88
ENDBRANCH  82  86
ENDBRANCH  77  80
ENDBRANCH   1  76
TORSDOF 18
ENDMDL
MODEL 2
REMARK VINA RESULT:     -12.5      5.331     12.820
REMARK SMILES O=C(NCCCNC(=O)c1ccccc1Nc1nc(Cl)nc(Nc2ccc(N3CCOCC3=O)cc2)n1)c1ccc(-c2c3nc(c(-c4c(F)cc(S(=O)(=O)[O-])cc4F)c4ccc([nH]4)c(-c4c(F)cc(S(=O)(=O)[O-])cc4F)c4nc(c(-c5c(F)cc(S(=O)(=O)[O-])cc5F)c5ccc2[nH]5)C=C4)C=C3)cc1
REMARK SMILES IDX 6 1 5 2 4 3 3 4 1 5 2 6 38 8 39 9 103 10 40 11 102 12 41 13
REMARK SMILES IDX 42 14 43 15 96 16 44 17 101 18 95 19 97 20 45 21 100 22
REMARK SMILES IDX 94 23 93 24 46 26 80 27 59 28 79 29 60 30 63 31 78 32 98 33
REMARK SMILES IDX 61 34 62 35 77 37 99 38 64 39 47 40 48 41 57 42 49 43 50 44
REMARK SMILES IDX 56 45 58 46 51 47 52 48 53 49 54 50 55 51 81 52 82 53 91 54
REMARK SMILES IDX 83 55 84 56 90 57 92 58 85 59 86 60 87 61 88 62 89 63 65 64
REMARK SMILES IDX 66 65 75 66 67 67 68 68 74 69 76 70 69 71 70 72 71 73 72 74
REMARK SMILES IDX 73 75 7 76 8 77 9 79 10 80 11 81 15 82 12 83 14 84 13 85
REMARK SMILES IDX 16 86 17 88 18 89 37 90 19 91 22 92 20 93 21 94 23 95 24 97
REMARK SMILES IDX 25 98 36 99 26 100 35 101 27 102 28 103 29 104 33 105 30 106
REMARK SMILES IDX 32 107 34 108 31 109
REMARK H PARENT 3 7 97 25 63 36 7 78 16 87 23 96
REMARK Flexibility Score: inf
ROOT
ATOM      1  C   UNL A   1      42.675  23.300  26.089  1.00  0.00     0.118 C 
ENDROOT
BRANCH   1   2
ATOM      2  C   UNL A   1      42.086  21.903  25.961  1.00  0.00     0.042 C 
BRANCH   2   3
ATOM      3  C   UNL A   1      40.783  21.690  26.717  1.00  0.00     0.118 C 
BRANCH   3   4
ATOM      4  N   UNL A   1      39.600  22.026  25.938  1.00  0.00    -0.352 N 
ATOM      5  O   UNL A   1      37.762  23.162  25.315  1.00  0.00    -0.269 OA
ATOM      6  C   UNL A   1      38.810  23.152  25.957  1.00  0.00     0.251 C 
ATOM      7  H   UNL A   1      39.319  21.337  25.295  1.00  0.00     0.163 HD
BRANCH   6   8
ATOM      8  C   UNL A   1      39.197  24.332  26.761  1.00  0.00     0.039 A 
ATOM      9  C   UNL A   1      39.991  25.343  26.218  1.00  0.00     0.014 A 
ATOM     10  C   UNL A   1      38.739  24.440  28.078  1.00  0.00     0.014 A 
ATOM     11  C   UNL A   1      40.470  26.363  27.033  1.00  0.00     0.010 A 
ATOM     12  C   UNL A   1      39.136  25.524  28.867  1.00  0.00     0.010 A 
ATOM     13  C   UNL A   1      40.035  26.476  28.362  1.00  0.00    -0.014 A 
BRANCH  13  14
ATOM     14  C   UNL A   1      40.479  27.634  29.179  1.00  0.00     0.031 A 
ATOM     15  C   UNL A   1      41.807  27.628  29.885  1.00  0.00     0.074 A 
ATOM     16  C   UNL A   1      39.667  28.706  29.273  1.00  0.00     0.049 A 
ATOM     17  N   UNL A   1      42.334  28.548  30.652  1.00  0.00    -0.248 NA
ATOM     18  C   UNL A   1      42.646  26.432  29.720  1.00  0.00     0.031 C 
ATOM     19  C   UNL A   1      38.346  28.815  28.648  1.00  0.00     0.029 A 
ATOM     20  N   UNL A   1      39.827  29.902  29.922  1.00  0.00    -0.354 N 
ATOM     21  C   UNL A   1      43.552  28.035  31.083  1.00  0.00     0.074 A 
ATOM     22  C   UNL A   1      43.677  26.712  30.507  1.00  0.00     0.031 C 
ATOM     23  C   UNL A   1      37.829  30.020  28.922  1.00  0.00     0.029 A 
ATOM     24  C   UNL A   1      38.748  30.744  29.792  1.00  0.00     0.049 A 
ATOM     25  H   UNL A   1      40.636  30.137  30.431  1.00  0.00     0.167 HD
ATOM     26  C   UNL A   1      44.479  28.616  31.884  1.00  0.00     0.037 A 
ATOM     27  C   UNL A   1      38.504  31.951  30.336  1.00  0.00     0.037 A 
ATOM     28  C   UNL A   1      44.349  29.941  32.438  1.00  0.00     0.049 A 
ATOM     29  C   UNL A   1      39.542  32.574  31.220  1.00  0.00     0.074 A 
ATOM     30  C   UNL A   1      45.256  30.640  33.215  1.00  0.00     0.029 A 
ATOM     31  N   UNL A   1      43.240  30.761  32.284  1.00  0.00    -0.354 N 
ATOM     32  N   UNL A   1      40.708  32.093  31.579  1.00  0.00    -0.248 NA
ATOM     33  C   UNL A   1      39.236  33.898  31.774  1.00  0.00     0.031 C 
ATOM     34  C   UNL A   1      44.677  31.865  33.568  1.00  0.00     0.029 A 
ATOM     35  C   UNL A   1      43.428  31.948  32.972  1.00  0.00     0.049 A 
ATOM     36  H   UNL A   1      42.438  30.533  31.761  1.00  0.00     0.167 HD
ATOM     37  C   UNL A   1      41.280  33.058  32.398  1.00  0.00     0.074 A 
ATOM     38  C   UNL A   1      40.338  34.158  32.466  1.00  0.00     0.031 C 
ATOM     39  C   UNL A   1      42.476  33.033  33.035  1.00  0.00     0.037 A 
BRANCH  26  40
ATOM     40  C   UNL A   1      45.702  27.811  32.231  1.00  0.00     0.058 A 
ATOM     41  C   UNL A   1      46.895  27.918  31.500  1.00  0.00     0.135 A 
ATOM     42  C   UNL A   1      45.683  26.928  33.325  1.00  0.00     0.135 A 
ATOM     43  F   UNL A   1      46.966  28.738  30.440  1.00  0.00    -0.206 F 
ATOM     44  C   UNL A   1      48.013  27.148  31.813  1.00  0.00     0.059 A 
ATOM     45  C   UNL A   1      46.797  26.168  33.672  1.00  0.00     0.059 A 
ATOM     46  F   UNL A   1      44.571  26.791  34.063  1.00  0.00    -0.206 F 
ATOM     47  C   UNL A   1      47.950  26.270  32.896  1.00  0.00     0.060 A 
BRANCH  47  48
ATOM     48  S   UNL A   1      49.396  25.256  33.273  1.00  0.00     0.124 S 
ATOM     49  O   UNL A   1      48.779  24.099  33.915  1.00  0.00    -0.237 OA
ATOM     50  O   UNL A   1      49.965  25.015  31.951  1.00  0.00    -0.237 OA
ATOM     51  O   UNL A   1      50.192  26.109  34.149  1.00  0.00    -0.744 OA
ENDBRANCH  47  48
ENDBRANCH  26  40
BRANCH  27  52
ATOM     52  C   UNL A   1      37.206  32.616  30.058  1.00  0.00     0.058 A 
ATOM     53  C   UNL A   1      36.081  32.378  30.858  1.00  0.00     0.135 A 
ATOM     54  C   UNL A   1      37.096  33.573  29.036  1.00  0.00     0.135 A 
ATOM     55  F   UNL A   1      36.139  31.471  31.844  1.00  0.00    -0.206 F 
ATOM     56  C   UNL A   1      34.892  33.072  30.661  1.00  0.00     0.059 A 
ATOM     57  C   UNL A   1      35.926  34.297  28.836  1.00  0.00     0.059 A 
ATOM     58  F   UNL A   1      38.154  33.850  28.256  1.00  0.00    -0.206 F 
ATOM     59  C   UNL A   1      34.828  34.038  29.654  1.00  0.00     0.060 A 
BRANCH  59  60
ATOM     60  S   UNL A   1      33.312  35.004  29.471  1.00  0.00     0.124 S 
ATOM     61  O   UNL A   1      32.775  34.963  30.825  1.00  0.00    -0.237 OA
ATOM     62  O   UNL A   1      33.824  36.296  29.025  1.00  0.00    -0.237 OA
ATOM     63  O   UNL A   1      32.559  34.257  28.468  1.00  0.00    -0.744 OA
ENDBRANCH  59  60
ENDBRANCH  27  52
BRANCH  39  64
ATOM     64  C   UNL A   1      42.845  34.237  33.853  1.00  0.00     0.058 A 
ATOM     65  C   UNL A   1      42.559  34.305  35.226  1.00  0.00     0.135 A 
ATOM     66  C   UNL A   1      43.547  35.305  33.273  1.00  0.00     0.135 A 
ATOM     67  F   UNL A   1      41.881  33.315  35.826  1.00  0.00    -0.206 F 
ATOM     68  C   UNL A   1      42.949  35.398  35.993  1.00  0.00     0.059 A 
ATOM     69  C   UNL A   1      43.967  36.396  34.026  1.00  0.00     0.059 A 
ATOM     70  F   UNL A   1      43.848  35.283  31.965  1.00  0.00    -0.206 F 
ATOM     71  C   UNL A   1      43.657  36.437  35.385  1.00  0.00     0.060 A 
BRANCH  71  72
ATOM     72  S   UNL A   1      44.204  37.825  36.401  1.00  0.00     0.124 S 
ATOM     73  O   UNL A   1      43.283  37.745  37.529  1.00  0.00    -0.237 OA
ATOM     74  O   UNL A   1      45.592  37.474  36.690  1.00  0.00    -0.237 OA
ATOM     75  O   UNL A   1      44.026  38.978  35.524  1.00  0.00    -0.744 OA
ENDBRANCH  71  72
ENDBRANCH  39  64
ENDBRANCH  13  14
ENDBRANCH   6   8
ENDBRANCH   3   4
ENDBRANCH   2   3
ENDBRANCH   1   2
BRANCH   1  76
ATOM     76  N   UNL A   1      43.355  23.521  27.359  1.00  0.00    -0.352 N 
ATOM     77  C   UNL A   1      44.642  23.924  27.607  1.00  0.00     0.253 C 
ATOM     78  H   UNL A   1      42.807  23.357  28.160  1.00  0.00     0.163 HD
ATOM     79  O   UNL A   1      45.050  23.983  28.765  1.00  0.00    -0.269 OA
BRANCH  77  80
ATOM     80  C   UNL A   1      45.557  24.277  26.500  1.00  0.00     0.063 A 
ATOM     81  C   UNL A   1      45.931  23.230  25.643  1.00  0.00     0.016 A 
ATOM     82  C   UNL A   1      46.072  25.576  26.324  1.00  0.00     0.054 A 
ATOM     83  C   UNL A   1      46.776  23.478  24.565  1.00  0.00     0.001 A 
ATOM     84  C   UNL A   1      46.874  25.809  25.196  1.00  0.00     0.027 A 
ATOM     85  C   UNL A   1      47.234  24.770  24.331  1.00  0.00     0.002 A 
BRANCH  82  86
ATOM     86  N   UNL A   1      45.782  26.611  27.225  1.00  0.00    -0.323 N 
ATOM     87  H   UNL A   1      46.301  26.583  28.061  1.00  0.00     0.170 HD
BRANCH  86  88
ATOM     88  C   UNL A   1      44.887  27.670  27.138  1.00  0.00     0.233 A 
ATOM     89  N   UNL A   1      43.877  27.623  26.287  1.00  0.00    -0.182 NA
ATOM     90  N   UNL A   1      45.112  28.683  27.966  1.00  0.00    -0.176 NA
ATOM     91  C   UNL A   1      43.084  28.678  26.342  1.00  0.00     0.228 A 
ATOM     92  C   UNL A   1      44.294  29.726  27.872  1.00  0.00     0.233 A 
ATOM     93  Cl  UNL A   1      41.756  28.676  25.269  1.00  0.00    -0.041 Cl
ATOM     94  N   UNL A   1      43.233  29.761  27.083  1.00  0.00    -0.182 NA
BRANCH  92  95
ATOM     95  N   UNL A   1      44.705  30.863  28.563  1.00  0.00    -0.324 N 
ATOM     96  H   UNL A   1      45.357  30.711  29.284  1.00  0.00     0.170 HD
BRANCH  95  97
ATOM     97  C   UNL A   1      44.314  32.188  28.369  1.00  0.00     0.041 A 
ATOM     98  C   UNL A   1      43.343  32.748  29.207  1.00  0.00     0.028 A 
ATOM     99  C   UNL A   1      44.937  33.010  27.429  1.00  0.00     0.028 A 
ATOM    100  C   UNL A   1      43.015  34.105  29.117  1.00  0.00     0.028 A 
ATOM    101  C   UNL A   1      44.568  34.350  27.295  1.00  0.00     0.028 A 
ATOM    102  C   UNL A   1      43.617  34.916  28.151  1.00  0.00     0.044 A 
BRANCH 102 103
ATOM    103  N   UNL A   1      43.310  36.305  28.078  1.00  0.00    -0.308 N 
ATOM    104  C   UNL A   1      42.117  36.679  27.310  1.00  0.00     0.154 C 
ATOM    105  C   UNL A   1      43.907  37.219  28.954  1.00  0.00     0.253 C 
ATOM    106  C   UNL A   1      42.021  38.175  27.042  1.00  0.00     0.183 C 
ATOM    107  C   UNL A   1      43.384  38.663  28.863  1.00  0.00     0.260 C 
ATOM    108  O   UNL A   1      44.863  36.964  29.688  1.00  0.00    -0.272 OA
ATOM    109  O   UNL A   1      42.114  38.885  28.274  1.00  0.00    -0.370 OA
ENDBRANCH 102 103
ENDBRANCH  95  97
ENDBRANCH  92  95
ENDBRANCH  86  88
ENDBRANCH  82  86
ENDBRANCH  77  80
ENDBRANCH   1  76
TORSDOF 18
ENDMDL
MODEL 3
REMARK VINA RESULT:     -12.4      2.265      2.854
REMARK SMILES O=C(NCCCNC(=O)c1ccccc1Nc1nc(Cl)nc(Nc2ccc(N3CCOCC3=O)cc2)n1)c1ccc(-c2c3nc(c(-c4c(F)cc(S(=O)(=O)[O-])cc4F)c4ccc([nH]4)c(-c4c(F)cc(S(=O)(=O)[O-])cc4F)c4nc(c(-c5c(F)cc(S(=O)(=O)[O-])cc5F)c5ccc2[nH]5)C=C4)C=C3)cc1
REMARK SMILES IDX 6 1 5 2 4 3 3 4 1 5 2 6 38 8 39 9 103 10 40 11 102 12 41 13
REMARK SMILES IDX 42 14 43 15 96 16 44 17 101 18 95 19 97 20 45 21 100 22
REMARK SMILES IDX 94 23 93 24 46 26 80 27 59 28 79 29 60 30 63 31 78 32 98 33
REMARK SMILES IDX 61 34 62 35 77 37 99 38 64 39 47 40 48 41 57 42 49 43 50 44
REMARK SMILES IDX 56 45 58 46 51 47 52 48 53 49 54 50 55 51 81 52 82 53 91 54
REMARK SMILES IDX 83 55 84 56 90 57 92 58 85 59 86 60 87 61 88 62 89 63 65 64
REMARK SMILES IDX 66 65 75 66 67 67 68 68 74 69 76 70 69 71 70 72 71 73 72 74
REMARK SMILES IDX 73 75 7 76 8 77 9 79 10 80 11 81 15 82 12 83 14 84 13 85
REMARK SMILES IDX 16 86 17 88 18 89 37 90 19 91 22 92 20 93 21 94 23 95 24 97
REMARK SMILES IDX 25 98 36 99 26 100 35 101 27 102 28 103 29 104 33 105 30 106
REMARK SMILES IDX 32 107 34 108 31 109
REMARK H PARENT 3 7 97 25 63 36 7 78 16 87 23 96
REMARK Flexibility Score: inf
ROOT
ATOM      1  C   UNL A   1      31.731  28.376  25.896  1.00  0.00     0.118 C 
ENDROOT
BRANCH   1   2
ATOM      2  C   UNL A   1      32.764  27.810  26.859  1.00  0.00     0.042 C 
BRANCH   2   3
ATOM      3  C   UNL A   1      34.057  28.609  26.947  1.00  0.00     0.118 C 
BRANCH   3   4
ATOM      4  N   UNL A   1      33.844  30.044  27.066  1.00  0.00    -0.352 N 
ATOM      5  O   UNL A   1      34.098  32.136  27.851  1.00  0.00    -0.269 OA
ATOM      6  C   UNL A   1      34.547  30.995  27.768  1.00  0.00     0.251 C 
ATOM      7  H   UNL A   1      33.072  30.390  26.563  1.00  0.00     0.163 HD
BRANCH   6   8
ATOM      8  C   UNL A   1      35.816  30.648  28.444  1.00  0.00     0.039 A 
ATOM      9  C   UNL A   1      37.014  31.272  28.090  1.00  0.00     0.014 A 
ATOM     10  C   UNL A   1      35.806  29.695  29.468  1.00  0.00     0.014 A 
ATOM     11  C   UNL A   1      38.215  30.824  28.627  1.00  0.00     0.010 A 
ATOM     12  C   UNL A   1      37.005  29.321  30.083  1.00  0.00     0.010 A 
ATOM     13  C   UNL A   1      38.225  29.856  29.642  1.00  0.00    -0.014 A 
BRANCH  13  14
ATOM     14  C   UNL A   1      39.514  29.472  30.272  1.00  0.00     0.031 A 
ATOM     15  C   UNL A   1      40.025  30.181  31.496  1.00  0.00     0.074 A 
ATOM     16  C   UNL A   1      40.222  28.463  29.729  1.00  0.00     0.049 A 
ATOM     17  N   UNL A   1      41.137  29.982  32.156  1.00  0.00    -0.248 NA
ATOM     18  C   UNL A   1      39.188  31.259  32.043  1.00  0.00     0.031 C 
ATOM     19  C   UNL A   1      39.834  27.716  28.529  1.00  0.00     0.029 A 
ATOM     20  N   UNL A   1      41.408  27.888  30.108  1.00  0.00    -0.354 N 
ATOM     21  C   UNL A   1      41.149  30.924  33.178  1.00  0.00     0.074 A 
ATOM     22  C   UNL A   1      39.940  31.708  33.039  1.00  0.00     0.031 C 
ATOM     23  C   UNL A   1      40.749  26.767  28.287  1.00  0.00     0.029 A 
ATOM     24  C   UNL A   1      41.818  26.878  29.271  1.00  0.00     0.049 A 
ATOM     25  H   UNL A   1      41.915  28.171  30.903  1.00  0.00     0.167 HD
ATOM     26  C   UNL A   1      42.083  31.113  34.144  1.00  0.00     0.037 A 
ATOM     27  C   UNL A   1      42.944  26.141  29.271  1.00  0.00     0.037 A 
ATOM     28  C   UNL A   1      43.275  30.314  34.280  1.00  0.00     0.049 A 
ATOM     29  C   UNL A   1      43.964  26.368  30.346  1.00  0.00     0.074 A 
ATOM     30  C   UNL A   1      44.254  30.391  35.255  1.00  0.00     0.029 A 
ATOM     31  N   UNL A   1      43.656  29.301  33.411  1.00  0.00    -0.354 N 
ATOM     32  N   UNL A   1      43.936  27.232  31.332  1.00  0.00    -0.248 NA
ATOM     33  C   UNL A   1      45.166  25.527  30.311  1.00  0.00     0.031 C 
ATOM     34  C   UNL A   1      45.249  29.454  34.951  1.00  0.00     0.029 A 
ATOM     35  C   UNL A   1      44.868  28.762  33.812  1.00  0.00     0.049 A 
ATOM     36  H   UNL A   1      43.140  29.008  32.626  1.00  0.00     0.167 HD
ATOM     37  C   UNL A   1      45.114  27.036  32.041  1.00  0.00     0.074 A 
ATOM     38  C   UNL A   1      45.823  25.959  31.380  1.00  0.00     0.031 C 
ATOM     39  C   UNL A   1      45.565  27.692  33.139  1.00  0.00     0.037 A 
BRANCH  26  40
ATOM     40  C   UNL A   1      41.865  32.246  35.109  1.00  0.00     0.058 A 
ATOM     41  C   UNL A   1      41.095  32.095  36.273  1.00  0.00     0.135 A 
ATOM     42  C   UNL A   1      42.451  33.502  34.874  1.00  0.00     0.135 A 
ATOM     43  F   UNL A   1      40.504  30.920  36.543  1.00  0.00    -0.206 F 
ATOM     44  C   UNL A   1      40.877  33.157  37.147  1.00  0.00     0.059 A 
ATOM     45  C   UNL A   1      42.268  34.571  35.747  1.00  0.00     0.059 A 
ATOM     46  F   UNL A   1      43.202  33.702  33.780  1.00  0.00    -0.206 F 
ATOM     47  C   UNL A   1      41.461  34.394  36.870  1.00  0.00     0.060 A 
BRANCH  47  48
ATOM     48  S   UNL A   1      41.147  35.771  37.994  1.00  0.00     0.124 S 
ATOM     49  O   UNL A   1      42.505  36.219  38.289  1.00  0.00    -0.237 OA
ATOM     50  O   UNL A   1      40.348  36.673  37.171  1.00  0.00    -0.237 OA
ATOM     51  O   UNL A   1      40.437  35.148  39.106  1.00  0.00    -0.744 OA
ENDBRANCH  47  48
ENDBRANCH  26  40
BRANCH  27  52
ATOM     52  C   UNL A   1      43.148  25.139  28.194  1.00  0.00     0.058 A 
ATOM     53  C   UNL A   1      43.797  25.478  26.999  1.00  0.00     0.135 A 
ATOM     54  C   UNL A   1      42.774  23.798  28.381  1.00  0.00     0.135 A 
ATOM     55  F   UNL A   1      44.170  26.747  26.775  1.00  0.00    -0.206 F 
ATOM     56  C   UNL A   1      44.076  24.522  26.028  1.00  0.00     0.059 A 
ATOM     57  C   UNL A   1      43.065  22.820  27.437  1.00  0.00     0.059 A 
ATOM     58  F   UNL A   1      42.168  23.422  29.519  1.00  0.00    -0.206 F 
ATOM     59  C   UNL A   1      43.716  23.193  26.263  1.00  0.00     0.060 A 
BRANCH  59  60
ATOM     60  S   UNL A   1      44.171  21.941  25.042  1.00  0.00     0.124 S 
ATOM     61  O   UNL A   1      43.803  22.601  23.795  1.00  0.00    -0.237 OA
ATOM     62  O   UNL A   1      45.602  21.783  25.283  1.00  0.00    -0.237 OA
ATOM     63  O   UNL A   1      43.351  20.793  25.417  1.00  0.00    -0.744 OA
ENDBRANCH  59  60
ENDBRANCH  27  52
BRANCH  39  64
ATOM     64  C   UNL A   1      46.884  27.253  33.708  1.00  0.00     0.058 A 
ATOM     65  C   UNL A   1      46.967  26.216  34.650  1.00  0.00     0.135 A 
ATOM     66  C   UNL A   1      48.081  27.834  33.260  1.00  0.00     0.135 A 
ATOM     67  F   UNL A   1      45.851  25.636  35.118  1.00  0.00    -0.206 F 
ATOM     68  C   UNL A   1      48.194  25.776  35.136  1.00  0.00     0.059 A 
ATOM     69  C   UNL A   1      49.319  27.393  33.715  1.00  0.00     0.059 A 
ATOM     70  F   UNL A   1      48.053  28.826  32.356  1.00  0.00    -0.206 F 
ATOM     71  C   UNL A   1      49.365  26.368  34.659  1.00  0.00     0.060 A 
BRANCH  71  72
ATOM     72  S   UNL A   1      50.953  25.752  35.257  1.00  0.00     0.124 S 
ATOM     73  O   UNL A   1      51.248  24.705  34.285  1.00  0.00    -0.237 OA
ATOM     74  O   UNL A   1      51.797  26.942  35.184  1.00  0.00    -0.237 OA
ATOM     75  O   UNL A   1      50.650  25.289  36.608  1.00  0.00    -0.744 OA
ENDBRANCH  71  72
ENDBRANCH  39  64
ENDBRANCH  13  14
ENDBRANCH   6   8
ENDBRANCH   3   4
ENDBRANCH   2   3
ENDBRANCH   1   2
BRANCH   1  76
ATOM     76  N   UNL A   1      32.291  28.731  24.599  1.00  0.00    -0.352 N 
ATOM     77  C   UNL A   1      31.657  28.980  23.408  1.00  0.00     0.253 C 
ATOM     78  H   UNL A   1      33.272  28.805  24.573  1.00  0.00     0.163 HD
ATOM     79  O   UNL A   1      32.323  29.197  22.398  1.00  0.00    -0.269 OA
BRANCH  77  80
ATOM     80  C   UNL A   1      30.182  28.977  23.315  1.00  0.00     0.063 A 
ATOM     81  C   UNL A   1      29.556  30.234  23.297  1.00  0.00     0.016 A 
ATOM     82  C   UNL A   1      29.424  27.790  23.292  1.00  0.00     0.054 A 
ATOM     83  C   UNL A   1      28.171  30.323  23.195  1.00  0.00     0.001 A 
ATOM     84  C   UNL A   1      28.034  27.911  23.129  1.00  0.00     0.027 A 
ATOM     85  C   UNL A   1      27.411  29.162  23.094  1.00  0.00     0.002 A 
BRANCH  82  86
ATOM     86  N   UNL A   1      30.027  26.529  23.402  1.00  0.00    -0.323 N 
ATOM     87  H   UNL A   1      29.581  25.916  24.031  1.00  0.00     0.170 HD
BRANCH  86  88
ATOM     88  C   UNL A   1      31.146  25.997  22.774  1.00  0.00     0.233 A 
ATOM     89  N   UNL A   1      31.251  26.029  21.458  1.00  0.00    -0.182 NA
ATOM     90  N   UNL A   1      32.074  25.494  23.581  1.00  0.00    -0.176 NA
ATOM     91  C   UNL A   1      32.385  25.526  21.001  1.00  0.00     0.228 A 
ATOM     92  C   UNL A   1      33.134  24.941  23.001  1.00  0.00     0.233 A 
ATOM     93  Cl  UNL A   1      32.585  25.542  19.305  1.00  0.00    -0.041 Cl
ATOM     94  N   UNL A   1      33.352  24.956  21.696  1.00  0.00    -0.182 NA
BRANCH  92  95
ATOM     95  N   UNL A   1      33.954  24.203  23.851  1.00  0.00    -0.324 N 
ATOM     96  H   UNL A   1      34.675  24.707  24.291  1.00  0.00     0.170 HD
BRANCH  95  97
ATOM     97  C   UNL A   1      33.889  22.844  24.160  1.00  0.00     0.041 A 
ATOM     98  C   UNL A   1      32.771  22.102  23.765  1.00  0.00     0.028 A 
ATOM     99  C   UNL A   1      34.954  22.174  24.765  1.00  0.00     0.028 A 
ATOM    100  C   UNL A   1      32.726  20.717  23.954  1.00  0.00     0.028 A 
ATOM    101  C   UNL A   1      34.887  20.801  25.011  1.00  0.00     0.028 A 
ATOM    102  C   UNL A   1      33.781  20.055  24.590  1.00  0.00     0.044 A 
BRANCH 102 103
ATOM    103  N   UNL A   1      33.754  18.640  24.755  1.00  0.00    -0.308 N 
ATOM    104  C   UNL A   1      32.435  17.997  24.736  1.00  0.00     0.154 C 
ATOM    105  C   UNL A   1      34.919  17.879  24.607  1.00  0.00     0.253 C 
ATOM    106  C   UNL A   1      32.469  16.547  25.199  1.00  0.00     0.183 C 
ATOM    107  C   UNL A   1      34.727  16.354  24.672  1.00  0.00     0.260 C 
ATOM    108  O   UNL A   1      36.057  18.346  24.540  1.00  0.00    -0.272 OA
ATOM    109  O   UNL A   1      33.432  15.827  24.435  1.00  0.00    -0.370 OA
ENDBRANCH 102 103
ENDBRANCH  95  97
ENDBRANCH  92  95
ENDBRANCH  86  88
ENDBRANCH  82  86
ENDBRANCH  77  80
ENDBRANCH   1  76
TORSDOF 18
ENDMDL
