MODEL 1
REMARK VINA RESULT:      -9.7      0.000      0.000
REMARK SMILES CC(C)Cc1ccc([C@@H](C)C(=O)NCCCNC(=O)c2ccc(-c3c4nc(c(-c5c(F)cc(S(=O)(=O)[O-])cc5F)c5ccc([nH]5)c(-c5c(F)cc(S(=O)(=O)[O-])cc5F)c5nc(c(-c6c(F)cc(S(=O)(=O)[O-])cc6F)c6ccc3[nH]6)C=C5)C=C4)cc2)cc1
REMARK SMILES IDX 15 1 14 2 13 3 11 4 12 5 9 7 10 8 8 9 5 10 6 11 87 12 7 13
REMARK SMILES IDX 86 14 4 15 2 16 1 17 3 18 16 19 17 20 18 21 19 23 20 24
REMARK SMILES IDX 21 25 85 26 22 27 84 28 23 29 24 30 25 31 78 32 26 33 83 34
REMARK SMILES IDX 77 35 79 36 27 37 82 38 76 39 75 40 28 42 62 43 41 44 61 45
REMARK SMILES IDX 42 46 45 47 60 48 80 49 43 50 44 51 59 53 81 54 46 55 29 56
REMARK SMILES IDX 30 57 39 58 31 59 32 60 38 61 40 62 33 63 34 64 35 65 36 66
REMARK SMILES IDX 37 67 63 68 64 69 73 70 65 71 66 72 72 73 74 74 67 75 68 76
REMARK SMILES IDX 69 77 70 78 71 79 47 80 48 81 57 82 49 83 50 84 56 85 58 86
REMARK SMILES IDX 51 87 52 88 53 89 54 90 55 91
REMARK H PARENT 13 6 17 22 79 41 45 52
REMARK Flexibility Score: inf
ROOT
ATOM      1  C   UNL A   1      33.426  33.904  28.323  1.00  0.00     0.042 C 
ENDROOT
BRANCH   1   2
ATOM      2  C   UNL A   1      34.037  35.226  28.777  1.00  0.00     0.117 C 
BRANCH   2   3
ATOM      3  N   UNL A   1      33.925  35.427  30.207  1.00  0.00    -0.356 N 
ATOM      4  C   UNL A   1      34.342  34.679  31.265  1.00  0.00     0.227 C 
ATOM      5  O   UNL A   1      34.047  35.109  32.387  1.00  0.00    -0.274 OA
ATOM      6  H   UNL A   1      33.462  36.258  30.462  1.00  0.00     0.163 HD
BRANCH   4   7
ATOM      7  C   UNL A   1      35.144  33.373  31.134  1.00  0.00     0.105 C 
ATOM      8  C   UNL A   1      34.848  32.328  32.208  1.00  0.00     0.023 C 
BRANCH   7   9
ATOM      9  C   UNL A   1      36.610  33.604  30.807  1.00  0.00    -0.036 A 
ATOM     10  C   UNL A   1      39.232  34.282  29.963  1.00  0.00    -0.048 A 
ATOM     11  C   UNL A   1      38.781  34.612  31.246  1.00  0.00     0.004 A 
ATOM     12  C   UNL A   1      38.396  33.510  29.150  1.00  0.00     0.004 A 
ATOM     13  C   UNL A   1      37.495  34.257  31.670  1.00  0.00     0.005 A 
ATOM     14  C   UNL A   1      37.095  33.203  29.554  1.00  0.00     0.005 A 
BRANCH  10  15
ATOM     15  C   UNL A   1      40.598  34.747  29.504  1.00  0.00     0.038 C 
BRANCH  15  16
ATOM     16  C   UNL A   1      41.796  34.245  30.341  1.00  0.00    -0.013 C 
ATOM     17  C   UNL A   1      42.015  32.735  30.198  1.00  0.00     0.008 C 
ATOM     18  C   UNL A   1      43.070  34.987  29.932  1.00  0.00     0.008 C 
ENDBRANCH  15  16
ENDBRANCH  10  15
ENDBRANCH   7   9
ENDBRANCH   4   7
ENDBRANCH   2   3
ENDBRANCH   1   2
BRANCH   1  19
ATOM     19  C   UNL A   1      34.438  32.919  27.754  1.00  0.00     0.118 C 
BRANCH  19  20
ATOM     20  N   UNL A   1      33.811  31.680  27.310  1.00  0.00    -0.352 N 
ATOM     21  C   UNL A   1      34.300  30.398  27.258  1.00  0.00     0.251 C 
ATOM     22  H   UNL A   1      32.884  31.780  26.995  1.00  0.00     0.163 HD
ATOM     23  O   UNL A   1      33.668  29.549  26.635  1.00  0.00    -0.269 OA
BRANCH  21  24
ATOM     24  C   UNL A   1      35.569  30.028  27.929  1.00  0.00     0.039 A 
ATOM     25  C   UNL A   1      35.534  29.661  29.280  1.00  0.00     0.014 A 
ATOM     26  C   UNL A   1      36.797  30.103  27.268  1.00  0.00     0.014 A 
ATOM     27  C   UNL A   1      36.717  29.329  29.947  1.00  0.00     0.010 A 
ATOM     28  C   UNL A   1      37.964  29.690  27.908  1.00  0.00     0.010 A 
ATOM     29  C   UNL A   1      37.941  29.318  29.260  1.00  0.00    -0.014 A 
BRANCH  29  30
ATOM     30  C   UNL A   1      39.213  28.963  29.943  1.00  0.00     0.031 A 
ATOM     31  C   UNL A   1      39.647  29.728  31.166  1.00  0.00     0.074 A 
ATOM     32  C   UNL A   1      40.005  28.001  29.432  1.00  0.00     0.049 A 
ATOM     33  N   UNL A   1      40.759  29.638  31.848  1.00  0.00    -0.248 NA
ATOM     34  C   UNL A   1      38.718  30.754  31.672  1.00  0.00     0.031 C 
ATOM     35  C   UNL A   1      39.718  27.219  28.227  1.00  0.00     0.029 A 
ATOM     36  N   UNL A   1      41.223  27.525  29.852  1.00  0.00    -0.354 N 
ATOM     37  C   UNL A   1      40.675  30.606  32.844  1.00  0.00     0.074 A 
ATOM     38  C   UNL A   1      39.425  31.307  32.646  1.00  0.00     0.031 C 
ATOM     39  C   UNL A   1      40.719  26.349  28.018  1.00  0.00     0.029 A 
ATOM     40  C   UNL A   1      41.737  26.536  29.048  1.00  0.00     0.049 A 
ATOM     41  H   UNL A   1      41.683  27.861  30.654  1.00  0.00     0.167 HD
ATOM     42  C   UNL A   1      41.547  30.871  33.846  1.00  0.00     0.037 A 
ATOM     43  C   UNL A   1      42.900  25.861  29.127  1.00  0.00     0.037 A 
ATOM     44  C   UNL A   1      42.770  30.143  34.061  1.00  0.00     0.049 A 
ATOM     45  C   UNL A   1      43.844  26.159  30.259  1.00  0.00     0.074 A 
ATOM     46  C   UNL A   1      43.694  30.293  35.080  1.00  0.00     0.029 A 
ATOM     47  N   UNL A   1      43.237  29.123  33.245  1.00  0.00    -0.354 N 
ATOM     48  N   UNL A   1      43.724  27.043  31.221  1.00  0.00    -0.248 NA
ATOM     49  C   UNL A   1      45.079  25.365  30.323  1.00  0.00     0.031 C 
ATOM     50  C   UNL A   1      44.737  29.388  34.861  1.00  0.00     0.029 A 
ATOM     51  C   UNL A   1      44.442  28.643  33.731  1.00  0.00     0.049 A 
ATOM     52  H   UNL A   1      42.779  28.790  32.440  1.00  0.00     0.167 HD
ATOM     53  C   UNL A   1      44.852  26.891  32.020  1.00  0.00     0.074 A 
ATOM     54  C   UNL A   1      45.638  25.825  31.435  1.00  0.00     0.031 C 
ATOM     55  C   UNL A   1      45.204  27.572  33.140  1.00  0.00     0.037 A 
BRANCH  42  56
ATOM     56  C   UNL A   1      41.205  31.991  34.791  1.00  0.00     0.058 A 
ATOM     57  C   UNL A   1      41.638  33.308  34.561  1.00  0.00     0.135 A 
ATOM     58  C   UNL A   1      40.412  31.754  35.925  1.00  0.00     0.135 A 
ATOM     59  F   UNL A   1      42.411  33.589  33.500  1.00  0.00    -0.206 F 
ATOM     60  C   UNL A   1      41.326  34.341  35.437  1.00  0.00     0.059 A 
ATOM     61  C   UNL A   1      40.063  32.779  36.802  1.00  0.00     0.059 A 
ATOM     62  F   UNL A   1      39.969  30.516  36.194  1.00  0.00    -0.206 F 
ATOM     63  C   UNL A   1      40.539  34.066  36.557  1.00  0.00     0.060 A 
BRANCH  63  64
ATOM     64  S   UNL A   1      40.142  35.419  37.685  1.00  0.00     0.124 S 
ATOM     65  O   UNL A   1      41.319  35.430  38.549  1.00  0.00    -0.237 OA
ATOM     66  O   UNL A   1      40.012  36.555  36.779  1.00  0.00    -0.237 OA
ATOM     67  O   UNL A   1      38.903  34.981  38.318  1.00  0.00    -0.744 OA
ENDBRANCH  63  64
ENDBRANCH  42  56
BRANCH  43  68
ATOM     68  C   UNL A   1      43.222  24.816  28.119  1.00  0.00     0.058 A 
ATOM     69  C   UNL A   1      43.880  25.144  26.925  1.00  0.00     0.135 A 
ATOM     70  C   UNL A   1      42.893  23.468  28.333  1.00  0.00     0.135 A 
ATOM     71  F   UNL A   1      44.211  26.420  26.673  1.00  0.00    -0.206 F 
ATOM     72  C   UNL A   1      44.189  24.179  25.972  1.00  0.00     0.059 A 
ATOM     73  C   UNL A   1      43.212  22.481  27.406  1.00  0.00     0.059 A 
ATOM     74  F   UNL A   1      42.278  23.097  29.468  1.00  0.00    -0.206 F 
ATOM     75  C   UNL A   1      43.851  22.849  26.223  1.00  0.00     0.060 A 
BRANCH  75  76
ATOM     76  S   UNL A   1      44.299  21.596  25.001  1.00  0.00     0.124 S 
ATOM     77  O   UNL A   1      43.303  20.562  25.261  1.00  0.00    -0.237 OA
ATOM     78  O   UNL A   1      44.152  22.325  23.745  1.00  0.00    -0.237 OA
ATOM     79  O   UNL A   1      45.673  21.255  25.360  1.00  0.00    -0.744 OA
ENDBRANCH  75  76
ENDBRANCH  43  68
BRANCH  55  80
ATOM     80  C   UNL A   1      46.474  27.159  33.830  1.00  0.00     0.058 A 
ATOM     81  C   UNL A   1      47.707  27.754  33.526  1.00  0.00     0.135 A 
ATOM     82  C   UNL A   1      46.445  26.191  34.848  1.00  0.00     0.135 A 
ATOM     83  F   UNL A   1      47.790  28.680  32.557  1.00  0.00    -0.206 F 
ATOM     84  C   UNL A   1      48.872  27.390  34.193  1.00  0.00     0.059 A 
ATOM     85  C   UNL A   1      47.593  25.830  35.545  1.00  0.00     0.059 A 
ATOM     86  F   UNL A   1      45.288  25.598  35.183  1.00  0.00    -0.206 F 
ATOM     87  C   UNL A   1      48.805  26.428  35.203  1.00  0.00     0.060 A 
BRANCH  87  88
ATOM     88  S   UNL A   1      50.317  25.990  36.085  1.00  0.00     0.124 S 
ATOM     89  O   UNL A   1      51.330  26.208  35.056  1.00  0.00    -0.237 OA
ATOM     90  O   UNL A   1      50.322  26.942  37.192  1.00  0.00    -0.237 OA
ATOM     91  O   UNL A   1      50.098  24.598  36.465  1.00  0.00    -0.744 OA
ENDBRANCH  87  88
ENDBRANCH  55  80
ENDBRANCH  29  30
ENDBRANCH  21  24
ENDBRANCH  19  20
ENDBRANCH   1  19
TORSDOF 16
ENDMDL
MODEL 2
REMARK VINA RESULT:      -9.7      4.068     11.322
REMARK SMILES CC(C)Cc1ccc([C@@H](C)C(=O)NCCCNC(=O)c2ccc(-c3c4nc(c(-c5c(F)cc(S(=O)(=O)[O-])cc5F)c5ccc([nH]5)c(-c5c(F)cc(S(=O)(=O)[O-])cc5F)c5nc(c(-c6c(F)cc(S(=O)(=O)[O-])cc6F)c6ccc3[nH]6)C=C5)C=C4)cc2)cc1
REMARK SMILES IDX 15 1 14 2 13 3 11 4 12 5 9 7 10 8 8 9 5 10 6 11 87 12 7 13
REMARK SMILES IDX 86 14 4 15 2 16 1 17 3 18 16 19 17 20 18 21 19 23 20 24
REMARK SMILES IDX 21 25 85 26 22 27 84 28 23 29 24 30 25 31 78 32 26 33 83 34
REMARK SMILES IDX 77 35 79 36 27 37 82 38 76 39 75 40 28 42 62 43 41 44 61 45
REMARK SMILES IDX 42 46 45 47 60 48 80 49 43 50 44 51 59 53 81 54 46 55 29 56
REMARK SMILES IDX 30 57 39 58 31 59 32 60 38 61 40 62 33 63 34 64 35 65 36 66
REMARK SMILES IDX 37 67 63 68 64 69 73 70 65 71 66 72 72 73 74 74 67 75 68 76
REMARK SMILES IDX 69 77 70 78 71 79 47 80 48 81 57 82 49 83 50 84 56 85 58 86
REMARK SMILES IDX 51 87 52 88 53 89 54 90 55 91
REMARK H PARENT 13 6 17 22 79 41 45 52
REMARK Flexibility Score: inf
ROOT
ATOM      1  C   UNL A   1      40.963  20.033  26.221  1.00  0.00     0.042 C 
ENDROOT
BRANCH   1   2
ATOM      2  C   UNL A   1      42.403  19.810  26.673  1.00  0.00     0.117 C 
BRANCH   2   3
ATOM      3  N   UNL A   1      43.369  20.204  25.667  1.00  0.00    -0.356 N 
ATOM      4  C   UNL A   1      43.727  21.424  25.182  1.00  0.00     0.227 C 
ATOM      5  O   UNL A   1      44.568  21.423  24.273  1.00  0.00    -0.274 OA
ATOM      6  H   UNL A   1      43.854  19.451  25.259  1.00  0.00     0.163 HD
BRANCH   4   7
ATOM      7  C   UNL A   1      43.164  22.757  25.700  1.00  0.00     0.105 C 
ATOM      8  C   UNL A   1      43.347  23.943  24.755  1.00  0.00     0.023 C 
BRANCH   7   9
ATOM      9  C   UNL A   1      43.484  23.010  27.164  1.00  0.00    -0.036 A 
ATOM     10  C   UNL A   1      44.161  23.818  29.798  1.00  0.00    -0.048 A 
ATOM     11  C   UNL A   1      42.834  23.540  29.450  1.00  0.00     0.004 A 
ATOM     12  C   UNL A   1      45.156  23.576  28.847  1.00  0.00     0.004 A 
ATOM     13  C   UNL A   1      42.503  23.120  28.156  1.00  0.00     0.005 A 
ATOM     14  C   UNL A   1      44.820  23.208  27.542  1.00  0.00     0.005 A 
BRANCH  10  15
ATOM     15  C   UNL A   1      44.479  24.345  31.181  1.00  0.00     0.038 C 
BRANCH  15  16
ATOM     16  C   UNL A   1      44.917  25.826  31.252  1.00  0.00    -0.013 C 
ATOM     17  C   UNL A   1      43.724  26.783  31.361  1.00  0.00     0.008 C 
ATOM     18  C   UNL A   1      45.853  26.040  32.444  1.00  0.00     0.008 C 
ENDBRANCH  15  16
ENDBRANCH  10  15
ENDBRANCH   7   9
ENDBRANCH   4   7
ENDBRANCH   2   3
ENDBRANCH   1   2
BRANCH   1  19
ATOM     19  C   UNL A   1      40.259  21.174  26.943  1.00  0.00     0.118 C 
BRANCH  19  20
ATOM     20  N   UNL A   1      39.030  21.576  26.270  1.00  0.00    -0.352 N 
ATOM     21  C   UNL A   1      38.395  22.792  26.219  1.00  0.00     0.251 C 
ATOM     22  H   UNL A   1      38.582  20.856  25.771  1.00  0.00     0.163 HD
ATOM     23  O   UNL A   1      37.250  22.843  25.776  1.00  0.00    -0.269 OA
BRANCH  21  24
ATOM     24  C   UNL A   1      39.060  24.031  26.689  1.00  0.00     0.039 A 
ATOM     25  C   UNL A   1      39.797  24.789  25.771  1.00  0.00     0.014 A 
ATOM     26  C   UNL A   1      39.024  24.418  28.030  1.00  0.00     0.014 A 
ATOM     27  C   UNL A   1      40.455  25.951  26.190  1.00  0.00     0.010 A 
ATOM     28  C   UNL A   1      39.607  25.619  28.429  1.00  0.00     0.010 A 
ATOM     29  C   UNL A   1      40.346  26.388  27.519  1.00  0.00    -0.014 A 
BRANCH  29  30
ATOM     30  C   UNL A   1      41.029  27.622  27.989  1.00  0.00     0.031 A 
ATOM     31  C   UNL A   1      42.530  27.730  27.899  1.00  0.00     0.074 A 
ATOM     32  C   UNL A   1      40.314  28.615  28.552  1.00  0.00     0.049 A 
ATOM     33  N   UNL A   1      43.320  28.676  28.337  1.00  0.00    -0.248 NA
ATOM     34  C   UNL A   1      43.238  26.609  27.257  1.00  0.00     0.031 C 
ATOM     35  C   UNL A   1      38.860  28.611  28.738  1.00  0.00     0.029 A 
ATOM     36  N   UNL A   1      40.711  29.816  29.086  1.00  0.00    -0.354 N 
ATOM     37  C   UNL A   1      44.614  28.255  28.047  1.00  0.00     0.074 A 
ATOM     38  C   UNL A   1      44.506  26.946  27.442  1.00  0.00     0.031 C 
ATOM     39  C   UNL A   1      38.488  29.760  29.324  1.00  0.00     0.029 A 
ATOM     40  C   UNL A   1      39.676  30.566  29.590  1.00  0.00     0.049 A 
ATOM     41  H   UNL A   1      41.650  30.111  29.105  1.00  0.00     0.167 HD
ATOM     42  C   UNL A   1      45.783  28.910  28.244  1.00  0.00     0.037 A 
ATOM     43  C   UNL A   1      39.684  31.766  30.205  1.00  0.00     0.037 A 
ATOM     44  C   UNL A   1      45.880  30.229  28.812  1.00  0.00     0.049 A 
ATOM     45  C   UNL A   1      40.992  32.482  30.396  1.00  0.00     0.074 A 
ATOM     46  C   UNL A   1      47.011  31.005  29.001  1.00  0.00     0.029 A 
ATOM     47  N   UNL A   1      44.804  30.972  29.277  1.00  0.00    -0.354 N 
ATOM     48  N   UNL A   1      42.201  32.092  30.069  1.00  0.00    -0.248 NA
ATOM     49  C   UNL A   1      40.940  33.805  31.034  1.00  0.00     0.031 C 
ATOM     50  C   UNL A   1      46.623  32.201  29.612  1.00  0.00     0.029 A 
ATOM     51  C   UNL A   1      45.246  32.191  29.762  1.00  0.00     0.049 A 
ATOM     52  H   UNL A   1      43.866  30.675  29.262  1.00  0.00     0.167 HD
ATOM     53  C   UNL A   1      43.048  33.132  30.433  1.00  0.00     0.074 A 
ATOM     54  C   UNL A   1      42.214  34.172  30.998  1.00  0.00     0.031 C 
ATOM     55  C   UNL A   1      44.397  33.219  30.310  1.00  0.00     0.037 A 
BRANCH  42  56
ATOM     56  C   UNL A   1      47.052  28.210  27.837  1.00  0.00     0.058 A 
ATOM     57  C   UNL A   1      47.524  28.251  26.514  1.00  0.00     0.135 A 
ATOM     58  C   UNL A   1      47.821  27.514  28.783  1.00  0.00     0.135 A 
ATOM     59  F   UNL A   1      46.821  28.889  25.565  1.00  0.00    -0.206 F 
ATOM     60  C   UNL A   1      48.694  27.600  26.138  1.00  0.00     0.059 A 
ATOM     61  C   UNL A   1      49.010  26.878  28.435  1.00  0.00     0.059 A 
ATOM     62  F   UNL A   1      47.419  27.443  30.062  1.00  0.00    -0.206 F 
ATOM     63  C   UNL A   1      49.429  26.913  27.105  1.00  0.00     0.060 A 
BRANCH  63  64
ATOM     64  S   UNL A   1      50.946  26.074  26.601  1.00  0.00     0.124 S 
ATOM     65  O   UNL A   1      50.796  26.054  25.148  1.00  0.00    -0.237 OA
ATOM     66  O   UNL A   1      51.982  26.961  27.118  1.00  0.00    -0.237 OA
ATOM     67  O   UNL A   1      50.851  24.775  27.259  1.00  0.00    -0.744 OA
ENDBRANCH  63  64
ENDBRANCH  42  56
BRANCH  43  68
ATOM     68  C   UNL A   1      38.405  32.376  30.657  1.00  0.00     0.058 A 
ATOM     69  C   UNL A   1      37.705  33.274  29.839  1.00  0.00     0.135 A 
ATOM     70  C   UNL A   1      37.849  32.063  31.907  1.00  0.00     0.135 A 
ATOM     71  F   UNL A   1      38.200  33.608  28.636  1.00  0.00    -0.206 F 
ATOM     72  C   UNL A   1      36.508  33.853  30.246  1.00  0.00     0.059 A 
ATOM     73  C   UNL A   1      36.640  32.611  32.328  1.00  0.00     0.059 A 
ATOM     74  F   UNL A   1      38.470  31.195  32.723  1.00  0.00    -0.206 F 
ATOM     75  C   UNL A   1      35.983  33.514  31.493  1.00  0.00     0.060 A 
BRANCH  75  76
ATOM     76  S   UNL A   1      34.403  34.232  31.994  1.00  0.00     0.124 S 
ATOM     77  O   UNL A   1      34.827  35.510  32.556  1.00  0.00    -0.237 OA
ATOM     78  O   UNL A   1      33.682  34.300  30.727  1.00  0.00    -0.237 OA
ATOM     79  O   UNL A   1      33.882  33.261  32.951  1.00  0.00    -0.744 OA
ENDBRANCH  75  76
ENDBRANCH  43  68
BRANCH  55  80
ATOM     80  C   UNL A   1      45.051  34.497  30.756  1.00  0.00     0.058 A 
ATOM     81  C   UNL A   1      45.550  34.657  32.057  1.00  0.00     0.135 A 
ATOM     82  C   UNL A   1      45.229  35.555  29.849  1.00  0.00     0.135 A 
ATOM     83  F   UNL A   1      45.400  33.677  32.963  1.00  0.00    -0.206 F 
ATOM     84  C   UNL A   1      46.184  35.830  32.451  1.00  0.00     0.059 A 
ATOM     85  C   UNL A   1      45.882  36.727  30.215  1.00  0.00     0.059 A 
ATOM     86  F   UNL A   1      44.778  35.448  28.589  1.00  0.00    -0.206 F 
ATOM     87  C   UNL A   1      46.348  36.859  31.522  1.00  0.00     0.060 A 
BRANCH  87  88
ATOM     88  S   UNL A   1      47.204  38.363  32.036  1.00  0.00     0.124 S 
ATOM     89  O   UNL A   1      48.542  38.138  31.497  1.00  0.00    -0.237 OA
ATOM     90  O   UNL A   1      46.424  39.408  31.381  1.00  0.00    -0.237 OA
ATOM     91  O   UNL A   1      47.101  38.332  33.492  1.00  0.00    -0.744 OA
ENDBRANCH  87  88
ENDBRANCH  55  80
ENDBRANCH  29  30
ENDBRANCH  21  24
ENDBRANCH  19  20
ENDBRANCH   1  19
TORSDOF 16
ENDMDL
MODEL 3
REMARK VINA RESULT:      -9.5      2.620      3.867
REMARK SMILES CC(C)Cc1ccc([C@@H](C)C(=O)NCCCNC(=O)c2ccc(-c3c4nc(c(-c5c(F)cc(S(=O)(=O)[O-])cc5F)c5ccc([nH]5)c(-c5c(F)cc(S(=O)(=O)[O-])cc5F)c5nc(c(-c6c(F)cc(S(=O)(=O)[O-])cc6F)c6ccc3[nH]6)C=C5)C=C4)cc2)cc1
REMARK SMILES IDX 15 1 14 2 13 3 11 4 12 5 9 7 10 8 8 9 5 10 6 11 87 12 7 13
REMARK SMILES IDX 86 14 4 15 2 16 1 17 3 18 16 19 17 20 18 21 19 23 20 24
REMARK SMILES IDX 21 25 85 26 22 27 84 28 23 29 24 30 25 31 78 32 26 33 83 34
REMARK SMILES IDX 77 35 79 36 27 37 82 38 76 39 75 40 28 42 62 43 41 44 61 45
REMARK SMILES IDX 42 46 45 47 60 48 80 49 43 50 44 51 59 53 81 54 46 55 29 56
REMARK SMILES IDX 30 57 39 58 31 59 32 60 38 61 40 62 33 63 34 64 35 65 36 66
REMARK SMILES IDX 37 67 63 68 64 69 73 70 65 71 66 72 72 73 74 74 67 75 68 76
REMARK SMILES IDX 69 77 70 78 71 79 47 80 48 81 57 82 49 83 50 84 56 85 58 86
REMARK SMILES IDX 51 87 52 88 53 89 54 90 55 91
REMARK H PARENT 13 6 17 22 79 41 45 52
REMARK Flexibility Score: inf
ROOT
ATOM      1  C   UNL A   1      34.193  33.555  29.576  1.00  0.00     0.042 C 
ENDROOT
BRANCH   1   2
ATOM      2  C   UNL A   1      34.762  32.958  30.860  1.00  0.00     0.117 C 
BRANCH   2   3
ATOM      3  N   UNL A   1      35.032  33.963  31.868  1.00  0.00    -0.356 N 
ATOM      4  C   UNL A   1      36.195  34.509  32.317  1.00  0.00     0.227 C 
ATOM      5  O   UNL A   1      36.092  35.328  33.239  1.00  0.00    -0.274 OA
ATOM      6  H   UNL A   1      34.226  34.317  32.309  1.00  0.00     0.163 HD
BRANCH   4   7
ATOM      7  C   UNL A   1      37.582  34.174  31.745  1.00  0.00     0.105 C 
ATOM      8  C   UNL A   1      37.634  34.037  30.225  1.00  0.00     0.023 C 
BRANCH   7   9
ATOM      9  C   UNL A   1      38.313  33.107  32.541  1.00  0.00    -0.036 A 
ATOM     10  C   UNL A   1      39.765  30.969  33.712  1.00  0.00    -0.048 A 
ATOM     11  C   UNL A   1      40.247  32.282  33.769  1.00  0.00     0.004 A 
ATOM     12  C   UNL A   1      38.497  30.756  33.164  1.00  0.00     0.004 A 
ATOM     13  C   UNL A   1      39.519  33.340  33.211  1.00  0.00     0.005 A 
ATOM     14  C   UNL A   1      37.796  31.803  32.561  1.00  0.00     0.005 A 
BRANCH  10  15
ATOM     15  C   UNL A   1      40.610  29.835  34.254  1.00  0.00     0.038 C 
BRANCH  15  16
ATOM     16  C   UNL A   1      41.813  29.414  33.379  1.00  0.00    -0.013 C 
ATOM     17  C   UNL A   1      43.102  29.263  34.193  1.00  0.00     0.008 C 
ATOM     18  C   UNL A   1      41.505  28.097  32.662  1.00  0.00     0.008 C 
ENDBRANCH  15  16
ENDBRANCH  10  15
ENDBRANCH   7   9
ENDBRANCH   4   7
ENDBRANCH   2   3
ENDBRANCH   1   2
BRANCH   1  19
ATOM     19  C   UNL A   1      34.628  32.827  28.311  1.00  0.00     0.118 C 
BRANCH  19  20
ATOM     20  N   UNL A   1      33.921  31.566  28.131  1.00  0.00    -0.352 N 
ATOM     21  C   UNL A   1      34.396  30.285  27.994  1.00  0.00     0.251 C 
ATOM     22  H   UNL A   1      32.940  31.646  28.104  1.00  0.00     0.163 HD
ATOM     23  O   UNL A   1      33.623  29.403  27.627  1.00  0.00    -0.269 OA
BRANCH  21  24
ATOM     24  C   UNL A   1      35.814  29.954  28.271  1.00  0.00     0.039 A 
ATOM     25  C   UNL A   1      36.741  30.031  27.224  1.00  0.00     0.014 A 
ATOM     26  C   UNL A   1      36.230  29.506  29.527  1.00  0.00     0.014 A 
ATOM     27  C   UNL A   1      38.081  29.703  27.449  1.00  0.00     0.010 A 
ATOM     28  C   UNL A   1      37.580  29.262  29.772  1.00  0.00     0.010 A 
ATOM     29  C   UNL A   1      38.517  29.338  28.732  1.00  0.00    -0.014 A 
BRANCH  29  30
ATOM     30  C   UNL A   1      39.937  28.990  29.001  1.00  0.00     0.031 A 
ATOM     31  C   UNL A   1      40.871  30.029  29.566  1.00  0.00     0.074 A 
ATOM     32  C   UNL A   1      40.402  27.766  28.683  1.00  0.00     0.049 A 
ATOM     33  N   UNL A   1      42.159  29.956  29.783  1.00  0.00    -0.248 NA
ATOM     34  C   UNL A   1      40.283  31.337  29.902  1.00  0.00     0.031 C 
ATOM     35  C   UNL A   1      39.610  26.686  28.089  1.00  0.00     0.029 A 
ATOM     36  N   UNL A   1      41.659  27.226  28.800  1.00  0.00    -0.354 N 
ATOM     37  C   UNL A   1      42.536  31.208  30.256  1.00  0.00     0.074 A 
ATOM     38  C   UNL A   1      41.352  32.038  30.246  1.00  0.00     0.031 C 
ATOM     39  C   UNL A   1      40.393  25.611  27.913  1.00  0.00     0.029 A 
ATOM     40  C   UNL A   1      41.750  25.933  28.344  1.00  0.00     0.049 A 
ATOM     41  H   UNL A   1      42.424  27.721  29.175  1.00  0.00     0.167 HD
ATOM     42  C   UNL A   1      43.754  31.622  30.683  1.00  0.00     0.037 A 
ATOM     43  C   UNL A   1      42.809  25.102  28.275  1.00  0.00     0.037 A 
ATOM     44  C   UNL A   1      44.920  30.778  30.728  1.00  0.00     0.049 A 
ATOM     45  C   UNL A   1      44.146  25.577  28.772  1.00  0.00     0.074 A 
ATOM     46  C   UNL A   1      46.185  31.083  31.197  1.00  0.00     0.029 A 
ATOM     47  N   UNL A   1      44.961  29.462  30.291  1.00  0.00    -0.354 N 
ATOM     48  N   UNL A   1      44.474  26.748  29.264  1.00  0.00    -0.248 NA
ATOM     49  C   UNL A   1      45.258  24.618  28.712  1.00  0.00     0.031 C 
ATOM     50  C   UNL A   1      47.001  29.962  31.013  1.00  0.00     0.029 A 
ATOM     51  C   UNL A   1      46.233  28.945  30.470  1.00  0.00     0.049 A 
ATOM     52  H   UNL A   1      44.198  28.969  29.912  1.00  0.00     0.167 HD
ATOM     53  C   UNL A   1      45.820  26.656  29.599  1.00  0.00     0.074 A 
ATOM     54  C   UNL A   1      46.244  25.313  29.263  1.00  0.00     0.031 C 
ATOM     55  C   UNL A   1      46.632  27.600  30.140  1.00  0.00     0.037 A 
BRANCH  42  56
ATOM     56  C   UNL A   1      43.884  33.049  31.143  1.00  0.00     0.058 A 
ATOM     57  C   UNL A   1      44.182  34.088  30.246  1.00  0.00     0.135 A 
ATOM     58  C   UNL A   1      43.682  33.388  32.490  1.00  0.00     0.135 A 
ATOM     59  F   UNL A   1      44.399  33.819  28.948  1.00  0.00    -0.206 F 
ATOM     60  C   UNL A   1      44.307  35.406  30.672  1.00  0.00     0.059 A 
ATOM     61  C   UNL A   1      43.775  34.705  32.935  1.00  0.00     0.059 A 
ATOM     62  F   UNL A   1      43.394  32.436  33.392  1.00  0.00    -0.206 F 
ATOM     63  C   UNL A   1      44.104  35.704  32.020  1.00  0.00     0.060 A 
BRANCH  63  64
ATOM     64  S   UNL A   1      44.270  37.419  32.558  1.00  0.00     0.124 S 
ATOM     65  O   UNL A   1      43.255  37.494  33.605  1.00  0.00    -0.237 OA
ATOM     66  O   UNL A   1      45.655  37.473  33.015  1.00  0.00    -0.237 OA
ATOM     67  O   UNL A   1      43.982  38.184  31.349  1.00  0.00    -0.744 OA
ENDBRANCH  63  64
ENDBRANCH  42  56
BRANCH  43  68
ATOM     68  C   UNL A   1      42.638  23.725  27.738  1.00  0.00     0.058 A 
ATOM     69  C   UNL A   1      42.593  23.491  26.356  1.00  0.00     0.135 A 
ATOM     70  C   UNL A   1      42.531  22.617  28.592  1.00  0.00     0.135 A 
ATOM     71  F   UNL A   1      42.687  24.519  25.499  1.00  0.00    -0.206 F 
ATOM     72  C   UNL A   1      42.434  22.210  25.838  1.00  0.00     0.059 A 
ATOM     73  C   UNL A   1      42.395  21.323  28.098  1.00  0.00     0.059 A 
ATOM     74  F   UNL A   1      42.585  22.785  29.924  1.00  0.00    -0.206 F 
ATOM     75  C   UNL A   1      42.337  21.131  26.718  1.00  0.00     0.060 A 
BRANCH  75  76
ATOM     76  S   UNL A   1      42.180  19.466  26.035  1.00  0.00     0.124 S 
ATOM     77  O   UNL A   1      43.055  19.543  24.870  1.00  0.00    -0.237 OA
ATOM     78  O   UNL A   1      42.655  18.636  27.138  1.00  0.00    -0.237 OA
ATOM     79  O   UNL A   1      40.753  19.356  25.749  1.00  0.00    -0.744 OA
ENDBRANCH  75  76
ENDBRANCH  43  68
BRANCH  55  80
ATOM     80  C   UNL A   1      48.051  27.202  30.439  1.00  0.00     0.058 A 
ATOM     81  C   UNL A   1      49.070  27.321  29.482  1.00  0.00     0.135 A 
ATOM     82  C   UNL A   1      48.403  26.746  31.720  1.00  0.00     0.135 A 
ATOM     83  F   UNL A   1      48.784  27.746  28.241  1.00  0.00    -0.206 F 
ATOM     84  C   UNL A   1      50.386  26.982  29.778  1.00  0.00     0.059 A 
ATOM     85  C   UNL A   1      49.717  26.426  32.045  1.00  0.00     0.059 A 
ATOM     86  F   UNL A   1      47.467  26.624  32.675  1.00  0.00    -0.206 F 
ATOM     87  C   UNL A   1      50.700  26.538  31.063  1.00  0.00     0.060 A 
BRANCH  87  88
ATOM     88  S   UNL A   1      52.418  26.136  31.445  1.00  0.00     0.124 S 
ATOM     89  O   UNL A   1      52.300  24.756  31.908  1.00  0.00    -0.237 OA
ATOM     90  O   UNL A   1      53.077  26.318  30.156  1.00  0.00    -0.237 OA
ATOM     91  O   UNL A   1      52.776  27.113  32.468  1.00  0.00    -0.744 OA
ENDBRANCH  87  88
ENDBRANCH  55  80
ENDBRANCH  29  30
ENDBRANCH  21  24
ENDBRANCH  19  20
ENDBRANCH   1  19
TORSDOF 16
ENDMDL
