MODEL 1
REMARK VINA RESULT:     -12.8      0.000      0.000
REMARK SMILES Cc1ccccc1N(CCC(=O)NCCCNC(=O)c1ccc(-c2c3nc(c(-c4c(F)cc(S(=O)(=O)[O-])cc4F)c4ccc([nH]4)c(-c4c(F)cc(S(=O)(=O)[O-])cc4F)c4nc(c(-c5c(F)cc(S(=O)(=O)[O-])cc5F)c5ccc2[nH]5)C=C4)C=C3)cc1)[C@@H](C)[C@@H](C)O
REMARK SMILES IDX 14 1 13 2 11 3 12 4 10 6 9 7 8 8 7 9 1 10 2 11 3 12 4 13
REMARK SMILES IDX 6 14 5 15 86 16 87 17 88 18 89 19 90 20 15 22 16 23 17 24
REMARK SMILES IDX 18 25 19 27 20 28 21 29 85 30 22 31 84 32 23 33 24 34 25 35
REMARK SMILES IDX 78 36 26 37 83 38 77 39 79 40 27 41 82 42 76 43 75 44 28 46
REMARK SMILES IDX 62 47 41 48 61 49 42 50 45 51 60 52 80 53 43 54 44 55 59 57
REMARK SMILES IDX 81 58 46 59 29 60 30 61 39 62 31 63 32 64 38 65 40 66 33 67
REMARK SMILES IDX 34 68 35 69 36 70 37 71 63 72 64 73 73 74 65 75 66 76 72 77
REMARK SMILES IDX 74 78 67 79 68 80 69 81 70 82 71 83 47 84 48 85 57 86 49 87
REMARK SMILES IDX 50 88 56 89 58 90 51 91 52 92 53 93 54 94 55 95
REMARK H PARENT 13 5 90 21 17 26 79 45 45 56
REMARK Flexibility Score: inf
ROOT
ATOM      1  C   UNL A   1      33.596  30.324  26.917  1.00  0.00     0.117 C 
ENDROOT
BRANCH   1   2
ATOM      2  N   UNL A   1      32.628  29.338  27.435  1.00  0.00    -0.356 N 
ATOM      3  C   UNL A   1      32.337  28.039  27.137  1.00  0.00     0.221 C 
ATOM      4  O   UNL A   1      31.348  27.546  27.692  1.00  0.00    -0.275 OA
ATOM      5  H   UNL A   1      32.066  29.700  28.158  1.00  0.00     0.163 HD
BRANCH   3   6
ATOM      6  C   UNL A   1      33.188  27.179  26.209  1.00  0.00     0.121 C 
BRANCH   6   7
ATOM      7  C   UNL A   1      32.366  26.411  25.131  1.00  0.00     0.127 C 
BRANCH   7   8
ATOM      8  N   UNL A   1      33.065  25.218  24.535  1.00  0.00    -0.366 N 
BRANCH   8   9
ATOM      9  C   UNL A   1      33.944  24.343  25.198  1.00  0.00     0.040 A 
ATOM     10  C   UNL A   1      32.347  23.092  27.002  1.00  0.00     0.046 C 
ATOM     11  C   UNL A   1      33.634  23.390  26.238  1.00  0.00    -0.028 A 
ATOM     12  C   UNL A   1      34.626  22.475  26.690  1.00  0.00     0.005 A 
ATOM     13  C   UNL A   1      35.922  22.488  26.214  1.00  0.00     0.000 A 
ATOM     14  C   UNL A   1      35.306  24.348  24.808  1.00  0.00     0.026 A 
ATOM     15  C   UNL A   1      36.268  23.447  25.289  1.00  0.00     0.002 A 
ENDBRANCH   8   9
BRANCH   8  16
ATOM     16  C   UNL A   1      32.851  25.117  23.098  1.00  0.00     0.107 C 
ATOM     17  C   UNL A   1      33.462  26.366  22.449  1.00  0.00     0.034 C 
BRANCH  16  18
ATOM     18  C   UNL A   1      33.063  23.676  22.537  1.00  0.00     0.133 C 
ATOM     19  C   UNL A   1      32.011  22.690  23.051  1.00  0.00     0.040 C 
BRANCH  18  20
ATOM     20  O   UNL A   1      32.993  23.639  21.111  1.00  0.00    -0.391 OA
ATOM     21  H   UNL A   1      33.871  23.444  20.749  1.00  0.00     0.211 HD
ENDBRANCH  18  20
ENDBRANCH  16  18
ENDBRANCH   8  16
ENDBRANCH   7   8
ENDBRANCH   6   7
ENDBRANCH   3   6
ENDBRANCH   1   2
BRANCH   1  22
ATOM     22  C   UNL A   1      34.095  31.231  28.057  1.00  0.00     0.042 C 
BRANCH  22  23
ATOM     23  C   UNL A   1      35.589  31.602  28.070  1.00  0.00     0.118 C 
BRANCH  23  24
ATOM     24  N   UNL A   1      36.242  31.872  29.347  1.00  0.00    -0.352 N 
ATOM     25  C   UNL A   1      37.014  31.034  30.159  1.00  0.00     0.251 C 
ATOM     26  H   UNL A   1      36.119  32.787  29.691  1.00  0.00     0.163 HD
ATOM     27  O   UNL A   1      37.411  31.323  31.263  1.00  0.00    -0.269 OA
BRANCH  25  28
ATOM     28  C   UNL A   1      37.334  29.708  29.590  1.00  0.00     0.039 A 
ATOM     29  C   UNL A   1      37.611  28.694  30.512  1.00  0.00     0.014 A 
ATOM     30  C   UNL A   1      37.865  29.709  28.302  1.00  0.00     0.014 A 
ATOM     31  C   UNL A   1      38.675  27.844  30.248  1.00  0.00     0.010 A 
ATOM     32  C   UNL A   1      38.952  28.891  28.056  1.00  0.00     0.010 A 
ATOM     33  C   UNL A   1      39.420  28.053  29.081  1.00  0.00    -0.014 A 
BRANCH  33  34
ATOM     34  C   UNL A   1      40.807  27.606  29.005  1.00  0.00     0.031 A 
ATOM     35  C   UNL A   1      41.105  26.274  28.468  1.00  0.00     0.074 A 
ATOM     36  C   UNL A   1      41.813  28.372  29.495  1.00  0.00     0.049 A 
ATOM     37  N   UNL A   1      42.037  25.516  28.931  1.00  0.00    -0.248 NA
ATOM     38  C   UNL A   1      40.328  25.669  27.396  1.00  0.00     0.031 C 
ATOM     39  C   UNL A   1      43.248  28.124  29.402  1.00  0.00     0.029 A 
ATOM     40  N   UNL A   1      41.722  29.477  30.359  1.00  0.00    -0.354 N 
ATOM     41  C   UNL A   1      42.161  24.450  28.073  1.00  0.00     0.074 A 
ATOM     42  C   UNL A   1      41.027  24.550  27.179  1.00  0.00     0.031 C 
ATOM     43  C   UNL A   1      43.864  28.807  30.381  1.00  0.00     0.029 A 
ATOM     44  C   UNL A   1      42.841  29.444  31.199  1.00  0.00     0.049 A 
ATOM     45  H   UNL A   1      41.003  30.150  30.371  1.00  0.00     0.167 HD
ATOM     46  C   UNL A   1      43.287  23.683  28.112  1.00  0.00     0.037 A 
ATOM     47  C   UNL A   1      42.736  29.397  32.554  1.00  0.00     0.037 A 
ATOM     48  C   UNL A   1      44.226  24.172  29.123  1.00  0.00     0.049 A 
ATOM     49  C   UNL A   1      43.391  28.168  33.121  1.00  0.00     0.074 A 
ATOM     50  C   UNL A   1      45.316  25.025  29.031  1.00  0.00     0.029 A 
ATOM     51  N   UNL A   1      43.916  24.081  30.478  1.00  0.00    -0.354 N 
ATOM     52  N   UNL A   1      43.691  27.125  32.399  1.00  0.00    -0.248 NA
ATOM     53  C   UNL A   1      43.759  28.005  34.521  1.00  0.00     0.031 C 
ATOM     54  C   UNL A   1      45.627  25.490  30.333  1.00  0.00     0.029 A 
ATOM     55  C   UNL A   1      44.746  24.901  31.224  1.00  0.00     0.049 A 
ATOM     56  H   UNL A   1      43.205  23.512  30.853  1.00  0.00     0.167 HD
ATOM     57  C   UNL A   1      44.266  26.168  33.188  1.00  0.00     0.074 A 
ATOM     58  C   UNL A   1      44.304  26.776  34.507  1.00  0.00     0.031 C 
ATOM     59  C   UNL A   1      44.653  24.961  32.679  1.00  0.00     0.037 A 
BRANCH  46  60
ATOM     60  C   UNL A   1      43.646  22.746  26.979  1.00  0.00     0.058 A 
ATOM     61  C   UNL A   1      42.934  21.550  26.764  1.00  0.00     0.135 A 
ATOM     62  C   UNL A   1      44.745  22.945  26.119  1.00  0.00     0.135 A 
ATOM     63  F   UNL A   1      41.801  21.278  27.426  1.00  0.00    -0.206 F 
ATOM     64  C   UNL A   1      43.360  20.566  25.870  1.00  0.00     0.059 A 
ATOM     65  C   UNL A   1      45.228  21.952  25.262  1.00  0.00     0.059 A 
ATOM     66  F   UNL A   1      45.377  24.128  26.070  1.00  0.00    -0.206 F 
ATOM     67  C   UNL A   1      44.533  20.755  25.155  1.00  0.00     0.060 A 
BRANCH  67  68
ATOM     68  S   UNL A   1      45.132  19.422  24.099  1.00  0.00     0.124 S 
ATOM     69  O   UNL A   1      44.534  19.755  22.809  1.00  0.00    -0.237 OA
ATOM     70  O   UNL A   1      46.578  19.592  24.192  1.00  0.00    -0.237 OA
ATOM     71  O   UNL A   1      44.598  18.221  24.734  1.00  0.00    -0.744 OA
ENDBRANCH  67  68
ENDBRANCH  46  60
BRANCH  47  72
ATOM     72  C   UNL A   1      41.611  30.158  33.163  1.00  0.00     0.058 A 
ATOM     73  C   UNL A   1      40.385  29.494  33.368  1.00  0.00     0.135 A 
ATOM     74  C   UNL A   1      41.781  31.391  33.808  1.00  0.00     0.135 A 
ATOM     75  F   UNL A   1      40.172  28.294  32.806  1.00  0.00    -0.206 F 
ATOM     76  C   UNL A   1      39.406  29.986  34.233  1.00  0.00     0.059 A 
ATOM     77  C   UNL A   1      40.822  31.896  34.697  1.00  0.00     0.059 A 
ATOM     78  F   UNL A   1      42.923  32.076  33.656  1.00  0.00    -0.206 F 
ATOM     79  C   UNL A   1      39.657  31.164  34.934  1.00  0.00     0.060 A 
BRANCH  79  80
ATOM     80  S   UNL A   1      38.535  31.589  36.297  1.00  0.00     0.124 S 
ATOM     81  O   UNL A   1      38.103  30.273  36.750  1.00  0.00    -0.237 OA
ATOM     82  O   UNL A   1      39.432  32.302  37.208  1.00  0.00    -0.237 OA
ATOM     83  O   UNL A   1      37.519  32.406  35.647  1.00  0.00    -0.744 OA
ENDBRANCH  79  80
ENDBRANCH  47  72
BRANCH  59  84
ATOM     84  C   UNL A   1      45.085  23.760  33.483  1.00  0.00     0.058 A 
ATOM     85  C   UNL A   1      46.368  23.600  34.034  1.00  0.00     0.135 A 
ATOM     86  C   UNL A   1      44.137  22.775  33.855  1.00  0.00     0.135 A 
ATOM     87  F   UNL A   1      47.329  24.518  33.852  1.00  0.00    -0.206 F 
ATOM     88  C   UNL A   1      46.704  22.516  34.844  1.00  0.00     0.059 A 
ATOM     89  C   UNL A   1      44.434  21.721  34.713  1.00  0.00     0.059 A 
ATOM     90  F   UNL A   1      42.872  22.813  33.409  1.00  0.00    -0.206 F 
ATOM     91  C   UNL A   1      45.729  21.586  35.186  1.00  0.00     0.060 A 
BRANCH  91  92
ATOM     92  S   UNL A   1      46.126  20.239  36.312  1.00  0.00     0.124 S 
ATOM     93  O   UNL A   1      45.276  19.171  35.797  1.00  0.00    -0.237 OA
ATOM     94  O   UNL A   1      47.561  20.058  36.109  1.00  0.00    -0.237 OA
ATOM     95  O   UNL A   1      45.750  20.777  37.616  1.00  0.00    -0.744 OA
ENDBRANCH  91  92
ENDBRANCH  59  84
ENDBRANCH  33  34
ENDBRANCH  25  28
ENDBRANCH  23  24
ENDBRANCH  22  23
ENDBRANCH   1  22
TORSDOF 19
ENDMDL
MODEL 2
REMARK VINA RESULT:     -12.7      1.778      3.102
REMARK SMILES Cc1ccccc1N(CCC(=O)NCCCNC(=O)c1ccc(-c2c3nc(c(-c4c(F)cc(S(=O)(=O)[O-])cc4F)c4ccc([nH]4)c(-c4c(F)cc(S(=O)(=O)[O-])cc4F)c4nc(c(-c5c(F)cc(S(=O)(=O)[O-])cc5F)c5ccc2[nH]5)C=C4)C=C3)cc1)[C@@H](C)[C@@H](C)O
REMARK SMILES IDX 14 1 13 2 11 3 12 4 10 6 9 7 8 8 7 9 1 10 2 11 3 12 4 13
REMARK SMILES IDX 6 14 5 15 86 16 87 17 88 18 89 19 90 20 15 22 16 23 17 24
REMARK SMILES IDX 18 25 19 27 20 28 21 29 85 30 22 31 84 32 23 33 24 34 25 35
REMARK SMILES IDX 78 36 26 37 83 38 77 39 79 40 27 41 82 42 76 43 75 44 28 46
REMARK SMILES IDX 62 47 41 48 61 49 42 50 45 51 60 52 80 53 43 54 44 55 59 57
REMARK SMILES IDX 81 58 46 59 29 60 30 61 39 62 31 63 32 64 38 65 40 66 33 67
REMARK SMILES IDX 34 68 35 69 36 70 37 71 63 72 64 73 73 74 65 75 66 76 72 77
REMARK SMILES IDX 74 78 67 79 68 80 69 81 70 82 71 83 47 84 48 85 57 86 49 87
REMARK SMILES IDX 50 88 56 89 58 90 51 91 52 92 53 93 54 94 55 95
REMARK H PARENT 13 5 90 21 17 26 79 45 45 56
REMARK Flexibility Score: inf
ROOT
ATOM      1  C   UNL A   1      34.343  29.331  27.247  1.00  0.00     0.117 C 
ENDROOT
BRANCH   1   2
ATOM      2  N   UNL A   1      33.137  28.576  27.638  1.00  0.00    -0.356 N 
ATOM      3  C   UNL A   1      31.897  28.409  27.093  1.00  0.00     0.221 C 
ATOM      4  O   UNL A   1      31.065  27.798  27.773  1.00  0.00    -0.275 OA
ATOM      5  H   UNL A   1      33.254  28.081  28.481  1.00  0.00     0.163 HD
BRANCH   3   6
ATOM      6  C   UNL A   1      31.523  28.892  25.696  1.00  0.00     0.121 C 
BRANCH   6   7
ATOM      7  C   UNL A   1      32.244  28.123  24.549  1.00  0.00     0.127 C 
BRANCH   7   8
ATOM      8  N   UNL A   1      31.341  27.649  23.441  1.00  0.00    -0.366 N 
BRANCH   8   9
ATOM      9  C   UNL A   1      30.172  28.283  22.982  1.00  0.00     0.040 A 
ATOM     10  C   UNL A   1      28.183  26.695  23.927  1.00  0.00     0.046 C 
ATOM     11  C   UNL A   1      28.801  27.900  23.224  1.00  0.00    -0.028 A 
ATOM     12  C   UNL A   1      27.737  28.749  22.807  1.00  0.00     0.005 A 
ATOM     13  C   UNL A   1      27.950  29.923  22.114  1.00  0.00     0.000 A 
ATOM     14  C   UNL A   1      30.315  29.460  22.208  1.00  0.00     0.026 A 
ATOM     15  C   UNL A   1      29.244  30.265  21.791  1.00  0.00     0.002 A 
ENDBRANCH   8   9
BRANCH   8  16
ATOM     16  C   UNL A   1      31.724  26.335  22.945  1.00  0.00     0.107 C 
ATOM     17  C   UNL A   1      32.963  26.516  22.058  1.00  0.00     0.034 C 
BRANCH  16  18
ATOM     18  C   UNL A   1      31.602  25.205  24.015  1.00  0.00     0.133 C 
ATOM     19  C   UNL A   1      30.773  24.018  23.518  1.00  0.00     0.040 C 
BRANCH  18  20
ATOM     20  O   UNL A   1      32.876  24.682  24.393  1.00  0.00    -0.391 OA
ATOM     21  H   UNL A   1      33.547  24.977  23.759  1.00  0.00     0.211 HD
ENDBRANCH  18  20
ENDBRANCH  16  18
ENDBRANCH   8  16
ENDBRANCH   7   8
ENDBRANCH   6   7
ENDBRANCH   3   6
ENDBRANCH   1   2
BRANCH   1  22
ATOM     22  C   UNL A   1      34.187  30.815  27.627  1.00  0.00     0.042 C 
BRANCH  22  23
ATOM     23  C   UNL A   1      34.777  31.271  28.974  1.00  0.00     0.118 C 
BRANCH  23  24
ATOM     24  N   UNL A   1      35.996  32.074  28.980  1.00  0.00    -0.352 N 
ATOM     25  C   UNL A   1      37.337  31.676  28.999  1.00  0.00     0.251 C 
ATOM     26  H   UNL A   1      35.852  33.048  28.968  1.00  0.00     0.163 HD
ATOM     27  O   UNL A   1      38.275  32.427  29.124  1.00  0.00    -0.269 OA
BRANCH  25  28
ATOM     28  C   UNL A   1      37.577  30.223  28.865  1.00  0.00     0.039 A 
ATOM     29  C   UNL A   1      37.908  29.543  30.040  1.00  0.00     0.014 A 
ATOM     30  C   UNL A   1      37.995  29.787  27.609  1.00  0.00     0.014 A 
ATOM     31  C   UNL A   1      38.925  28.602  29.985  1.00  0.00     0.010 A 
ATOM     32  C   UNL A   1      39.037  28.881  27.560  1.00  0.00     0.010 A 
ATOM     33  C   UNL A   1      39.571  28.390  28.761  1.00  0.00    -0.014 A 
BRANCH  33  34
ATOM     34  C   UNL A   1      40.936  27.875  28.731  1.00  0.00     0.031 A 
ATOM     35  C   UNL A   1      41.176  26.504  28.268  1.00  0.00     0.074 A 
ATOM     36  C   UNL A   1      41.971  28.615  29.198  1.00  0.00     0.049 A 
ATOM     37  N   UNL A   1      42.064  25.727  28.783  1.00  0.00    -0.248 NA
ATOM     38  C   UNL A   1      40.385  25.882  27.215  1.00  0.00     0.031 C 
ATOM     39  C   UNL A   1      43.393  28.295  29.141  1.00  0.00     0.029 A 
ATOM     40  N   UNL A   1      41.922  29.766  30.003  1.00  0.00    -0.354 N 
ATOM     41  C   UNL A   1      42.148  24.613  27.983  1.00  0.00     0.074 A 
ATOM     42  C   UNL A   1      41.031  24.721  27.067  1.00  0.00     0.031 C 
ATOM     43  C   UNL A   1      44.029  28.997  30.094  1.00  0.00     0.029 A 
ATOM     44  C   UNL A   1      43.026  29.723  30.862  1.00  0.00     0.049 A 
ATOM     45  H   UNL A   1      41.236  30.473  29.969  1.00  0.00     0.167 HD
ATOM     46  C   UNL A   1      43.234  23.796  28.079  1.00  0.00     0.037 A 
ATOM     47  C   UNL A   1      42.901  29.751  32.215  1.00  0.00     0.037 A 
ATOM     48  C   UNL A   1      44.182  24.291  29.078  1.00  0.00     0.049 A 
ATOM     49  C   UNL A   1      43.487  28.524  32.854  1.00  0.00     0.074 A 
ATOM     50  C   UNL A   1      45.313  25.085  28.962  1.00  0.00     0.029 A 
ATOM     51  N   UNL A   1      43.849  24.285  30.432  1.00  0.00    -0.354 N 
ATOM     52  N   UNL A   1      43.746  27.431  32.191  1.00  0.00    -0.248 NA
ATOM     53  C   UNL A   1      43.828  28.416  34.267  1.00  0.00     0.031 C 
ATOM     54  C   UNL A   1      45.628  25.601  30.242  1.00  0.00     0.029 A 
ATOM     55  C   UNL A   1      44.708  25.101  31.148  1.00  0.00     0.049 A 
ATOM     56  H   UNL A   1      43.106  23.771  30.824  1.00  0.00     0.167 HD
ATOM     57  C   UNL A   1      44.263  26.490  33.038  1.00  0.00     0.074 A 
ATOM     58  C   UNL A   1      44.313  27.162  34.324  1.00  0.00     0.031 C 
ATOM     59  C   UNL A   1      44.598  25.241  32.596  1.00  0.00     0.037 A 
BRANCH  46  60
ATOM     60  C   UNL A   1      43.563  22.786  27.001  1.00  0.00     0.058 A 
ATOM     61  C   UNL A   1      42.844  21.580  26.884  1.00  0.00     0.135 A 
ATOM     62  C   UNL A   1      44.638  22.926  26.101  1.00  0.00     0.135 A 
ATOM     63  F   UNL A   1      41.730  21.355  27.592  1.00  0.00    -0.206 F 
ATOM     64  C   UNL A   1      43.246  20.539  26.046  1.00  0.00     0.059 A 
ATOM     65  C   UNL A   1      45.098  21.877  25.299  1.00  0.00     0.059 A 
ATOM     66  F   UNL A   1      45.269  24.102  25.958  1.00  0.00    -0.206 F 
ATOM     67  C   UNL A   1      44.400  20.677  25.289  1.00  0.00     0.060 A 
BRANCH  67  68
ATOM     68  S   UNL A   1      44.970  19.277  24.308  1.00  0.00     0.124 S 
ATOM     69  O   UNL A   1      46.413  19.309  24.528  1.00  0.00    -0.237 OA
ATOM     70  O   UNL A   1      44.257  18.165  24.929  1.00  0.00    -0.237 OA
ATOM     71  O   UNL A   1      44.545  19.617  22.953  1.00  0.00    -0.744 OA
ENDBRANCH  67  68
ENDBRANCH  46  60
BRANCH  47  72
ATOM     72  C   UNL A   1      41.806  30.595  32.767  1.00  0.00     0.058 A 
ATOM     73  C   UNL A   1      41.842  31.983  32.526  1.00  0.00     0.135 A 
ATOM     74  C   UNL A   1      40.602  30.066  33.254  1.00  0.00     0.135 A 
ATOM     75  F   UNL A   1      42.954  32.547  32.028  1.00  0.00    -0.206 F 
ATOM     76  C   UNL A   1      40.719  32.797  32.681  1.00  0.00     0.059 A 
ATOM     77  C   UNL A   1      39.455  30.858  33.398  1.00  0.00     0.059 A 
ATOM     78  F   UNL A   1      40.499  28.754  33.505  1.00  0.00    -0.206 F 
ATOM     79  C   UNL A   1      39.513  32.214  33.069  1.00  0.00     0.060 A 
BRANCH  79  80
ATOM     80  S   UNL A   1      38.007  33.217  32.923  1.00  0.00     0.124 S 
ATOM     81  O   UNL A   1      38.510  34.421  32.275  1.00  0.00    -0.237 OA
ATOM     82  O   UNL A   1      37.161  32.363  32.088  1.00  0.00    -0.237 OA
ATOM     83  O   UNL A   1      37.576  33.369  34.307  1.00  0.00    -0.744 OA
ENDBRANCH  79  80
ENDBRANCH  47  72
BRANCH  59  84
ATOM     84  C   UNL A   1      44.960  24.064  33.468  1.00  0.00     0.058 A 
ATOM     85  C   UNL A   1      44.126  22.953  33.679  1.00  0.00     0.135 A 
ATOM     86  C   UNL A   1      46.264  23.958  34.013  1.00  0.00     0.135 A 
ATOM     87  F   UNL A   1      42.907  22.877  33.125  1.00  0.00    -0.206 F 
ATOM     88  C   UNL A   1      44.531  21.844  34.422  1.00  0.00     0.059 A 
ATOM     89  C   UNL A   1      46.709  22.834  34.703  1.00  0.00     0.059 A 
ATOM     90  F   UNL A   1      47.166  24.942  33.877  1.00  0.00    -0.206 F 
ATOM     91  C   UNL A   1      45.827  21.789  34.922  1.00  0.00     0.060 A 
BRANCH  91  92
ATOM     92  S   UNL A   1      46.392  20.321  35.796  1.00  0.00     0.124 S 
ATOM     93  O   UNL A   1      47.738  20.162  35.257  1.00  0.00    -0.237 OA
ATOM     94  O   UNL A   1      46.318  20.728  37.197  1.00  0.00    -0.237 OA
ATOM     95  O   UNL A   1      45.424  19.305  35.396  1.00  0.00    -0.744 OA
ENDBRANCH  91  92
ENDBRANCH  59  84
ENDBRANCH  33  34
ENDBRANCH  25  28
ENDBRANCH  23  24
ENDBRANCH  22  23
ENDBRANCH   1  22
TORSDOF 19
ENDMDL
MODEL 3
REMARK VINA RESULT:     -12.6      0.858      1.746
REMARK SMILES Cc1ccccc1N(CCC(=O)NCCCNC(=O)c1ccc(-c2c3nc(c(-c4c(F)cc(S(=O)(=O)[O-])cc4F)c4ccc([nH]4)c(-c4c(F)cc(S(=O)(=O)[O-])cc4F)c4nc(c(-c5c(F)cc(S(=O)(=O)[O-])cc5F)c5ccc2[nH]5)C=C4)C=C3)cc1)[C@@H](C)[C@@H](C)O
REMARK SMILES IDX 14 1 13 2 11 3 12 4 10 6 9 7 8 8 7 9 1 10 2 11 3 12 4 13
REMARK SMILES IDX 6 14 5 15 86 16 87 17 88 18 89 19 90 20 15 22 16 23 17 24
REMARK SMILES IDX 18 25 19 27 20 28 21 29 85 30 22 31 84 32 23 33 24 34 25 35
REMARK SMILES IDX 78 36 26 37 83 38 77 39 79 40 27 41 82 42 76 43 75 44 28 46
REMARK SMILES IDX 62 47 41 48 61 49 42 50 45 51 60 52 80 53 43 54 44 55 59 57
REMARK SMILES IDX 81 58 46 59 29 60 30 61 39 62 31 63 32 64 38 65 40 66 33 67
REMARK SMILES IDX 34 68 35 69 36 70 37 71 63 72 64 73 73 74 65 75 66 76 72 77
REMARK SMILES IDX 74 78 67 79 68 80 69 81 70 82 71 83 47 84 48 85 57 86 49 87
REMARK SMILES IDX 50 88 56 89 58 90 51 91 52 92 53 93 54 94 55 95
REMARK H PARENT 13 5 90 21 17 26 79 45 45 56
REMARK Flexibility Score: inf
ROOT
ATOM      1  C   UNL A   1      32.977  30.774  26.693  1.00  0.00     0.117 C 
ENDROOT
BRANCH   1   2
ATOM      2  N   UNL A   1      32.149  29.784  27.409  1.00  0.00    -0.356 N 
ATOM      3  C   UNL A   1      31.934  28.444  27.273  1.00  0.00     0.221 C 
ATOM      4  O   UNL A   1      31.050  27.945  27.981  1.00  0.00    -0.275 OA
ATOM      5  H   UNL A   1      31.638  30.181  28.151  1.00  0.00     0.163 HD
BRANCH   3   6
ATOM      6  C   UNL A   1      32.749  27.552  26.344  1.00  0.00     0.121 C 
BRANCH   6   7
ATOM      7  C   UNL A   1      32.045  26.211  25.978  1.00  0.00     0.127 C 
BRANCH   7   8
ATOM      8  N   UNL A   1      32.321  25.712  24.584  1.00  0.00    -0.366 N 
BRANCH   8   9
ATOM      9  C   UNL A   1      32.691  24.405  24.220  1.00  0.00     0.040 A 
ATOM     10  C   UNL A   1      35.283  24.240  25.011  1.00  0.00     0.046 C 
ATOM     11  C   UNL A   1      33.958  23.746  24.439  1.00  0.00    -0.028 A 
ATOM     12  C   UNL A   1      34.106  22.362  24.138  1.00  0.00     0.005 A 
ATOM     13  C   UNL A   1      33.093  21.610  23.580  1.00  0.00     0.000 A 
ATOM     14  C   UNL A   1      31.721  23.593  23.581  1.00  0.00     0.026 A 
ATOM     15  C   UNL A   1      31.905  22.236  23.276  1.00  0.00     0.002 A 
ENDBRANCH   8   9
BRANCH   8  16
ATOM     16  C   UNL A   1      32.305  26.787  23.602  1.00  0.00     0.107 C 
ATOM     17  C   UNL A   1      33.622  26.719  22.819  1.00  0.00     0.034 C 
BRANCH  16  18
ATOM     18  C   UNL A   1      30.916  26.984  22.917  1.00  0.00     0.133 C 
ATOM     19  C   UNL A   1      30.067  28.049  23.615  1.00  0.00     0.040 C 
BRANCH  18  20
ATOM     20  O   UNL A   1      31.043  27.394  21.554  1.00  0.00    -0.391 OA
ATOM     21  H   UNL A   1      31.950  27.236  21.252  1.00  0.00     0.211 HD
ENDBRANCH  18  20
ENDBRANCH  16  18
ENDBRANCH   8  16
ENDBRANCH   7   8
ENDBRANCH   6   7
ENDBRANCH   3   6
ENDBRANCH   1   2
BRANCH   1  22
ATOM     22  C   UNL A   1      34.398  30.807  27.285  1.00  0.00     0.042 C 
BRANCH  22  23
ATOM     23  C   UNL A   1      34.531  31.018  28.804  1.00  0.00     0.118 C 
BRANCH  23  24
ATOM     24  N   UNL A   1      35.683  31.749  29.321  1.00  0.00    -0.352 N 
ATOM     25  C   UNL A   1      36.969  31.297  29.639  1.00  0.00     0.251 C 
ATOM     26  H   UNL A   1      35.533  32.711  29.469  1.00  0.00     0.163 HD
ATOM     27  O   UNL A   1      37.819  31.967  30.177  1.00  0.00    -0.269 OA
BRANCH  25  28
ATOM     28  C   UNL A   1      37.260  29.892  29.282  1.00  0.00     0.039 A 
ATOM     29  C   UNL A   1      37.548  29.035  30.348  1.00  0.00     0.014 A 
ATOM     30  C   UNL A   1      37.759  29.680  27.999  1.00  0.00     0.014 A 
ATOM     31  C   UNL A   1      38.596  28.138  30.200  1.00  0.00     0.010 A 
ATOM     32  C   UNL A   1      38.830  28.817  27.863  1.00  0.00     0.010 A 
ATOM     33  C   UNL A   1      39.314  28.146  28.998  1.00  0.00    -0.014 A 
BRANCH  33  34
ATOM     34  C   UNL A   1      40.694  27.672  28.963  1.00  0.00     0.031 A 
ATOM     35  C   UNL A   1      40.977  26.319  28.475  1.00  0.00     0.074 A 
ATOM     36  C   UNL A   1      41.704  28.435  29.450  1.00  0.00     0.049 A 
ATOM     37  N   UNL A   1      41.886  25.559  28.979  1.00  0.00    -0.248 NA
ATOM     38  C   UNL A   1      40.209  25.695  27.407  1.00  0.00     0.031 C 
ATOM     39  C   UNL A   1      43.136  28.158  29.392  1.00  0.00     0.029 A 
ATOM     40  N   UNL A   1      41.617  29.568  30.276  1.00  0.00    -0.354 N 
ATOM     41  C   UNL A   1      42.006  24.464  28.158  1.00  0.00     0.074 A 
ATOM     42  C   UNL A   1      40.891  24.557  27.239  1.00  0.00     0.031 C 
ATOM     43  C   UNL A   1      43.746  28.861  30.362  1.00  0.00     0.029 A 
ATOM     44  C   UNL A   1      42.719  29.541  31.139  1.00  0.00     0.049 A 
ATOM     45  H   UNL A   1      40.911  30.254  30.253  1.00  0.00     0.167 HD
ATOM     46  C   UNL A   1      43.117  23.679  28.243  1.00  0.00     0.037 A 
ATOM     47  C   UNL A   1      42.587  29.539  32.492  1.00  0.00     0.037 A 
ATOM     48  C   UNL A   1      44.045  24.183  29.256  1.00  0.00     0.049 A 
ATOM     49  C   UNL A   1      43.208  28.318  33.110  1.00  0.00     0.074 A 
ATOM     50  C   UNL A   1      45.152  25.012  29.160  1.00  0.00     0.029 A 
ATOM     51  N   UNL A   1      43.707  24.140  30.608  1.00  0.00    -0.354 N 
ATOM     52  N   UNL A   1      43.502  27.247  32.427  1.00  0.00    -0.248 NA
ATOM     53  C   UNL A   1      43.546  28.192  34.522  1.00  0.00     0.031 C 
ATOM     54  C   UNL A   1      45.447  25.512  30.452  1.00  0.00     0.029 A 
ATOM     55  C   UNL A   1      44.538  24.968  31.343  1.00  0.00     0.049 A 
ATOM     56  H   UNL A   1      42.979  23.597  30.986  1.00  0.00     0.167 HD
ATOM     57  C   UNL A   1      44.044  26.305  33.257  1.00  0.00     0.074 A 
ATOM     58  C   UNL A   1      44.069  26.954  34.556  1.00  0.00     0.031 C 
ATOM     59  C   UNL A   1      44.419  25.076  32.794  1.00  0.00     0.037 A 
BRANCH  46  60
ATOM     60  C   UNL A   1      43.480  22.701  27.147  1.00  0.00     0.058 A 
ATOM     61  C   UNL A   1      42.807  21.470  27.011  1.00  0.00     0.135 A 
ATOM     62  C   UNL A   1      44.547  22.896  26.247  1.00  0.00     0.135 A 
ATOM     63  F   UNL A   1      41.704  21.191  27.718  1.00  0.00    -0.206 F 
ATOM     64  C   UNL A   1      43.245  20.459  26.155  1.00  0.00     0.059 A 
ATOM     65  C   UNL A   1      45.044  21.879  25.426  1.00  0.00     0.059 A 
ATOM     66  F   UNL A   1      45.132  24.097  26.122  1.00  0.00    -0.206 F 
ATOM     67  C   UNL A   1      44.391  20.654  25.397  1.00  0.00     0.060 A 
BRANCH  67  68
ATOM     68  S   UNL A   1      45.010  19.293  24.391  1.00  0.00     0.124 S 
ATOM     69  O   UNL A   1      46.447  19.343  24.648  1.00  0.00    -0.237 OA
ATOM     70  O   UNL A   1      44.303  18.152  24.961  1.00  0.00    -0.237 OA
ATOM     71  O   UNL A   1      44.614  19.665  23.036  1.00  0.00    -0.744 OA
ENDBRANCH  67  68
ENDBRANCH  46  60
BRANCH  47  72
ATOM     72  C   UNL A   1      41.465  30.339  33.055  1.00  0.00     0.058 A 
ATOM     73  C   UNL A   1      40.269  29.675  33.390  1.00  0.00     0.135 A 
ATOM     74  C   UNL A   1      41.624  31.645  33.540  1.00  0.00     0.135 A 
ATOM     75  F   UNL A   1      40.070  28.410  32.985  1.00  0.00    -0.206 F 
ATOM     76  C   UNL A   1      39.311  30.241  34.233  1.00  0.00     0.059 A 
ATOM     77  C   UNL A   1      40.687  32.228  34.405  1.00  0.00     0.059 A 
ATOM     78  F   UNL A   1      42.738  32.335  33.259  1.00  0.00    -0.206 F 
ATOM     79  C   UNL A   1      39.554  31.501  34.777  1.00  0.00     0.060 A 
BRANCH  79  80
ATOM     80  S   UNL A   1      38.476  32.058  36.127  1.00  0.00     0.124 S 
ATOM     81  O   UNL A   1      39.410  32.791  36.973  1.00  0.00    -0.237 OA
ATOM     82  O   UNL A   1      37.502  32.883  35.410  1.00  0.00    -0.237 OA
ATOM     83  O   UNL A   1      37.961  30.811  36.676  1.00  0.00    -0.744 OA
ENDBRANCH  79  80
ENDBRANCH  47  72
BRANCH  59  84
ATOM     84  C   UNL A   1      44.813  23.893  33.644  1.00  0.00     0.058 A 
ATOM     85  C   UNL A   1      43.927  22.878  34.041  1.00  0.00     0.135 A 
ATOM     86  C   UNL A   1      46.176  23.673  33.966  1.00  0.00     0.135 A 
ATOM     87  F   UNL A   1      42.629  22.909  33.705  1.00  0.00    -0.206 F 
ATOM     88  C   UNL A   1      44.347  21.756  34.755  1.00  0.00     0.059 A 
ATOM     89  C   UNL A   1      46.625  22.530  34.621  1.00  0.00     0.059 A 
ATOM     90  F   UNL A   1      47.128  24.557  33.636  1.00  0.00    -0.206 F 
ATOM     91  C   UNL A   1      45.699  21.585  35.032  1.00  0.00     0.060 A 
BRANCH  91  92
ATOM     92  S   UNL A   1      46.265  20.093  35.864  1.00  0.00     0.124 S 
ATOM     93  O   UNL A   1      45.545  19.059  35.128  1.00  0.00    -0.237 OA
ATOM     94  O   UNL A   1      47.710  20.130  35.647  1.00  0.00    -0.237 OA
ATOM     95  O   UNL A   1      45.842  20.303  37.244  1.00  0.00    -0.744 OA
ENDBRANCH  91  92
ENDBRANCH  59  84
ENDBRANCH  33  34
ENDBRANCH  25  28
ENDBRANCH  23  24
ENDBRANCH  22  23
ENDBRANCH   1  22
TORSDOF 19
ENDMDL
