MODEL 1
REMARK VINA RESULT:     -13.0      0.000      0.000
REMARK SMILES O=C(Cn1cccc1C(=O)NCCCNC(=O)c1ccc(-c2c3nc(c(-c4c(F)cc(S(=O)(=O)[O-])cc4F)c4ccc([nH]4)c(-c4c(F)cc(S(=O)(=O)[O-])cc4F)c4nc(c(-c5c(F)cc(S(=O)(=O)[O-])cc5F)c5ccc2[nH]5)C=C4)C=C3)cc1)Nc1cccc(Br)c1
REMARK SMILES IDX 13 1 12 2 11 3 9 4 10 5 8 7 4 8 5 9 6 10 7 11 3 12 2 13 1 14
REMARK SMILES IDX 84 15 85 17 86 18 91 19 87 20 89 21 88 22 90 23 14 24 15 25
REMARK SMILES IDX 16 26 17 28 18 29 19 30 83 31 20 32 82 33 21 34 22 35 23 36
REMARK SMILES IDX 76 37 24 38 81 39 75 40 77 41 25 42 80 43 74 44 73 45 26 47
REMARK SMILES IDX 60 48 39 49 59 50 40 51 43 52 58 53 78 54 41 55 42 56 57 58
REMARK SMILES IDX 79 59 44 60 27 61 28 62 37 63 29 64 30 65 36 66 38 67 31 68
REMARK SMILES IDX 32 69 33 70 34 71 35 72 61 73 62 74 71 75 63 76 64 77 70 78
REMARK SMILES IDX 72 79 65 80 66 81 67 82 68 83 69 84 45 85 46 86 55 87 47 88
REMARK SMILES IDX 48 89 54 90 56 91 49 92 50 93 51 94 52 95 53 96
REMARK H PARENT 11 6 84 16 15 27 77 46 43 57
REMARK Flexibility Score: inf
ROOT
ATOM      1  C   UNL A   1      33.413  28.508  27.370  1.00  0.00     0.042 C 
ENDROOT
BRANCH   1   2
ATOM      2  C   UNL A   1      32.289  28.078  26.431  1.00  0.00     0.118 C 
BRANCH   2   3
ATOM      3  N   UNL A   1      31.625  26.860  26.847  1.00  0.00    -0.351 N 
ATOM      4  C   UNL A   1      31.803  25.575  26.413  1.00  0.00     0.267 C 
ATOM      5  O   UNL A   1      31.069  24.713  26.883  1.00  0.00    -0.268 OA
ATOM      6  H   UNL A   1      30.943  26.973  27.547  1.00  0.00     0.163 HD
BRANCH   4   7
ATOM      7  C   UNL A   1      32.839  25.256  25.457  1.00  0.00     0.107 A 
ATOM      8  N   UNL A   1      32.810  25.044  24.090  1.00  0.00    -0.334 N 
ATOM      9  C   UNL A   1      34.025  24.464  23.734  1.00  0.00     0.087 A 
ATOM     10  C   UNL A   1      34.915  24.643  24.760  1.00  0.00     0.020 A 
ATOM     11  C   UNL A   1      34.186  25.210  25.818  1.00  0.00     0.033 A 
BRANCH   8  12
ATOM     12  C   UNL A   1      31.794  25.219  23.042  1.00  0.00     0.222 C 
BRANCH  12  13
ATOM     13  C   UNL A   1      31.109  26.524  22.666  1.00  0.00     0.244 C 
ATOM     14  O   UNL A   1      31.137  26.849  21.473  1.00  0.00    -0.273 OA
ATOM     15  N   UNL A   1      30.427  27.227  23.620  1.00  0.00    -0.325 N 
ATOM     16  H   UNL A   1      30.651  27.009  24.554  1.00  0.00     0.169 HD
BRANCH  15  17
ATOM     17  C   UNL A   1      29.441  28.225  23.441  1.00  0.00     0.042 A 
ATOM     18  C   UNL A   1      28.111  27.780  23.370  1.00  0.00     0.026 A 
ATOM     19  C   UNL A   1      29.706  29.588  23.284  1.00  0.00     0.041 A 
ATOM     20  C   UNL A   1      27.060  28.679  23.181  1.00  0.00     0.003 A 
ATOM     21  C   UNL A   1      28.646  30.487  23.105  1.00  0.00     0.020 A 
ATOM     22  C   UNL A   1      27.326  30.039  23.065  1.00  0.00     0.016 A 
ATOM     23  Br  UNL A   1      29.007  32.324  22.826  1.00  0.00    -0.051 Br
ENDBRANCH  15  17
ENDBRANCH  12  13
ENDBRANCH   8  12
ENDBRANCH   4   7
ENDBRANCH   2   3
ENDBRANCH   1   2
BRANCH   1  24
ATOM     24  C   UNL A   1      34.569  29.207  26.653  1.00  0.00     0.118 C 
BRANCH  24  25
ATOM     25  N   UNL A   1      34.934  30.494  27.229  1.00  0.00    -0.352 N 
ATOM     26  C   UNL A   1      35.995  30.794  28.060  1.00  0.00     0.251 C 
ATOM     27  H   UNL A   1      34.347  31.249  26.994  1.00  0.00     0.163 HD
ATOM     28  O   UNL A   1      36.014  31.883  28.631  1.00  0.00    -0.269 OA
BRANCH  26  29
ATOM     29  C   UNL A   1      37.094  29.820  28.296  1.00  0.00     0.039 A 
ATOM     30  C   UNL A   1      38.141  29.727  27.372  1.00  0.00     0.014 A 
ATOM     31  C   UNL A   1      37.086  28.967  29.403  1.00  0.00     0.014 A 
ATOM     32  C   UNL A   1      39.209  28.860  27.614  1.00  0.00     0.010 A 
ATOM     33  C   UNL A   1      38.133  28.084  29.643  1.00  0.00     0.010 A 
ATOM     34  C   UNL A   1      39.223  28.071  28.776  1.00  0.00    -0.014 A 
BRANCH  34  35
ATOM     35  C   UNL A   1      40.504  27.491  29.248  1.00  0.00     0.031 A 
ATOM     36  C   UNL A   1      40.835  26.198  28.445  1.00  0.00     0.074 A 
ATOM     37  C   UNL A   1      41.166  28.140  30.259  1.00  0.00     0.049 A 
ATOM     38  N   UNL A   1      41.508  25.144  28.786  1.00  0.00    -0.248 NA
ATOM     39  C   UNL A   1      40.255  26.016  27.078  1.00  0.00     0.031 C 
ATOM     40  C   UNL A   1      40.749  29.433  30.849  1.00  0.00     0.029 A 
ATOM     41  N   UNL A   1      42.309  27.875  30.991  1.00  0.00    -0.354 N 
ATOM     42  C   UNL A   1      41.613  24.301  27.647  1.00  0.00     0.074 A 
ATOM     43  C   UNL A   1      40.714  24.830  26.673  1.00  0.00     0.031 C 
ATOM     44  C   UNL A   1      41.550  29.780  31.884  1.00  0.00     0.029 A 
ATOM     45  C   UNL A   1      42.575  28.771  32.072  1.00  0.00     0.049 A 
ATOM     46  H   UNL A   1      42.902  27.118  30.781  1.00  0.00     0.167 HD
ATOM     47  C   UNL A   1      42.539  23.300  27.535  1.00  0.00     0.037 A 
ATOM     48  C   UNL A   1      43.521  28.677  33.066  1.00  0.00     0.037 A 
ATOM     49  C   UNL A   1      43.323  23.262  28.722  1.00  0.00     0.049 A 
ATOM     50  C   UNL A   1      44.369  27.549  32.662  1.00  0.00     0.074 A 
ATOM     51  C   UNL A   1      43.028  22.862  29.997  1.00  0.00     0.029 A 
ATOM     52  N   UNL A   1      44.453  24.044  28.731  1.00  0.00    -0.354 N 
ATOM     53  N   UNL A   1      45.230  27.585  31.692  1.00  0.00    -0.248 NA
ATOM     54  C   UNL A   1      44.191  26.257  33.338  1.00  0.00     0.031 C 
ATOM     55  C   UNL A   1      43.685  23.825  30.783  1.00  0.00     0.029 A 
ATOM     56  C   UNL A   1      44.551  24.583  29.986  1.00  0.00     0.049 A 
ATOM     57  H   UNL A   1      45.073  24.188  27.979  1.00  0.00     0.167 HD
ATOM     58  C   UNL A   1      45.420  26.254  31.428  1.00  0.00     0.074 A 
ATOM     59  C   UNL A   1      45.051  25.533  32.629  1.00  0.00     0.031 C 
ATOM     60  C   UNL A   1      45.293  25.811  30.152  1.00  0.00     0.037 A 
BRANCH  47  61
ATOM     61  C   UNL A   1      43.035  22.450  26.391  1.00  0.00     0.058 A 
ATOM     62  C   UNL A   1      42.618  21.091  26.354  1.00  0.00     0.135 A 
ATOM     63  C   UNL A   1      44.131  22.776  25.581  1.00  0.00     0.135 A 
ATOM     64  F   UNL A   1      41.526  20.688  27.025  1.00  0.00    -0.206 F 
ATOM     65  C   UNL A   1      43.341  20.099  25.703  1.00  0.00     0.059 A 
ATOM     66  C   UNL A   1      44.846  21.798  24.878  1.00  0.00     0.059 A 
ATOM     67  F   UNL A   1      44.588  24.034  25.513  1.00  0.00    -0.206 F 
ATOM     68  C   UNL A   1      44.480  20.457  24.998  1.00  0.00     0.060 A 
BRANCH  68  69
ATOM     69  S   UNL A   1      45.485  19.138  24.283  1.00  0.00     0.124 S 
ATOM     70  O   UNL A   1      46.816  19.732  24.306  1.00  0.00    -0.237 OA
ATOM     71  O   UNL A   1      45.267  18.040  25.221  1.00  0.00    -0.237 OA
ATOM     72  O   UNL A   1      44.896  18.948  22.961  1.00  0.00    -0.744 OA
ENDBRANCH  68  69
ENDBRANCH  47  61
BRANCH  48  73
ATOM     73  C   UNL A   1      43.861  29.283  34.422  1.00  0.00     0.058 A 
ATOM     74  C   UNL A   1      44.876  30.209  34.695  1.00  0.00     0.135 A 
ATOM     75  C   UNL A   1      42.997  29.040  35.536  1.00  0.00     0.135 A 
ATOM     76  F   UNL A   1      45.859  30.428  33.814  1.00  0.00    -0.206 F 
ATOM     77  C   UNL A   1      44.911  30.961  35.891  1.00  0.00     0.059 A 
ATOM     78  C   UNL A   1      42.972  29.810  36.696  1.00  0.00     0.059 A 
ATOM     79  F   UNL A   1      42.090  28.053  35.529  1.00  0.00    -0.206 F 
ATOM     80  C   UNL A   1      43.912  30.804  36.852  1.00  0.00     0.060 A 
BRANCH  80  81
ATOM     81  S   UNL A   1      43.735  31.970  38.222  1.00  0.00     0.124 S 
ATOM     82  O   UNL A   1      43.698  33.254  37.533  1.00  0.00    -0.237 OA
ATOM     83  O   UNL A   1      42.483  31.540  38.840  1.00  0.00    -0.237 OA
ATOM     84  O   UNL A   1      44.929  31.723  39.029  1.00  0.00    -0.744 OA
ENDBRANCH  80  81
ENDBRANCH  48  73
BRANCH  60  85
ATOM     85  C   UNL A   1      45.605  26.844  29.081  1.00  0.00     0.058 A 
ATOM     86  C   UNL A   1      46.914  27.345  28.961  1.00  0.00     0.135 A 
ATOM     87  C   UNL A   1      44.650  27.429  28.230  1.00  0.00     0.135 A 
ATOM     88  F   UNL A   1      47.894  26.843  29.730  1.00  0.00    -0.206 F 
ATOM     89  C   UNL A   1      47.252  28.356  28.057  1.00  0.00     0.059 A 
ATOM     90  C   UNL A   1      44.961  28.436  27.309  1.00  0.00     0.059 A 
ATOM     91  F   UNL A   1      43.375  27.040  28.273  1.00  0.00    -0.206 F 
ATOM     92  C   UNL A   1      46.270  28.896  27.228  1.00  0.00     0.060 A 
BRANCH  92  93
ATOM     93  S   UNL A   1      46.733  30.174  26.037  1.00  0.00     0.124 S 
ATOM     94  O   UNL A   1      46.679  29.456  24.766  1.00  0.00    -0.237 OA
ATOM     95  O   UNL A   1      45.689  31.173  26.240  1.00  0.00    -0.237 OA
ATOM     96  O   UNL A   1      48.072  30.577  26.462  1.00  0.00    -0.744 OA
ENDBRANCH  92  93
ENDBRANCH  60  85
ENDBRANCH  34  35
ENDBRANCH  26  29
ENDBRANCH  24  25
ENDBRANCH   1  24
TORSDOF 16
ENDMDL
MODEL 2
REMARK VINA RESULT:     -12.6      1.939      3.307
REMARK SMILES O=C(Cn1cccc1C(=O)NCCCNC(=O)c1ccc(-c2c3nc(c(-c4c(F)cc(S(=O)(=O)[O-])cc4F)c4ccc([nH]4)c(-c4c(F)cc(S(=O)(=O)[O-])cc4F)c4nc(c(-c5c(F)cc(S(=O)(=O)[O-])cc5F)c5ccc2[nH]5)C=C4)C=C3)cc1)Nc1cccc(Br)c1
REMARK SMILES IDX 13 1 12 2 11 3 9 4 10 5 8 7 4 8 5 9 6 10 7 11 3 12 2 13 1 14
REMARK SMILES IDX 84 15 85 17 86 18 91 19 87 20 89 21 88 22 90 23 14 24 15 25
REMARK SMILES IDX 16 26 17 28 18 29 19 30 83 31 20 32 82 33 21 34 22 35 23 36
REMARK SMILES IDX 76 37 24 38 81 39 75 40 77 41 25 42 80 43 74 44 73 45 26 47
REMARK SMILES IDX 60 48 39 49 59 50 40 51 43 52 58 53 78 54 41 55 42 56 57 58
REMARK SMILES IDX 79 59 44 60 27 61 28 62 37 63 29 64 30 65 36 66 38 67 31 68
REMARK SMILES IDX 32 69 33 70 34 71 35 72 61 73 62 74 71 75 63 76 64 77 70 78
REMARK SMILES IDX 72 79 65 80 66 81 67 82 68 83 69 84 45 85 46 86 55 87 47 88
REMARK SMILES IDX 48 89 54 90 56 91 49 92 50 93 51 94 52 95 53 96
REMARK H PARENT 11 6 84 16 15 27 77 46 43 57
REMARK Flexibility Score: inf
ROOT
ATOM      1  C   UNL A   1      33.168  28.746  27.134  1.00  0.00     0.042 C 
ENDROOT
BRANCH   1   2
ATOM      2  C   UNL A   1      32.802  27.354  26.624  1.00  0.00     0.118 C 
BRANCH   2   3
ATOM      3  N   UNL A   1      31.515  27.304  25.962  1.00  0.00    -0.351 N 
ATOM      4  C   UNL A   1      31.201  27.494  24.644  1.00  0.00     0.267 C 
ATOM      5  O   UNL A   1      30.015  27.457  24.335  1.00  0.00    -0.268 OA
ATOM      6  H   UNL A   1      30.750  27.102  26.548  1.00  0.00     0.163 HD
BRANCH   4   7
ATOM      7  C   UNL A   1      32.239  27.702  23.660  1.00  0.00     0.107 A 
ATOM      8  N   UNL A   1      32.751  26.892  22.663  1.00  0.00    -0.334 N 
ATOM      9  C   UNL A   1      33.939  27.472  22.226  1.00  0.00     0.087 A 
ATOM     10  C   UNL A   1      33.982  28.770  22.663  1.00  0.00     0.020 A 
ATOM     11  C   UNL A   1      32.871  28.936  23.506  1.00  0.00     0.033 A 
BRANCH   8  12
ATOM     12  C   UNL A   1      32.359  25.599  22.084  1.00  0.00     0.222 C 
BRANCH  12  13
ATOM     13  C   UNL A   1      32.992  24.250  22.389  1.00  0.00     0.244 C 
ATOM     14  O   UNL A   1      33.334  23.558  21.424  1.00  0.00    -0.273 OA
ATOM     15  N   UNL A   1      33.239  23.900  23.688  1.00  0.00    -0.325 N 
ATOM     16  H   UNL A   1      32.737  24.404  24.370  1.00  0.00     0.169 HD
BRANCH  15  17
ATOM     17  C   UNL A   1      34.119  22.909  24.181  1.00  0.00     0.042 A 
ATOM     18  C   UNL A   1      33.585  21.619  24.328  1.00  0.00     0.026 A 
ATOM     19  C   UNL A   1      35.440  23.141  24.571  1.00  0.00     0.041 A 
ATOM     20  C   UNL A   1      34.362  20.569  24.820  1.00  0.00     0.003 A 
ATOM     21  C   UNL A   1      36.219  22.081  25.054  1.00  0.00     0.020 A 
ATOM     22  C   UNL A   1      35.689  20.796  25.168  1.00  0.00     0.016 A 
ATOM     23  Br  UNL A   1      37.988  22.405  25.645  1.00  0.00    -0.051 Br
ENDBRANCH  15  17
ENDBRANCH  12  13
ENDBRANCH   8  12
ENDBRANCH   4   7
ENDBRANCH   2   3
ENDBRANCH   1   2
BRANCH   1  24
ATOM     24  C   UNL A   1      34.579  29.186  26.740  1.00  0.00     0.118 C 
BRANCH  24  25
ATOM     25  N   UNL A   1      34.965  30.486  27.269  1.00  0.00    -0.352 N 
ATOM     26  C   UNL A   1      36.050  30.804  28.062  1.00  0.00     0.251 C 
ATOM     27  H   UNL A   1      34.375  31.237  27.030  1.00  0.00     0.163 HD
ATOM     28  O   UNL A   1      36.090  31.908  28.601  1.00  0.00    -0.269 OA
BRANCH  26  29
ATOM     29  C   UNL A   1      37.151  29.831  28.295  1.00  0.00     0.039 A 
ATOM     30  C   UNL A   1      38.216  29.767  27.389  1.00  0.00     0.014 A 
ATOM     31  C   UNL A   1      37.128  28.951  29.381  1.00  0.00     0.014 A 
ATOM     32  C   UNL A   1      39.285  28.901  27.631  1.00  0.00     0.010 A 
ATOM     33  C   UNL A   1      38.176  28.069  29.619  1.00  0.00     0.010 A 
ATOM     34  C   UNL A   1      39.282  28.084  28.773  1.00  0.00    -0.014 A 
BRANCH  34  35
ATOM     35  C   UNL A   1      40.557  27.500  29.255  1.00  0.00     0.031 A 
ATOM     36  C   UNL A   1      40.897  26.213  28.447  1.00  0.00     0.074 A 
ATOM     37  C   UNL A   1      41.208  28.142  30.277  1.00  0.00     0.049 A 
ATOM     38  N   UNL A   1      41.566  25.156  28.788  1.00  0.00    -0.248 NA
ATOM     39  C   UNL A   1      40.332  26.041  27.072  1.00  0.00     0.031 C 
ATOM     40  C   UNL A   1      40.785  29.432  30.872  1.00  0.00     0.029 A 
ATOM     41  N   UNL A   1      42.343  27.873  31.021  1.00  0.00    -0.354 N 
ATOM     42  C   UNL A   1      41.684  24.321  27.644  1.00  0.00     0.074 A 
ATOM     43  C   UNL A   1      40.796  24.857  26.664  1.00  0.00     0.031 C 
ATOM     44  C   UNL A   1      41.575  29.771  31.918  1.00  0.00     0.029 A 
ATOM     45  C   UNL A   1      42.597  28.761  32.110  1.00  0.00     0.049 A 
ATOM     46  H   UNL A   1      42.939  27.117  30.812  1.00  0.00     0.167 HD
ATOM     47  C   UNL A   1      42.611  23.321  27.536  1.00  0.00     0.037 A 
ATOM     48  C   UNL A   1      43.532  28.660  33.114  1.00  0.00     0.037 A 
ATOM     49  C   UNL A   1      43.382  23.275  28.731  1.00  0.00     0.049 A 
ATOM     50  C   UNL A   1      44.384  27.535  32.712  1.00  0.00     0.074 A 
ATOM     51  C   UNL A   1      43.073  22.866  30.000  1.00  0.00     0.029 A 
ATOM     52  N   UNL A   1      44.512  24.057  28.758  1.00  0.00    -0.354 N 
ATOM     53  N   UNL A   1      45.257  27.577  31.752  1.00  0.00    -0.248 NA
ATOM     54  C   UNL A   1      44.199  26.239  33.377  1.00  0.00     0.031 C 
ATOM     55  C   UNL A   1      43.721  23.824  30.800  1.00  0.00     0.029 A 
ATOM     56  C   UNL A   1      44.596  24.587  30.018  1.00  0.00     0.049 A 
ATOM     57  H   UNL A   1      45.140  24.206  28.014  1.00  0.00     0.167 HD
ATOM     58  C   UNL A   1      45.449  26.248  31.481  1.00  0.00     0.074 A 
ATOM     59  C   UNL A   1      45.067  25.519  32.672  1.00  0.00     0.031 C 
ATOM     60  C   UNL A   1      45.336  25.813  30.200  1.00  0.00     0.037 A 
BRANCH  47  61
ATOM     61  C   UNL A   1      43.119  22.479  26.392  1.00  0.00     0.058 A 
ATOM     62  C   UNL A   1      42.670  21.132  26.318  1.00  0.00     0.135 A 
ATOM     63  C   UNL A   1      44.246  22.791  25.620  1.00  0.00     0.135 A 
ATOM     64  F   UNL A   1      41.549  20.745  26.950  1.00  0.00    -0.206 F 
ATOM     65  C   UNL A   1      43.387  20.133  25.671  1.00  0.00     0.059 A 
ATOM     66  C   UNL A   1      44.957  21.807  24.921  1.00  0.00     0.059 A 
ATOM     67  F   UNL A   1      44.735  24.038  25.588  1.00  0.00    -0.206 F 
ATOM     68  C   UNL A   1      44.555  20.474  25.006  1.00  0.00     0.060 A 
BRANCH  68  69
ATOM     69  S   UNL A   1      45.548  19.143  24.296  1.00  0.00     0.124 S 
ATOM     70  O   UNL A   1      44.945  18.993  22.976  1.00  0.00    -0.237 OA
ATOM     71  O   UNL A   1      46.891  19.714  24.316  1.00  0.00    -0.237 OA
ATOM     72  O   UNL A   1      45.333  18.035  25.222  1.00  0.00    -0.744 OA
ENDBRANCH  68  69
ENDBRANCH  47  61
BRANCH  48  73
ATOM     73  C   UNL A   1      43.858  29.257  34.478  1.00  0.00     0.058 A 
ATOM     74  C   UNL A   1      44.981  30.025  34.809  1.00  0.00     0.135 A 
ATOM     75  C   UNL A   1      42.883  29.192  35.523  1.00  0.00     0.135 A 
ATOM     76  F   UNL A   1      46.051  30.057  34.007  1.00  0.00    -0.206 F 
ATOM     77  C   UNL A   1      45.041  30.806  35.985  1.00  0.00     0.059 A 
ATOM     78  C   UNL A   1      42.889  29.999  36.657  1.00  0.00     0.059 A 
ATOM     79  F   UNL A   1      41.836  28.356  35.466  1.00  0.00    -0.206 F 
ATOM     80  C   UNL A   1      43.959  30.842  36.865  1.00  0.00     0.060 A 
BRANCH  80  81
ATOM     81  S   UNL A   1      43.861  32.071  38.187  1.00  0.00     0.124 S 
ATOM     82  O   UNL A   1      43.794  31.237  39.380  1.00  0.00    -0.237 OA
ATOM     83  O   UNL A   1      45.097  32.827  38.004  1.00  0.00    -0.237 OA
ATOM     84  O   UNL A   1      42.641  32.810  37.867  1.00  0.00    -0.744 OA
ENDBRANCH  80  81
ENDBRANCH  48  73
BRANCH  60  85
ATOM     85  C   UNL A   1      45.660  26.854  29.140  1.00  0.00     0.058 A 
ATOM     86  C   UNL A   1      46.970  27.353  29.036  1.00  0.00     0.135 A 
ATOM     87  C   UNL A   1      44.714  27.446  28.284  1.00  0.00     0.135 A 
ATOM     88  F   UNL A   1      47.942  26.844  29.810  1.00  0.00    -0.206 F 
ATOM     89  C   UNL A   1      47.319  28.371  28.142  1.00  0.00     0.059 A 
ATOM     90  C   UNL A   1      45.036  28.460  27.373  1.00  0.00     0.059 A 
ATOM     91  F   UNL A   1      43.438  27.059  28.312  1.00  0.00    -0.206 F 
ATOM     92  C   UNL A   1      46.346  28.918  27.309  1.00  0.00     0.060 A 
BRANCH  92  93
ATOM     93  S   UNL A   1      46.822  30.204  26.130  1.00  0.00     0.124 S 
ATOM     94  O   UNL A   1      48.215  30.460  26.488  1.00  0.00    -0.237 OA
ATOM     95  O   UNL A   1      46.613  29.537  24.849  1.00  0.00    -0.237 OA
ATOM     96  O   UNL A   1      45.899  31.299  26.420  1.00  0.00    -0.744 OA
ENDBRANCH  92  93
ENDBRANCH  60  85
ENDBRANCH  34  35
ENDBRANCH  26  29
ENDBRANCH  24  25
ENDBRANCH   1  24
TORSDOF 16
ENDMDL
MODEL 3
REMARK VINA RESULT:     -12.4      4.074      6.245
REMARK SMILES O=C(Cn1cccc1C(=O)NCCCNC(=O)c1ccc(-c2c3nc(c(-c4c(F)cc(S(=O)(=O)[O-])cc4F)c4ccc([nH]4)c(-c4c(F)cc(S(=O)(=O)[O-])cc4F)c4nc(c(-c5c(F)cc(S(=O)(=O)[O-])cc5F)c5ccc2[nH]5)C=C4)C=C3)cc1)Nc1cccc(Br)c1
REMARK SMILES IDX 13 1 12 2 11 3 9 4 10 5 8 7 4 8 5 9 6 10 7 11 3 12 2 13 1 14
REMARK SMILES IDX 84 15 85 17 86 18 91 19 87 20 89 21 88 22 90 23 14 24 15 25
REMARK SMILES IDX 16 26 17 28 18 29 19 30 83 31 20 32 82 33 21 34 22 35 23 36
REMARK SMILES IDX 76 37 24 38 81 39 75 40 77 41 25 42 80 43 74 44 73 45 26 47
REMARK SMILES IDX 60 48 39 49 59 50 40 51 43 52 58 53 78 54 41 55 42 56 57 58
REMARK SMILES IDX 79 59 44 60 27 61 28 62 37 63 29 64 30 65 36 66 38 67 31 68
REMARK SMILES IDX 32 69 33 70 34 71 35 72 61 73 62 74 71 75 63 76 64 77 70 78
REMARK SMILES IDX 72 79 65 80 66 81 67 82 68 83 69 84 45 85 46 86 55 87 47 88
REMARK SMILES IDX 48 89 54 90 56 91 49 92 50 93 51 94 52 95 53 96
REMARK H PARENT 11 6 84 16 15 27 77 46 43 57
REMARK Flexibility Score: inf
ROOT
ATOM      1  C   UNL A   1      36.618  31.119  32.317  1.00  0.00     0.042 C 
ENDROOT
BRANCH   1   2
ATOM      2  C   UNL A   1      37.931  30.518  32.814  1.00  0.00     0.118 C 
BRANCH   2   3
ATOM      3  N   UNL A   1      37.896  30.134  34.210  1.00  0.00    -0.351 N 
ATOM      4  C   UNL A   1      38.373  30.790  35.311  1.00  0.00     0.267 C 
ATOM      5  O   UNL A   1      38.275  30.224  36.394  1.00  0.00    -0.268 OA
ATOM      6  H   UNL A   1      37.464  29.269  34.395  1.00  0.00     0.163 HD
BRANCH   4   7
ATOM      7  C   UNL A   1      38.944  32.113  35.191  1.00  0.00     0.107 A 
ATOM      8  N   UNL A   1      38.373  33.371  35.140  1.00  0.00    -0.334 N 
ATOM      9  C   UNL A   1      39.358  34.257  34.707  1.00  0.00     0.087 A 
ATOM     10  C   UNL A   1      40.580  33.652  34.837  1.00  0.00     0.020 A 
ATOM     11  C   UNL A   1      40.323  32.324  35.214  1.00  0.00     0.033 A 
BRANCH   8  12
ATOM     12  C   UNL A   1      37.016  33.896  35.353  1.00  0.00     0.222 C 
BRANCH  12  13
ATOM     13  C   UNL A   1      35.910  33.973  34.312  1.00  0.00     0.244 C 
ATOM     14  O   UNL A   1      34.941  33.223  34.467  1.00  0.00    -0.273 OA
ATOM     15  N   UNL A   1      35.984  34.910  33.318  1.00  0.00    -0.325 N 
ATOM     16  H   UNL A   1      36.877  35.292  33.156  1.00  0.00     0.169 HD
BRANCH  15  17
ATOM     17  C   UNL A   1      34.946  35.402  32.494  1.00  0.00     0.042 A 
ATOM     18  C   UNL A   1      34.167  36.441  33.028  1.00  0.00     0.026 A 
ATOM     19  C   UNL A   1      34.622  34.895  31.233  1.00  0.00     0.041 A 
ATOM     20  C   UNL A   1      33.107  36.991  32.305  1.00  0.00     0.003 A 
ATOM     21  C   UNL A   1      33.564  35.459  30.507  1.00  0.00     0.020 A 
ATOM     22  C   UNL A   1      32.814  36.511  31.033  1.00  0.00     0.016 A 
ATOM     23  Br  UNL A   1      33.082  34.731  28.827  1.00  0.00    -0.051 Br
ENDBRANCH  15  17
ENDBRANCH  12  13
ENDBRANCH   8  12
ENDBRANCH   4   7
ENDBRANCH   2   3
ENDBRANCH   1   2
BRANCH   1  24
ATOM     24  C   UNL A   1      36.792  32.046  31.113  1.00  0.00     0.118 C 
BRANCH  24  25
ATOM     25  N   UNL A   1      35.941  31.712  29.979  1.00  0.00    -0.352 N 
ATOM     26  C   UNL A   1      36.192  30.831  28.946  1.00  0.00     0.251 C 
ATOM     27  H   UNL A   1      35.073  32.175  29.946  1.00  0.00     0.163 HD
ATOM     28  O   UNL A   1      35.460  30.849  27.958  1.00  0.00    -0.269 OA
BRANCH  26  29
ATOM     29  C   UNL A   1      37.340  29.887  28.994  1.00  0.00     0.039 A 
ATOM     30  C   UNL A   1      38.465  30.132  28.197  1.00  0.00     0.014 A 
ATOM     31  C   UNL A   1      37.308  28.739  29.790  1.00  0.00     0.014 A 
ATOM     32  C   UNL A   1      39.574  29.286  28.279  1.00  0.00     0.010 A 
ATOM     33  C   UNL A   1      38.397  27.877  29.863  1.00  0.00     0.010 A 
ATOM     34  C   UNL A   1      39.553  28.183  29.148  1.00  0.00    -0.014 A 
BRANCH  34  35
ATOM     35  C   UNL A   1      40.831  27.551  29.555  1.00  0.00     0.031 A 
ATOM     36  C   UNL A   1      41.103  26.285  28.690  1.00  0.00     0.074 A 
ATOM     37  C   UNL A   1      41.541  28.140  30.570  1.00  0.00     0.049 A 
ATOM     38  N   UNL A   1      41.758  25.201  28.965  1.00  0.00    -0.248 NA
ATOM     39  C   UNL A   1      40.477  26.176  27.335  1.00  0.00     0.031 C 
ATOM     40  C   UNL A   1      41.177  29.418  31.226  1.00  0.00     0.029 A 
ATOM     41  N   UNL A   1      42.699  27.817  31.256  1.00  0.00    -0.354 N 
ATOM     42  C   UNL A   1      41.806  24.404  27.790  1.00  0.00     0.074 A 
ATOM     43  C   UNL A   1      40.893  24.996  26.867  1.00  0.00     0.031 C 
ATOM     44  C   UNL A   1      42.018  29.700  32.249  1.00  0.00     0.029 A 
ATOM     45  C   UNL A   1      43.021  28.659  32.363  1.00  0.00     0.049 A 
ATOM     46  H   UNL A   1      43.265  27.054  30.996  1.00  0.00     0.167 HD
ATOM     47  C   UNL A   1      42.701  23.385  27.608  1.00  0.00     0.037 A 
ATOM     48  C   UNL A   1      43.994  28.499  33.322  1.00  0.00     0.037 A 
ATOM     49  C   UNL A   1      43.520  23.278  28.767  1.00  0.00     0.049 A 
ATOM     50  C   UNL A   1      44.798  27.368  32.846  1.00  0.00     0.074 A 
ATOM     51  C   UNL A   1      43.253  22.832  30.033  1.00  0.00     0.029 A 
ATOM     52  N   UNL A   1      44.670  24.030  28.773  1.00  0.00    -0.354 N 
ATOM     53  N   UNL A   1      45.631  27.423  31.851  1.00  0.00    -0.248 NA
ATOM     54  C   UNL A   1      44.607  26.054  33.473  1.00  0.00     0.031 C 
ATOM     55  C   UNL A   1      43.959  23.745  30.838  1.00  0.00     0.029 A 
ATOM     56  C   UNL A   1      44.820  24.513  30.046  1.00  0.00     0.049 A 
ATOM     57  H   UNL A   1      45.271  24.190  28.009  1.00  0.00     0.167 HD
ATOM     58  C   UNL A   1      45.776  26.099  31.527  1.00  0.00     0.074 A 
ATOM     59  C   UNL A   1      45.426  25.339  32.708  1.00  0.00     0.031 C 
ATOM     60  C   UNL A   1      45.599  25.714  30.238  1.00  0.00     0.037 A 
BRANCH  47  61
ATOM     61  C   UNL A   1      43.139  22.572  26.415  1.00  0.00     0.058 A 
ATOM     62  C   UNL A   1      42.669  21.234  26.325  1.00  0.00     0.135 A 
ATOM     63  C   UNL A   1      44.229  22.894  25.596  1.00  0.00     0.135 A 
ATOM     64  F   UNL A   1      41.577  20.840  27.003  1.00  0.00    -0.206 F 
ATOM     65  C   UNL A   1      43.339  20.246  25.613  1.00  0.00     0.059 A 
ATOM     66  C   UNL A   1      44.891  21.924  24.832  1.00  0.00     0.059 A 
ATOM     67  F   UNL A   1      44.733  24.136  25.575  1.00  0.00    -0.206 F 
ATOM     68  C   UNL A   1      44.476  20.593  24.899  1.00  0.00     0.060 A 
BRANCH  68  69
ATOM     69  S   UNL A   1      45.413  19.272  24.101  1.00  0.00     0.124 S 
ATOM     70  O   UNL A   1      44.782  19.211  22.787  1.00  0.00    -0.237 OA
ATOM     71  O   UNL A   1      46.774  19.801  24.124  1.00  0.00    -0.237 OA
ATOM     72  O   UNL A   1      45.182  18.124  24.971  1.00  0.00    -0.744 OA
ENDBRANCH  68  69
ENDBRANCH  47  61
BRANCH  48  73
ATOM     73  C   UNL A   1      44.391  29.039  34.691  1.00  0.00     0.058 A 
ATOM     74  C   UNL A   1      45.584  29.694  35.018  1.00  0.00     0.135 A 
ATOM     75  C   UNL A   1      43.428  29.046  35.749  1.00  0.00     0.135 A 
ATOM     76  F   UNL A   1      46.643  29.642  34.201  1.00  0.00    -0.206 F 
ATOM     77  C   UNL A   1      45.733  30.446  36.205  1.00  0.00     0.059 A 
ATOM     78  C   UNL A   1      43.524  29.829  36.896  1.00  0.00     0.059 A 
ATOM     79  F   UNL A   1      42.308  28.311  35.694  1.00  0.00    -0.206 F 
ATOM     80  C   UNL A   1      44.670  30.565  37.102  1.00  0.00     0.060 A 
BRANCH  80  81
ATOM     81  S   UNL A   1      44.704  31.775  38.445  1.00  0.00     0.124 S 
ATOM     82  O   UNL A   1      43.822  31.165  39.432  1.00  0.00    -0.237 OA
ATOM     83  O   UNL A   1      46.121  31.817  38.794  1.00  0.00    -0.237 OA
ATOM     84  O   UNL A   1      44.195  32.991  37.814  1.00  0.00    -0.744 OA
ENDBRANCH  80  81
ENDBRANCH  48  73
BRANCH  60  85
ATOM     85  C   UNL A   1      45.907  26.783  29.202  1.00  0.00     0.058 A 
ATOM     86  C   UNL A   1      47.218  27.274  29.079  1.00  0.00     0.135 A 
ATOM     87  C   UNL A   1      44.944  27.409  28.388  1.00  0.00     0.135 A 
ATOM     88  F   UNL A   1      48.205  26.733  29.813  1.00  0.00    -0.206 F 
ATOM     89  C   UNL A   1      47.554  28.315  28.208  1.00  0.00     0.059 A 
ATOM     90  C   UNL A   1      45.253  28.446  27.499  1.00  0.00     0.059 A 
ATOM     91  F   UNL A   1      43.666  27.032  28.437  1.00  0.00    -0.206 F 
ATOM     92  C   UNL A   1      46.565  28.895  27.416  1.00  0.00     0.060 A 
BRANCH  92  93
ATOM     93  S   UNL A   1      47.024  30.212  26.265  1.00  0.00     0.124 S 
ATOM     94  O   UNL A   1      48.471  30.293  26.439  1.00  0.00    -0.237 OA
ATOM     95  O   UNL A   1      46.573  29.671  24.987  1.00  0.00    -0.237 OA
ATOM     96  O   UNL A   1      46.277  31.371  26.748  1.00  0.00    -0.744 OA
ENDBRANCH  92  93
ENDBRANCH  60  85
ENDBRANCH  34  35
ENDBRANCH  26  29
ENDBRANCH  24  25
ENDBRANCH   1  24
TORSDOF 16
ENDMDL
