MODEL 1
REMARK VINA RESULT:     -12.8      0.000      0.000
REMARK SMILES NS(=O)(=O)c1ccc(-c2cc(Cl)cc3c2O[C@H](C(F)(F)F)C(C(=O)NCCCNC(=O)c2ccc(-c4c5nc(c(-c6c(F)cc(S(=O)(=O)[O-])cc6F)c6ccc([nH]6)c(-c6c(F)cc(S(=O)(=O)[O-])cc6F)c6nc(c(-c7c(F)cc(S(=O)(=O)[O-])cc7F)c7ccc4[nH]7)C=C6)C=C5)cc2)=C3)cc1
REMARK SMILES IDX 27 1 26 2 25 3 23 4 24 5 22 7 9 8 10 9 15 10 11 11 14 12
REMARK SMILES IDX 16 13 12 14 13 15 98 16 17 17 8 18 5 19 6 20 100 21 7 22
REMARK SMILES IDX 99 23 2 24 3 25 4 26 1 27 18 30 19 31 20 32 21 33 28 34
REMARK SMILES IDX 29 35 30 36 31 38 32 39 33 40 97 41 34 42 96 43 35 44 36 45
REMARK SMILES IDX 37 46 90 47 38 48 95 49 89 50 91 51 39 52 94 53 88 54 87 55
REMARK SMILES IDX 40 57 74 58 53 59 73 60 54 61 57 62 72 63 92 64 55 65 56 66
REMARK SMILES IDX 71 68 93 69 58 70 41 71 42 72 51 73 43 74 44 75 50 76 52 77
REMARK SMILES IDX 45 78 46 79 47 80 48 81 49 82 75 83 76 84 85 85 77 86 78 87
REMARK SMILES IDX 84 88 86 89 79 90 80 91 81 92 82 93 83 94 59 95 60 96 69 97
REMARK SMILES IDX 61 98 62 99 68 100 70 101 63 102 64 103 65 104 66 105 67 106
REMARK H PARENT 25 6 1 28 1 29 29 37 91 56 57 67
REMARK Flexibility Score: inf
ROOT
ATOM      1  C   UNL A   1      34.046  28.486  25.747  1.00  0.00     0.042 C 
ENDROOT
BRANCH   1   2
ATOM      2  C   UNL A   1      33.577  27.204  25.055  1.00  0.00     0.118 C 
BRANCH   2   3
ATOM      3  N   UNL A   1      34.134  26.047  25.728  1.00  0.00    -0.352 N 
ATOM      4  C   UNL A   1      33.746  24.754  25.611  1.00  0.00     0.251 C 
ATOM      5  O   UNL A   1      33.799  24.009  26.583  1.00  0.00    -0.270 OA
ATOM      6  H   UNL A   1      34.885  26.220  26.342  1.00  0.00     0.163 HD
BRANCH   4   7
ATOM      7  C   UNL A   1      33.382  24.265  24.247  1.00  0.00     0.067 C 
ATOM      8  C   UNL A   1      34.683  20.426  24.613  1.00  0.00     0.026 A 
ATOM      9  C   UNL A   1      36.009  20.430  25.113  1.00  0.00     0.033 A 
ATOM     10  C   UNL A   1      34.181  21.651  24.148  1.00  0.00     0.135 A 
ATOM     11  C   UNL A   1      36.829  21.555  25.044  1.00  0.00     0.042 A 
ATOM     12  C   UNL A   1      35.057  22.754  23.995  1.00  0.00     0.019 A 
ATOM     13  O   UNL A   1      32.841  21.833  23.853  1.00  0.00    -0.475 OA
ATOM     14  Cl  UNL A   1      38.421  21.489  25.692  1.00  0.00    -0.084 Cl
ATOM     15  C   UNL A   1      36.376  22.712  24.437  1.00  0.00     0.032 A 
ATOM     16  C   UNL A   1      34.482  24.027  23.503  1.00  0.00     0.025 C 
ATOM     17  C   UNL A   1      32.321  23.169  24.247  1.00  0.00     0.314 C 
BRANCH   8  18
ATOM     18  C   UNL A   1      34.050  19.092  24.484  1.00  0.00    -0.015 A 
ATOM     19  C   UNL A   1      33.148  16.535  25.243  1.00  0.00     0.082 A 
ATOM     20  C   UNL A   1      32.268  17.617  25.288  1.00  0.00     0.022 A 
ATOM     21  C   UNL A   1      34.427  16.688  24.705  1.00  0.00     0.022 A 
ATOM     22  C   UNL A   1      32.717  18.885  24.895  1.00  0.00     0.010 A 
ATOM     23  C   UNL A   1      34.867  17.960  24.316  1.00  0.00     0.010 A 
BRANCH  19  24
ATOM     24  S   UNL A   1      32.675  14.997  25.982  1.00  0.00     0.238 S 
ATOM     25  O   UNL A   1      32.338  15.214  27.372  1.00  0.00    -0.207 OA
ATOM     26  O   UNL A   1      33.587  13.965  25.554  1.00  0.00    -0.207 OA
BRANCH  24  27
ATOM     27  N   UNL A   1      31.203  14.661  25.236  1.00  0.00    -0.225 NA
ATOM     28  H   UNL A   1      30.455  15.159  25.718  1.00  0.00     0.137 HD
ATOM     29  H   UNL A   1      31.023  13.657  25.274  1.00  0.00     0.137 HD
ENDBRANCH  24  27
ENDBRANCH  19  24
ENDBRANCH   8  18
BRANCH  17  30
ATOM     30  C   UNL A   1      31.151  23.601  23.338  1.00  0.00     0.429 C 
ATOM     31  F   UNL A   1      30.186  24.265  24.015  1.00  0.00    -0.167 F 
ATOM     32  F   UNL A   1      31.577  24.406  22.337  1.00  0.00    -0.167 F 
ATOM     33  F   UNL A   1      30.540  22.542  22.742  1.00  0.00    -0.167 F 
ENDBRANCH  17  30
ENDBRANCH   4   7
ENDBRANCH   2   3
ENDBRANCH   1   2
BRANCH   1  34
ATOM     34  C   UNL A   1      33.673  28.585  27.226  1.00  0.00     0.118 C 
BRANCH  34  35
ATOM     35  N   UNL A   1      33.571  29.957  27.701  1.00  0.00    -0.352 N 
ATOM     36  C   UNL A   1      34.518  30.715  28.346  1.00  0.00     0.251 C 
ATOM     37  H   UNL A   1      32.707  30.400  27.539  1.00  0.00     0.163 HD
ATOM     38  O   UNL A   1      34.216  31.815  28.801  1.00  0.00    -0.269 OA
BRANCH  36  39
ATOM     39  C   UNL A   1      35.888  30.186  28.516  1.00  0.00     0.039 A 
ATOM     40  C   UNL A   1      36.779  30.260  27.444  1.00  0.00     0.014 A 
ATOM     41  C   UNL A   1      36.297  29.642  29.736  1.00  0.00     0.014 A 
ATOM     42  C   UNL A   1      38.104  29.851  27.617  1.00  0.00     0.010 A 
ATOM     43  C   UNL A   1      37.634  29.303  29.927  1.00  0.00     0.010 A 
ATOM     44  C   UNL A   1      38.553  29.406  28.871  1.00  0.00    -0.014 A 
BRANCH  44  45
ATOM     45  C   UNL A   1      39.974  29.035  29.102  1.00  0.00     0.031 A 
ATOM     46  C   UNL A   1      40.934  30.052  29.659  1.00  0.00     0.074 A 
ATOM     47  C   UNL A   1      40.416  27.811  28.749  1.00  0.00     0.049 A 
ATOM     48  N   UNL A   1      42.228  29.965  29.822  1.00  0.00    -0.248 NA
ATOM     49  C   UNL A   1      40.365  31.349  30.061  1.00  0.00     0.031 C 
ATOM     50  C   UNL A   1      39.594  26.746  28.165  1.00  0.00     0.029 A 
ATOM     51  N   UNL A   1      41.670  27.257  28.816  1.00  0.00    -0.354 N 
ATOM     52  C   UNL A   1      42.630  31.196  30.328  1.00  0.00     0.074 A 
ATOM     53  C   UNL A   1      41.450  32.032  30.394  1.00  0.00     0.031 C 
ATOM     54  C   UNL A   1      40.361  25.666  27.948  1.00  0.00     0.029 A 
ATOM     55  C   UNL A   1      41.734  25.969  28.336  1.00  0.00     0.049 A 
ATOM     56  H   UNL A   1      42.451  27.736  29.174  1.00  0.00     0.167 HD
ATOM     57  C   UNL A   1      43.864  31.587  30.728  1.00  0.00     0.037 A 
ATOM     58  C   UNL A   1      42.784  25.131  28.214  1.00  0.00     0.037 A 
ATOM     59  C   UNL A   1      45.028  30.743  30.691  1.00  0.00     0.049 A 
ATOM     60  C   UNL A   1      44.147  25.593  28.657  1.00  0.00     0.074 A 
ATOM     61  C   UNL A   1      46.317  31.036  31.102  1.00  0.00     0.029 A 
ATOM     62  N   UNL A   1      45.044  29.436  30.227  1.00  0.00    -0.354 N 
ATOM     63  N   UNL A   1      44.500  26.751  29.165  1.00  0.00    -0.248 NA
ATOM     64  C   UNL A   1      45.252  24.636  28.518  1.00  0.00     0.031 C 
ATOM     65  C   UNL A   1      47.118  29.914  30.860  1.00  0.00     0.029 A 
ATOM     66  C   UNL A   1      46.319  28.910  30.338  1.00  0.00     0.049 A 
ATOM     67  H   UNL A   1      44.263  28.953  29.871  1.00  0.00     0.167 HD
ATOM     68  C   UNL A   1      45.859  26.646  29.438  1.00  0.00     0.074 A 
ATOM     69  C   UNL A   1      46.264  25.312  29.045  1.00  0.00     0.031 C 
ATOM     70  C   UNL A   1      46.698  27.570  29.968  1.00  0.00     0.037 A 
BRANCH  57  71
ATOM     71  C   UNL A   1      44.014  32.986  31.259  1.00  0.00     0.058 A 
ATOM     72  C   UNL A   1      44.294  34.066  30.405  1.00  0.00     0.135 A 
ATOM     73  C   UNL A   1      43.837  33.260  32.624  1.00  0.00     0.135 A 
ATOM     74  F   UNL A   1      44.491  33.857  29.093  1.00  0.00    -0.206 F 
ATOM     75  C   UNL A   1      44.417  35.364  30.889  1.00  0.00     0.059 A 
ATOM     76  C   UNL A   1      43.928  34.555  33.127  1.00  0.00     0.059 A 
ATOM     77  F   UNL A   1      43.569  32.265  33.484  1.00  0.00    -0.206 F 
ATOM     78  C   UNL A   1      44.232  35.599  32.253  1.00  0.00     0.060 A 
BRANCH  78  79
ATOM     79  S   UNL A   1      44.381  37.292  32.861  1.00  0.00     0.124 S 
ATOM     80  O   UNL A   1      43.119  37.455  33.578  1.00  0.00    -0.237 OA
ATOM     81  O   UNL A   1      45.578  37.220  33.693  1.00  0.00    -0.237 OA
ATOM     82  O   UNL A   1      44.515  38.081  31.641  1.00  0.00    -0.744 OA
ENDBRANCH  78  79
ENDBRANCH  57  71
BRANCH  58  83
ATOM     83  C   UNL A   1      42.593  23.761  27.665  1.00  0.00     0.058 A 
ATOM     84  C   UNL A   1      42.441  22.660  28.521  1.00  0.00     0.135 A 
ATOM     85  C   UNL A   1      42.580  23.520  26.283  1.00  0.00     0.135 A 
ATOM     86  F   UNL A   1      42.452  22.838  29.851  1.00  0.00    -0.206 F 
ATOM     87  C   UNL A   1      42.314  21.365  28.029  1.00  0.00     0.059 A 
ATOM     88  C   UNL A   1      42.428  22.237  25.766  1.00  0.00     0.059 A 
ATOM     89  F   UNL A   1      42.702  24.541  25.420  1.00  0.00    -0.206 F 
ATOM     90  C   UNL A   1      42.312  21.164  26.648  1.00  0.00     0.060 A 
BRANCH  90  91
ATOM     91  S   UNL A   1      42.130  19.481  26.017  1.00  0.00     0.124 S 
ATOM     92  O   UNL A   1      42.970  19.523  24.826  1.00  0.00    -0.237 OA
ATOM     93  O   UNL A   1      42.634  18.679  27.128  1.00  0.00    -0.237 OA
ATOM     94  O   UNL A   1      40.695  19.370  25.775  1.00  0.00    -0.744 OA
ENDBRANCH  90  91
ENDBRANCH  58  83
BRANCH  70  95
ATOM     95  C   UNL A   1      48.122  27.158  30.212  1.00  0.00     0.058 A 
ATOM     96  C   UNL A   1      49.146  27.463  29.302  1.00  0.00     0.135 A 
ATOM     97  C   UNL A   1      48.475  26.505  31.404  1.00  0.00     0.135 A 
ATOM     98  F   UNL A   1      48.859  28.080  28.144  1.00  0.00    -0.206 F 
ATOM     99  C   UNL A   1      50.469  27.121  29.558  1.00  0.00     0.059 A 
ATOM    100  C   UNL A   1      49.795  26.177  31.694  1.00  0.00     0.059 A 
ATOM    101  F   UNL A   1      47.533  26.199  32.312  1.00  0.00    -0.206 F 
ATOM    102  C   UNL A   1      50.785  26.480  30.759  1.00  0.00     0.060 A 
BRANCH 102 103
ATOM    103  S   UNL A   1      52.512  26.085  31.102  1.00  0.00     0.124 S 
ATOM    104  O   UNL A   1      53.069  26.007  29.755  1.00  0.00    -0.237 OA
ATOM    105  O   UNL A   1      52.943  27.228  31.901  1.00  0.00    -0.237 OA
ATOM    106  O   UNL A   1      52.434  24.818  31.823  1.00  0.00    -0.744 OA
ENDBRANCH 102 103
ENDBRANCH  70  95
ENDBRANCH  44  45
ENDBRANCH  36  39
ENDBRANCH  34  35
ENDBRANCH   1  34
TORSDOF 17
ENDMDL
MODEL 2
REMARK VINA RESULT:     -12.4      5.179      8.309
REMARK SMILES NS(=O)(=O)c1ccc(-c2cc(Cl)cc3c2O[C@H](C(F)(F)F)C(C(=O)NCCCNC(=O)c2ccc(-c4c5nc(c(-c6c(F)cc(S(=O)(=O)[O-])cc6F)c6ccc([nH]6)c(-c6c(F)cc(S(=O)(=O)[O-])cc6F)c6nc(c(-c7c(F)cc(S(=O)(=O)[O-])cc7F)c7ccc4[nH]7)C=C6)C=C5)cc2)=C3)cc1
REMARK SMILES IDX 27 1 26 2 25 3 23 4 24 5 22 7 9 8 10 9 15 10 11 11 14 12
REMARK SMILES IDX 16 13 12 14 13 15 98 16 17 17 8 18 5 19 6 20 100 21 7 22
REMARK SMILES IDX 99 23 2 24 3 25 4 26 1 27 18 30 19 31 20 32 21 33 28 34
REMARK SMILES IDX 29 35 30 36 31 38 32 39 33 40 97 41 34 42 96 43 35 44 36 45
REMARK SMILES IDX 37 46 90 47 38 48 95 49 89 50 91 51 39 52 94 53 88 54 87 55
REMARK SMILES IDX 40 57 74 58 53 59 73 60 54 61 57 62 72 63 92 64 55 65 56 66
REMARK SMILES IDX 71 68 93 69 58 70 41 71 42 72 51 73 43 74 44 75 50 76 52 77
REMARK SMILES IDX 45 78 46 79 47 80 48 81 49 82 75 83 76 84 85 85 77 86 78 87
REMARK SMILES IDX 84 88 86 89 79 90 80 91 81 92 82 93 83 94 59 95 60 96 69 97
REMARK SMILES IDX 61 98 62 99 68 100 70 101 63 102 64 103 65 104 66 105 67 106
REMARK H PARENT 25 6 1 28 1 29 29 37 91 56 57 67
REMARK Flexibility Score: inf
ROOT
ATOM      1  C   UNL A   1      33.607  33.480  28.948  1.00  0.00     0.042 C 
ENDROOT
BRANCH   1   2
ATOM      2  C   UNL A   1      34.089  34.640  29.823  1.00  0.00     0.118 C 
BRANCH   2   3
ATOM      3  N   UNL A   1      34.148  34.222  31.210  1.00  0.00    -0.352 N 
ATOM      4  C   UNL A   1      35.194  33.658  31.861  1.00  0.00     0.251 C 
ATOM      5  O   UNL A   1      34.991  32.818  32.732  1.00  0.00    -0.270 OA
ATOM      6  H   UNL A   1      33.332  34.366  31.742  1.00  0.00     0.163 HD
BRANCH   4   7
ATOM      7  C   UNL A   1      36.558  34.190  31.564  1.00  0.00     0.067 C 
ATOM      8  C   UNL A   1      38.661  32.020  34.291  1.00  0.00     0.026 A 
ATOM      9  C   UNL A   1      38.037  32.136  35.559  1.00  0.00     0.033 A 
ATOM     10  C   UNL A   1      38.252  32.927  33.302  1.00  0.00     0.135 A 
ATOM     11  C   UNL A   1      37.148  33.167  35.861  1.00  0.00     0.042 A 
ATOM     12  C   UNL A   1      37.425  34.023  33.655  1.00  0.00     0.019 A 
ATOM     13  O   UNL A   1      38.607  32.778  31.972  1.00  0.00    -0.475 OA
ATOM     14  Cl  UNL A   1      36.414  33.229  37.416  1.00  0.00    -0.084 Cl
ATOM     15  C   UNL A   1      36.875  34.149  34.927  1.00  0.00     0.032 A 
ATOM     16  C   UNL A   1      37.017  34.953  32.577  1.00  0.00     0.025 C 
ATOM     17  C   UNL A   1      37.524  33.141  31.022  1.00  0.00     0.314 C 
BRANCH   8  18
ATOM     18  C   UNL A   1      39.793  31.067  34.218  1.00  0.00    -0.015 A 
ATOM     19  C   UNL A   1      41.291  28.735  34.717  1.00  0.00     0.082 A 
ATOM     20  C   UNL A   1      40.492  28.809  33.576  1.00  0.00     0.022 A 
ATOM     21  C   UNL A   1      41.451  29.851  35.540  1.00  0.00     0.022 A 
ATOM     22  C   UNL A   1      39.760  29.977  33.323  1.00  0.00     0.010 A 
ATOM     23  C   UNL A   1      40.713  31.015  35.280  1.00  0.00     0.010 A 
BRANCH  19  24
ATOM     24  S   UNL A   1      42.005  27.183  35.180  1.00  0.00     0.238 S 
ATOM     25  O   UNL A   1      43.269  27.011  34.496  1.00  0.00    -0.207 OA
ATOM     26  O   UNL A   1      40.979  26.170  35.183  1.00  0.00    -0.207 OA
BRANCH  24  27
ATOM     27  N   UNL A   1      42.425  27.430  36.792  1.00  0.00    -0.225 NA
ATOM     28  H   UNL A   1      43.180  28.114  36.846  1.00  0.00     0.137 HD
ATOM     29  H   UNL A   1      42.735  26.549  37.203  1.00  0.00     0.137 HD
ENDBRANCH  24  27
ENDBRANCH  19  24
ENDBRANCH   8  18
BRANCH  17  30
ATOM     30  C   UNL A   1      38.105  33.637  29.681  1.00  0.00     0.429 C 
ATOM     31  F   UNL A   1      39.356  34.135  29.810  1.00  0.00    -0.167 F 
ATOM     32  F   UNL A   1      38.154  32.640  28.767  1.00  0.00    -0.167 F 
ATOM     33  F   UNL A   1      37.356  34.627  29.126  1.00  0.00    -0.167 F 
ENDBRANCH  17  30
ENDBRANCH   4   7
ENDBRANCH   2   3
ENDBRANCH   1   2
BRANCH   1  34
ATOM     34  C   UNL A   1      34.607  32.332  28.805  1.00  0.00     0.118 C 
BRANCH  34  35
ATOM     35  N   UNL A   1      34.025  31.135  28.219  1.00  0.00    -0.352 N 
ATOM     36  C   UNL A   1      34.646  29.960  27.869  1.00  0.00     0.251 C 
ATOM     37  H   UNL A   1      33.055  31.172  28.049  1.00  0.00     0.163 HD
ATOM     38  O   UNL A   1      34.024  29.097  27.256  1.00  0.00    -0.269 OA
BRANCH  36  39
ATOM     39  C   UNL A   1      36.071  29.757  28.207  1.00  0.00     0.039 A 
ATOM     40  C   UNL A   1      36.407  29.328  29.493  1.00  0.00     0.014 A 
ATOM     41  C   UNL A   1      37.069  29.967  27.251  1.00  0.00     0.014 A 
ATOM     42  C   UNL A   1      37.739  29.041  29.800  1.00  0.00     0.010 A 
ATOM     43  C   UNL A   1      38.384  29.613  27.537  1.00  0.00     0.010 A 
ATOM     44  C   UNL A   1      38.734  29.144  28.814  1.00  0.00    -0.014 A 
BRANCH  44  45
ATOM     45  C   UNL A   1      40.147  28.775  29.092  1.00  0.00     0.031 A 
ATOM     46  C   UNL A   1      41.073  29.778  29.728  1.00  0.00     0.074 A 
ATOM     47  C   UNL A   1      40.615  27.568  28.714  1.00  0.00     0.049 A 
ATOM     48  N   UNL A   1      42.360  29.694  29.943  1.00  0.00    -0.248 NA
ATOM     49  C   UNL A   1      40.476  31.055  30.151  1.00  0.00     0.031 C 
ATOM     50  C   UNL A   1      39.829  26.520  28.056  1.00  0.00     0.029 A 
ATOM     51  N   UNL A   1      41.870  27.021  28.815  1.00  0.00    -0.354 N 
ATOM     52  C   UNL A   1      42.728  30.908  30.511  1.00  0.00     0.074 A 
ATOM     53  C   UNL A   1      41.540  31.733  30.556  1.00  0.00     0.031 C 
ATOM     54  C   UNL A   1      40.613  25.454  27.834  1.00  0.00     0.029 A 
ATOM     55  C   UNL A   1      41.966  25.753  28.291  1.00  0.00     0.049 A 
ATOM     56  H   UNL A   1      42.631  27.492  29.224  1.00  0.00     0.167 HD
ATOM     57  C   UNL A   1      43.941  31.294  30.977  1.00  0.00     0.037 A 
ATOM     58  C   UNL A   1      43.028  24.928  28.184  1.00  0.00     0.037 A 
ATOM     59  C   UNL A   1      45.114  30.460  30.960  1.00  0.00     0.049 A 
ATOM     60  C   UNL A   1      44.366  25.383  28.702  1.00  0.00     0.074 A 
ATOM     61  C   UNL A   1      46.381  30.747  31.437  1.00  0.00     0.029 A 
ATOM     62  N   UNL A   1      45.161  29.171  30.449  1.00  0.00    -0.354 N 
ATOM     63  N   UNL A   1      44.687  26.523  29.266  1.00  0.00    -0.248 NA
ATOM     64  C   UNL A   1      45.485  24.440  28.575  1.00  0.00     0.031 C 
ATOM     65  C   UNL A   1      47.201  29.641  31.189  1.00  0.00     0.029 A 
ATOM     66  C   UNL A   1      46.435  28.651  30.596  1.00  0.00     0.049 A 
ATOM     67  H   UNL A   1      44.400  28.696  30.042  1.00  0.00     0.167 HD
ATOM     68  C   UNL A   1      46.034  26.419  29.594  1.00  0.00     0.074 A 
ATOM     69  C   UNL A   1      46.467  25.103  29.171  1.00  0.00     0.031 C 
ATOM     70  C   UNL A   1      46.841  27.328  30.194  1.00  0.00     0.037 A 
BRANCH  57  71
ATOM     71  C   UNL A   1      44.056  32.673  31.565  1.00  0.00     0.058 A 
ATOM     72  C   UNL A   1      44.409  33.778  30.773  1.00  0.00     0.135 A 
ATOM     73  C   UNL A   1      43.772  32.903  32.921  1.00  0.00     0.135 A 
ATOM     74  F   UNL A   1      44.709  33.612  29.475  1.00  0.00    -0.206 F 
ATOM     75  C   UNL A   1      44.500  35.058  31.309  1.00  0.00     0.059 A 
ATOM     76  C   UNL A   1      43.829  34.180  33.472  1.00  0.00     0.059 A 
ATOM     77  F   UNL A   1      43.430  31.883  33.723  1.00  0.00    -0.206 F 
ATOM     78  C   UNL A   1      44.207  35.249  32.660  1.00  0.00     0.060 A 
BRANCH  78  79
ATOM     79  S   UNL A   1      44.317  36.920  33.336  1.00  0.00     0.124 S 
ATOM     80  O   UNL A   1      45.736  37.213  33.158  1.00  0.00    -0.237 OA
ATOM     81  O   UNL A   1      43.403  37.665  32.476  1.00  0.00    -0.237 OA
ATOM     82  O   UNL A   1      43.879  36.757  34.719  1.00  0.00    -0.744 OA
ENDBRANCH  78  79
ENDBRANCH  57  71
BRANCH  58  83
ATOM     83  C   UNL A   1      42.873  23.578  27.578  1.00  0.00     0.058 A 
ATOM     84  C   UNL A   1      42.507  22.475  28.365  1.00  0.00     0.135 A 
ATOM     85  C   UNL A   1      43.106  23.356  26.212  1.00  0.00     0.135 A 
ATOM     86  F   UNL A   1      42.278  22.635  29.677  1.00  0.00    -0.206 F 
ATOM     87  C   UNL A   1      42.408  21.196  27.827  1.00  0.00     0.059 A 
ATOM     88  C   UNL A   1      42.988  22.090  25.646  1.00  0.00     0.059 A 
ATOM     89  F   UNL A   1      43.440  24.380  25.411  1.00  0.00    -0.206 F 
ATOM     90  C   UNL A   1      42.654  21.013  26.465  1.00  0.00     0.060 A 
BRANCH  90  91
ATOM     91  S   UNL A   1      42.507  19.352  25.773  1.00  0.00     0.124 S 
ATOM     92  O   UNL A   1      43.404  19.432  24.626  1.00  0.00    -0.237 OA
ATOM     93  O   UNL A   1      42.959  18.515  26.880  1.00  0.00    -0.237 OA
ATOM     94  O   UNL A   1      41.085  19.246  25.458  1.00  0.00    -0.744 OA
ENDBRANCH  90  91
ENDBRANCH  58  83
BRANCH  70  95
ATOM     95  C   UNL A   1      48.257  26.918  30.483  1.00  0.00     0.058 A 
ATOM     96  C   UNL A   1      49.303  27.193  29.590  1.00  0.00     0.135 A 
ATOM     97  C   UNL A   1      48.578  26.299  31.702  1.00  0.00     0.135 A 
ATOM     98  F   UNL A   1      49.047  27.777  28.408  1.00  0.00    -0.206 F 
ATOM     99  C   UNL A   1      50.619  26.853  29.888  1.00  0.00     0.059 A 
ATOM    100  C   UNL A   1      49.889  25.974  32.033  1.00  0.00     0.059 A 
ATOM    101  F   UNL A   1      47.613  26.023  32.595  1.00  0.00    -0.206 F 
ATOM    102  C   UNL A   1      50.902  26.246  31.114  1.00  0.00     0.060 A 
BRANCH 102 103
ATOM    103  S   UNL A   1      52.619  25.854  31.509  1.00  0.00     0.124 S 
ATOM    104  O   UNL A   1      53.253  25.953  30.198  1.00  0.00    -0.237 OA
ATOM    105  O   UNL A   1      52.969  26.903  32.463  1.00  0.00    -0.237 OA
ATOM    106  O   UNL A   1      52.540  24.508  32.069  1.00  0.00    -0.744 OA
ENDBRANCH 102 103
ENDBRANCH  70  95
ENDBRANCH  44  45
ENDBRANCH  36  39
ENDBRANCH  34  35
ENDBRANCH   1  34
TORSDOF 17
ENDMDL
MODEL 3
REMARK VINA RESULT:     -12.2      4.181      8.570
REMARK SMILES NS(=O)(=O)c1ccc(-c2cc(Cl)cc3c2O[C@H](C(F)(F)F)C(C(=O)NCCCNC(=O)c2ccc(-c4c5nc(c(-c6c(F)cc(S(=O)(=O)[O-])cc6F)c6ccc([nH]6)c(-c6c(F)cc(S(=O)(=O)[O-])cc6F)c6nc(c(-c7c(F)cc(S(=O)(=O)[O-])cc7F)c7ccc4[nH]7)C=C6)C=C5)cc2)=C3)cc1
REMARK SMILES IDX 27 1 26 2 25 3 23 4 24 5 22 7 9 8 10 9 15 10 11 11 14 12
REMARK SMILES IDX 16 13 12 14 13 15 98 16 17 17 8 18 5 19 6 20 100 21 7 22
REMARK SMILES IDX 99 23 2 24 3 25 4 26 1 27 18 30 19 31 20 32 21 33 28 34
REMARK SMILES IDX 29 35 30 36 31 38 32 39 33 40 97 41 34 42 96 43 35 44 36 45
REMARK SMILES IDX 37 46 90 47 38 48 95 49 89 50 91 51 39 52 94 53 88 54 87 55
REMARK SMILES IDX 40 57 74 58 53 59 73 60 54 61 57 62 72 63 92 64 55 65 56 66
REMARK SMILES IDX 71 68 93 69 58 70 41 71 42 72 51 73 43 74 44 75 50 76 52 77
REMARK SMILES IDX 45 78 46 79 47 80 48 81 49 82 75 83 76 84 85 85 77 86 78 87
REMARK SMILES IDX 84 88 86 89 79 90 80 91 81 92 82 93 83 94 59 95 60 96 69 97
REMARK SMILES IDX 61 98 62 99 68 100 70 101 63 102 64 103 65 104 66 105 67 106
REMARK H PARENT 25 6 1 28 1 29 29 37 91 56 57 67
REMARK Flexibility Score: inf
ROOT
ATOM      1  C   UNL A   1      37.500  20.980  24.994  1.00  0.00     0.042 C 
ENDROOT
BRANCH   1   2
ATOM      2  C   UNL A   1      36.302  21.773  25.519  1.00  0.00     0.118 C 
BRANCH   2   3
ATOM      3  N   UNL A   1      36.273  23.087  24.908  1.00  0.00    -0.352 N 
ATOM      4  C   UNL A   1      35.357  23.576  24.037  1.00  0.00     0.251 C 
ATOM      5  O   UNL A   1      35.708  24.348  23.151  1.00  0.00    -0.270 OA
ATOM      6  H   UNL A   1      37.004  23.698  25.157  1.00  0.00     0.163 HD
BRANCH   4   7
ATOM      7  C   UNL A   1      33.924  23.237  24.282  1.00  0.00     0.067 C 
ATOM      8  C   UNL A   1      32.360  26.985  24.009  1.00  0.00     0.026 A 
ATOM      9  C   UNL A   1      33.107  27.861  24.836  1.00  0.00     0.033 A 
ATOM     10  C   UNL A   1      32.565  25.610  24.201  1.00  0.00     0.135 A 
ATOM     11  C   UNL A   1      33.919  27.401  25.870  1.00  0.00     0.042 A 
ATOM     12  C   UNL A   1      33.315  25.162  25.317  1.00  0.00     0.019 A 
ATOM     13  O   UNL A   1      32.080  24.662  23.316  1.00  0.00    -0.475 OA
ATOM     14  Cl  UNL A   1      34.813  28.525  26.817  1.00  0.00    -0.084 Cl
ATOM     15  C   UNL A   1      33.989  26.048  26.153  1.00  0.00     0.032 A 
ATOM     16  C   UNL A   1      33.507  23.703  25.477  1.00  0.00     0.025 C 
ATOM     17  C   UNL A   1      33.010  23.524  23.095  1.00  0.00     0.314 C 
BRANCH   8  18
ATOM     18  C   UNL A   1      31.325  27.625  23.164  1.00  0.00    -0.015 A 
ATOM     19  C   UNL A   1      29.364  29.490  22.385  1.00  0.00     0.082 A 
ATOM     20  C   UNL A   1      30.681  29.655  21.954  1.00  0.00     0.022 A 
ATOM     21  C   UNL A   1      28.991  28.344  23.089  1.00  0.00     0.022 A 
ATOM     22  C   UNL A   1      31.650  28.717  22.331  1.00  0.00     0.010 A 
ATOM     23  C   UNL A   1      29.968  27.411  23.463  1.00  0.00     0.010 A 
BRANCH  19  24
ATOM     24  S   UNL A   1      28.196  30.798  22.138  1.00  0.00     0.238 S 
ATOM     25  O   UNL A   1      27.324  30.888  23.288  1.00  0.00    -0.207 OA
ATOM     26  O   UNL A   1      27.698  30.739  20.786  1.00  0.00    -0.207 OA
BRANCH  24  27
ATOM     27  N   UNL A   1      29.157  32.178  22.224  1.00  0.00    -0.225 NA
ATOM     28  H   UNL A   1      29.985  31.982  22.787  1.00  0.00     0.137 HD
ATOM     29  H   UNL A   1      28.626  32.937  22.653  1.00  0.00     0.137 HD
ENDBRANCH  24  27
ENDBRANCH  19  24
ENDBRANCH   8  18
BRANCH  17  30
ATOM     30  C   UNL A   1      32.237  22.238  22.731  1.00  0.00     0.429 C 
ATOM     31  F   UNL A   1      30.897  22.397  22.817  1.00  0.00    -0.167 F 
ATOM     32  F   UNL A   1      32.521  21.833  21.471  1.00  0.00    -0.167 F 
ATOM     33  F   UNL A   1      32.551  21.196  23.546  1.00  0.00    -0.167 F 
ENDBRANCH  17  30
ENDBRANCH   4   7
ENDBRANCH   2   3
ENDBRANCH   1   2
BRANCH   1  34
ATOM     34  C   UNL A   1      38.804  21.216  25.757  1.00  0.00     0.118 C 
BRANCH  34  35
ATOM     35  N   UNL A   1      39.609  20.014  25.903  1.00  0.00    -0.352 N 
ATOM     36  C   UNL A   1      40.955  19.907  26.160  1.00  0.00     0.251 C 
ATOM     37  H   UNL A   1      39.124  19.162  25.804  1.00  0.00     0.163 HD
ATOM     38  O   UNL A   1      41.502  18.808  26.116  1.00  0.00    -0.269 OA
BRANCH  36  39
ATOM     39  C   UNL A   1      41.742  21.123  26.456  1.00  0.00     0.039 A 
ATOM     40  C   UNL A   1      42.163  21.930  25.397  1.00  0.00     0.014 A 
ATOM     41  C   UNL A   1      42.041  21.477  27.775  1.00  0.00     0.014 A 
ATOM     42  C   UNL A   1      42.825  23.131  25.665  1.00  0.00     0.010 A 
ATOM     43  C   UNL A   1      42.636  22.707  28.041  1.00  0.00     0.010 A 
ATOM     44  C   UNL A   1      43.033  23.549  26.990  1.00  0.00    -0.014 A 
BRANCH  44  45
ATOM     45  C   UNL A   1      43.668  24.856  27.304  1.00  0.00     0.031 A 
ATOM     46  C   UNL A   1      42.828  25.994  27.819  1.00  0.00     0.074 A 
ATOM     47  C   UNL A   1      44.982  25.041  27.062  1.00  0.00     0.049 A 
ATOM     48  N   UNL A   1      43.166  27.238  28.039  1.00  0.00    -0.248 NA
ATOM     49  C   UNL A   1      41.413  25.699  28.099  1.00  0.00     0.031 C 
ATOM     50  C   UNL A   1      45.898  24.029  26.528  1.00  0.00     0.029 A 
ATOM     51  N   UNL A   1      45.775  26.150  27.219  1.00  0.00    -0.354 N 
ATOM     52  C   UNL A   1      42.007  27.876  28.465  1.00  0.00     0.074 A 
ATOM     53  C   UNL A   1      40.944  26.895  28.422  1.00  0.00     0.031 C 
ATOM     54  C   UNL A   1      47.128  24.558  26.424  1.00  0.00     0.029 A 
ATOM     55  C   UNL A   1      47.083  25.956  26.841  1.00  0.00     0.049 A 
ATOM     56  H   UNL A   1      45.439  27.006  27.570  1.00  0.00     0.167 HD
ATOM     57  C   UNL A   1      41.847  29.155  28.881  1.00  0.00     0.037 A 
ATOM     58  C   UNL A   1      48.126  26.810  26.823  1.00  0.00     0.037 A 
ATOM     59  C   UNL A   1      42.912  30.119  28.954  1.00  0.00     0.049 A 
ATOM     60  C   UNL A   1      47.920  28.229  27.283  1.00  0.00     0.074 A 
ATOM     61  C   UNL A   1      42.859  31.431  29.391  1.00  0.00     0.029 A 
ATOM     62  N   UNL A   1      44.229  29.872  28.591  1.00  0.00    -0.354 N 
ATOM     63  N   UNL A   1      46.822  28.805  27.714  1.00  0.00    -0.248 NA
ATOM     64  C   UNL A   1      49.092  29.114  27.259  1.00  0.00     0.031 C 
ATOM     65  C   UNL A   1      44.137  31.986  29.266  1.00  0.00     0.029 A 
ATOM     66  C   UNL A   1      44.994  31.007  28.791  1.00  0.00     0.049 A 
ATOM     67  H   UNL A   1      44.568  29.016  28.242  1.00  0.00     0.167 HD
ATOM     68  C   UNL A   1      47.182  30.106  28.048  1.00  0.00     0.074 A 
ATOM     69  C   UNL A   1      48.598  30.232  27.773  1.00  0.00     0.031 C 
ATOM     70  C   UNL A   1      46.410  31.106  28.538  1.00  0.00     0.037 A 
BRANCH  57  71
ATOM     71  C   UNL A   1      40.470  29.582  29.310  1.00  0.00     0.058 A 
ATOM     72  C   UNL A   1      40.154  29.776  30.665  1.00  0.00     0.135 A 
ATOM     73  C   UNL A   1      39.468  29.840  28.361  1.00  0.00     0.135 A 
ATOM     74  F   UNL A   1      41.069  29.526  31.615  1.00  0.00    -0.206 F 
ATOM     75  C   UNL A   1      38.888  30.188  31.065  1.00  0.00     0.059 A 
ATOM     76  C   UNL A   1      38.202  30.280  28.737  1.00  0.00     0.059 A 
ATOM     77  F   UNL A   1      39.716  29.670  27.053  1.00  0.00    -0.206 F 
ATOM     78  C   UNL A   1      37.918  30.438  30.093  1.00  0.00     0.060 A 
BRANCH  78  79
ATOM     79  S   UNL A   1      36.283  30.985  30.630  1.00  0.00     0.124 S 
ATOM     80  O   UNL A   1      35.509  30.834  29.402  1.00  0.00    -0.237 OA
ATOM     81  O   UNL A   1      35.971  30.039  31.696  1.00  0.00    -0.237 OA
ATOM     82  O   UNL A   1      36.510  32.360  31.063  1.00  0.00    -0.744 OA
ENDBRANCH  78  79
ENDBRANCH  57  71
BRANCH  58  83
ATOM     83  C   UNL A   1      49.468  26.350  26.373  1.00  0.00     0.058 A 
ATOM     84  C   UNL A   1      50.304  25.624  27.234  1.00  0.00     0.135 A 
ATOM     85  C   UNL A   1      49.950  26.643  25.089  1.00  0.00     0.135 A 
ATOM     86  F   UNL A   1      49.890  25.323  28.474  1.00  0.00    -0.206 F 
ATOM     87  C   UNL A   1      51.582  25.230  26.851  1.00  0.00     0.059 A 
ATOM     88  C   UNL A   1      51.215  26.238  24.672  1.00  0.00     0.059 A 
ATOM     89  F   UNL A   1      49.183  27.320  24.219  1.00  0.00    -0.206 F 
ATOM     90  C   UNL A   1      52.030  25.546  25.567  1.00  0.00     0.060 A 
BRANCH  90  91
ATOM     91  S   UNL A   1      53.684  25.017  25.071  1.00  0.00     0.124 S 
ATOM     92  O   UNL A   1      53.798  25.615  23.746  1.00  0.00    -0.237 OA
ATOM     93  O   UNL A   1      54.521  25.605  26.112  1.00  0.00    -0.237 OA
ATOM     94  O   UNL A   1      53.591  23.560  25.102  1.00  0.00    -0.744 OA
ENDBRANCH  90  91
ENDBRANCH  58  83
BRANCH  70  95
ATOM     95  C   UNL A   1      47.084  32.408  28.867  1.00  0.00     0.058 A 
ATOM     96  C   UNL A   1      47.660  32.646  30.124  1.00  0.00     0.135 A 
ATOM     97  C   UNL A   1      47.210  33.406  27.887  1.00  0.00     0.135 A 
ATOM     98  F   UNL A   1      47.560  31.726  31.098  1.00  0.00    -0.206 F 
ATOM     99  C   UNL A   1      48.325  33.835  30.404  1.00  0.00     0.059 A 
ATOM    100  C   UNL A   1      47.893  34.592  28.136  1.00  0.00     0.059 A 
ATOM    101  F   UNL A   1      46.685  33.223  26.664  1.00  0.00    -0.206 F 
ATOM    102  C   UNL A   1      48.439  34.801  29.402  1.00  0.00     0.060 A 
BRANCH 102 103
ATOM    103  S   UNL A   1      49.346  36.319  29.762  1.00  0.00     0.124 S 
ATOM    104  O   UNL A   1      50.692  35.971  29.316  1.00  0.00    -0.237 OA
ATOM    105  O   UNL A   1      48.644  37.305  28.947  1.00  0.00    -0.237 OA
ATOM    106  O   UNL A   1      49.184  36.478  31.204  1.00  0.00    -0.744 OA
ENDBRANCH 102 103
ENDBRANCH  70  95
ENDBRANCH  44  45
ENDBRANCH  36  39
ENDBRANCH  34  35
ENDBRANCH   1  34
TORSDOF 17
ENDMDL
