MODEL 1
REMARK VINA RESULT:     -12.9      0.000      0.000
REMARK SMILES O=C(NCCCNC(=O)c1ccc(F)cc1NC(=O)[C@H]1CCS(=O)(=O)C1)c1ccc(-c2c3nc(c(-c4c(F)cc(S(=O)(=O)[O-])cc4F)c4ccc([nH]4)c(-c4c(F)cc(S(=O)(=O)[O-])cc4F)c4nc(c(-c5c(F)cc(S(=O)(=O)[O-])cc5F)c5ccc2[nH]5)C=C4)C=C3)cc1
REMARK SMILES IDX 4 1 3 2 1 3 2 4 27 6 28 7 92 8 29 9 91 10 30 11 31 12 32 13
REMARK SMILES IDX 85 14 33 15 90 16 84 17 86 18 34 19 89 20 83 21 82 22 35 24
REMARK SMILES IDX 69 25 48 26 68 27 49 28 52 29 67 30 87 31 50 32 51 33 66 35
REMARK SMILES IDX 88 36 53 37 36 38 37 39 46 40 38 41 39 42 45 43 47 44 40 45
REMARK SMILES IDX 41 46 42 47 43 48 44 49 70 50 71 51 80 52 72 53 73 54 79 55
REMARK SMILES IDX 81 56 74 57 75 58 76 59 77 60 78 61 54 62 55 63 64 64 56 65
REMARK SMILES IDX 57 66 63 67 65 68 58 69 59 70 60 71 61 72 62 73 5 74 6 75
REMARK SMILES IDX 7 76 8 77 9 79 10 80 11 81 16 82 12 83 15 84 13 85 14 86
REMARK SMILES IDX 17 87 18 88 19 90 20 91 21 92 26 93 22 94 23 95 24 96 25 97
REMARK H PARENT 3 5 86 23 52 34 7 78 17 89
REMARK Flexibility Score: inf
ROOT
ATOM      1  C   UNL A   1      35.589  31.018  28.007  1.00  0.00     0.118 C 
ENDROOT
BRANCH   1   2
ATOM      2  N   UNL A   1      35.515  30.660  29.419  1.00  0.00    -0.352 N 
ATOM      3  O   UNL A   1      36.131  29.757  31.385  1.00  0.00    -0.269 OA
ATOM      4  C   UNL A   1      36.463  30.123  30.260  1.00  0.00     0.251 C 
ATOM      5  H   UNL A   1      34.642  30.831  29.840  1.00  0.00     0.163 HD
BRANCH   4   6
ATOM      6  C   UNL A   1      37.860  29.950  29.803  1.00  0.00     0.039 A 
ATOM      7  C   UNL A   1      38.174  29.986  28.446  1.00  0.00     0.014 A 
ATOM      8  C   UNL A   1      38.871  29.735  30.743  1.00  0.00     0.014 A 
ATOM      9  C   UNL A   1      39.433  29.583  28.020  1.00  0.00     0.010 A 
ATOM     10  C   UNL A   1      40.174  29.459  30.314  1.00  0.00     0.010 A 
ATOM     11  C   UNL A   1      40.455  29.323  28.947  1.00  0.00    -0.014 A 
BRANCH  11  12
ATOM     12  C   UNL A   1      41.803  28.941  28.445  1.00  0.00     0.031 A 
ATOM     13  C   UNL A   1      42.940  29.928  28.430  1.00  0.00     0.074 A 
ATOM     14  C   UNL A   1      42.014  27.665  28.061  1.00  0.00     0.049 A 
ATOM     15  N   UNL A   1      44.186  29.741  28.073  1.00  0.00    -0.248 NA
ATOM     16  C   UNL A   1      42.646  31.303  28.862  1.00  0.00     0.031 C 
ATOM     17  C   UNL A   1      40.989  26.618  28.028  1.00  0.00     0.029 A 
ATOM     18  N   UNL A   1      43.156  27.020  27.659  1.00  0.00    -0.354 N 
ATOM     19  C   UNL A   1      44.821  30.970  28.225  1.00  0.00     0.074 A 
ATOM     20  C   UNL A   1      43.811  31.907  28.667  1.00  0.00     0.031 C 
ATOM     21  C   UNL A   1      41.560  25.452  27.696  1.00  0.00     0.029 A 
ATOM     22  C   UNL A   1      42.973  25.679  27.415  1.00  0.00     0.049 A 
ATOM     23  H   UNL A   1      44.024  27.474  27.553  1.00  0.00     0.167 HD
ATOM     24  C   UNL A   1      46.125  31.282  28.031  1.00  0.00     0.037 A 
ATOM     25  C   UNL A   1      43.836  24.734  26.998  1.00  0.00     0.037 A 
ATOM     26  C   UNL A   1      47.124  30.337  27.598  1.00  0.00     0.049 A 
ATOM     27  C   UNL A   1      45.268  25.112  26.756  1.00  0.00     0.074 A 
ATOM     28  C   UNL A   1      48.475  30.554  27.380  1.00  0.00     0.029 A 
ATOM     29  N   UNL A   1      46.887  28.998  27.318  1.00  0.00    -0.354 N 
ATOM     30  N   UNL A   1      45.848  26.279  26.912  1.00  0.00    -0.248 NA
ATOM     31  C   UNL A   1      46.164  24.051  26.282  1.00  0.00     0.031 C 
ATOM     32  C   UNL A   1      49.042  29.362  26.919  1.00  0.00     0.029 A 
ATOM     33  C   UNL A   1      48.062  28.383  26.911  1.00  0.00     0.049 A 
ATOM     34  H   UNL A   1      46.014  28.551  27.395  1.00  0.00     0.167 HD
ATOM     35  C   UNL A   1      47.182  26.087  26.575  1.00  0.00     0.074 A 
ATOM     36  C   UNL A   1      47.325  24.689  26.221  1.00  0.00     0.031 C 
ATOM     37  C   UNL A   1      48.195  26.989  26.563  1.00  0.00     0.037 A 
BRANCH  24  38
ATOM     38  C   UNL A   1      46.554  32.706  28.275  1.00  0.00     0.058 A 
ATOM     39  C   UNL A   1      46.520  33.651  27.237  1.00  0.00     0.135 A 
ATOM     40  C   UNL A   1      47.051  33.125  29.521  1.00  0.00     0.135 A 
ATOM     41  F   UNL A   1      46.053  33.310  26.025  1.00  0.00    -0.206 F 
ATOM     42  C   UNL A   1      46.972  34.955  27.420  1.00  0.00     0.059 A 
ATOM     43  C   UNL A   1      47.481  34.433  29.734  1.00  0.00     0.059 A 
ATOM     44  F   UNL A   1      47.089  32.270  30.556  1.00  0.00    -0.206 F 
ATOM     45  C   UNL A   1      47.449  35.337  28.674  1.00  0.00     0.060 A 
BRANCH  45  46
ATOM     46  S   UNL A   1      47.982  37.047  28.909  1.00  0.00     0.124 S 
ATOM     47  O   UNL A   1      48.717  37.305  27.676  1.00  0.00    -0.237 OA
ATOM     48  O   UNL A   1      46.709  37.746  29.051  1.00  0.00    -0.237 OA
ATOM     49  O   UNL A   1      48.791  36.985  30.123  1.00  0.00    -0.744 OA
ENDBRANCH  45  46
ENDBRANCH  24  38
BRANCH  25  50
ATOM     50  C   UNL A   1      43.353  23.340  26.804  1.00  0.00     0.058 A 
ATOM     51  C   UNL A   1      43.145  22.487  27.900  1.00  0.00     0.135 A 
ATOM     52  C   UNL A   1      43.156  22.814  25.519  1.00  0.00     0.135 A 
ATOM     53  F   UNL A   1      43.334  22.937  29.150  1.00  0.00    -0.206 F 
ATOM     54  C   UNL A   1      42.797  21.153  27.728  1.00  0.00     0.059 A 
ATOM     55  C   UNL A   1      42.777  21.491  25.322  1.00  0.00     0.059 A 
ATOM     56  F   UNL A   1      43.334  23.594  24.442  1.00  0.00    -0.206 F 
ATOM     57  C   UNL A   1      42.620  20.662  26.434  1.00  0.00     0.060 A 
BRANCH  57  58
ATOM     58  S   UNL A   1      42.197  18.919  26.235  1.00  0.00     0.124 S 
ATOM     59  O   UNL A   1      42.338  18.427  27.602  1.00  0.00    -0.237 OA
ATOM     60  O   UNL A   1      40.832  18.994  25.723  1.00  0.00    -0.237 OA
ATOM     61  O   UNL A   1      43.195  18.435  25.288  1.00  0.00    -0.744 OA
ENDBRANCH  57  58
ENDBRANCH  25  50
BRANCH  37  62
ATOM     62  C   UNL A   1      49.564  26.492  26.186  1.00  0.00     0.058 A 
ATOM     63  C   UNL A   1      50.382  25.876  27.146  1.00  0.00     0.135 A 
ATOM     64  C   UNL A   1      50.092  26.678  24.898  1.00  0.00     0.135 A 
ATOM     65  F   UNL A   1      49.931  25.677  28.394  1.00  0.00    -0.206 F 
ATOM     66  C   UNL A   1      51.680  25.474  26.847  1.00  0.00     0.059 A 
ATOM     67  C   UNL A   1      51.376  26.255  24.568  1.00  0.00     0.059 A 
ATOM     68  F   UNL A   1      49.347  27.252  23.940  1.00  0.00    -0.206 F 
ATOM     69  C   UNL A   1      52.168  25.667  25.554  1.00  0.00     0.060 A 
BRANCH  69  70
ATOM     70  S   UNL A   1      53.845  25.114  25.179  1.00  0.00     0.124 S 
ATOM     71  O   UNL A   1      54.576  25.548  26.365  1.00  0.00    -0.237 OA
ATOM     72  O   UNL A   1      53.668  23.672  25.034  1.00  0.00    -0.237 OA
ATOM     73  O   UNL A   1      54.168  25.826  23.946  1.00  0.00    -0.744 OA
ENDBRANCH  69  70
ENDBRANCH  37  62
ENDBRANCH  11  12
ENDBRANCH   4   6
ENDBRANCH   1   2
BRANCH   1  74
ATOM     74  C   UNL A   1      34.298  30.749  27.252  1.00  0.00     0.042 C 
BRANCH  74  75
ATOM     75  C   UNL A   1      34.074  29.286  26.911  1.00  0.00     0.118 C 
BRANCH  75  76
ATOM     76  N   UNL A   1      33.058  28.660  27.753  1.00  0.00    -0.352 N 
ATOM     77  C   UNL A   1      31.821  28.163  27.418  1.00  0.00     0.253 C 
ATOM     78  H   UNL A   1      33.294  28.582  28.705  1.00  0.00     0.163 HD
ATOM     79  O   UNL A   1      31.014  27.868  28.294  1.00  0.00    -0.269 OA
BRANCH  77  80
ATOM     80  C   UNL A   1      31.441  28.022  25.994  1.00  0.00     0.063 A 
ATOM     81  C   UNL A   1      31.726  29.098  25.131  1.00  0.00     0.019 A 
ATOM     82  C   UNL A   1      30.819  26.845  25.514  1.00  0.00     0.056 A 
ATOM     83  C   UNL A   1      31.252  29.094  23.828  1.00  0.00     0.040 A 
ATOM     84  C   UNL A   1      30.279  26.911  24.227  1.00  0.00     0.066 A 
ATOM     85  C   UNL A   1      30.498  28.016  23.403  1.00  0.00     0.125 A 
ATOM     86  F   UNL A   1      29.986  28.020  22.167  1.00  0.00    -0.207 F 
BRANCH  82  87
ATOM     87  N   UNL A   1      30.826  25.681  26.336  1.00  0.00    -0.325 N 
ATOM     88  C   UNL A   1      31.633  24.579  26.440  1.00  0.00     0.228 C 
ATOM     89  H   UNL A   1      30.078  25.665  26.977  1.00  0.00     0.169 HD
ATOM     90  O   UNL A   1      31.438  23.778  27.356  1.00  0.00    -0.274 OA
BRANCH  88  91
ATOM     91  C   UNL A   1      32.735  24.332  25.450  1.00  0.00     0.095 C 
ATOM     92  C   UNL A   1      34.159  24.702  25.887  1.00  0.00     0.030 C 
ATOM     93  C   UNL A   1      32.821  22.837  25.154  1.00  0.00     0.150 C 
ATOM     94  C   UNL A   1      35.047  24.218  24.736  1.00  0.00     0.138 C 
ATOM     95  S   UNL A   1      34.284  22.704  24.155  1.00  0.00     0.151 S 
ATOM     96  O   UNL A   1      33.890  22.895  22.771  1.00  0.00    -0.229 OA
ATOM     97  O   UNL A   1      35.066  21.574  24.594  1.00  0.00    -0.229 OA
ENDBRANCH  88  91
ENDBRANCH  82  87
ENDBRANCH  77  80
ENDBRANCH  75  76
ENDBRANCH  74  75
ENDBRANCH   1  74
TORSDOF 15
ENDMDL
MODEL 2
REMARK VINA RESULT:     -12.9      2.734      8.853
REMARK SMILES O=C(NCCCNC(=O)c1ccc(F)cc1NC(=O)[C@H]1CCS(=O)(=O)C1)c1ccc(-c2c3nc(c(-c4c(F)cc(S(=O)(=O)[O-])cc4F)c4ccc([nH]4)c(-c4c(F)cc(S(=O)(=O)[O-])cc4F)c4nc(c(-c5c(F)cc(S(=O)(=O)[O-])cc5F)c5ccc2[nH]5)C=C4)C=C3)cc1
REMARK SMILES IDX 4 1 3 2 1 3 2 4 27 6 28 7 92 8 29 9 91 10 30 11 31 12 32 13
REMARK SMILES IDX 85 14 33 15 90 16 84 17 86 18 34 19 89 20 83 21 82 22 35 24
REMARK SMILES IDX 69 25 48 26 68 27 49 28 52 29 67 30 87 31 50 32 51 33 66 35
REMARK SMILES IDX 88 36 53 37 36 38 37 39 46 40 38 41 39 42 45 43 47 44 40 45
REMARK SMILES IDX 41 46 42 47 43 48 44 49 70 50 71 51 80 52 72 53 73 54 79 55
REMARK SMILES IDX 81 56 74 57 75 58 76 59 77 60 78 61 54 62 55 63 64 64 56 65
REMARK SMILES IDX 57 66 63 67 65 68 58 69 59 70 60 71 61 72 62 73 5 74 6 75
REMARK SMILES IDX 7 76 8 77 9 79 10 80 11 81 16 82 12 83 15 84 13 85 14 86
REMARK SMILES IDX 17 87 18 88 19 90 20 91 21 92 26 93 22 94 23 95 24 96 25 97
REMARK H PARENT 3 5 86 23 52 34 7 78 17 89
REMARK Flexibility Score: inf
ROOT
ATOM      1  C   UNL A   1      33.485  28.381  27.326  1.00  0.00     0.118 C 
ENDROOT
BRANCH   1   2
ATOM      2  N   UNL A   1      33.449  29.787  27.713  1.00  0.00    -0.352 N 
ATOM      3  O   UNL A   1      34.116  31.714  28.662  1.00  0.00    -0.269 OA
ATOM      4  C   UNL A   1      34.418  30.589  28.274  1.00  0.00     0.251 C 
ATOM      5  H   UNL A   1      32.590  30.237  27.547  1.00  0.00     0.163 HD
BRANCH   4   6
ATOM      6  C   UNL A   1      35.800  30.088  28.445  1.00  0.00     0.039 A 
ATOM      7  C   UNL A   1      36.233  29.599  29.675  1.00  0.00     0.014 A 
ATOM      8  C   UNL A   1      36.683  30.120  27.362  1.00  0.00     0.014 A 
ATOM      9  C   UNL A   1      37.585  29.364  29.886  1.00  0.00     0.010 A 
ATOM     10  C   UNL A   1      38.021  29.753  27.543  1.00  0.00     0.010 A 
ATOM     11  C   UNL A   1      38.499  29.428  28.821  1.00  0.00    -0.014 A 
BRANCH  11  12
ATOM     12  C   UNL A   1      39.931  29.120  29.081  1.00  0.00     0.031 A 
ATOM     13  C   UNL A   1      40.526  27.788  28.707  1.00  0.00     0.074 A 
ATOM     14  C   UNL A   1      40.717  30.086  29.602  1.00  0.00     0.049 A 
ATOM     15  N   UNL A   1      41.765  27.380  28.819  1.00  0.00    -0.248 NA
ATOM     16  C   UNL A   1      39.617  26.778  28.142  1.00  0.00     0.031 C 
ATOM     17  C   UNL A   1      40.255  31.416  30.008  1.00  0.00     0.029 A 
ATOM     18  N   UNL A   1      42.066  30.116  29.849  1.00  0.00    -0.354 N 
ATOM     19  C   UNL A   1      41.785  26.070  28.352  1.00  0.00     0.074 A 
ATOM     20  C   UNL A   1      40.423  25.736  27.994  1.00  0.00     0.031 C 
ATOM     21  C   UNL A   1      41.309  32.152  30.386  1.00  0.00     0.029 A 
ATOM     22  C   UNL A   1      42.509  31.327  30.327  1.00  0.00     0.049 A 
ATOM     23  H   UNL A   1      42.660  29.345  29.700  1.00  0.00     0.167 HD
ATOM     24  C   UNL A   1      42.841  25.232  28.219  1.00  0.00     0.037 A 
ATOM     25  C   UNL A   1      43.740  31.733  30.692  1.00  0.00     0.037 A 
ATOM     26  C   UNL A   1      44.195  25.579  28.571  1.00  0.00     0.049 A 
ATOM     27  C   UNL A   1      44.889  30.774  30.568  1.00  0.00     0.074 A 
ATOM     28  C   UNL A   1      45.337  24.802  28.465  1.00  0.00     0.029 A 
ATOM     29  N   UNL A   1      44.595  26.801  29.095  1.00  0.00    -0.354 N 
ATOM     30  N   UNL A   1      44.885  29.542  30.118  1.00  0.00    -0.248 NA
ATOM     31  C   UNL A   1      46.206  31.257  31.000  1.00  0.00     0.031 C 
ATOM     32  C   UNL A   1      46.414  25.534  28.973  1.00  0.00     0.029 A 
ATOM     33  C   UNL A   1      45.961  26.792  29.335  1.00  0.00     0.049 A 
ATOM     34  H   UNL A   1      43.996  27.562  29.272  1.00  0.00     0.167 HD
ATOM     35  C   UNL A   1      46.204  29.107  30.193  1.00  0.00     0.074 A 
ATOM     36  C   UNL A   1      46.977  30.215  30.717  1.00  0.00     0.031 C 
ATOM     37  C   UNL A   1      46.723  27.901  29.856  1.00  0.00     0.037 A 
BRANCH  24  38
ATOM     38  C   UNL A   1      42.582  23.850  27.676  1.00  0.00     0.058 A 
ATOM     39  C   UNL A   1      42.465  22.751  28.544  1.00  0.00     0.135 A 
ATOM     40  C   UNL A   1      42.503  23.600  26.296  1.00  0.00     0.135 A 
ATOM     41  F   UNL A   1      42.530  22.928  29.873  1.00  0.00    -0.206 F 
ATOM     42  C   UNL A   1      42.291  21.456  28.064  1.00  0.00     0.059 A 
ATOM     43  C   UNL A   1      42.300  22.316  25.795  1.00  0.00     0.059 A 
ATOM     44  F   UNL A   1      42.588  24.614  25.420  1.00  0.00    -0.206 F 
ATOM     45  C   UNL A   1      42.207  21.249  26.687  1.00  0.00     0.060 A 
BRANCH  45  46
ATOM     46  S   UNL A   1      41.928  19.570  26.084  1.00  0.00     0.124 S 
ATOM     47  O   UNL A   1      42.795  19.521  24.914  1.00  0.00    -0.237 OA
ATOM     48  O   UNL A   1      42.350  18.762  27.225  1.00  0.00    -0.237 OA
ATOM     49  O   UNL A   1      40.494  19.543  25.808  1.00  0.00    -0.744 OA
ENDBRANCH  45  46
ENDBRANCH  24  38
BRANCH  25  50
ATOM     50  C   UNL A   1      43.932  33.120  31.193  1.00  0.00     0.058 A 
ATOM     51  C   UNL A   1      43.744  33.431  32.549  1.00  0.00     0.135 A 
ATOM     52  C   UNL A   1      44.238  34.171  30.317  1.00  0.00     0.135 A 
ATOM     53  F   UNL A   1      43.435  32.464  33.427  1.00  0.00    -0.206 F 
ATOM     54  C   UNL A   1      43.815  34.739  33.012  1.00  0.00     0.059 A 
ATOM     55  C   UNL A   1      44.346  35.485  30.762  1.00  0.00     0.059 A 
ATOM     56  F   UNL A   1      44.435  33.921  29.013  1.00  0.00    -0.206 F 
ATOM     57  C   UNL A   1      44.111  35.761  32.109  1.00  0.00     0.060 A 
BRANCH  57  58
ATOM     58  S   UNL A   1      44.169  37.455  32.729  1.00  0.00     0.124 S 
ATOM     59  O   UNL A   1      45.538  37.536  33.228  1.00  0.00    -0.237 OA
ATOM     60  O   UNL A   1      43.884  38.230  31.525  1.00  0.00    -0.237 OA
ATOM     61  O   UNL A   1      43.127  37.477  33.750  1.00  0.00    -0.744 OA
ENDBRANCH  57  58
ENDBRANCH  25  50
BRANCH  37  62
ATOM     62  C   UNL A   1      48.208  27.716  30.008  1.00  0.00     0.058 A 
ATOM     63  C   UNL A   1      49.079  28.110  28.981  1.00  0.00     0.135 A 
ATOM     64  C   UNL A   1      48.766  27.096  31.138  1.00  0.00     0.135 A 
ATOM     65  F   UNL A   1      48.600  28.703  27.876  1.00  0.00    -0.206 F 
ATOM     66  C   UNL A   1      50.449  27.884  29.061  1.00  0.00     0.059 A 
ATOM     67  C   UNL A   1      50.137  26.888  31.253  1.00  0.00     0.059 A 
ATOM     68  F   UNL A   1      47.978  26.710  32.154  1.00  0.00    -0.206 F 
ATOM     69  C   UNL A   1      50.970  27.272  30.202  1.00  0.00     0.060 A 
BRANCH  69  70
ATOM     70  S   UNL A   1      52.753  27.012  30.298  1.00  0.00     0.124 S 
ATOM     71  O   UNL A   1      52.882  26.286  31.558  1.00  0.00    -0.237 OA
ATOM     72  O   UNL A   1      53.016  26.237  29.089  1.00  0.00    -0.237 OA
ATOM     73  O   UNL A   1      53.294  28.368  30.296  1.00  0.00    -0.744 OA
ENDBRANCH  69  70
ENDBRANCH  37  62
ENDBRANCH  11  12
ENDBRANCH   4   6
ENDBRANCH   1   2
BRANCH   1  74
ATOM     74  C   UNL A   1      33.917  28.168  25.885  1.00  0.00     0.042 C 
BRANCH  74  75
ATOM     75  C   UNL A   1      33.595  29.333  24.964  1.00  0.00     0.118 C 
BRANCH  75  76
ATOM     76  N   UNL A   1      34.037  29.104  23.591  1.00  0.00    -0.352 N 
ATOM     77  C   UNL A   1      33.458  28.359  22.591  1.00  0.00     0.253 C 
ATOM     78  H   UNL A   1      34.877  29.552  23.343  1.00  0.00     0.163 HD
ATOM     79  O   UNL A   1      34.083  28.107  21.566  1.00  0.00    -0.269 OA
BRANCH  77  80
ATOM     80  C   UNL A   1      32.090  27.819  22.768  1.00  0.00     0.063 A 
ATOM     81  C   UNL A   1      31.018  28.732  22.745  1.00  0.00     0.019 A 
ATOM     82  C   UNL A   1      31.867  26.433  22.946  1.00  0.00     0.056 A 
ATOM     83  C   UNL A   1      29.736  28.312  23.065  1.00  0.00     0.040 A 
ATOM     84  C   UNL A   1      30.583  26.060  23.351  1.00  0.00     0.066 A 
ATOM     85  C   UNL A   1      29.540  26.987  23.403  1.00  0.00     0.125 A 
ATOM     86  F   UNL A   1      28.320  26.576  23.768  1.00  0.00    -0.207 F 
BRANCH  82  87
ATOM     87  N   UNL A   1      32.928  25.525  22.661  1.00  0.00    -0.325 N 
ATOM     88  C   UNL A   1      33.294  24.293  23.133  1.00  0.00     0.228 C 
ATOM     89  H   UNL A   1      33.539  25.861  21.966  1.00  0.00     0.169 HD
ATOM     90  O   UNL A   1      34.223  23.694  22.589  1.00  0.00    -0.274 OA
BRANCH  88  91
ATOM     91  C   UNL A   1      32.589  23.673  24.307  1.00  0.00     0.095 C 
ATOM     92  C   UNL A   1      32.630  22.143  24.414  1.00  0.00     0.030 C 
ATOM     93  C   UNL A   1      33.248  24.148  25.599  1.00  0.00     0.150 C 
ATOM     94  C   UNL A   1      31.952  21.839  25.754  1.00  0.00     0.138 C 
ATOM     95  S   UNL A   1      32.445  23.170  26.847  1.00  0.00     0.151 S 
ATOM     96  O   UNL A   1      31.252  23.883  27.263  1.00  0.00    -0.229 OA
ATOM     97  O   UNL A   1      33.429  22.683  27.783  1.00  0.00    -0.229 OA
ENDBRANCH  88  91
ENDBRANCH  82  87
ENDBRANCH  77  80
ENDBRANCH  75  76
ENDBRANCH  74  75
ENDBRANCH   1  74
TORSDOF 15
ENDMDL
MODEL 3
REMARK VINA RESULT:     -12.9      1.165      2.034
REMARK SMILES O=C(NCCCNC(=O)c1ccc(F)cc1NC(=O)[C@H]1CCS(=O)(=O)C1)c1ccc(-c2c3nc(c(-c4c(F)cc(S(=O)(=O)[O-])cc4F)c4ccc([nH]4)c(-c4c(F)cc(S(=O)(=O)[O-])cc4F)c4nc(c(-c5c(F)cc(S(=O)(=O)[O-])cc5F)c5ccc2[nH]5)C=C4)C=C3)cc1
REMARK SMILES IDX 4 1 3 2 1 3 2 4 27 6 28 7 92 8 29 9 91 10 30 11 31 12 32 13
REMARK SMILES IDX 85 14 33 15 90 16 84 17 86 18 34 19 89 20 83 21 82 22 35 24
REMARK SMILES IDX 69 25 48 26 68 27 49 28 52 29 67 30 87 31 50 32 51 33 66 35
REMARK SMILES IDX 88 36 53 37 36 38 37 39 46 40 38 41 39 42 45 43 47 44 40 45
REMARK SMILES IDX 41 46 42 47 43 48 44 49 70 50 71 51 80 52 72 53 73 54 79 55
REMARK SMILES IDX 81 56 74 57 75 58 76 59 77 60 78 61 54 62 55 63 64 64 56 65
REMARK SMILES IDX 57 66 63 67 65 68 58 69 59 70 60 71 61 72 62 73 5 74 6 75
REMARK SMILES IDX 7 76 8 77 9 79 10 80 11 81 16 82 12 83 15 84 13 85 14 86
REMARK SMILES IDX 17 87 18 88 19 90 20 91 21 92 26 93 22 94 23 95 24 96 25 97
REMARK H PARENT 3 5 86 23 52 34 7 78 17 89
REMARK Flexibility Score: inf
ROOT
ATOM      1  C   UNL A   1      35.252  29.388  27.357  1.00  0.00     0.118 C 
ENDROOT
BRANCH   1   2
ATOM      2  N   UNL A   1      35.172  29.750  28.768  1.00  0.00    -0.352 N 
ATOM      3  O   UNL A   1      35.834  30.022  30.900  1.00  0.00    -0.269 OA
ATOM      4  C   UNL A   1      36.154  29.847  29.727  1.00  0.00     0.251 C 
ATOM      5  H   UNL A   1      34.264  29.960  29.086  1.00  0.00     0.163 HD
BRANCH   4   6
ATOM      6  C   UNL A   1      37.580  29.701  29.359  1.00  0.00     0.039 A 
ATOM      7  C   UNL A   1      37.991  29.839  28.035  1.00  0.00     0.014 A 
ATOM      8  C   UNL A   1      38.521  29.409  30.350  1.00  0.00     0.014 A 
ATOM      9  C   UNL A   1      39.276  29.463  27.670  1.00  0.00     0.010 A 
ATOM     10  C   UNL A   1      39.852  29.159  29.995  1.00  0.00     0.010 A 
ATOM     11  C   UNL A   1      40.230  29.126  28.645  1.00  0.00    -0.014 A 
BRANCH  11  12
ATOM     12  C   UNL A   1      41.610  28.776  28.213  1.00  0.00     0.031 A 
ATOM     13  C   UNL A   1      42.720  29.793  28.243  1.00  0.00     0.074 A 
ATOM     14  C   UNL A   1      41.873  27.503  27.851  1.00  0.00     0.049 A 
ATOM     15  N   UNL A   1      43.987  29.637  27.949  1.00  0.00    -0.248 NA
ATOM     16  C   UNL A   1      42.370  31.164  28.648  1.00  0.00     0.031 C 
ATOM     17  C   UNL A   1      40.878  26.429  27.779  1.00  0.00     0.029 A 
ATOM     18  N   UNL A   1      43.049  26.886  27.511  1.00  0.00    -0.354 N 
ATOM     19  C   UNL A   1      44.580  30.883  28.120  1.00  0.00     0.074 A 
ATOM     20  C   UNL A   1      43.526  31.797  28.504  1.00  0.00     0.031 C 
ATOM     21  C   UNL A   1      41.495  25.276  27.485  1.00  0.00     0.029 A 
ATOM     22  C   UNL A   1      42.913  25.539  27.271  1.00  0.00     0.049 A 
ATOM     23  H   UNL A   1      43.909  27.362  27.444  1.00  0.00     0.167 HD
ATOM     24  C   UNL A   1      45.884  31.228  27.986  1.00  0.00     0.037 A 
ATOM     25  C   UNL A   1      43.820  24.613  26.906  1.00  0.00     0.037 A 
ATOM     26  C   UNL A   1      46.928  30.307  27.611  1.00  0.00     0.049 A 
ATOM     27  C   UNL A   1      45.252  25.027  26.730  1.00  0.00     0.074 A 
ATOM     28  C   UNL A   1      48.281  30.557  27.457  1.00  0.00     0.029 A 
ATOM     29  N   UNL A   1      46.740  28.960  27.332  1.00  0.00    -0.354 N 
ATOM     30  N   UNL A   1      45.792  26.210  26.903  1.00  0.00    -0.248 NA
ATOM     31  C   UNL A   1      46.197  23.986  26.310  1.00  0.00     0.031 C 
ATOM     32  C   UNL A   1      48.901  29.378  27.036  1.00  0.00     0.029 A 
ATOM     33  C   UNL A   1      47.948  28.372  26.989  1.00  0.00     0.049 A 
ATOM     34  H   UNL A   1      45.876  28.490  27.371  1.00  0.00     0.167 HD
ATOM     35  C   UNL A   1      47.147  26.051  26.633  1.00  0.00     0.074 A 
ATOM     36  C   UNL A   1      47.343  24.655  26.300  1.00  0.00     0.031 C 
ATOM     37  C   UNL A   1      48.135  26.980  26.661  1.00  0.00     0.037 A 
BRANCH  24  38
ATOM     38  C   UNL A   1      46.263  32.664  28.238  1.00  0.00     0.058 A 
ATOM     39  C   UNL A   1      46.243  33.603  27.193  1.00  0.00     0.135 A 
ATOM     40  C   UNL A   1      46.700  33.105  29.499  1.00  0.00     0.135 A 
ATOM     41  F   UNL A   1      45.833  33.242  25.966  1.00  0.00    -0.206 F 
ATOM     42  C   UNL A   1      46.652  34.920  27.384  1.00  0.00     0.059 A 
ATOM     43  C   UNL A   1      47.085  34.425  29.720  1.00  0.00     0.059 A 
ATOM     44  F   UNL A   1      46.721  32.257  30.540  1.00  0.00    -0.206 F 
ATOM     45  C   UNL A   1      47.068  35.322  28.653  1.00  0.00     0.060 A 
BRANCH  45  46
ATOM     46  S   UNL A   1      47.544  37.048  28.897  1.00  0.00     0.124 S 
ATOM     47  O   UNL A   1      46.618  37.744  28.013  1.00  0.00    -0.237 OA
ATOM     48  O   UNL A   1      47.317  37.227  30.328  1.00  0.00    -0.237 OA
ATOM     49  O   UNL A   1      48.945  37.072  28.487  1.00  0.00    -0.744 OA
ENDBRANCH  45  46
ENDBRANCH  24  38
BRANCH  25  50
ATOM     50  C   UNL A   1      43.384  23.206  26.702  1.00  0.00     0.058 A 
ATOM     51  C   UNL A   1      43.123  22.363  27.795  1.00  0.00     0.135 A 
ATOM     52  C   UNL A   1      43.284  22.657  25.415  1.00  0.00     0.135 A 
ATOM     53  F   UNL A   1      43.219  22.835  29.047  1.00  0.00    -0.206 F 
ATOM     54  C   UNL A   1      42.819  21.019  27.621  1.00  0.00     0.059 A 
ATOM     55  C   UNL A   1      42.950  21.322  25.214  1.00  0.00     0.059 A 
ATOM     56  F   UNL A   1      43.515  23.426  24.340  1.00  0.00    -0.206 F 
ATOM     57  C   UNL A   1      42.740  20.506  26.325  1.00  0.00     0.060 A 
BRANCH  57  58
ATOM     58  S   UNL A   1      42.371  18.750  26.126  1.00  0.00     0.124 S 
ATOM     59  O   UNL A   1      40.961  18.789  25.752  1.00  0.00    -0.237 OA
ATOM     60  O   UNL A   1      43.300  18.362  25.069  1.00  0.00    -0.237 OA
ATOM     61  O   UNL A   1      42.655  18.194  27.445  1.00  0.00    -0.744 OA
ENDBRANCH  57  58
ENDBRANCH  25  50
BRANCH  37  62
ATOM     62  C   UNL A   1      49.533  26.516  26.355  1.00  0.00     0.058 A 
ATOM     63  C   UNL A   1      50.049  26.635  25.055  1.00  0.00     0.135 A 
ATOM     64  C   UNL A   1      50.340  25.902  27.326  1.00  0.00     0.135 A 
ATOM     65  F   UNL A   1      49.319  27.209  24.086  1.00  0.00    -0.206 F 
ATOM     66  C   UNL A   1      51.309  26.148  24.724  1.00  0.00     0.059 A 
ATOM     67  C   UNL A   1      51.616  25.437  27.026  1.00  0.00     0.059 A 
ATOM     68  F   UNL A   1      49.899  25.774  28.588  1.00  0.00    -0.206 F 
ATOM     69  C   UNL A   1      52.087  25.551  25.717  1.00  0.00     0.060 A 
BRANCH  69  70
ATOM     70  S   UNL A   1      53.730  24.950  25.275  1.00  0.00     0.124 S 
ATOM     71  O   UNL A   1      54.001  25.694  24.049  1.00  0.00    -0.237 OA
ATOM     72  O   UNL A   1      54.522  25.335  26.439  1.00  0.00    -0.237 OA
ATOM     73  O   UNL A   1      53.532  23.513  25.107  1.00  0.00    -0.744 OA
ENDBRANCH  69  70
ENDBRANCH  37  62
ENDBRANCH  11  12
ENDBRANCH   4   6
ENDBRANCH   1   2
BRANCH   1  74
ATOM     74  C   UNL A   1      34.056  28.584  26.876  1.00  0.00     0.042 C 
BRANCH  74  75
ATOM     75  C   UNL A   1      33.195  29.310  25.855  1.00  0.00     0.118 C 
BRANCH  75  76
ATOM     76  N   UNL A   1      33.788  29.318  24.521  1.00  0.00    -0.352 N 
ATOM     77  C   UNL A   1      33.357  28.719  23.361  1.00  0.00     0.253 C 
ATOM     78  H   UNL A   1      34.625  29.829  24.439  1.00  0.00     0.163 HD
ATOM     79  O   UNL A   1      34.098  28.656  22.385  1.00  0.00    -0.269 OA
BRANCH  77  80
ATOM     80  C   UNL A   1      32.009  28.109  23.300  1.00  0.00     0.063 A 
ATOM     81  C   UNL A   1      30.899  28.974  23.262  1.00  0.00     0.019 A 
ATOM     82  C   UNL A   1      31.842  26.703  23.274  1.00  0.00     0.056 A 
ATOM     83  C   UNL A   1      29.613  28.467  23.367  1.00  0.00     0.040 A 
ATOM     84  C   UNL A   1      30.541  26.232  23.470  1.00  0.00     0.066 A 
ATOM     85  C   UNL A   1      29.451  27.103  23.510  1.00  0.00     0.125 A 
ATOM     86  F   UNL A   1      28.221  26.600  23.669  1.00  0.00    -0.207 F 
BRANCH  82  87
ATOM     87  N   UNL A   1      32.976  25.882  23.009  1.00  0.00    -0.325 N 
ATOM     88  C   UNL A   1      33.369  24.628  23.395  1.00  0.00     0.228 C 
ATOM     89  H   UNL A   1      33.628  26.317  22.411  1.00  0.00     0.169 HD
ATOM     90  O   UNL A   1      34.378  24.134  22.889  1.00  0.00    -0.274 OA
BRANCH  88  91
ATOM     91  C   UNL A   1      32.596  23.860  24.429  1.00  0.00     0.095 C 
ATOM     92  C   UNL A   1      32.713  22.330  24.390  1.00  0.00     0.030 C 
ATOM     93  C   UNL A   1      33.107  24.231  25.819  1.00  0.00     0.150 C 
ATOM     94  C   UNL A   1      31.935  21.859  25.624  1.00  0.00     0.138 C 
ATOM     95  S   UNL A   1      32.251  23.094  26.883  1.00  0.00     0.151 S 
ATOM     96  O   UNL A   1      30.987  23.704  27.251  1.00  0.00    -0.229 OA
ATOM     97  O   UNL A   1      33.172  22.561  27.857  1.00  0.00    -0.229 OA
ENDBRANCH  88  91
ENDBRANCH  82  87
ENDBRANCH  77  80
ENDBRANCH  75  76
ENDBRANCH  74  75
ENDBRANCH   1  74
TORSDOF 15
ENDMDL
