MODEL 1
REMARK VINA RESULT:     -13.9      0.000      0.000
REMARK SMILES Cc1nccn1C1(C(=O)NCCCNC(=O)c2ccc(-c3c4nc(c(-c5c(F)cc(S(=O)(=O)[O-])cc5F)c5ccc([nH]5)c(-c5c(F)cc(S(=O)(=O)[O-])cc5F)c5nc(c(-c6c(F)cc(S(=O)(=O)[O-])cc6F)c6ccc3[nH]6)C=C5)C=C4)cc2)CCN(C(=O)[C@@H]2C[C@H]2c2ccccc2)CC1
REMARK SMILES IDX 12 1 11 2 10 3 8 4 9 5 7 7 83 8 98 9 84 10 97 11 85 12 86 13
REMARK SMILES IDX 87 14 6 15 1 16 2 17 3 18 4 19 5 20 88 21 89 22 90 23 91 24
REMARK SMILES IDX 92 25 96 26 93 27 95 28 94 29 13 30 14 31 15 32 16 34 17 35
REMARK SMILES IDX 18 36 82 37 19 38 81 39 20 40 21 41 22 42 75 43 23 44 80 45
REMARK SMILES IDX 74 46 76 47 24 48 79 49 73 50 72 51 25 53 59 54 38 55 58 56
REMARK SMILES IDX 39 57 42 58 57 59 77 60 40 61 41 62 56 64 78 65 43 66 26 67
REMARK SMILES IDX 27 68 36 69 28 70 29 71 35 72 37 73 30 74 31 75 32 76 33 77
REMARK SMILES IDX 34 78 60 79 61 80 70 81 62 82 63 83 69 84 71 85 64 86 65 87
REMARK SMILES IDX 66 88 67 89 68 90 44 91 45 92 54 93 46 94 47 95 53 96 55 97
REMARK SMILES IDX 48 98 49 99 50 100 51 101 52 102
REMARK H PARENT 10 6 14 33 76 52 42 63
REMARK Flexibility Score: inf
ROOT
ATOM      1  C   UNL A   1      33.514  28.900  27.580  1.00  0.00     0.042 C 
ENDROOT
BRANCH   1   2
ATOM      2  C   UNL A   1      32.184  28.792  26.829  1.00  0.00     0.117 C 
BRANCH   2   3
ATOM      3  N   UNL A   1      31.534  27.495  26.972  1.00  0.00    -0.354 N 
ATOM      4  C   UNL A   1      31.522  26.340  26.242  1.00  0.00     0.246 C 
ATOM      5  O   UNL A   1      30.638  25.556  26.603  1.00  0.00    -0.272 OA
ATOM      6  H   UNL A   1      30.977  27.437  27.782  1.00  0.00     0.163 HD
BRANCH   4   7
ATOM      7  C   UNL A   1      32.456  26.072  24.996  1.00  0.00     0.127 C 
ATOM      8  C   UNL A   1      33.880  25.965  25.634  1.00  0.00     0.061 C 
ATOM      9  C   UNL A   1      31.964  24.816  24.228  1.00  0.00     0.061 C 
ATOM     10  C   UNL A   1      34.690  24.672  25.421  1.00  0.00     0.122 C 
ATOM     11  C   UNL A   1      33.144  24.059  23.664  1.00  0.00     0.122 C 
ATOM     12  N   UNL A   1      33.975  23.597  24.744  1.00  0.00    -0.342 N 
ATOM     13  C   UNL A   1      34.296  22.276  25.074  1.00  0.00     0.226 C 
ATOM     14  O   UNL A   1      35.245  22.034  25.818  1.00  0.00    -0.275 OA
BRANCH   7  15
ATOM     15  N   UNL A   1      32.386  27.199  23.981  1.00  0.00    -0.320 N 
ATOM     16  C   UNL A   1      29.829  27.589  23.608  1.00  0.00     0.087 C 
ATOM     17  C   UNL A   1      31.279  27.855  23.425  1.00  0.00     0.106 A 
ATOM     18  N   UNL A   1      31.657  28.880  22.685  1.00  0.00    -0.242 NA
ATOM     19  C   UNL A   1      33.006  28.947  22.770  1.00  0.00     0.131 A 
ATOM     20  C   UNL A   1      33.471  27.978  23.615  1.00  0.00     0.108 A 
ENDBRANCH   7  15
BRANCH  13  21
ATOM     21  C   UNL A   1      33.493  21.088  24.638  1.00  0.00     0.087 C 
ATOM     22  C   UNL A   1      32.046  20.964  25.056  1.00  0.00     0.023 C 
ATOM     23  C   UNL A   1      33.039  19.903  25.441  1.00  0.00     0.032 C 
BRANCH  23  24
ATOM     24  C   UNL A   1      33.000  18.496  24.933  1.00  0.00    -0.044 A 
ATOM     25  C   UNL A   1      32.629  17.459  25.804  1.00  0.00     0.004 A 
ATOM     26  C   UNL A   1      33.646  18.157  23.735  1.00  0.00     0.004 A 
ATOM     27  C   UNL A   1      32.982  16.137  25.538  1.00  0.00     0.000 A 
ATOM     28  C   UNL A   1      33.999  16.834  23.465  1.00  0.00     0.000 A 
ATOM     29  C   UNL A   1      33.692  15.831  24.380  1.00  0.00     0.000 A 
ENDBRANCH  23  24
ENDBRANCH  13  21
ENDBRANCH   4   7
ENDBRANCH   2   3
ENDBRANCH   1   2
BRANCH   1  30
ATOM     30  C   UNL A   1      34.432  29.980  27.035  1.00  0.00     0.118 C 
BRANCH  30  31
ATOM     31  N   UNL A   1      34.262  31.283  27.681  1.00  0.00    -0.352 N 
ATOM     32  C   UNL A   1      34.892  31.738  28.833  1.00  0.00     0.251 C 
ATOM     33  H   UNL A   1      33.632  31.905  27.251  1.00  0.00     0.163 HD
ATOM     34  O   UNL A   1      34.442  32.676  29.464  1.00  0.00    -0.269 OA
BRANCH  32  35
ATOM     35  C   UNL A   1      36.131  31.054  29.257  1.00  0.00     0.039 A 
ATOM     36  C   UNL A   1      36.130  29.754  29.769  1.00  0.00     0.014 A 
ATOM     37  C   UNL A   1      37.325  31.744  29.072  1.00  0.00     0.014 A 
ATOM     38  C   UNL A   1      37.357  29.141  30.024  1.00  0.00     0.010 A 
ATOM     39  C   UNL A   1      38.513  31.073  29.120  1.00  0.00     0.010 A 
ATOM     40  C   UNL A   1      38.545  29.806  29.677  1.00  0.00    -0.014 A 
BRANCH  40  41
ATOM     41  C   UNL A   1      39.848  29.164  29.790  1.00  0.00     0.031 A 
ATOM     42  C   UNL A   1      40.262  28.913  31.193  1.00  0.00     0.074 A 
ATOM     43  C   UNL A   1      40.506  28.641  28.730  1.00  0.00     0.049 A 
ATOM     44  N   UNL A   1      41.114  29.587  31.891  1.00  0.00    -0.248 NA
ATOM     45  C   UNL A   1      39.496  27.934  31.983  1.00  0.00     0.031 C 
ATOM     46  C   UNL A   1      40.047  28.513  27.338  1.00  0.00     0.029 A 
ATOM     47  N   UNL A   1      41.715  28.021  28.692  1.00  0.00    -0.354 N 
ATOM     48  C   UNL A   1      41.201  28.926  33.112  1.00  0.00     0.074 A 
ATOM     49  C   UNL A   1      40.026  28.101  33.197  1.00  0.00     0.031 C 
ATOM     50  C   UNL A   1      40.854  27.663  26.663  1.00  0.00     0.029 A 
ATOM     51  C   UNL A   1      41.989  27.342  27.506  1.00  0.00     0.049 A 
ATOM     52  H   UNL A   1      42.349  28.050  29.445  1.00  0.00     0.167 HD
ATOM     53  C   UNL A   1      42.380  28.883  33.793  1.00  0.00     0.037 A 
ATOM     54  C   UNL A   1      43.076  26.575  27.239  1.00  0.00     0.037 A 
ATOM     55  C   UNL A   1      43.311  29.847  33.252  1.00  0.00     0.049 A 
ATOM     56  C   UNL A   1      44.128  26.998  28.197  1.00  0.00     0.074 A 
ATOM     57  C   UNL A   1      43.334  31.219  33.102  1.00  0.00     0.029 A 
ATOM     58  N   UNL A   1      44.253  29.353  32.381  1.00  0.00    -0.354 N 
ATOM     59  N   UNL A   1      44.663  28.191  28.212  1.00  0.00    -0.248 NA
ATOM     60  C   UNL A   1      44.258  26.245  29.432  1.00  0.00     0.031 C 
ATOM     61  C   UNL A   1      43.971  31.447  31.845  1.00  0.00     0.029 A 
ATOM     62  C   UNL A   1      44.378  30.216  31.326  1.00  0.00     0.049 A 
ATOM     63  H   UNL A   1      44.755  28.515  32.499  1.00  0.00     0.167 HD
ATOM     64  C   UNL A   1      44.802  28.502  29.556  1.00  0.00     0.074 A 
ATOM     65  C   UNL A   1      44.637  27.227  30.253  1.00  0.00     0.031 C 
ATOM     66  C   UNL A   1      44.749  29.799  29.985  1.00  0.00     0.037 A 
BRANCH  53  67
ATOM     67  C   UNL A   1      42.858  27.707  34.624  1.00  0.00     0.058 A 
ATOM     68  C   UNL A   1      43.063  27.890  36.009  1.00  0.00     0.135 A 
ATOM     69  C   UNL A   1      43.391  26.511  34.090  1.00  0.00     0.135 A 
ATOM     70  F   UNL A   1      42.607  28.990  36.628  1.00  0.00    -0.206 F 
ATOM     71  C   UNL A   1      43.806  26.998  36.783  1.00  0.00     0.059 A 
ATOM     72  C   UNL A   1      44.089  25.583  34.855  1.00  0.00     0.059 A 
ATOM     73  F   UNL A   1      43.350  26.221  32.786  1.00  0.00    -0.206 F 
ATOM     74  C   UNL A   1      44.325  25.851  36.191  1.00  0.00     0.060 A 
BRANCH  74  75
ATOM     75  S   UNL A   1      45.346  24.735  37.167  1.00  0.00     0.124 S 
ATOM     76  O   UNL A   1      46.684  25.241  36.885  1.00  0.00    -0.237 OA
ATOM     77  O   UNL A   1      44.843  24.970  38.516  1.00  0.00    -0.237 OA
ATOM     78  O   UNL A   1      45.034  23.421  36.609  1.00  0.00    -0.744 OA
ENDBRANCH  74  75
ENDBRANCH  53  67
BRANCH  54  79
ATOM     79  C   UNL A   1      43.130  25.270  26.519  1.00  0.00     0.058 A 
ATOM     80  C   UNL A   1      43.886  25.119  25.341  1.00  0.00     0.135 A 
ATOM     81  C   UNL A   1      42.699  24.079  27.135  1.00  0.00     0.135 A 
ATOM     82  F   UNL A   1      44.355  26.200  24.699  1.00  0.00    -0.206 F 
ATOM     83  C   UNL A   1      44.241  23.861  24.835  1.00  0.00     0.059 A 
ATOM     84  C   UNL A   1      43.038  22.815  26.647  1.00  0.00     0.059 A 
ATOM     85  F   UNL A   1      42.014  24.109  28.288  1.00  0.00    -0.206 F 
ATOM     86  C   UNL A   1      43.831  22.712  25.510  1.00  0.00     0.060 A 
BRANCH  86  87
ATOM     87  S   UNL A   1      44.429  21.093  24.961  1.00  0.00     0.124 S 
ATOM     88  O   UNL A   1      43.321  20.220  25.335  1.00  0.00    -0.237 OA
ATOM     89  O   UNL A   1      44.617  21.303  23.529  1.00  0.00    -0.237 OA
ATOM     90  O   UNL A   1      45.657  20.907  25.728  1.00  0.00    -0.744 OA
ENDBRANCH  86  87
ENDBRANCH  54  79
BRANCH  66  91
ATOM     91  C   UNL A   1      44.928  30.897  28.963  1.00  0.00     0.058 A 
ATOM     92  C   UNL A   1      46.154  31.307  28.409  1.00  0.00     0.135 A 
ATOM     93  C   UNL A   1      43.764  31.466  28.422  1.00  0.00     0.135 A 
ATOM     94  F   UNL A   1      47.310  30.753  28.801  1.00  0.00    -0.206 F 
ATOM     95  C   UNL A   1      46.218  32.263  27.388  1.00  0.00     0.059 A 
ATOM     96  C   UNL A   1      43.803  32.393  27.386  1.00  0.00     0.059 A 
ATOM     97  F   UNL A   1      42.559  31.080  28.869  1.00  0.00    -0.206 F 
ATOM     98  C   UNL A   1      45.035  32.798  26.881  1.00  0.00     0.060 A 
BRANCH  98  99
ATOM     99  S   UNL A   1      45.106  33.982  25.518  1.00  0.00     0.124 S 
ATOM    100  O   UNL A   1      44.254  35.063  26.004  1.00  0.00    -0.237 OA
ATOM    101  O   UNL A   1      46.531  34.287  25.435  1.00  0.00    -0.237 OA
ATOM    102  O   UNL A   1      44.572  33.232  24.383  1.00  0.00    -0.744 OA
ENDBRANCH  98  99
ENDBRANCH  66  91
ENDBRANCH  40  41
ENDBRANCH  32  35
ENDBRANCH  30  31
ENDBRANCH   1  30
TORSDOF 16
ENDMDL
MODEL 2
REMARK VINA RESULT:     -13.7      2.899      9.838
REMARK SMILES Cc1nccn1C1(C(=O)NCCCNC(=O)c2ccc(-c3c4nc(c(-c5c(F)cc(S(=O)(=O)[O-])cc5F)c5ccc([nH]5)c(-c5c(F)cc(S(=O)(=O)[O-])cc5F)c5nc(c(-c6c(F)cc(S(=O)(=O)[O-])cc6F)c6ccc3[nH]6)C=C5)C=C4)cc2)CCN(C(=O)[C@@H]2C[C@H]2c2ccccc2)CC1
REMARK SMILES IDX 12 1 11 2 10 3 8 4 9 5 7 7 83 8 98 9 84 10 97 11 85 12 86 13
REMARK SMILES IDX 87 14 6 15 1 16 2 17 3 18 4 19 5 20 88 21 89 22 90 23 91 24
REMARK SMILES IDX 92 25 96 26 93 27 95 28 94 29 13 30 14 31 15 32 16 34 17 35
REMARK SMILES IDX 18 36 82 37 19 38 81 39 20 40 21 41 22 42 75 43 23 44 80 45
REMARK SMILES IDX 74 46 76 47 24 48 79 49 73 50 72 51 25 53 59 54 38 55 58 56
REMARK SMILES IDX 39 57 42 58 57 59 77 60 40 61 41 62 56 64 78 65 43 66 26 67
REMARK SMILES IDX 27 68 36 69 28 70 29 71 35 72 37 73 30 74 31 75 32 76 33 77
REMARK SMILES IDX 34 78 60 79 61 80 70 81 62 82 63 83 69 84 71 85 64 86 65 87
REMARK SMILES IDX 66 88 67 89 68 90 44 91 45 92 54 93 46 94 47 95 53 96 55 97
REMARK SMILES IDX 48 98 49 99 50 100 51 101 52 102
REMARK H PARENT 10 6 14 33 76 52 42 63
REMARK Flexibility Score: inf
ROOT
ATOM      1  C   UNL A   1      38.032  22.191  25.648  1.00  0.00     0.042 C 
ENDROOT
BRANCH   1   2
ATOM      2  C   UNL A   1      36.677  22.898  25.754  1.00  0.00     0.117 C 
BRANCH   2   3
ATOM      3  N   UNL A   1      36.244  23.522  24.511  1.00  0.00    -0.354 N 
ATOM      4  C   UNL A   1      35.032  23.754  23.923  1.00  0.00     0.246 C 
ATOM      5  O   UNL A   1      35.133  24.103  22.742  1.00  0.00    -0.272 OA
ATOM      6  H   UNL A   1      36.997  23.853  23.971  1.00  0.00     0.163 HD
BRANCH   4   7
ATOM      7  C   UNL A   1      33.643  23.499  24.630  1.00  0.00     0.127 C 
ATOM      8  C   UNL A   1      33.824  24.176  26.029  1.00  0.00     0.061 C 
ATOM      9  C   UNL A   1      32.492  24.060  23.752  1.00  0.00     0.061 C 
ATOM     10  C   UNL A   1      32.845  25.291  26.442  1.00  0.00     0.122 C 
ATOM     11  C   UNL A   1      31.393  24.612  24.631  1.00  0.00     0.122 C 
ATOM     12  N   UNL A   1      31.908  25.709  25.407  1.00  0.00    -0.342 N 
ATOM     13  C   UNL A   1      31.482  27.041  25.396  1.00  0.00     0.226 C 
ATOM     14  O   UNL A   1      31.791  27.801  26.312  1.00  0.00    -0.275 OA
BRANCH   7  15
ATOM     15  N   UNL A   1      33.339  22.018  24.767  1.00  0.00    -0.320 N 
ATOM     16  C   UNL A   1      33.742  21.496  27.296  1.00  0.00     0.087 C 
ATOM     17  C   UNL A   1      33.350  21.188  25.896  1.00  0.00     0.106 A 
ATOM     18  N   UNL A   1      32.882  19.988  25.608  1.00  0.00    -0.242 NA
ATOM     19  C   UNL A   1      32.516  20.013  24.306  1.00  0.00     0.131 A 
ATOM     20  C   UNL A   1      32.715  21.263  23.788  1.00  0.00     0.108 A 
ENDBRANCH   7  15
BRANCH  13  21
ATOM     21  C   UNL A   1      30.713  27.662  24.268  1.00  0.00     0.087 C 
ATOM     22  C   UNL A   1      31.401  27.937  22.951  1.00  0.00     0.023 C 
ATOM     23  C   UNL A   1      30.782  29.063  23.731  1.00  0.00     0.032 C 
BRANCH  23  24
ATOM     24  C   UNL A   1      29.600  29.854  23.266  1.00  0.00    -0.044 A 
ATOM     25  C   UNL A   1      29.041  29.583  22.007  1.00  0.00     0.004 A 
ATOM     26  C   UNL A   1      29.264  31.063  23.895  1.00  0.00     0.004 A 
ATOM     27  C   UNL A   1      28.258  30.530  21.351  1.00  0.00     0.000 A 
ATOM     28  C   UNL A   1      28.479  32.012  23.241  1.00  0.00     0.000 A 
ATOM     29  C   UNL A   1      28.000  31.756  21.958  1.00  0.00     0.000 A 
ENDBRANCH  23  24
ENDBRANCH  13  21
ENDBRANCH   4   7
ENDBRANCH   2   3
ENDBRANCH   1   2
BRANCH   1  30
ATOM     30  C   UNL A   1      39.135  22.876  26.436  1.00  0.00     0.118 C 
BRANCH  30  31
ATOM     31  N   UNL A   1      40.472  22.339  26.173  1.00  0.00    -0.352 N 
ATOM     32  C   UNL A   1      41.648  23.059  26.000  1.00  0.00     0.251 C 
ATOM     33  H   UNL A   1      40.544  21.359  26.112  1.00  0.00     0.163 HD
ATOM     34  O   UNL A   1      42.616  22.557  25.463  1.00  0.00    -0.269 OA
BRANCH  32  35
ATOM     35  C   UNL A   1      41.685  24.448  26.503  1.00  0.00     0.039 A 
ATOM     36  C   UNL A   1      41.169  25.522  25.774  1.00  0.00     0.014 A 
ATOM     37  C   UNL A   1      42.214  24.642  27.775  1.00  0.00     0.014 A 
ATOM     38  C   UNL A   1      41.131  26.778  26.379  1.00  0.00     0.010 A 
ATOM     39  C   UNL A   1      41.983  25.814  28.436  1.00  0.00     0.010 A 
ATOM     40  C   UNL A   1      41.527  26.908  27.721  1.00  0.00    -0.014 A 
BRANCH  40  41
ATOM     41  C   UNL A   1      41.381  28.162  28.448  1.00  0.00     0.031 A 
ATOM     42  C   UNL A   1      42.466  29.135  28.170  1.00  0.00     0.074 A 
ATOM     43  C   UNL A   1      40.257  28.496  29.124  1.00  0.00     0.049 A 
ATOM     44  N   UNL A   1      43.476  29.419  28.922  1.00  0.00    -0.248 NA
ATOM     45  C   UNL A   1      42.560  29.708  26.816  1.00  0.00     0.031 C 
ATOM     46  C   UNL A   1      38.978  27.772  29.190  1.00  0.00     0.029 A 
ATOM     47  N   UNL A   1      39.988  29.620  29.839  1.00  0.00    -0.354 N 
ATOM     48  C   UNL A   1      44.166  30.426  28.254  1.00  0.00     0.074 A 
ATOM     49  C   UNL A   1      43.715  30.373  26.890  1.00  0.00     0.031 C 
ATOM     50  C   UNL A   1      38.019  28.577  29.700  1.00  0.00     0.029 A 
ATOM     51  C   UNL A   1      38.647  29.794  30.175  1.00  0.00     0.049 A 
ATOM     52  H   UNL A   1      40.688  30.262  30.099  1.00  0.00     0.167 HD
ATOM     53  C   UNL A   1      44.809  31.404  28.952  1.00  0.00     0.037 A 
ATOM     54  C   UNL A   1      38.098  30.862  30.806  1.00  0.00     0.037 A 
ATOM     55  C   UNL A   1      44.930  31.035  30.344  1.00  0.00     0.049 A 
ATOM     56  C   UNL A   1      39.210  31.544  31.514  1.00  0.00     0.074 A 
ATOM     57  C   UNL A   1      45.529  30.008  31.044  1.00  0.00     0.029 A 
ATOM     58  N   UNL A   1      44.003  31.586  31.196  1.00  0.00    -0.354 N 
ATOM     59  N   UNL A   1      39.892  31.004  32.489  1.00  0.00    -0.248 NA
ATOM     60  C   UNL A   1      39.867  32.647  30.834  1.00  0.00     0.031 C 
ATOM     61  C   UNL A   1      44.633  29.713  32.116  1.00  0.00     0.029 A 
ATOM     62  C   UNL A   1      43.574  30.623  32.070  1.00  0.00     0.049 A 
ATOM     63  H   UNL A   1      43.697  32.522  31.180  1.00  0.00     0.167 HD
ATOM     64  C   UNL A   1      41.205  31.394  32.265  1.00  0.00     0.074 A 
ATOM     65  C   UNL A   1      41.108  32.487  31.298  1.00  0.00     0.031 C 
ATOM     66  C   UNL A   1      42.248  30.605  32.661  1.00  0.00     0.037 A 
BRANCH  53  67
ATOM     67  C   UNL A   1      44.926  32.850  28.506  1.00  0.00     0.058 A 
ATOM     68  C   UNL A   1      46.212  33.405  28.327  1.00  0.00     0.135 A 
ATOM     69  C   UNL A   1      43.865  33.784  28.526  1.00  0.00     0.135 A 
ATOM     70  F   UNL A   1      47.299  32.616  28.297  1.00  0.00    -0.206 F 
ATOM     71  C   UNL A   1      46.434  34.781  28.254  1.00  0.00     0.059 A 
ATOM     72  C   UNL A   1      44.060  35.155  28.402  1.00  0.00     0.059 A 
ATOM     73  F   UNL A   1      42.598  33.434  28.762  1.00  0.00    -0.206 F 
ATOM     74  C   UNL A   1      45.348  35.649  28.305  1.00  0.00     0.060 A 
BRANCH  74  75
ATOM     75  S   UNL A   1      45.634  37.426  28.285  1.00  0.00     0.124 S 
ATOM     76  O   UNL A   1      46.003  37.647  26.893  1.00  0.00    -0.237 OA
ATOM     77  O   UNL A   1      44.332  37.943  28.694  1.00  0.00    -0.237 OA
ATOM     78  O   UNL A   1      46.706  37.604  29.262  1.00  0.00    -0.744 OA
ENDBRANCH  74  75
ENDBRANCH  53  67
BRANCH  54  79
ATOM     79  C   UNL A   1      36.804  31.543  30.511  1.00  0.00     0.058 A 
ATOM     80  C   UNL A   1      35.963  31.990  31.547  1.00  0.00     0.135 A 
ATOM     81  C   UNL A   1      36.518  32.040  29.224  1.00  0.00     0.135 A 
ATOM     82  F   UNL A   1      36.174  31.583  32.809  1.00  0.00    -0.206 F 
ATOM     83  C   UNL A   1      34.936  32.919  31.331  1.00  0.00     0.059 A 
ATOM     84  C   UNL A   1      35.497  32.963  28.984  1.00  0.00     0.059 A 
ATOM     85  F   UNL A   1      37.286  31.715  28.174  1.00  0.00    -0.206 F 
ATOM     86  C   UNL A   1      34.725  33.418  30.046  1.00  0.00     0.060 A 
BRANCH  86  87
ATOM     87  S   UNL A   1      33.517  34.743  29.791  1.00  0.00     0.124 S 
ATOM     88  O   UNL A   1      33.051  34.992  31.152  1.00  0.00    -0.237 OA
ATOM     89  O   UNL A   1      34.333  35.796  29.196  1.00  0.00    -0.237 OA
ATOM     90  O   UNL A   1      32.534  34.137  28.897  1.00  0.00    -0.744 OA
ENDBRANCH  86  87
ENDBRANCH  54  79
BRANCH  66  91
ATOM     91  C   UNL A   1      41.977  29.517  33.673  1.00  0.00     0.058 A 
ATOM     92  C   UNL A   1      41.663  28.178  33.372  1.00  0.00     0.135 A 
ATOM     93  C   UNL A   1      42.182  29.831  35.026  1.00  0.00     0.135 A 
ATOM     94  F   UNL A   1      41.537  27.767  32.102  1.00  0.00    -0.206 F 
ATOM     95  C   UNL A   1      41.530  27.209  34.373  1.00  0.00     0.059 A 
ATOM     96  C   UNL A   1      42.086  28.878  36.034  1.00  0.00     0.059 A 
ATOM     97  F   UNL A   1      42.535  31.078  35.377  1.00  0.00    -0.206 F 
ATOM     98  C   UNL A   1      41.746  27.570  35.702  1.00  0.00     0.060 A 
BRANCH  98  99
ATOM     99  S   UNL A   1      41.640  26.311  36.994  1.00  0.00     0.124 S 
ATOM    100  O   UNL A   1      42.846  26.568  37.775  1.00  0.00    -0.237 OA
ATOM    101  O   UNL A   1      40.378  26.634  37.652  1.00  0.00    -0.237 OA
ATOM    102  O   UNL A   1      41.639  25.053  36.248  1.00  0.00    -0.744 OA
ENDBRANCH  98  99
ENDBRANCH  66  91
ENDBRANCH  40  41
ENDBRANCH  32  35
ENDBRANCH  30  31
ENDBRANCH   1  30
TORSDOF 16
ENDMDL
MODEL 3
REMARK VINA RESULT:     -13.0      2.794      9.646
REMARK SMILES Cc1nccn1C1(C(=O)NCCCNC(=O)c2ccc(-c3c4nc(c(-c5c(F)cc(S(=O)(=O)[O-])cc5F)c5ccc([nH]5)c(-c5c(F)cc(S(=O)(=O)[O-])cc5F)c5nc(c(-c6c(F)cc(S(=O)(=O)[O-])cc6F)c6ccc3[nH]6)C=C5)C=C4)cc2)CCN(C(=O)[C@@H]2C[C@H]2c2ccccc2)CC1
REMARK SMILES IDX 12 1 11 2 10 3 8 4 9 5 7 7 83 8 98 9 84 10 97 11 85 12 86 13
REMARK SMILES IDX 87 14 6 15 1 16 2 17 3 18 4 19 5 20 88 21 89 22 90 23 91 24
REMARK SMILES IDX 92 25 96 26 93 27 95 28 94 29 13 30 14 31 15 32 16 34 17 35
REMARK SMILES IDX 18 36 82 37 19 38 81 39 20 40 21 41 22 42 75 43 23 44 80 45
REMARK SMILES IDX 74 46 76 47 24 48 79 49 73 50 72 51 25 53 59 54 38 55 58 56
REMARK SMILES IDX 39 57 42 58 57 59 77 60 40 61 41 62 56 64 78 65 43 66 26 67
REMARK SMILES IDX 27 68 36 69 28 70 29 71 35 72 37 73 30 74 31 75 32 76 33 77
REMARK SMILES IDX 34 78 60 79 61 80 70 81 62 82 63 83 69 84 71 85 64 86 65 87
REMARK SMILES IDX 66 88 67 89 68 90 44 91 45 92 54 93 46 94 47 95 53 96 55 97
REMARK SMILES IDX 48 98 49 99 50 100 51 101 52 102
REMARK H PARENT 10 6 14 33 76 52 42 63
REMARK Flexibility Score: inf
ROOT
ATOM      1  C   UNL A   1      36.501  23.008  24.781  1.00  0.00     0.042 C 
ENDROOT
BRANCH   1   2
ATOM      2  C   UNL A   1      35.952  21.640  25.196  1.00  0.00     0.117 C 
BRANCH   2   3
ATOM      3  N   UNL A   1      35.107  21.684  26.383  1.00  0.00    -0.354 N 
ATOM      4  C   UNL A   1      33.875  22.203  26.666  1.00  0.00     0.246 C 
ATOM      5  O   UNL A   1      33.633  22.224  27.878  1.00  0.00    -0.272 OA
ATOM      6  H   UNL A   1      35.517  21.236  27.157  1.00  0.00     0.163 HD
BRANCH   4   7
ATOM      7  C   UNL A   1      32.903  22.817  25.582  1.00  0.00     0.127 C 
ATOM      8  C   UNL A   1      31.564  23.006  26.369  1.00  0.00     0.061 C 
ATOM      9  C   UNL A   1      33.526  24.108  24.987  1.00  0.00     0.061 C 
ATOM     10  C   UNL A   1      30.952  24.417  26.455  1.00  0.00     0.122 C 
ATOM     11  C   UNL A   1      32.439  25.112  24.678  1.00  0.00     0.122 C 
ATOM     12  N   UNL A   1      31.773  25.485  25.898  1.00  0.00    -0.342 N 
ATOM     13  C   UNL A   1      31.686  26.757  26.472  1.00  0.00     0.226 C 
ATOM     14  O   UNL A   1      30.844  26.993  27.338  1.00  0.00    -0.275 OA
BRANCH   7  15
ATOM     15  N   UNL A   1      32.721  21.891  24.393  1.00  0.00    -0.320 N 
ATOM     16  C   UNL A   1      32.626  19.496  25.435  1.00  0.00     0.087 C 
ATOM     17  C   UNL A   1      32.573  20.499  24.339  1.00  0.00     0.106 A 
ATOM     18  N   UNL A   1      32.294  20.098  23.113  1.00  0.00    -0.242 NA
ATOM     19  C   UNL A   1      32.212  21.211  22.347  1.00  0.00     0.131 A 
ATOM     20  C   UNL A   1      32.395  22.325  23.119  1.00  0.00     0.108 A 
ENDBRANCH   7  15
BRANCH  13  21
ATOM     21  C   UNL A   1      32.629  27.880  26.160  1.00  0.00     0.087 C 
ATOM     22  C   UNL A   1      33.715  27.685  25.127  1.00  0.00     0.023 C 
ATOM     23  C   UNL A   1      34.073  28.041  26.544  1.00  0.00     0.032 C 
BRANCH  23  24
ATOM     24  C   UNL A   1      34.706  29.334  26.948  1.00  0.00    -0.044 A 
ATOM     25  C   UNL A   1      35.957  29.320  27.585  1.00  0.00     0.004 A 
ATOM     26  C   UNL A   1      33.940  30.508  27.016  1.00  0.00     0.004 A 
ATOM     27  C   UNL A   1      36.384  30.402  28.352  1.00  0.00     0.000 A 
ATOM     28  C   UNL A   1      34.366  31.593  27.782  1.00  0.00     0.000 A 
ATOM     29  C   UNL A   1      35.574  31.528  28.472  1.00  0.00     0.000 A 
ENDBRANCH  23  24
ENDBRANCH  13  21
ENDBRANCH   4   7
ENDBRANCH   2   3
ENDBRANCH   1   2
BRANCH   1  30
ATOM     30  C   UNL A   1      37.514  23.577  25.760  1.00  0.00     0.118 C 
BRANCH  30  31
ATOM     31  N   UNL A   1      38.342  22.561  26.412  1.00  0.00    -0.352 N 
ATOM     32  C   UNL A   1      39.574  22.750  27.027  1.00  0.00     0.251 C 
ATOM     33  H   UNL A   1      37.986  21.643  26.416  1.00  0.00     0.163 HD
ATOM     34  O   UNL A   1      40.321  21.812  27.232  1.00  0.00    -0.269 OA
BRANCH  32  35
ATOM     35  C   UNL A   1      39.939  24.123  27.432  1.00  0.00     0.039 A 
ATOM     36  C   UNL A   1      39.043  25.191  27.347  1.00  0.00     0.014 A 
ATOM     37  C   UNL A   1      41.212  24.304  27.962  1.00  0.00     0.014 A 
ATOM     38  C   UNL A   1      39.430  26.425  27.870  1.00  0.00     0.010 A 
ATOM     39  C   UNL A   1      41.504  25.443  28.656  1.00  0.00     0.010 A 
ATOM     40  C   UNL A   1      40.660  26.534  28.540  1.00  0.00    -0.014 A 
BRANCH  40  41
ATOM     41  C   UNL A   1      41.057  27.756  29.225  1.00  0.00     0.031 A 
ATOM     42  C   UNL A   1      42.268  28.391  28.646  1.00  0.00     0.074 A 
ATOM     43  C   UNL A   1      40.277  28.374  30.142  1.00  0.00     0.049 A 
ATOM     44  N   UNL A   1      43.470  28.356  29.113  1.00  0.00    -0.248 NA
ATOM     45  C   UNL A   1      42.179  28.953  27.287  1.00  0.00     0.031 C 
ATOM     46  C   UNL A   1      38.905  28.040  30.552  1.00  0.00     0.029 A 
ATOM     47  N   UNL A   1      40.521  29.508  30.851  1.00  0.00    -0.354 N 
ATOM     48  C   UNL A   1      44.227  29.146  28.253  1.00  0.00     0.074 A 
ATOM     49  C   UNL A   1      43.455  29.262  27.045  1.00  0.00     0.031 C 
ATOM     50  C   UNL A   1      38.368  29.069  31.247  1.00  0.00     0.029 A 
ATOM     51  C   UNL A   1      39.410  30.044  31.500  1.00  0.00     0.049 A 
ATOM     52  H   UNL A   1      41.414  29.918  30.904  1.00  0.00     0.167 HD
ATOM     53  C   UNL A   1      45.271  29.882  28.728  1.00  0.00     0.037 A 
ATOM     54  C   UNL A   1      39.357  31.205  32.200  1.00  0.00     0.037 A 
ATOM     55  C   UNL A   1      45.625  29.454  30.062  1.00  0.00     0.049 A 
ATOM     56  C   UNL A   1      40.756  31.524  32.581  1.00  0.00     0.074 A 
ATOM     57  C   UNL A   1      46.066  28.279  30.637  1.00  0.00     0.029 A 
ATOM     58  N   UNL A   1      45.132  30.220  31.091  1.00  0.00    -0.354 N 
ATOM     59  N   UNL A   1      41.479  30.785  33.381  1.00  0.00    -0.248 NA
ATOM     60  C   UNL A   1      41.505  32.416  31.713  1.00  0.00     0.031 C 
ATOM     61  C   UNL A   1      45.419  28.219  31.908  1.00  0.00     0.029 A 
ATOM     62  C   UNL A   1      44.681  29.392  32.084  1.00  0.00     0.049 A 
ATOM     63  H   UNL A   1      45.108  31.204  31.110  1.00  0.00     0.167 HD
ATOM     64  C   UNL A   1      42.749  30.795  32.824  1.00  0.00     0.074 A 
ATOM     65  C   UNL A   1      42.727  31.898  31.864  1.00  0.00     0.031 C 
ATOM     66  C   UNL A   1      43.594  29.732  32.984  1.00  0.00     0.037 A 
BRANCH  53  67
ATOM     67  C   UNL A   1      45.674  31.248  28.205  1.00  0.00     0.058 A 
ATOM     68  C   UNL A   1      44.686  32.249  28.083  1.00  0.00     0.135 A 
ATOM     69  C   UNL A   1      46.899  31.530  27.557  1.00  0.00     0.135 A 
ATOM     70  F   UNL A   1      43.480  32.092  28.651  1.00  0.00    -0.206 F 
ATOM     71  C   UNL A   1      44.871  33.399  27.314  1.00  0.00     0.059 A 
ATOM     72  C   UNL A   1      47.122  32.694  26.830  1.00  0.00     0.059 A 
ATOM     73  F   UNL A   1      47.910  30.657  27.511  1.00  0.00    -0.206 F 
ATOM     74  C   UNL A   1      46.093  33.605  26.681  1.00  0.00     0.060 A 
BRANCH  74  75
ATOM     75  S   UNL A   1      46.313  35.049  25.629  1.00  0.00     0.124 S 
ATOM     76  O   UNL A   1      45.148  34.955  24.758  1.00  0.00    -0.237 OA
ATOM     77  O   UNL A   1      46.300  36.135  26.603  1.00  0.00    -0.237 OA
ATOM     78  O   UNL A   1      47.604  34.805  24.990  1.00  0.00    -0.744 OA
ENDBRANCH  74  75
ENDBRANCH  53  67
BRANCH  54  79
ATOM     79  C   UNL A   1      38.276  32.232  32.203  1.00  0.00     0.058 A 
ATOM     80  C   UNL A   1      37.906  32.904  31.022  1.00  0.00     0.135 A 
ATOM     81  C   UNL A   1      37.382  32.348  33.286  1.00  0.00     0.135 A 
ATOM     82  F   UNL A   1      38.688  32.832  29.934  1.00  0.00    -0.206 F 
ATOM     83  C   UNL A   1      36.696  33.602  30.904  1.00  0.00     0.059 A 
ATOM     84  C   UNL A   1      36.174  33.041  33.193  1.00  0.00     0.059 A 
ATOM     85  F   UNL A   1      37.615  31.708  34.442  1.00  0.00    -0.206 F 
ATOM     86  C   UNL A   1      35.824  33.645  31.991  1.00  0.00     0.060 A 
BRANCH  86  87
ATOM     87  S   UNL A   1      34.188  34.397  31.792  1.00  0.00     0.124 S 
ATOM     88  O   UNL A   1      33.858  34.041  30.416  1.00  0.00    -0.237 OA
ATOM     89  O   UNL A   1      33.410  33.722  32.826  1.00  0.00    -0.237 OA
ATOM     90  O   UNL A   1      34.436  35.816  32.028  1.00  0.00    -0.744 OA
ENDBRANCH  86  87
ENDBRANCH  54  79
BRANCH  66  91
ATOM     91  C   UNL A   1      43.288  28.736  34.079  1.00  0.00     0.058 A 
ATOM     92  C   UNL A   1      43.614  28.890  35.439  1.00  0.00     0.135 A 
ATOM     93  C   UNL A   1      42.497  27.628  33.737  1.00  0.00     0.135 A 
ATOM     94  F   UNL A   1      44.290  29.964  35.871  1.00  0.00    -0.206 F 
ATOM     95  C   UNL A   1      43.199  27.966  36.405  1.00  0.00     0.059 A 
ATOM     96  C   UNL A   1      42.048  26.714  34.684  1.00  0.00     0.059 A 
ATOM     97  F   UNL A   1      42.107  27.451  32.464  1.00  0.00    -0.206 F 
ATOM     98  C   UNL A   1      42.413  26.882  36.017  1.00  0.00     0.060 A 
BRANCH  98  99
ATOM     99  S   UNL A   1      41.820  25.720  37.267  1.00  0.00     0.124 S 
ATOM    100  O   UNL A   1      40.477  26.222  37.542  1.00  0.00    -0.237 OA
ATOM    101  O   UNL A   1      41.887  24.439  36.570  1.00  0.00    -0.237 OA
ATOM    102  O   UNL A   1      42.777  25.875  38.361  1.00  0.00    -0.744 OA
ENDBRANCH  98  99
ENDBRANCH  66  91
ENDBRANCH  40  41
ENDBRANCH  32  35
ENDBRANCH  30  31
ENDBRANCH   1  30
TORSDOF 16
ENDMDL
