MODEL 1
REMARK VINA RESULT:     -12.6      0.000      0.000
REMARK SMILES C[C@H](NC(=O)c1c(C(=O)NCCCNC(=O)c2ccc(-c3c4nc(c(-c5c(F)cc(S(=O)(=O)[O-])cc5F)c5ccc([nH]5)c(-c5c(F)cc(S(=O)(=O)[O-])cc5F)c5nc(c(-c6c(F)cc(S(=O)(=O)[O-])cc6F)c6ccc3[nH]6)C=C5)C=C4)cc2)cnn1C)[C@]12C[C@H]3C[C@H](C[C@H](C3)C1)C2
REMARK SMILES IDX 12 1 11 2 10 3 8 4 9 5 7 7 6 8 85 9 83 10 84 11 86 12 4 13
REMARK SMILES IDX 3 14 5 16 2 17 1 18 87 19 88 20 95 21 96 22 89 23 93 24
REMARK SMILES IDX 91 25 90 26 94 27 92 28 13 29 14 30 15 31 16 33 17 34 18 35
REMARK SMILES IDX 82 36 19 37 81 38 20 39 21 40 22 41 75 42 23 43 80 44 74 45
REMARK SMILES IDX 76 46 24 47 79 48 73 49 72 50 25 52 59 53 38 54 58 55 39 56
REMARK SMILES IDX 42 57 57 58 77 59 40 60 41 61 56 63 78 64 43 65 26 66 27 67
REMARK SMILES IDX 36 68 28 69 29 70 35 71 37 72 30 73 31 74 32 75 33 76 34 77
REMARK SMILES IDX 60 78 61 79 70 80 62 81 63 82 69 83 71 84 64 85 65 86 66 87
REMARK SMILES IDX 67 88 68 89 44 90 45 91 54 92 46 93 47 94 53 95 55 96 48 97
REMARK SMILES IDX 49 98 50 99 51 100 52 101
REMARK H PARENT 10 6 3 15 14 32 76 51 42 62
REMARK Flexibility Score: inf
ROOT
ATOM      1  C   UNL A   1      37.175  22.807  25.858  1.00  0.00     0.042 C 
ENDROOT
BRANCH   1   2
ATOM      2  C   UNL A   1      37.064  22.418  24.384  1.00  0.00     0.118 C 
BRANCH   2   3
ATOM      3  N   UNL A   1      36.288  23.402  23.655  1.00  0.00    -0.352 N 
ATOM      4  C   UNL A   1      34.963  23.650  23.443  1.00  0.00     0.255 C 
ATOM      5  O   UNL A   1      34.746  24.651  22.750  1.00  0.00    -0.269 OA
ATOM      6  H   UNL A   1      36.863  24.058  23.198  1.00  0.00     0.163 HD
BRANCH   4   7
ATOM      7  C   UNL A   1      33.836  22.920  24.009  1.00  0.00     0.090 A 
ATOM      8  C   UNL A   1      33.139  22.880  25.219  1.00  0.00     0.138 A 
ATOM      9  N   UNL A   1      32.060  22.051  24.980  1.00  0.00    -0.262 N 
ATOM     10  C   UNL A   1      33.203  21.898  23.239  1.00  0.00     0.149 A 
ATOM     11  N   UNL A   1      32.140  21.364  23.830  1.00  0.00    -0.180 NA
ATOM     12  C   UNL A   1      30.894  21.831  25.806  1.00  0.00     0.174 C 
BRANCH   8  13
ATOM     13  C   UNL A   1      33.263  23.594  26.455  1.00  0.00     0.270 C 
ATOM     14  N   UNL A   1      32.495  24.694  26.731  1.00  0.00    -0.348 N 
ATOM     15  H   UNL A   1      32.536  24.951  27.680  1.00  0.00     0.164 HD
ATOM     16  O   UNL A   1      34.135  23.309  27.276  1.00  0.00    -0.267 OA
BRANCH  14  17
ATOM     17  C   UNL A   1      31.623  25.584  25.946  1.00  0.00     0.085 C 
ATOM     18  C   UNL A   1      30.132  25.366  26.198  1.00  0.00     0.031 C 
BRANCH  17  19
ATOM     19  C   UNL A   1      32.087  27.074  25.876  1.00  0.00    -0.009 C 
ATOM     20  C   UNL A   1      31.618  27.802  24.597  1.00  0.00     0.012 C 
ATOM     21  C   UNL A   1      33.643  27.153  25.926  1.00  0.00     0.012 C 
ATOM     22  C   UNL A   1      31.536  27.865  27.100  1.00  0.00     0.012 C 
ATOM     23  C   UNL A   1      32.111  29.264  24.577  1.00  0.00    -0.010 C 
ATOM     24  C   UNL A   1      34.135  28.607  25.916  1.00  0.00    -0.010 C 
ATOM     25  C   UNL A   1      32.033  29.322  27.092  1.00  0.00    -0.010 C 
ATOM     26  C   UNL A   1      31.566  30.014  25.804  1.00  0.00     0.007 C 
ATOM     27  C   UNL A   1      33.646  29.286  24.628  1.00  0.00     0.007 C 
ATOM     28  C   UNL A   1      33.569  29.338  27.140  1.00  0.00     0.007 C 
ENDBRANCH  17  19
ENDBRANCH  14  17
ENDBRANCH   8  13
ENDBRANCH   4   7
ENDBRANCH   2   3
ENDBRANCH   1   2
BRANCH   1  29
ATOM     29  C   UNL A   1      38.037  24.054  26.073  1.00  0.00     0.118 C 
BRANCH  29  30
ATOM     30  N   UNL A   1      39.457  23.740  26.010  1.00  0.00    -0.352 N 
ATOM     31  C   UNL A   1      40.542  24.425  26.500  1.00  0.00     0.251 C 
ATOM     32  H   UNL A   1      39.674  22.902  25.542  1.00  0.00     0.163 HD
ATOM     33  O   UNL A   1      41.663  24.127  26.093  1.00  0.00    -0.269 OA
BRANCH  31  34
ATOM     34  C   UNL A   1      40.394  25.513  27.498  1.00  0.00     0.039 A 
ATOM     35  C   UNL A   1      41.281  26.595  27.447  1.00  0.00     0.014 A 
ATOM     36  C   UNL A   1      39.466  25.436  28.540  1.00  0.00     0.014 A 
ATOM     37  C   UNL A   1      41.220  27.603  28.415  1.00  0.00     0.010 A 
ATOM     38  C   UNL A   1      39.358  26.477  29.465  1.00  0.00     0.010 A 
ATOM     39  C   UNL A   1      40.250  27.560  29.428  1.00  0.00    -0.014 A 
BRANCH  39  40
ATOM     40  C   UNL A   1      40.198  28.594  30.498  1.00  0.00     0.031 A 
ATOM     41  C   UNL A   1      41.125  28.499  31.682  1.00  0.00     0.074 A 
ATOM     42  C   UNL A   1      39.287  29.585  30.447  1.00  0.00     0.049 A 
ATOM     43  N   UNL A   1      41.145  29.214  32.779  1.00  0.00    -0.248 NA
ATOM     44  C   UNL A   1      42.140  27.434  31.641  1.00  0.00     0.031 C 
ATOM     45  C   UNL A   1      38.295  29.773  29.387  1.00  0.00     0.029 A 
ATOM     46  N   UNL A   1      39.043  30.615  31.320  1.00  0.00    -0.354 N 
ATOM     47  C   UNL A   1      42.122  28.642  33.586  1.00  0.00     0.074 A 
ATOM     48  C   UNL A   1      42.672  27.522  32.852  1.00  0.00     0.031 C 
ATOM     49  C   UNL A   1      37.561  30.864  29.664  1.00  0.00     0.029 A 
ATOM     50  C   UNL A   1      38.014  31.437  30.930  1.00  0.00     0.049 A 
ATOM     51  H   UNL A   1      39.557  30.753  32.148  1.00  0.00     0.167 HD
ATOM     52  C   UNL A   1      42.528  29.015  34.824  1.00  0.00     0.037 A 
ATOM     53  C   UNL A   1      37.492  32.529  31.522  1.00  0.00     0.037 A 
ATOM     54  C   UNL A   1      42.047  30.175  35.524  1.00  0.00     0.049 A 
ATOM     55  C   UNL A   1      38.064  33.017  32.821  1.00  0.00     0.074 A 
ATOM     56  C   UNL A   1      42.435  30.664  36.760  1.00  0.00     0.029 A 
ATOM     57  N   UNL A   1      41.089  31.049  35.033  1.00  0.00    -0.354 N 
ATOM     58  N   UNL A   1      38.992  32.469  33.565  1.00  0.00    -0.248 NA
ATOM     59  C   UNL A   1      37.527  34.277  33.353  1.00  0.00     0.031 C 
ATOM     60  C   UNL A   1      41.715  31.839  37.012  1.00  0.00     0.029 A 
ATOM     61  C   UNL A   1      40.886  32.084  35.929  1.00  0.00     0.049 A 
ATOM     62  H   UNL A   1      40.622  30.947  34.172  1.00  0.00     0.167 HD
ATOM     63  C   UNL A   1      39.155  33.317  34.653  1.00  0.00     0.074 A 
ATOM     64  C   UNL A   1      38.239  34.424  34.462  1.00  0.00     0.031 C 
ATOM     65  C   UNL A   1      39.983  33.186  35.717  1.00  0.00     0.037 A 
BRANCH  52  66
ATOM     66  C   UNL A   1      43.541  28.135  35.494  1.00  0.00     0.058 A 
ATOM     67  C   UNL A   1      44.917  28.290  35.269  1.00  0.00     0.135 A 
ATOM     68  C   UNL A   1      43.123  27.093  36.338  1.00  0.00     0.135 A 
ATOM     69  F   UNL A   1      45.363  29.259  34.454  1.00  0.00    -0.206 F 
ATOM     70  C   UNL A   1      45.846  27.412  35.820  1.00  0.00     0.059 A 
ATOM     71  C   UNL A   1      44.035  26.215  36.915  1.00  0.00     0.059 A 
ATOM     72  F   UNL A   1      41.817  26.903  36.585  1.00  0.00    -0.206 F 
ATOM     73  C   UNL A   1      45.392  26.367  36.628  1.00  0.00     0.060 A 
BRANCH  73  74
ATOM     74  S   UNL A   1      46.584  25.188  37.298  1.00  0.00     0.124 S 
ATOM     75  O   UNL A   1      47.608  25.192  36.259  1.00  0.00    -0.237 OA
ATOM     76  O   UNL A   1      46.968  25.799  38.567  1.00  0.00    -0.237 OA
ATOM     77  O   UNL A   1      45.804  23.959  37.412  1.00  0.00    -0.744 OA
ENDBRANCH  73  74
ENDBRANCH  52  66
BRANCH  53  78
ATOM     78  C   UNL A   1      36.384  33.253  30.855  1.00  0.00     0.058 A 
ATOM     79  C   UNL A   1      35.085  33.213  31.381  1.00  0.00     0.135 A 
ATOM     80  C   UNL A   1      36.614  34.048  29.723  1.00  0.00     0.135 A 
ATOM     81  F   UNL A   1      34.823  32.461  32.461  1.00  0.00    -0.206 F 
ATOM     82  C   UNL A   1      34.048  33.943  30.813  1.00  0.00     0.059 A 
ATOM     83  C   UNL A   1      35.595  34.796  29.143  1.00  0.00     0.059 A 
ATOM     84  F   UNL A   1      37.845  34.127  29.196  1.00  0.00    -0.206 F 
ATOM     85  C   UNL A   1      34.315  34.738  29.696  1.00  0.00     0.060 A 
BRANCH  85  86
ATOM     86  S   UNL A   1      32.995  35.770  29.020  1.00  0.00     0.124 S 
ATOM     87  O   UNL A   1      32.298  34.826  28.156  1.00  0.00    -0.237 OA
ATOM     88  O   UNL A   1      32.277  36.190  30.220  1.00  0.00    -0.237 OA
ATOM     89  O   UNL A   1      33.728  36.834  28.339  1.00  0.00    -0.744 OA
ENDBRANCH  85  86
ENDBRANCH  53  78
BRANCH  65  90
ATOM     90  C   UNL A   1      39.954  34.274  36.747  1.00  0.00     0.058 A 
ATOM     91  C   UNL A   1      40.660  35.472  36.559  1.00  0.00     0.135 A 
ATOM     92  C   UNL A   1      39.183  34.135  37.911  1.00  0.00     0.135 A 
ATOM     93  F   UNL A   1      41.414  35.647  35.463  1.00  0.00    -0.206 F 
ATOM     94  C   UNL A   1      40.615  36.494  37.501  1.00  0.00     0.059 A 
ATOM     95  C   UNL A   1      39.115  35.148  38.861  1.00  0.00     0.059 A 
ATOM     96  F   UNL A   1      38.488  33.008  38.131  1.00  0.00    -0.206 F 
ATOM     97  C   UNL A   1      39.842  36.321  38.652  1.00  0.00     0.060 A 
BRANCH  97  98
ATOM     98  S   UNL A   1      39.757  37.659  39.862  1.00  0.00     0.124 S 
ATOM     99  O   UNL A   1      41.032  38.334  39.642  1.00  0.00    -0.237 OA
ATOM    100  O   UNL A   1      38.569  38.398  39.442  1.00  0.00    -0.237 OA
ATOM    101  O   UNL A   1      39.628  36.953  41.133  1.00  0.00    -0.744 OA
ENDBRANCH  97  98
ENDBRANCH  65  90
ENDBRANCH  39  40
ENDBRANCH  31  34
ENDBRANCH  29  30
ENDBRANCH   1  29
TORSDOF 16
ENDMDL
MODEL 2
REMARK VINA RESULT:     -12.5      1.294      2.229
REMARK SMILES C[C@H](NC(=O)c1c(C(=O)NCCCNC(=O)c2ccc(-c3c4nc(c(-c5c(F)cc(S(=O)(=O)[O-])cc5F)c5ccc([nH]5)c(-c5c(F)cc(S(=O)(=O)[O-])cc5F)c5nc(c(-c6c(F)cc(S(=O)(=O)[O-])cc6F)c6ccc3[nH]6)C=C5)C=C4)cc2)cnn1C)[C@]12C[C@H]3C[C@H](C[C@H](C3)C1)C2
REMARK SMILES IDX 12 1 11 2 10 3 8 4 9 5 7 7 6 8 85 9 83 10 84 11 86 12 4 13
REMARK SMILES IDX 3 14 5 16 2 17 1 18 87 19 88 20 95 21 96 22 89 23 93 24
REMARK SMILES IDX 91 25 90 26 94 27 92 28 13 29 14 30 15 31 16 33 17 34 18 35
REMARK SMILES IDX 82 36 19 37 81 38 20 39 21 40 22 41 75 42 23 43 80 44 74 45
REMARK SMILES IDX 76 46 24 47 79 48 73 49 72 50 25 52 59 53 38 54 58 55 39 56
REMARK SMILES IDX 42 57 57 58 77 59 40 60 41 61 56 63 78 64 43 65 26 66 27 67
REMARK SMILES IDX 36 68 28 69 29 70 35 71 37 72 30 73 31 74 32 75 33 76 34 77
REMARK SMILES IDX 60 78 61 79 70 80 62 81 63 82 69 83 71 84 64 85 65 86 66 87
REMARK SMILES IDX 67 88 68 89 44 90 45 91 54 92 46 93 47 94 53 95 55 96 48 97
REMARK SMILES IDX 49 98 50 99 51 100 52 101
REMARK H PARENT 10 6 3 15 14 32 76 51 42 62
REMARK Flexibility Score: inf
ROOT
ATOM      1  C   UNL A   1      40.549  22.275  27.681  1.00  0.00     0.042 C 
ENDROOT
BRANCH   1   2
ATOM      2  C   UNL A   1      39.864  21.952  26.354  1.00  0.00     0.118 C 
BRANCH   2   3
ATOM      3  N   UNL A   1      38.838  22.933  26.058  1.00  0.00    -0.352 N 
ATOM      4  C   UNL A   1      37.534  22.903  25.658  1.00  0.00     0.255 C 
ATOM      5  O   UNL A   1      37.018  24.021  25.550  1.00  0.00    -0.269 OA
ATOM      6  H   UNL A   1      39.166  23.854  26.176  1.00  0.00     0.163 HD
BRANCH   4   7
ATOM      7  C   UNL A   1      36.713  21.719  25.442  1.00  0.00     0.090 A 
ATOM      8  C   UNL A   1      35.390  21.330  25.663  1.00  0.00     0.138 A 
ATOM      9  N   UNL A   1      35.274  20.099  25.046  1.00  0.00    -0.262 N 
ATOM     10  C   UNL A   1      37.311  20.537  24.908  1.00  0.00     0.149 A 
ATOM     11  N   UNL A   1      36.445  19.556  24.681  1.00  0.00    -0.180 NA
ATOM     12  C   UNL A   1      34.074  19.341  24.767  1.00  0.00     0.174 C 
BRANCH   8  13
ATOM     13  C   UNL A   1      34.245  21.990  26.215  1.00  0.00     0.270 C 
ATOM     14  N   UNL A   1      33.485  22.856  25.473  1.00  0.00    -0.348 N 
ATOM     15  H   UNL A   1      32.627  23.068  25.907  1.00  0.00     0.164 HD
ATOM     16  O   UNL A   1      33.956  21.885  27.407  1.00  0.00    -0.267 OA
BRANCH  14  17
ATOM     17  C   UNL A   1      33.647  23.546  24.182  1.00  0.00     0.085 C 
ATOM     18  C   UNL A   1      33.228  22.704  22.977  1.00  0.00     0.031 C 
BRANCH  17  19
ATOM     19  C   UNL A   1      33.178  25.036  24.164  1.00  0.00    -0.009 C 
ATOM     20  C   UNL A   1      31.654  25.200  24.361  1.00  0.00     0.012 C 
ATOM     21  C   UNL A   1      33.556  25.699  22.805  1.00  0.00     0.012 C 
ATOM     22  C   UNL A   1      33.890  25.837  25.294  1.00  0.00     0.012 C 
ATOM     23  C   UNL A   1      31.246  26.687  24.325  1.00  0.00    -0.010 C 
ATOM     24  C   UNL A   1      33.160  27.181  22.771  1.00  0.00    -0.010 C 
ATOM     25  C   UNL A   1      33.496  27.324  25.257  1.00  0.00    -0.010 C 
ATOM     26  C   UNL A   1      31.977  27.454  25.439  1.00  0.00     0.007 C 
ATOM     27  C   UNL A   1      31.640  27.292  22.969  1.00  0.00     0.007 C 
ATOM     28  C   UNL A   1      33.890  27.923  23.898  1.00  0.00     0.007 C 
ENDBRANCH  17  19
ENDBRANCH  14  17
ENDBRANCH   8  13
ENDBRANCH   4   7
ENDBRANCH   2   3
ENDBRANCH   1   2
BRANCH   1  29
ATOM     29  C   UNL A   1      41.953  22.857  27.492  1.00  0.00     0.118 C 
BRANCH  29  30
ATOM     30  N   UNL A   1      42.026  23.702  26.309  1.00  0.00    -0.352 N 
ATOM     31  C   UNL A   1      41.747  25.038  26.151  1.00  0.00     0.251 C 
ATOM     32  H   UNL A   1      42.323  23.243  25.491  1.00  0.00     0.163 HD
ATOM     33  O   UNL A   1      41.606  25.482  25.014  1.00  0.00    -0.269 OA
BRANCH  31  34
ATOM     34  C   UNL A   1      41.607  25.949  27.314  1.00  0.00     0.039 A 
ATOM     35  C   UNL A   1      40.440  25.879  28.084  1.00  0.00     0.014 A 
ATOM     36  C   UNL A   1      42.555  26.936  27.596  1.00  0.00     0.014 A 
ATOM     37  C   UNL A   1      40.238  26.771  29.142  1.00  0.00     0.010 A 
ATOM     38  C   UNL A   1      42.387  27.780  28.696  1.00  0.00     0.010 A 
ATOM     39  C   UNL A   1      41.215  27.724  29.467  1.00  0.00    -0.014 A 
BRANCH  39  40
ATOM     40  C   UNL A   1      41.002  28.716  30.556  1.00  0.00     0.031 A 
ATOM     41  C   UNL A   1      41.862  28.671  31.793  1.00  0.00     0.074 A 
ATOM     42  C   UNL A   1      40.006  29.619  30.473  1.00  0.00     0.049 A 
ATOM     43  N   UNL A   1      41.749  29.352  32.905  1.00  0.00    -0.248 NA
ATOM     44  C   UNL A   1      42.974  27.707  31.789  1.00  0.00     0.031 C 
ATOM     45  C   UNL A   1      39.065  29.746  29.358  1.00  0.00     0.029 A 
ATOM     46  N   UNL A   1      39.614  30.595  31.354  1.00  0.00    -0.354 N 
ATOM     47  C   UNL A   1      42.725  28.849  33.757  1.00  0.00     0.074 A 
ATOM     48  C   UNL A   1      43.421  27.807  33.032  1.00  0.00     0.031 C 
ATOM     49  C   UNL A   1      38.216  30.755  29.616  1.00  0.00     0.029 A 
ATOM     50  C   UNL A   1      38.537  31.329  30.921  1.00  0.00     0.049 A 
ATOM     51  H   UNL A   1      40.063  30.755  32.215  1.00  0.00     0.167 HD
ATOM     52  C   UNL A   1      43.021  29.221  35.027  1.00  0.00     0.037 A 
ATOM     53  C   UNL A   1      37.880  32.350  31.506  1.00  0.00     0.037 A 
ATOM     54  C   UNL A   1      42.392  30.309  35.724  1.00  0.00     0.049 A 
ATOM     55  C   UNL A   1      38.325  32.849  32.849  1.00  0.00     0.074 A 
ATOM     56  C   UNL A   1      42.658  30.794  36.993  1.00  0.00     0.029 A 
ATOM     57  N   UNL A   1      41.386  31.105  35.196  1.00  0.00    -0.354 N 
ATOM     58  N   UNL A   1      39.255  32.367  33.637  1.00  0.00    -0.248 NA
ATOM     59  C   UNL A   1      37.641  34.037  33.378  1.00  0.00     0.031 C 
ATOM     60  C   UNL A   1      41.816  31.890  37.229  1.00  0.00     0.029 A 
ATOM     61  C   UNL A   1      41.034  32.089  36.103  1.00  0.00     0.049 A 
ATOM     62  H   UNL A   1      40.982  30.986  34.306  1.00  0.00     0.167 HD
ATOM     63  C   UNL A   1      39.272  33.194  34.753  1.00  0.00     0.074 A 
ATOM     64  C   UNL A   1      38.269  34.217  34.533  1.00  0.00     0.031 C 
ATOM     65  C   UNL A   1      40.045  33.108  35.863  1.00  0.00     0.037 A 
BRANCH  52  66
ATOM     66  C   UNL A   1      44.070  28.418  35.737  1.00  0.00     0.058 A 
ATOM     67  C   UNL A   1      45.435  28.723  35.622  1.00  0.00     0.135 A 
ATOM     68  C   UNL A   1      43.706  27.302  36.507  1.00  0.00     0.135 A 
ATOM     69  F   UNL A   1      45.833  29.768  34.880  1.00  0.00    -0.206 F 
ATOM     70  C   UNL A   1      46.410  27.919  36.206  1.00  0.00     0.059 A 
ATOM     71  C   UNL A   1      44.662  26.496  37.116  1.00  0.00     0.059 A 
ATOM     72  F   UNL A   1      42.413  26.969  36.649  1.00  0.00    -0.206 F 
ATOM     73  C   UNL A   1      46.012  26.798  36.937  1.00  0.00     0.060 A 
BRANCH  73  74
ATOM     74  S   UNL A   1      47.271  25.717  37.650  1.00  0.00     0.124 S 
ATOM     75  O   UNL A   1      48.487  26.258  37.052  1.00  0.00    -0.237 OA
ATOM     76  O   UNL A   1      47.118  25.940  39.084  1.00  0.00    -0.237 OA
ATOM     77  O   UNL A   1      46.872  24.392  37.182  1.00  0.00    -0.744 OA
ENDBRANCH  73  74
ENDBRANCH  52  66
BRANCH  53  78
ATOM     78  C   UNL A   1      36.750  32.987  30.790  1.00  0.00     0.058 A 
ATOM     79  C   UNL A   1      35.429  32.787  31.216  1.00  0.00     0.135 A 
ATOM     80  C   UNL A   1      36.972  33.858  29.713  1.00  0.00     0.135 A 
ATOM     81  F   UNL A   1      35.175  31.959  32.240  1.00  0.00    -0.206 F 
ATOM     82  C   UNL A   1      34.363  33.434  30.603  1.00  0.00     0.059 A 
ATOM     83  C   UNL A   1      35.922  34.525  29.091  1.00  0.00     0.059 A 
ATOM     84  F   UNL A   1      38.222  34.090  29.283  1.00  0.00    -0.206 F 
ATOM     85  C   UNL A   1      34.621  34.307  29.544  1.00  0.00     0.060 A 
BRANCH  85  86
ATOM     86  S   UNL A   1      33.248  35.229  28.815  1.00  0.00     0.124 S 
ATOM     87  O   UNL A   1      32.642  34.222  27.954  1.00  0.00    -0.237 OA
ATOM     88  O   UNL A   1      32.472  35.618  29.990  1.00  0.00    -0.237 OA
ATOM     89  O   UNL A   1      33.921  36.330  28.131  1.00  0.00    -0.744 OA
ENDBRANCH  85  86
ENDBRANCH  53  78
BRANCH  65  90
ATOM     90  C   UNL A   1      39.851  34.158  36.915  1.00  0.00     0.058 A 
ATOM     91  C   UNL A   1      38.994  33.945  38.005  1.00  0.00     0.135 A 
ATOM     92  C   UNL A   1      40.557  35.369  36.854  1.00  0.00     0.135 A 
ATOM     93  F   UNL A   1      38.295  32.804  38.103  1.00  0.00    -0.206 F 
ATOM     94  C   UNL A   1      38.832  34.907  38.997  1.00  0.00     0.059 A 
ATOM     95  C   UNL A   1      40.418  36.340  37.839  1.00  0.00     0.059 A 
ATOM     96  F   UNL A   1      41.391  35.614  35.831  1.00  0.00    -0.206 F 
ATOM     97  C   UNL A   1      39.545  36.104  38.902  1.00  0.00     0.060 A 
BRANCH  97  98
ATOM     98  S   UNL A   1      39.359  37.342  40.204  1.00  0.00     0.124 S 
ATOM     99  O   UNL A   1      38.455  38.298  39.572  1.00  0.00    -0.237 OA
ATOM    100  O   UNL A   1      38.793  36.569  41.306  1.00  0.00    -0.237 OA
ATOM    101  O   UNL A   1      40.725  37.811  40.415  1.00  0.00    -0.744 OA
ENDBRANCH  97  98
ENDBRANCH  65  90
ENDBRANCH  39  40
ENDBRANCH  31  34
ENDBRANCH  29  30
ENDBRANCH   1  29
TORSDOF 16
ENDMDL
MODEL 3
REMARK VINA RESULT:     -12.4      6.586     11.859
REMARK SMILES C[C@H](NC(=O)c1c(C(=O)NCCCNC(=O)c2ccc(-c3c4nc(c(-c5c(F)cc(S(=O)(=O)[O-])cc5F)c5ccc([nH]5)c(-c5c(F)cc(S(=O)(=O)[O-])cc5F)c5nc(c(-c6c(F)cc(S(=O)(=O)[O-])cc6F)c6ccc3[nH]6)C=C5)C=C4)cc2)cnn1C)[C@]12C[C@H]3C[C@H](C[C@H](C3)C1)C2
REMARK SMILES IDX 12 1 11 2 10 3 8 4 9 5 7 7 6 8 85 9 83 10 84 11 86 12 4 13
REMARK SMILES IDX 3 14 5 16 2 17 1 18 87 19 88 20 95 21 96 22 89 23 93 24
REMARK SMILES IDX 91 25 90 26 94 27 92 28 13 29 14 30 15 31 16 33 17 34 18 35
REMARK SMILES IDX 82 36 19 37 81 38 20 39 21 40 22 41 75 42 23 43 80 44 74 45
REMARK SMILES IDX 76 46 24 47 79 48 73 49 72 50 25 52 59 53 38 54 58 55 39 56
REMARK SMILES IDX 42 57 57 58 77 59 40 60 41 61 56 63 78 64 43 65 26 66 27 67
REMARK SMILES IDX 36 68 28 69 29 70 35 71 37 72 30 73 31 74 32 75 33 76 34 77
REMARK SMILES IDX 60 78 61 79 70 80 62 81 63 82 69 83 71 84 64 85 65 86 66 87
REMARK SMILES IDX 67 88 68 89 44 90 45 91 54 92 46 93 47 94 53 95 55 96 48 97
REMARK SMILES IDX 49 98 50 99 51 100 52 101
REMARK H PARENT 10 6 3 15 14 32 76 51 42 62
REMARK Flexibility Score: inf
ROOT
ATOM      1  C   UNL A   1      34.733  29.397  27.175  1.00  0.00     0.042 C 
ENDROOT
BRANCH   1   2
ATOM      2  C   UNL A   1      33.377  29.716  26.547  1.00  0.00     0.118 C 
BRANCH   2   3
ATOM      3  N   UNL A   1      32.366  28.789  27.019  1.00  0.00    -0.352 N 
ATOM      4  C   UNL A   1      31.995  27.508  26.733  1.00  0.00     0.255 C 
ATOM      5  O   UNL A   1      31.059  27.091  27.425  1.00  0.00    -0.269 OA
ATOM      6  H   UNL A   1      31.806  29.186  27.725  1.00  0.00     0.163 HD
BRANCH   4   7
ATOM      7  C   UNL A   1      32.636  26.603  25.787  1.00  0.00     0.090 A 
ATOM      8  C   UNL A   1      32.318  25.990  24.573  1.00  0.00     0.138 A 
ATOM      9  N   UNL A   1      33.490  25.386  24.161  1.00  0.00    -0.262 N 
ATOM     10  C   UNL A   1      33.932  26.081  26.080  1.00  0.00     0.149 A 
ATOM     11  N   UNL A   1      34.441  25.336  25.106  1.00  0.00    -0.180 NA
ATOM     12  C   UNL A   1      33.799  24.804  22.874  1.00  0.00     0.174 C 
BRANCH   8  13
ATOM     13  C   UNL A   1      31.165  26.021  23.723  1.00  0.00     0.270 C 
ATOM     14  N   UNL A   1      30.764  27.171  23.094  1.00  0.00    -0.348 N 
ATOM     15  H   UNL A   1      30.096  27.001  22.391  1.00  0.00     0.164 HD
ATOM     16  O   UNL A   1      30.429  25.042  23.602  1.00  0.00    -0.267 OA
BRANCH  14  17
ATOM     17  C   UNL A   1      31.093  28.601  23.221  1.00  0.00     0.085 C 
ATOM     18  C   UNL A   1      32.437  28.981  22.601  1.00  0.00     0.031 C 
BRANCH  17  19
ATOM     19  C   UNL A   1      29.911  29.581  22.930  1.00  0.00    -0.009 C 
ATOM     20  C   UNL A   1      28.532  28.886  22.902  1.00  0.00     0.012 C 
ATOM     21  C   UNL A   1      30.121  30.279  21.553  1.00  0.00     0.012 C 
ATOM     22  C   UNL A   1      29.858  30.695  24.018  1.00  0.00     0.012 C 
ATOM     23  C   UNL A   1      27.406  29.897  22.603  1.00  0.00    -0.010 C 
ATOM     24  C   UNL A   1      29.008  31.292  21.257  1.00  0.00    -0.010 C 
ATOM     25  C   UNL A   1      28.744  31.713  23.720  1.00  0.00    -0.010 C 
ATOM     26  C   UNL A   1      27.389  30.992  23.683  1.00  0.00     0.007 C 
ATOM     27  C   UNL A   1      27.660  30.555  21.238  1.00  0.00     0.007 C 
ATOM     28  C   UNL A   1      29.001  32.366  22.353  1.00  0.00     0.007 C 
ENDBRANCH  17  19
ENDBRANCH  14  17
ENDBRANCH   8  13
ENDBRANCH   4   7
ENDBRANCH   2   3
ENDBRANCH   1   2
BRANCH   1  29
ATOM     29  C   UNL A   1      35.437  30.644  27.716  1.00  0.00     0.118 C 
BRANCH  29  30
ATOM     30  N   UNL A   1      35.364  30.712  29.168  1.00  0.00    -0.352 N 
ATOM     31  C   UNL A   1      36.263  30.305  30.124  1.00  0.00     0.251 C 
ATOM     32  H   UNL A   1      34.538  31.113  29.522  1.00  0.00     0.163 HD
ATOM     33  O   UNL A   1      35.882  30.200  31.288  1.00  0.00    -0.269 OA
BRANCH  31  34
ATOM     34  C   UNL A   1      37.673  29.988  29.786  1.00  0.00     0.039 A 
ATOM     35  C   UNL A   1      38.054  29.985  28.439  1.00  0.00     0.014 A 
ATOM     36  C   UNL A   1      38.594  29.595  30.760  1.00  0.00     0.014 A 
ATOM     37  C   UNL A   1      39.355  29.618  28.075  1.00  0.00     0.010 A 
ATOM     38  C   UNL A   1      39.912  29.299  30.403  1.00  0.00     0.010 A 
ATOM     39  C   UNL A   1      40.301  29.282  29.054  1.00  0.00    -0.014 A 
BRANCH  39  40
ATOM     40  C   UNL A   1      41.674  28.841  28.689  1.00  0.00     0.031 A 
ATOM     41  C   UNL A   1      42.806  29.836  28.679  1.00  0.00     0.074 A 
ATOM     42  C   UNL A   1      41.906  27.570  28.310  1.00  0.00     0.049 A 
ATOM     43  N   UNL A   1      44.038  29.686  28.261  1.00  0.00    -0.248 NA
ATOM     44  C   UNL A   1      42.499  31.189  29.170  1.00  0.00     0.031 C 
ATOM     45  C   UNL A   1      40.898  26.512  28.224  1.00  0.00     0.029 A 
ATOM     46  N   UNL A   1      43.068  26.957  27.911  1.00  0.00    -0.354 N 
ATOM     47  C   UNL A   1      44.630  30.939  28.372  1.00  0.00     0.074 A 
ATOM     48  C   UNL A   1      43.622  31.837  28.896  1.00  0.00     0.031 C 
ATOM     49  C   UNL A   1      41.490  25.376  27.817  1.00  0.00     0.029 A 
ATOM     50  C   UNL A   1      42.911  25.631  27.591  1.00  0.00     0.049 A 
ATOM     51  H   UNL A   1      43.933  27.424  27.860  1.00  0.00     0.167 HD
ATOM     52  C   UNL A   1      45.898  31.311  28.068  1.00  0.00     0.037 A 
ATOM     53  C   UNL A   1      43.807  24.721  27.162  1.00  0.00     0.037 A 
ATOM     54  C   UNL A   1      46.928  30.410  27.627  1.00  0.00     0.049 A 
ATOM     55  C   UNL A   1      45.243  25.118  26.982  1.00  0.00     0.074 A 
ATOM     56  C   UNL A   1      48.255  30.682  27.344  1.00  0.00     0.029 A 
ATOM     57  N   UNL A   1      46.751  29.048  27.434  1.00  0.00    -0.354 N 
ATOM     58  N   UNL A   1      45.787  26.305  27.099  1.00  0.00    -0.248 NA
ATOM     59  C   UNL A   1      46.189  24.052  26.625  1.00  0.00     0.031 C 
ATOM     60  C   UNL A   1      48.883  29.482  26.987  1.00  0.00     0.029 A 
ATOM     61  C   UNL A   1      47.947  28.463  27.055  1.00  0.00     0.049 A 
ATOM     62  H   UNL A   1      45.899  28.568  27.550  1.00  0.00     0.167 HD
ATOM     63  C   UNL A   1      47.140  26.129  26.833  1.00  0.00     0.074 A 
ATOM     64  C   UNL A   1      47.335  24.718  26.565  1.00  0.00     0.031 C 
ATOM     65  C   UNL A   1      48.128  27.056  26.807  1.00  0.00     0.037 A 
BRANCH  52  66
ATOM     66  C   UNL A   1      46.221  32.770  28.196  1.00  0.00     0.058 A 
ATOM     67  C   UNL A   1      46.688  33.319  29.401  1.00  0.00     0.135 A 
ATOM     68  C   UNL A   1      46.018  33.637  27.111  1.00  0.00     0.135 A 
ATOM     69  F   UNL A   1      46.879  32.532  30.472  1.00  0.00    -0.206 F 
ATOM     70  C   UNL A   1      46.897  34.687  29.541  1.00  0.00     0.059 A 
ATOM     71  C   UNL A   1      46.238  35.006  27.223  1.00  0.00     0.059 A 
ATOM     72  F   UNL A   1      45.572  33.161  25.937  1.00  0.00    -0.206 F 
ATOM     73  C   UNL A   1      46.652  35.525  28.451  1.00  0.00     0.060 A 
BRANCH  73  74
ATOM     74  S   UNL A   1      46.863  37.307  28.641  1.00  0.00     0.124 S 
ATOM     75  O   UNL A   1      48.134  37.371  29.356  1.00  0.00    -0.237 OA
ATOM     76  O   UNL A   1      46.890  37.781  27.260  1.00  0.00    -0.237 OA
ATOM     77  O   UNL A   1      45.685  37.699  29.409  1.00  0.00    -0.744 OA
ENDBRANCH  73  74
ENDBRANCH  52  66
BRANCH  53  78
ATOM     78  C   UNL A   1      43.362  23.329  26.914  1.00  0.00     0.058 A 
ATOM     79  C   UNL A   1      43.223  22.846  25.605  1.00  0.00     0.135 A 
ATOM     80  C   UNL A   1      43.135  22.441  27.974  1.00  0.00     0.135 A 
ATOM     81  F   UNL A   1      43.428  23.666  24.563  1.00  0.00    -0.206 F 
ATOM     82  C   UNL A   1      42.878  21.524  25.352  1.00  0.00     0.059 A 
ATOM     83  C   UNL A   1      42.799  21.110  27.746  1.00  0.00     0.059 A 
ATOM     84  F   UNL A   1      43.272  22.857  29.242  1.00  0.00    -0.206 F 
ATOM     85  C   UNL A   1      42.674  20.661  26.431  1.00  0.00     0.060 A 
BRANCH  85  86
ATOM     86  S   UNL A   1      42.330  18.918  26.105  1.00  0.00     0.124 S 
ATOM     87  O   UNL A   1      43.274  18.627  25.033  1.00  0.00    -0.237 OA
ATOM     88  O   UNL A   1      42.613  18.294  27.395  1.00  0.00    -0.237 OA
ATOM     89  O   UNL A   1      40.920  18.928  25.724  1.00  0.00    -0.744 OA
ENDBRANCH  85  86
ENDBRANCH  53  78
BRANCH  65  90
ATOM     90  C   UNL A   1      49.512  26.572  26.498  1.00  0.00     0.058 A 
ATOM     91  C   UNL A   1      50.387  26.170  27.519  1.00  0.00     0.135 A 
ATOM     92  C   UNL A   1      49.954  26.473  25.170  1.00  0.00     0.135 A 
ATOM     93  F   UNL A   1      50.009  26.252  28.804  1.00  0.00    -0.206 F 
ATOM     94  C   UNL A   1      51.663  25.697  27.234  1.00  0.00     0.059 A 
ATOM     95  C   UNL A   1      51.222  25.993  24.862  1.00  0.00     0.059 A 
ATOM     96  F   UNL A   1      49.150  26.842  24.161  1.00  0.00    -0.206 F 
ATOM     97  C   UNL A   1      52.074  25.616  25.902  1.00  0.00     0.060 A 
BRANCH  97  98
ATOM     98  S   UNL A   1      53.719  24.973  25.527  1.00  0.00     0.124 S 
ATOM     99  O   UNL A   1      54.437  25.270  26.763  1.00  0.00    -0.237 OA
ATOM    100  O   UNL A   1      53.462  23.559  25.269  1.00  0.00    -0.237 OA
ATOM    101  O   UNL A   1      54.124  25.752  24.360  1.00  0.00    -0.744 OA
ENDBRANCH  97  98
ENDBRANCH  65  90
ENDBRANCH  39  40
ENDBRANCH  31  34
ENDBRANCH  29  30
ENDBRANCH   1  29
TORSDOF 16
ENDMDL
