MODEL 1
REMARK VINA RESULT:     -12.2      0.000      0.000
REMARK SMILES Cc1ccc(F)c(NC(=O)NC(=O)CCCCC(=O)NCCCNC(=O)c2ccc(-c3c4nc(c(-c5c(F)cc(S(=O)(=O)[O-])cc5F)c5ccc([nH]5)c(-c5c(F)cc(S(=O)(=O)[O-])cc5F)c5nc(c(-c6c(F)cc(S(=O)(=O)[O-])cc6F)c6ccc3[nH]6)C=C5)C=C4)cc2)c1
REMARK SMILES IDX 21 1 20 2 18 3 19 4 17 6 16 7 15 8 14 9 12 10 8 11 9 12
REMARK SMILES IDX 10 14 11 15 13 17 7 18 1 19 2 20 3 21 93 22 4 23 5 24 6 25
REMARK SMILES IDX 22 26 23 27 24 28 25 29 26 31 27 32 28 33 92 34 29 35 91 36
REMARK SMILES IDX 30 37 31 38 32 39 85 40 33 41 90 42 84 43 86 44 34 45 89 46
REMARK SMILES IDX 83 47 82 48 35 50 69 51 48 52 68 53 49 54 52 55 67 56 87 57
REMARK SMILES IDX 50 58 51 59 66 61 88 62 53 63 36 64 37 65 46 66 38 67 39 68
REMARK SMILES IDX 45 69 47 70 40 71 41 72 42 73 43 74 44 75 70 76 71 77 80 78
REMARK SMILES IDX 72 79 73 80 79 81 81 82 74 83 75 84 76 85 77 86 78 87 54 88
REMARK SMILES IDX 55 89 64 90 56 91 57 92 63 93 65 94 58 95 59 96 60 97 61 98
REMARK SMILES IDX 62 99
REMARK H PARENT 20 5 8 13 11 16 24 30 86 49 52 60
REMARK Flexibility Score: inf
ROOT
ATOM      1  C   UNL A   1      39.600  22.211  26.404  1.00  0.00     0.117 C 
ENDROOT
BRANCH   1   2
ATOM      2  N   UNL A   1      38.398  22.997  26.552  1.00  0.00    -0.356 N 
ATOM      3  C   UNL A   1      37.278  23.004  25.777  1.00  0.00     0.219 C 
ATOM      4  O   UNL A   1      36.300  23.644  26.163  1.00  0.00    -0.275 OA
ATOM      5  H   UNL A   1      38.386  23.614  27.318  1.00  0.00     0.163 HD
BRANCH   3   6
ATOM      6  C   UNL A   1      37.235  22.213  24.484  1.00  0.00     0.100 C 
BRANCH   6   7
ATOM      7  C   UNL A   1      36.640  22.966  23.294  1.00  0.00     0.010 C 
BRANCH   7   8
ATOM      8  C   UNL A   1      35.119  22.913  23.110  1.00  0.00     0.010 C 
BRANCH   8   9
ATOM      9  C   UNL A   1      34.364  24.232  23.260  1.00  0.00     0.100 C 
BRANCH   9  10
ATOM     10  C   UNL A   1      33.305  24.483  22.215  1.00  0.00     0.227 C 
ATOM     11  N   UNL A   1      31.440  22.875  24.369  1.00  0.00    -0.305 N 
ATOM     12  C   UNL A   1      31.275  23.767  23.367  1.00  0.00     0.325 C 
ATOM     13  H   UNL A   1      30.865  23.071  25.145  1.00  0.00     0.171 HD
ATOM     14  O   UNL A   1      30.321  24.546  23.445  1.00  0.00    -0.248 OA
ATOM     15  N   UNL A   1      32.096  23.828  22.292  1.00  0.00    -0.278 N 
ATOM     16  H   UNL A   1      31.797  23.356  21.481  1.00  0.00     0.174 HD
ATOM     17  O   UNL A   1      33.504  25.255  21.276  1.00  0.00    -0.275 OA
BRANCH  11  18
ATOM     18  C   UNL A   1      32.239  21.732  24.569  1.00  0.00     0.079 A 
ATOM     19  C   UNL A   1      32.436  18.318  22.841  1.00  0.00     0.044 C 
ATOM     20  C   UNL A   1      32.720  19.457  23.781  1.00  0.00    -0.049 A 
ATOM     21  C   UNL A   1      33.582  19.273  24.865  1.00  0.00     0.006 A 
ATOM     22  C   UNL A   1      32.065  20.692  23.635  1.00  0.00     0.032 A 
ATOM     23  C   UNL A   1      33.799  20.312  25.770  1.00  0.00     0.042 A 
ATOM     24  C   UNL A   1      33.141  21.532  25.615  1.00  0.00     0.146 A 
ATOM     25  F   UNL A   1      33.409  22.497  26.503  1.00  0.00    -0.205 F 
ENDBRANCH  11  18
ENDBRANCH   9  10
ENDBRANCH   8   9
ENDBRANCH   7   8
ENDBRANCH   6   7
ENDBRANCH   3   6
ENDBRANCH   1   2
BRANCH   1  26
ATOM     26  C   UNL A   1      40.532  22.311  27.601  1.00  0.00     0.042 C 
BRANCH  26  27
ATOM     27  C   UNL A   1      41.745  23.162  27.290  1.00  0.00     0.118 C 
BRANCH  27  28
ATOM     28  N   UNL A   1      41.546  24.038  26.138  1.00  0.00    -0.352 N 
ATOM     29  C   UNL A   1      41.324  25.396  26.132  1.00  0.00     0.251 C 
ATOM     30  H   UNL A   1      41.573  23.602  25.256  1.00  0.00     0.163 HD
ATOM     31  O   UNL A   1      41.096  25.981  25.078  1.00  0.00    -0.269 OA
BRANCH  29  32
ATOM     32  C   UNL A   1      41.295  26.105  27.428  1.00  0.00     0.039 A 
ATOM     33  C   UNL A   1      42.294  27.036  27.717  1.00  0.00     0.014 A 
ATOM     34  C   UNL A   1      40.204  25.947  28.283  1.00  0.00     0.014 A 
ATOM     35  C   UNL A   1      42.144  27.875  28.821  1.00  0.00     0.010 A 
ATOM     36  C   UNL A   1      39.995  26.864  29.300  1.00  0.00     0.010 A 
ATOM     37  C   UNL A   1      40.969  27.831  29.589  1.00  0.00    -0.014 A 
BRANCH  37  38
ATOM     38  C   UNL A   1      40.740  28.769  30.716  1.00  0.00     0.031 A 
ATOM     39  C   UNL A   1      41.575  28.643  31.964  1.00  0.00     0.074 A 
ATOM     40  C   UNL A   1      39.739  29.669  30.645  1.00  0.00     0.049 A 
ATOM     41  N   UNL A   1      41.489  29.307  33.085  1.00  0.00    -0.248 NA
ATOM     42  C   UNL A   1      42.610  27.595  31.968  1.00  0.00     0.031 C 
ATOM     43  C   UNL A   1      38.806  29.818  29.524  1.00  0.00     0.029 A 
ATOM     44  N   UNL A   1      39.336  30.629  31.536  1.00  0.00    -0.354 N 
ATOM     45  C   UNL A   1      42.432  28.737  33.933  1.00  0.00     0.074 A 
ATOM     46  C   UNL A   1      43.024  27.626  33.225  1.00  0.00     0.031 C 
ATOM     47  C   UNL A   1      37.970  30.839  29.777  1.00  0.00     0.029 A 
ATOM     48  C   UNL A   1      38.290  31.400  31.084  1.00  0.00     0.049 A 
ATOM     49  H   UNL A   1      39.757  30.757  32.417  1.00  0.00     0.167 HD
ATOM     50  C   UNL A   1      42.804  29.131  35.174  1.00  0.00     0.037 A 
ATOM     51  C   UNL A   1      37.674  32.451  31.658  1.00  0.00     0.037 A 
ATOM     52  C   UNL A   1      42.249  30.277  35.841  1.00  0.00     0.049 A 
ATOM     53  C   UNL A   1      38.165  32.927  32.998  1.00  0.00     0.074 A 
ATOM     54  C   UNL A   1      42.588  30.810  37.071  1.00  0.00     0.029 A 
ATOM     55  N   UNL A   1      41.248  31.082  35.315  1.00  0.00    -0.354 N 
ATOM     56  N   UNL A   1      39.102  32.415  33.762  1.00  0.00    -0.248 NA
ATOM     57  C   UNL A   1      37.534  34.135  33.545  1.00  0.00     0.031 C 
ATOM     58  C   UNL A   1      41.778  31.929  37.297  1.00  0.00     0.029 A 
ATOM     59  C   UNL A   1      40.962  32.112  36.192  1.00  0.00     0.049 A 
ATOM     60  H   UNL A   1      40.806  30.940  34.447  1.00  0.00     0.167 HD
ATOM     61  C   UNL A   1      39.194  33.254  34.866  1.00  0.00     0.074 A 
ATOM     62  C   UNL A   1      38.227  34.315  34.661  1.00  0.00     0.031 C 
ATOM     63  C   UNL A   1      40.002  33.161  35.951  1.00  0.00     0.037 A 
BRANCH  50  64
ATOM     64  C   UNL A   1      43.874  28.326  35.862  1.00  0.00     0.058 A 
ATOM     65  C   UNL A   1      43.554  27.273  36.735  1.00  0.00     0.135 A 
ATOM     66  C   UNL A   1      45.232  28.615  35.659  1.00  0.00     0.135 A 
ATOM     67  F   UNL A   1      42.271  26.967  36.984  1.00  0.00    -0.206 F 
ATOM     68  C   UNL A   1      44.538  26.565  37.415  1.00  0.00     0.059 A 
ATOM     69  C   UNL A   1      46.236  27.899  36.305  1.00  0.00     0.059 A 
ATOM     70  F   UNL A   1      45.597  29.613  34.837  1.00  0.00    -0.206 F 
ATOM     71  C   UNL A   1      45.877  26.890  37.198  1.00  0.00     0.060 A 
BRANCH  71  72
ATOM     72  S   UNL A   1      47.144  25.972  38.099  1.00  0.00     0.124 S 
ATOM     73  O   UNL A   1      46.425  25.602  39.314  1.00  0.00    -0.237 OA
ATOM     74  O   UNL A   1      47.447  24.875  37.184  1.00  0.00    -0.237 OA
ATOM     75  O   UNL A   1      48.212  26.951  38.274  1.00  0.00    -0.744 OA
ENDBRANCH  71  72
ENDBRANCH  50  64
BRANCH  51  76
ATOM     76  C   UNL A   1      36.582  33.162  30.941  1.00  0.00     0.058 A 
ATOM     77  C   UNL A   1      35.248  33.039  31.361  1.00  0.00     0.135 A 
ATOM     78  C   UNL A   1      36.844  33.990  29.838  1.00  0.00     0.135 A 
ATOM     79  F   UNL A   1      34.946  32.259  32.410  1.00  0.00    -0.206 F 
ATOM     80  C   UNL A   1      34.211  33.690  30.701  1.00  0.00     0.059 A 
ATOM     81  C   UNL A   1      35.826  34.671  29.177  1.00  0.00     0.059 A 
ATOM     82  F   UNL A   1      38.104  34.161  29.412  1.00  0.00    -0.206 F 
ATOM     83  C   UNL A   1      34.510  34.505  29.609  1.00  0.00     0.060 A 
BRANCH  83  84
ATOM     84  S   UNL A   1      33.161  35.385  28.789  1.00  0.00     0.124 S 
ATOM     85  O   UNL A   1      33.893  36.353  27.979  1.00  0.00    -0.237 OA
ATOM     86  O   UNL A   1      32.495  34.313  28.056  1.00  0.00    -0.237 OA
ATOM     87  O   UNL A   1      32.399  35.940  29.903  1.00  0.00    -0.744 OA
ENDBRANCH  83  84
ENDBRANCH  51  76
BRANCH  63  88
ATOM     88  C   UNL A   1      39.903  34.258  36.971  1.00  0.00     0.058 A 
ATOM     89  C   UNL A   1      39.033  34.168  38.068  1.00  0.00     0.135 A 
ATOM     90  C   UNL A   1      40.707  35.402  36.857  1.00  0.00     0.135 A 
ATOM     91  F   UNL A   1      38.243  33.093  38.218  1.00  0.00    -0.206 F 
ATOM     92  C   UNL A   1      38.937  35.195  39.001  1.00  0.00     0.059 A 
ATOM     93  C   UNL A   1      40.647  36.429  37.792  1.00  0.00     0.059 A 
ATOM     94  F   UNL A   1      41.564  35.528  35.831  1.00  0.00    -0.206 F 
ATOM     95  C   UNL A   1      39.745  36.324  38.850  1.00  0.00     0.060 A 
BRANCH  95  96
ATOM     96  S   UNL A   1      39.618  37.650  40.067  1.00  0.00     0.124 S 
ATOM     97  O   UNL A   1      38.527  38.448  39.515  1.00  0.00    -0.237 OA
ATOM     98  O   UNL A   1      39.313  36.923  41.296  1.00  0.00    -0.237 OA
ATOM     99  O   UNL A   1      40.937  38.274  40.026  1.00  0.00    -0.744 OA
ENDBRANCH  95  96
ENDBRANCH  63  88
ENDBRANCH  37  38
ENDBRANCH  29  32
ENDBRANCH  27  28
ENDBRANCH  26  27
ENDBRANCH   1  26
TORSDOF 18
ENDMDL
MODEL 2
REMARK VINA RESULT:     -12.0      4.956     10.515
REMARK SMILES Cc1ccc(F)c(NC(=O)NC(=O)CCCCC(=O)NCCCNC(=O)c2ccc(-c3c4nc(c(-c5c(F)cc(S(=O)(=O)[O-])cc5F)c5ccc([nH]5)c(-c5c(F)cc(S(=O)(=O)[O-])cc5F)c5nc(c(-c6c(F)cc(S(=O)(=O)[O-])cc6F)c6ccc3[nH]6)C=C5)C=C4)cc2)c1
REMARK SMILES IDX 21 1 20 2 18 3 19 4 17 6 16 7 15 8 14 9 12 10 8 11 9 12
REMARK SMILES IDX 10 14 11 15 13 17 7 18 1 19 2 20 3 21 93 22 4 23 5 24 6 25
REMARK SMILES IDX 22 26 23 27 24 28 25 29 26 31 27 32 28 33 92 34 29 35 91 36
REMARK SMILES IDX 30 37 31 38 32 39 85 40 33 41 90 42 84 43 86 44 34 45 89 46
REMARK SMILES IDX 83 47 82 48 35 50 69 51 48 52 68 53 49 54 52 55 67 56 87 57
REMARK SMILES IDX 50 58 51 59 66 61 88 62 53 63 36 64 37 65 46 66 38 67 39 68
REMARK SMILES IDX 45 69 47 70 40 71 41 72 42 73 43 74 44 75 70 76 71 77 80 78
REMARK SMILES IDX 72 79 73 80 79 81 81 82 74 83 75 84 76 85 77 86 78 87 54 88
REMARK SMILES IDX 55 89 64 90 56 91 57 92 63 93 65 94 58 95 59 96 60 97 61 98
REMARK SMILES IDX 62 99
REMARK H PARENT 20 5 8 13 11 16 24 30 86 49 52 60
REMARK Flexibility Score: inf
ROOT
ATOM      1  C   UNL A   1      32.036  29.627  25.334  1.00  0.00     0.117 C 
ENDROOT
BRANCH   1   2
ATOM      2  N   UNL A   1      31.400  29.391  24.058  1.00  0.00    -0.356 N 
ATOM      3  C   UNL A   1      30.646  28.330  23.661  1.00  0.00     0.219 C 
ATOM      4  O   UNL A   1      30.069  28.393  22.575  1.00  0.00    -0.275 OA
ATOM      5  H   UNL A   1      31.531  30.095  23.383  1.00  0.00     0.163 HD
BRANCH   3   6
ATOM      6  C   UNL A   1      30.499  27.114  24.555  1.00  0.00     0.100 C 
BRANCH   6   7
ATOM      7  C   UNL A   1      30.179  25.814  23.818  1.00  0.00     0.010 C 
BRANCH   7   8
ATOM      8  C   UNL A   1      30.282  24.506  24.612  1.00  0.00     0.010 C 
BRANCH   8   9
ATOM      9  C   UNL A   1      30.698  24.625  26.077  1.00  0.00     0.100 C 
BRANCH   9  10
ATOM     10  C   UNL A   1      30.717  23.323  26.842  1.00  0.00     0.227 C 
ATOM     11  N   UNL A   1      33.850  23.338  25.899  1.00  0.00    -0.305 N 
ATOM     12  C   UNL A   1      33.099  22.794  26.884  1.00  0.00     0.325 C 
ATOM     13  H   UNL A   1      34.722  23.659  26.226  1.00  0.00     0.171 HD
ATOM     14  O   UNL A   1      33.648  22.574  27.966  1.00  0.00    -0.248 OA
ATOM     15  N   UNL A   1      31.794  22.474  26.723  1.00  0.00    -0.278 N 
ATOM     16  H   UNL A   1      31.594  21.535  26.500  1.00  0.00     0.174 HD
ATOM     17  O   UNL A   1      29.775  22.993  27.564  1.00  0.00    -0.275 OA
BRANCH  11  18
ATOM     18  C   UNL A   1      33.682  23.555  24.517  1.00  0.00     0.079 A 
ATOM     19  C   UNL A   1      33.634  26.700  22.330  1.00  0.00     0.044 C 
ATOM     20  C   UNL A   1      33.583  25.257  22.751  1.00  0.00    -0.049 A 
ATOM     21  C   UNL A   1      33.208  24.271  21.834  1.00  0.00     0.006 A 
ATOM     22  C   UNL A   1      33.830  24.887  24.084  1.00  0.00     0.032 A 
ATOM     23  C   UNL A   1      33.104  22.941  22.241  1.00  0.00     0.042 A 
ATOM     24  C   UNL A   1      33.350  22.588  23.568  1.00  0.00     0.146 A 
ATOM     25  F   UNL A   1      33.256  21.292  23.891  1.00  0.00    -0.205 F 
ENDBRANCH  11  18
ENDBRANCH   9  10
ENDBRANCH   8   9
ENDBRANCH   7   8
ENDBRANCH   6   7
ENDBRANCH   3   6
ENDBRANCH   1   2
BRANCH   1  26
ATOM     26  C   UNL A   1      33.329  28.848  25.512  1.00  0.00     0.042 C 
BRANCH  26  27
ATOM     27  C   UNL A   1      33.739  28.780  26.969  1.00  0.00     0.118 C 
BRANCH  27  28
ATOM     28  N   UNL A   1      33.692  30.079  27.635  1.00  0.00    -0.352 N 
ATOM     29  C   UNL A   1      34.696  30.715  28.327  1.00  0.00     0.251 C 
ATOM     30  H   UNL A   1      32.833  30.558  27.583  1.00  0.00     0.163 HD
ATOM     31  O   UNL A   1      34.475  31.777  28.902  1.00  0.00    -0.269 OA
BRANCH  29  32
ATOM     32  C   UNL A   1      36.012  30.050  28.418  1.00  0.00     0.039 A 
ATOM     33  C   UNL A   1      36.890  30.128  27.336  1.00  0.00     0.014 A 
ATOM     34  C   UNL A   1      36.421  29.479  29.624  1.00  0.00     0.014 A 
ATOM     35  C   UNL A   1      38.212  29.714  27.500  1.00  0.00     0.010 A 
ATOM     36  C   UNL A   1      37.761  29.190  29.822  1.00  0.00     0.010 A 
ATOM     37  C   UNL A   1      38.670  29.292  28.760  1.00  0.00    -0.014 A 
BRANCH  37  38
ATOM     38  C   UNL A   1      40.090  28.928  28.989  1.00  0.00     0.031 A 
ATOM     39  C   UNL A   1      41.029  29.947  29.580  1.00  0.00     0.074 A 
ATOM     40  C   UNL A   1      40.544  27.721  28.595  1.00  0.00     0.049 A 
ATOM     41  N   UNL A   1      42.315  29.861  29.791  1.00  0.00    -0.248 NA
ATOM     42  C   UNL A   1      40.453  31.257  29.931  1.00  0.00     0.031 C 
ATOM     43  C   UNL A   1      39.746  26.689  27.925  1.00  0.00     0.029 A 
ATOM     44  N   UNL A   1      41.789  27.158  28.697  1.00  0.00    -0.354 N 
ATOM     45  C   UNL A   1      42.702  31.109  30.267  1.00  0.00     0.074 A 
ATOM     46  C   UNL A   1      41.532  31.957  30.240  1.00  0.00     0.031 C 
ATOM     47  C   UNL A   1      40.511  25.604  27.719  1.00  0.00     0.029 A 
ATOM     48  C   UNL A   1      41.856  25.870  28.217  1.00  0.00     0.049 A 
ATOM     49  H   UNL A   1      42.564  27.630  29.080  1.00  0.00     0.167 HD
ATOM     50  C   UNL A   1      43.913  31.502  30.727  1.00  0.00     0.037 A 
ATOM     51  C   UNL A   1      42.885  25.002  28.198  1.00  0.00     0.037 A 
ATOM     52  C   UNL A   1      45.052  30.629  30.806  1.00  0.00     0.049 A 
ATOM     53  C   UNL A   1      44.197  25.431  28.798  1.00  0.00     0.074 A 
ATOM     54  C   UNL A   1      46.313  30.895  31.309  1.00  0.00     0.029 A 
ATOM     55  N   UNL A   1      45.057  29.306  30.385  1.00  0.00    -0.354 N 
ATOM     56  N   UNL A   1      44.531  26.596  29.302  1.00  0.00    -0.248 NA
ATOM     57  C   UNL A   1      45.264  24.423  28.849  1.00  0.00     0.031 C 
ATOM     58  C   UNL A   1      47.086  29.735  31.176  1.00  0.00     0.029 A 
ATOM     59  C   UNL A   1      46.295  28.739  30.624  1.00  0.00     0.049 A 
ATOM     60  H   UNL A   1      44.292  28.841  29.975  1.00  0.00     0.167 HD
ATOM     61  C   UNL A   1      45.836  26.453  29.757  1.00  0.00     0.074 A 
ATOM     62  C   UNL A   1      46.224  25.084  29.480  1.00  0.00     0.031 C 
ATOM     63  C   UNL A   1      46.644  27.368  30.349  1.00  0.00     0.037 A 
BRANCH  50  64
ATOM     64  C   UNL A   1      44.044  32.925  31.199  1.00  0.00     0.058 A 
ATOM     65  C   UNL A   1      43.627  33.315  32.483  1.00  0.00     0.135 A 
ATOM     66  C   UNL A   1      44.579  33.914  30.359  1.00  0.00     0.135 A 
ATOM     67  F   UNL A   1      43.087  32.415  33.321  1.00  0.00    -0.206 F 
ATOM     68  C   UNL A   1      43.694  34.639  32.902  1.00  0.00     0.059 A 
ATOM     69  C   UNL A   1      44.685  35.241  30.769  1.00  0.00     0.059 A 
ATOM     70  F   UNL A   1      44.991  33.601  29.121  1.00  0.00    -0.206 F 
ATOM     71  C   UNL A   1      44.220  35.596  32.034  1.00  0.00     0.060 A 
BRANCH  71  72
ATOM     72  S   UNL A   1      44.289  37.314  32.586  1.00  0.00     0.124 S 
ATOM     73  O   UNL A   1      45.701  37.453  32.929  1.00  0.00    -0.237 OA
ATOM     74  O   UNL A   1      43.852  38.042  31.398  1.00  0.00    -0.237 OA
ATOM     75  O   UNL A   1      43.361  37.346  33.712  1.00  0.00    -0.744 OA
ENDBRANCH  71  72
ENDBRANCH  50  64
BRANCH  51  76
ATOM     76  C   UNL A   1      42.696  23.628  27.661  1.00  0.00     0.058 A 
ATOM     77  C   UNL A   1      42.850  23.366  26.290  1.00  0.00     0.135 A 
ATOM     78  C   UNL A   1      42.377  22.548  28.498  1.00  0.00     0.135 A 
ATOM     79  F   UNL A   1      43.155  24.365  25.448  1.00  0.00    -0.206 F 
ATOM     80  C   UNL A   1      42.672  22.090  25.766  1.00  0.00     0.059 A 
ATOM     81  C   UNL A   1      42.217  21.259  28.000  1.00  0.00     0.059 A 
ATOM     82  F   UNL A   1      42.242  22.741  29.819  1.00  0.00    -0.206 F 
ATOM     83  C   UNL A   1      42.356  21.041  26.630  1.00  0.00     0.060 A 
BRANCH  83  84
ATOM     84  S   UNL A   1      42.174  19.379  25.945  1.00  0.00     0.124 S 
ATOM     85  O   UNL A   1      42.684  18.556  27.036  1.00  0.00    -0.237 OA
ATOM     86  O   UNL A   1      40.737  19.301  25.703  1.00  0.00    -0.237 OA
ATOM     87  O   UNL A   1      43.002  19.421  24.744  1.00  0.00    -0.744 OA
ENDBRANCH  83  84
ENDBRANCH  51  76
BRANCH  63  88
ATOM     88  C   UNL A   1      48.005  26.899  30.775  1.00  0.00     0.058 A 
ATOM     89  C   UNL A   1      48.232  26.352  32.047  1.00  0.00     0.135 A 
ATOM     90  C   UNL A   1      49.089  26.979  29.887  1.00  0.00     0.135 A 
ATOM     91  F   UNL A   1      47.227  26.257  32.931  1.00  0.00    -0.206 F 
ATOM     92  C   UNL A   1      49.499  25.933  32.438  1.00  0.00     0.059 A 
ATOM     93  C   UNL A   1      50.358  26.542  30.248  1.00  0.00     0.059 A 
ATOM     94  F   UNL A   1      48.918  27.483  28.654  1.00  0.00    -0.206 F 
ATOM     95  C   UNL A   1      50.556  26.037  31.533  1.00  0.00     0.060 A 
BRANCH  95  96
ATOM     96  S   UNL A   1      52.197  25.488  32.046  1.00  0.00     0.124 S 
ATOM     97  O   UNL A   1      52.993  25.802  30.864  1.00  0.00    -0.237 OA
ATOM     98  O   UNL A   1      52.452  26.315  33.222  1.00  0.00    -0.237 OA
ATOM     99  O   UNL A   1      52.007  24.066  32.317  1.00  0.00    -0.744 OA
ENDBRANCH  95  96
ENDBRANCH  63  88
ENDBRANCH  37  38
ENDBRANCH  29  32
ENDBRANCH  27  28
ENDBRANCH  26  27
ENDBRANCH   1  26
TORSDOF 18
ENDMDL
MODEL 3
REMARK VINA RESULT:     -11.7      5.269     12.688
REMARK SMILES Cc1ccc(F)c(NC(=O)NC(=O)CCCCC(=O)NCCCNC(=O)c2ccc(-c3c4nc(c(-c5c(F)cc(S(=O)(=O)[O-])cc5F)c5ccc([nH]5)c(-c5c(F)cc(S(=O)(=O)[O-])cc5F)c5nc(c(-c6c(F)cc(S(=O)(=O)[O-])cc6F)c6ccc3[nH]6)C=C5)C=C4)cc2)c1
REMARK SMILES IDX 21 1 20 2 18 3 19 4 17 6 16 7 15 8 14 9 12 10 8 11 9 12
REMARK SMILES IDX 10 14 11 15 13 17 7 18 1 19 2 20 3 21 93 22 4 23 5 24 6 25
REMARK SMILES IDX 22 26 23 27 24 28 25 29 26 31 27 32 28 33 92 34 29 35 91 36
REMARK SMILES IDX 30 37 31 38 32 39 85 40 33 41 90 42 84 43 86 44 34 45 89 46
REMARK SMILES IDX 83 47 82 48 35 50 69 51 48 52 68 53 49 54 52 55 67 56 87 57
REMARK SMILES IDX 50 58 51 59 66 61 88 62 53 63 36 64 37 65 46 66 38 67 39 68
REMARK SMILES IDX 45 69 47 70 40 71 41 72 42 73 43 74 44 75 70 76 71 77 80 78
REMARK SMILES IDX 72 79 73 80 79 81 81 82 74 83 75 84 76 85 77 86 78 87 54 88
REMARK SMILES IDX 55 89 64 90 56 91 57 92 63 93 65 94 58 95 59 96 60 97 61 98
REMARK SMILES IDX 62 99
REMARK H PARENT 20 5 8 13 11 16 24 30 86 49 52 60
REMARK Flexibility Score: inf
ROOT
ATOM      1  C   UNL A   1      35.869  32.638  30.652  1.00  0.00     0.117 C 
ENDROOT
BRANCH   1   2
ATOM      2  N   UNL A   1      35.949  33.496  31.811  1.00  0.00    -0.356 N 
ATOM      3  C   UNL A   1      37.039  34.105  32.352  1.00  0.00     0.219 C 
ATOM      4  O   UNL A   1      36.868  34.920  33.258  1.00  0.00    -0.275 OA
ATOM      5  H   UNL A   1      35.097  33.663  32.274  1.00  0.00     0.163 HD
BRANCH   3   6
ATOM      6  C   UNL A   1      38.428  33.804  31.823  1.00  0.00     0.100 C 
BRANCH   6   7
ATOM      7  C   UNL A   1      39.558  34.549  32.532  1.00  0.00     0.010 C 
BRANCH   7   8
ATOM      8  C   UNL A   1      40.476  33.736  33.453  1.00  0.00     0.010 C 
BRANCH   8   9
ATOM      9  C   UNL A   1      40.732  34.309  34.845  1.00  0.00     0.100 C 
BRANCH   9  10
ATOM     10  C   UNL A   1      39.543  34.983  35.486  1.00  0.00     0.227 C 
ATOM     11  N   UNL A   1      39.053  31.975  36.677  1.00  0.00    -0.305 N 
ATOM     12  C   UNL A   1      38.732  33.248  37.000  1.00  0.00     0.325 C 
ATOM     13  H   UNL A   1      39.302  31.439  37.465  1.00  0.00     0.171 HD
ATOM     14  O   UNL A   1      38.582  33.515  38.195  1.00  0.00    -0.248 OA
ATOM     15  N   UNL A   1      38.559  34.222  36.075  1.00  0.00    -0.278 N 
ATOM     16  H   UNL A   1      37.632  34.405  35.797  1.00  0.00     0.174 HD
ATOM     17  O   UNL A   1      39.423  36.209  35.480  1.00  0.00    -0.275 OA
BRANCH  11  18
ATOM     18  C   UNL A   1      39.116  31.232  35.482  1.00  0.00     0.079 A 
ATOM     19  C   UNL A   1      41.864  29.144  33.819  1.00  0.00     0.044 C 
ATOM     20  C   UNL A   1      40.542  29.815  34.074  1.00  0.00    -0.049 A 
ATOM     21  C   UNL A   1      39.558  29.824  33.082  1.00  0.00     0.006 A 
ATOM     22  C   UNL A   1      40.307  30.509  35.272  1.00  0.00     0.032 A 
ATOM     23  C   UNL A   1      38.355  30.496  33.297  1.00  0.00     0.042 A 
ATOM     24  C   UNL A   1      38.135  31.184  34.491  1.00  0.00     0.146 A 
ATOM     25  F   UNL A   1      36.951  31.791  34.647  1.00  0.00    -0.205 F 
ENDBRANCH  11  18
ENDBRANCH   9  10
ENDBRANCH   8   9
ENDBRANCH   7   8
ENDBRANCH   6   7
ENDBRANCH   3   6
ENDBRANCH   1   2
BRANCH   1  26
ATOM     26  C   UNL A   1      34.505  32.663  29.980  1.00  0.00     0.042 C 
BRANCH  26  27
ATOM     27  C   UNL A   1      34.616  32.410  28.491  1.00  0.00     0.118 C 
BRANCH  27  28
ATOM     28  N   UNL A   1      34.065  31.117  28.090  1.00  0.00    -0.352 N 
ATOM     29  C   UNL A   1      34.714  29.908  28.005  1.00  0.00     0.251 C 
ATOM     30  H   UNL A   1      33.110  31.112  27.850  1.00  0.00     0.163 HD
ATOM     31  O   UNL A   1      34.128  28.919  27.574  1.00  0.00    -0.269 OA
BRANCH  29  32
ATOM     32  C   UNL A   1      36.144  29.853  28.376  1.00  0.00     0.039 A 
ATOM     33  C   UNL A   1      36.503  29.368  29.633  1.00  0.00     0.014 A 
ATOM     34  C   UNL A   1      37.120  30.150  27.423  1.00  0.00     0.014 A 
ATOM     35  C   UNL A   1      37.844  29.091  29.899  1.00  0.00     0.010 A 
ATOM     36  C   UNL A   1      38.429  29.755  27.643  1.00  0.00     0.010 A 
ATOM     37  C   UNL A   1      38.809  29.233  28.887  1.00  0.00    -0.014 A 
BRANCH  37  38
ATOM     38  C   UNL A   1      40.229  28.864  29.111  1.00  0.00     0.031 A 
ATOM     39  C   UNL A   1      41.166  29.868  29.728  1.00  0.00     0.074 A 
ATOM     40  C   UNL A   1      40.685  27.667  28.687  1.00  0.00     0.049 A 
ATOM     41  N   UNL A   1      42.452  29.778  29.940  1.00  0.00    -0.248 NA
ATOM     42  C   UNL A   1      40.589  31.169  30.110  1.00  0.00     0.031 C 
ATOM     43  C   UNL A   1      39.889  26.651  27.991  1.00  0.00     0.029 A 
ATOM     44  N   UNL A   1      41.930  27.102  28.779  1.00  0.00    -0.354 N 
ATOM     45  C   UNL A   1      42.837  31.014  30.447  1.00  0.00     0.074 A 
ATOM     46  C   UNL A   1      41.668  31.861  30.439  1.00  0.00     0.031 C 
ATOM     47  C   UNL A   1      40.654  25.572  27.760  1.00  0.00     0.029 A 
ATOM     48  C   UNL A   1      41.998  25.827  28.267  1.00  0.00     0.049 A 
ATOM     49  H   UNL A   1      42.703  27.564  29.175  1.00  0.00     0.167 HD
ATOM     50  C   UNL A   1      44.048  31.396  30.919  1.00  0.00     0.037 A 
ATOM     51  C   UNL A   1      43.028  24.960  28.229  1.00  0.00     0.037 A 
ATOM     52  C   UNL A   1      45.187  30.521  30.979  1.00  0.00     0.049 A 
ATOM     53  C   UNL A   1      44.338  25.373  28.842  1.00  0.00     0.074 A 
ATOM     54  C   UNL A   1      46.447  30.775  31.491  1.00  0.00     0.029 A 
ATOM     55  N   UNL A   1      45.193  29.209  30.525  1.00  0.00    -0.354 N 
ATOM     56  N   UNL A   1      44.670  26.527  29.375  1.00  0.00    -0.248 NA
ATOM     57  C   UNL A   1      45.405  24.365  28.870  1.00  0.00     0.031 C 
ATOM     58  C   UNL A   1      47.220  29.619  31.331  1.00  0.00     0.029 A 
ATOM     59  C   UNL A   1      46.431  28.637  30.752  1.00  0.00     0.049 A 
ATOM     60  H   UNL A   1      44.429  28.754  30.103  1.00  0.00     0.167 HD
ATOM     61  C   UNL A   1      45.975  26.373  29.829  1.00  0.00     0.074 A 
ATOM     62  C   UNL A   1      46.364  25.011  29.519  1.00  0.00     0.031 C 
ATOM     63  C   UNL A   1      46.781  27.273  30.445  1.00  0.00     0.037 A 
BRANCH  50  64
ATOM     64  C   UNL A   1      44.177  32.807  31.426  1.00  0.00     0.058 A 
ATOM     65  C   UNL A   1      44.527  33.866  30.572  1.00  0.00     0.135 A 
ATOM     66  C   UNL A   1      43.962  33.106  32.781  1.00  0.00     0.135 A 
ATOM     67  F   UNL A   1      44.766  33.634  29.271  1.00  0.00    -0.206 F 
ATOM     68  C   UNL A   1      44.703  35.160  31.048  1.00  0.00     0.059 A 
ATOM     69  C   UNL A   1      44.101  34.400  33.274  1.00  0.00     0.059 A 
ATOM     70  F   UNL A   1      43.628  32.133  33.644  1.00  0.00    -0.206 F 
ATOM     71  C   UNL A   1      44.492  35.416  32.403  1.00  0.00     0.060 A 
BRANCH  71  72
ATOM     72  S   UNL A   1      44.738  37.099  33.011  1.00  0.00     0.124 S 
ATOM     73  O   UNL A   1      45.495  37.695  31.914  1.00  0.00    -0.237 OA
ATOM     74  O   UNL A   1      43.368  37.578  33.168  1.00  0.00    -0.237 OA
ATOM     75  O   UNL A   1      45.477  36.906  34.254  1.00  0.00    -0.744 OA
ENDBRANCH  71  72
ENDBRANCH  50  64
BRANCH  51  76
ATOM     76  C   UNL A   1      42.840  23.599  27.658  1.00  0.00     0.058 A 
ATOM     77  C   UNL A   1      42.476  22.520  28.479  1.00  0.00     0.135 A 
ATOM     78  C   UNL A   1      43.000  23.349  26.287  1.00  0.00     0.135 A 
ATOM     79  F   UNL A   1      42.310  22.708  29.797  1.00  0.00    -0.206 F 
ATOM     80  C   UNL A   1      42.300  21.239  27.967  1.00  0.00     0.059 A 
ATOM     81  C   UNL A   1      42.808  22.080  25.747  1.00  0.00     0.059 A 
ATOM     82  F   UNL A   1      43.325  24.350  25.455  1.00  0.00    -0.206 F 
ATOM     83  C   UNL A   1      42.469  21.028  26.598  1.00  0.00     0.060 A 
BRANCH  83  84
ATOM     84  S   UNL A   1      42.191  19.370  25.935  1.00  0.00     0.124 S 
ATOM     85  O   UNL A   1      43.009  19.397  24.728  1.00  0.00    -0.237 OA
ATOM     86  O   UNL A   1      42.678  18.521  27.018  1.00  0.00    -0.237 OA
ATOM     87  O   UNL A   1      40.749  19.333  25.722  1.00  0.00    -0.744 OA
ENDBRANCH  83  84
ENDBRANCH  51  76
BRANCH  63  88
ATOM     88  C   UNL A   1      48.141  26.794  30.863  1.00  0.00     0.058 A 
ATOM     89  C   UNL A   1      49.244  26.858  29.997  1.00  0.00     0.135 A 
ATOM     90  C   UNL A   1      48.345  26.288  32.156  1.00  0.00     0.135 A 
ATOM     91  F   UNL A   1      49.097  27.334  28.750  1.00  0.00    -0.206 F 
ATOM     92  C   UNL A   1      50.497  26.400  30.387  1.00  0.00     0.059 A 
ATOM     93  C   UNL A   1      49.595  25.849  32.576  1.00  0.00     0.059 A 
ATOM     94  F   UNL A   1      47.324  26.219  33.024  1.00  0.00    -0.206 F 
ATOM     95  C   UNL A   1      50.661  25.892  31.677  1.00  0.00     0.060 A 
BRANCH  95  96
ATOM     96  S   UNL A   1      52.292  25.304  32.177  1.00  0.00     0.124 S 
ATOM     97  O   UNL A   1      52.474  25.997  33.449  1.00  0.00    -0.237 OA
ATOM     98  O   UNL A   1      52.093  23.861  32.265  1.00  0.00    -0.237 OA
ATOM     99  O   UNL A   1      53.159  25.747  31.090  1.00  0.00    -0.744 OA
ENDBRANCH  95  96
ENDBRANCH  63  88
ENDBRANCH  37  38
ENDBRANCH  29  32
ENDBRANCH  27  28
ENDBRANCH  26  27
ENDBRANCH   1  26
TORSDOF 18
ENDMDL
