MODEL 1
REMARK VINA RESULT:      -9.5      0.000      0.000
REMARK SMILES C[C@@H](C(=O)NCCCNC(=O)c1ccc(-c2c3nc(c(-c4c(F)cc(S(=O)(=O)[O-])cc4F)c4ccc([nH]4)c(-c4c(F)cc(S(=O)(=O)[O-])cc4F)c4nc(c(-c5c(F)cc(S(=O)(=O)[O-])cc5F)c5ccc2[nH]5)C=C4)C=C3)cc1)c1ccc(C[C@H]2CCCC2=O)cc1F
REMARK SMILES IDX 7 1 6 2 5 3 3 4 4 5 2 7 1 8 78 9 79 10 90 11 80 12 89 13
REMARK SMILES IDX 91 14 81 15 82 16 83 17 84 18 87 19 85 20 86 21 88 22 8 23
REMARK SMILES IDX 9 24 10 25 11 27 12 28 13 29 77 30 14 31 76 32 15 33 16 34
REMARK SMILES IDX 17 35 70 36 18 37 75 38 69 39 71 40 19 41 74 42 68 43 67 44
REMARK SMILES IDX 20 46 54 47 33 48 53 49 34 50 37 51 52 52 72 53 35 54 36 55
REMARK SMILES IDX 51 57 73 58 38 59 21 60 22 61 31 62 23 63 24 64 30 65 32 66
REMARK SMILES IDX 25 67 26 68 27 69 28 70 29 71 55 72 56 73 65 74 57 75 58 76
REMARK SMILES IDX 64 77 66 78 59 79 60 80 61 81 62 82 63 83 39 84 40 85 49 86
REMARK SMILES IDX 41 87 42 88 48 89 50 90 43 91 44 92 45 93 46 94 47 95
REMARK H PARENT 5 6 9 26 71 45 37 56
REMARK Flexibility Score: inf
ROOT
ATOM      1  C   UNL A   1      34.780  32.637  30.964  1.00  0.00     0.042 C 
ENDROOT
BRANCH   1   2
ATOM      2  C   UNL A   1      35.316  33.817  31.770  1.00  0.00     0.117 C 
BRANCH   2   3
ATOM      3  N   UNL A   1      36.643  34.212  31.340  1.00  0.00    -0.356 N 
ATOM      4  C   UNL A   1      37.848  34.138  31.974  1.00  0.00     0.227 C 
ATOM      5  O   UNL A   1      38.818  34.557  31.338  1.00  0.00    -0.274 OA
ATOM      6  H   UNL A   1      36.681  34.601  30.436  1.00  0.00     0.163 HD
BRANCH   4   7
ATOM      7  C   UNL A   1      37.956  33.520  33.381  1.00  0.00     0.108 C 
ATOM      8  C   UNL A   1      38.650  34.445  34.384  1.00  0.00     0.023 C 
BRANCH   7   9
ATOM      9  C   UNL A   1      38.678  32.178  33.384  1.00  0.00    -0.000 A 
ATOM     10  C   UNL A   1      40.034  32.073  33.733  1.00  0.00     0.008 A 
ATOM     11  C   UNL A   1      37.987  31.004  33.081  1.00  0.00     0.127 A 
ATOM     12  C   UNL A   1      40.681  30.837  33.731  1.00  0.00     0.004 A 
ATOM     13  C   UNL A   1      38.625  29.764  33.079  1.00  0.00     0.043 A 
ATOM     14  F   UNL A   1      36.681  31.050  32.782  1.00  0.00    -0.207 F 
ATOM     15  C   UNL A   1      39.988  29.671  33.383  1.00  0.00    -0.044 A 
BRANCH  15  16
ATOM     16  C   UNL A   1      40.711  28.348  33.308  1.00  0.00     0.047 C 
BRANCH  16  17
ATOM     17  C   UNL A   1      42.083  28.295  33.988  1.00  0.00     0.060 C 
ATOM     18  C   UNL A   1      42.122  27.704  35.402  1.00  0.00     0.012 C 
ATOM     19  C   UNL A   1      43.068  27.413  33.254  1.00  0.00     0.136 C 
ATOM     20  C   UNL A   1      42.537  26.246  35.243  1.00  0.00     0.009 C 
ATOM     21  C   UNL A   1      43.504  26.224  34.068  1.00  0.00     0.076 C 
ATOM     22  O   UNL A   1      43.488  27.658  32.129  1.00  0.00    -0.299 OA
ENDBRANCH  16  17
ENDBRANCH  15  16
ENDBRANCH   7   9
ENDBRANCH   4   7
ENDBRANCH   2   3
ENDBRANCH   1   2
BRANCH   1  23
ATOM     23  C   UNL A   1      34.953  32.773  29.455  1.00  0.00     0.118 C 
BRANCH  23  24
ATOM     24  N   UNL A   1      34.157  31.813  28.704  1.00  0.00    -0.352 N 
ATOM     25  C   UNL A   1      34.541  30.632  28.113  1.00  0.00     0.251 C 
ATOM     26  H   UNL A   1      33.205  32.042  28.603  1.00  0.00     0.163 HD
ATOM     27  O   UNL A   1      33.762  30.038  27.373  1.00  0.00    -0.269 OA
BRANCH  25  28
ATOM     28  C   UNL A   1      35.899  30.095  28.350  1.00  0.00     0.039 A 
ATOM     29  C   UNL A   1      36.851  30.177  27.329  1.00  0.00     0.014 A 
ATOM     30  C   UNL A   1      36.232  29.518  29.576  1.00  0.00     0.014 A 
ATOM     31  C   UNL A   1      38.161  29.752  27.567  1.00  0.00     0.010 A 
ATOM     32  C   UNL A   1      37.551  29.162  29.835  1.00  0.00     0.010 A 
ATOM     33  C   UNL A   1      38.531  29.279  28.835  1.00  0.00    -0.014 A 
BRANCH  33  34
ATOM     34  C   UNL A   1      39.930  28.898  29.158  1.00  0.00     0.031 A 
ATOM     35  C   UNL A   1      40.880  29.933  29.691  1.00  0.00     0.074 A 
ATOM     36  C   UNL A   1      40.375  27.662  28.858  1.00  0.00     0.049 A 
ATOM     37  N   UNL A   1      42.175  29.858  29.862  1.00  0.00    -0.248 NA
ATOM     38  C   UNL A   1      40.299  31.237  30.045  1.00  0.00     0.031 C 
ATOM     39  C   UNL A   1      39.560  26.584  28.295  1.00  0.00     0.029 A 
ATOM     40  N   UNL A   1      41.631  27.117  28.949  1.00  0.00    -0.354 N 
ATOM     41  C   UNL A   1      42.567  31.113  30.310  1.00  0.00     0.074 A 
ATOM     42  C   UNL A   1      41.380  31.940  30.346  1.00  0.00     0.031 C 
ATOM     43  C   UNL A   1      40.338  25.511  28.082  1.00  0.00     0.029 A 
ATOM     44  C   UNL A   1      41.713  25.837  28.451  1.00  0.00     0.049 A 
ATOM     45  H   UNL A   1      42.401  27.595  29.334  1.00  0.00     0.167 HD
ATOM     46  C   UNL A   1      43.803  31.534  30.671  1.00  0.00     0.037 A 
ATOM     47  C   UNL A   1      42.777  25.028  28.281  1.00  0.00     0.037 A 
ATOM     48  C   UNL A   1      44.974  30.697  30.656  1.00  0.00     0.049 A 
ATOM     49  C   UNL A   1      44.139  25.504  28.701  1.00  0.00     0.074 A 
ATOM     50  C   UNL A   1      46.260  31.007  31.065  1.00  0.00     0.029 A 
ATOM     51  N   UNL A   1      45.003  29.386  30.203  1.00  0.00    -0.354 N 
ATOM     52  N   UNL A   1      44.487  26.673  29.183  1.00  0.00    -0.248 NA
ATOM     53  C   UNL A   1      45.253  24.555  28.563  1.00  0.00     0.031 C 
ATOM     54  C   UNL A   1      47.073  29.895  30.822  1.00  0.00     0.029 A 
ATOM     55  C   UNL A   1      46.286  28.877  30.306  1.00  0.00     0.049 A 
ATOM     56  H   UNL A   1      44.225  28.890  29.860  1.00  0.00     0.167 HD
ATOM     57  C   UNL A   1      45.853  26.595  29.427  1.00  0.00     0.074 A 
ATOM     58  C   UNL A   1      46.270  25.262  29.042  1.00  0.00     0.031 C 
ATOM     59  C   UNL A   1      46.683  27.541  29.930  1.00  0.00     0.037 A 
BRANCH  46  60
ATOM     60  C   UNL A   1      43.945  32.970  31.097  1.00  0.00     0.058 A 
ATOM     61  C   UNL A   1      44.180  33.997  30.168  1.00  0.00     0.135 A 
ATOM     62  C   UNL A   1      43.860  33.324  32.453  1.00  0.00     0.135 A 
ATOM     63  F   UNL A   1      44.282  33.714  28.859  1.00  0.00    -0.206 F 
ATOM     64  C   UNL A   1      44.382  35.312  30.572  1.00  0.00     0.059 A 
ATOM     65  C   UNL A   1      44.028  34.639  32.878  1.00  0.00     0.059 A 
ATOM     66  F   UNL A   1      43.630  32.384  33.384  1.00  0.00    -0.206 F 
ATOM     67  C   UNL A   1      44.315  35.620  31.931  1.00  0.00     0.060 A 
BRANCH  67  68
ATOM     68  S   UNL A   1      44.627  37.322  32.448  1.00  0.00     0.124 S 
ATOM     69  O   UNL A   1      44.120  38.069  31.300  1.00  0.00    -0.237 OA
ATOM     70  O   UNL A   1      43.838  37.430  33.671  1.00  0.00    -0.237 OA
ATOM     71  O   UNL A   1      46.073  37.361  32.632  1.00  0.00    -0.744 OA
ENDBRANCH  67  68
ENDBRANCH  46  60
BRANCH  47  72
ATOM     72  C   UNL A   1      42.575  23.679  27.689  1.00  0.00     0.058 A 
ATOM     73  C   UNL A   1      42.623  23.485  26.301  1.00  0.00     0.135 A 
ATOM     74  C   UNL A   1      42.405  22.549  28.503  1.00  0.00     0.135 A 
ATOM     75  F   UNL A   1      42.777  24.537  25.482  1.00  0.00    -0.206 F 
ATOM     76  C   UNL A   1      42.517  22.217  25.739  1.00  0.00     0.059 A 
ATOM     77  C   UNL A   1      42.317  21.268  27.966  1.00  0.00     0.059 A 
ATOM     78  F   UNL A   1      42.370  22.681  29.838  1.00  0.00    -0.206 F 
ATOM     79  C   UNL A   1      42.376  21.113  26.581  1.00  0.00     0.060 A 
BRANCH  79  80
ATOM     80  S   UNL A   1      42.342  19.462  25.847  1.00  0.00     0.124 S 
ATOM     81  O   UNL A   1      40.958  19.369  25.397  1.00  0.00    -0.237 OA
ATOM     82  O   UNL A   1      43.350  19.573  24.797  1.00  0.00    -0.237 OA
ATOM     83  O   UNL A   1      42.704  18.592  26.962  1.00  0.00    -0.744 OA
ENDBRANCH  79  80
ENDBRANCH  47  72
BRANCH  59  84
ATOM     84  C   UNL A   1      48.125  27.172  30.135  1.00  0.00     0.058 A 
ATOM     85  C   UNL A   1      49.104  27.466  29.175  1.00  0.00     0.135 A 
ATOM     86  C   UNL A   1      48.545  26.619  31.356  1.00  0.00     0.135 A 
ATOM     87  F   UNL A   1      48.753  27.987  27.989  1.00  0.00    -0.206 F 
ATOM     88  C   UNL A   1      50.453  27.228  29.420  1.00  0.00     0.059 A 
ATOM     89  C   UNL A   1      49.890  26.393  31.630  1.00  0.00     0.059 A 
ATOM     90  F   UNL A   1      47.647  26.325  32.309  1.00  0.00    -0.206 F 
ATOM     91  C   UNL A   1      50.837  26.700  30.655  1.00  0.00     0.060 A 
BRANCH  91  92
ATOM     92  S   UNL A   1      52.597  26.476  30.993  1.00  0.00     0.124 S 
ATOM     93  O   UNL A   1      53.144  26.368  29.645  1.00  0.00    -0.237 OA
ATOM     94  O   UNL A   1      52.934  27.698  31.718  1.00  0.00    -0.237 OA
ATOM     95  O   UNL A   1      52.638  25.252  31.788  1.00  0.00    -0.744 OA
ENDBRANCH  91  92
ENDBRANCH  59  84
ENDBRANCH  33  34
ENDBRANCH  25  28
ENDBRANCH  23  24
ENDBRANCH   1  23
TORSDOF 16
ENDMDL
MODEL 2
REMARK VINA RESULT:      -9.3      4.697      7.600
REMARK SMILES C[C@@H](C(=O)NCCCNC(=O)c1ccc(-c2c3nc(c(-c4c(F)cc(S(=O)(=O)[O-])cc4F)c4ccc([nH]4)c(-c4c(F)cc(S(=O)(=O)[O-])cc4F)c4nc(c(-c5c(F)cc(S(=O)(=O)[O-])cc5F)c5ccc2[nH]5)C=C4)C=C3)cc1)c1ccc(C[C@H]2CCCC2=O)cc1F
REMARK SMILES IDX 7 1 6 2 5 3 3 4 4 5 2 7 1 8 78 9 79 10 90 11 80 12 89 13
REMARK SMILES IDX 91 14 81 15 82 16 83 17 84 18 87 19 85 20 86 21 88 22 8 23
REMARK SMILES IDX 9 24 10 25 11 27 12 28 13 29 77 30 14 31 76 32 15 33 16 34
REMARK SMILES IDX 17 35 70 36 18 37 75 38 69 39 71 40 19 41 74 42 68 43 67 44
REMARK SMILES IDX 20 46 54 47 33 48 53 49 34 50 37 51 52 52 72 53 35 54 36 55
REMARK SMILES IDX 51 57 73 58 38 59 21 60 22 61 31 62 23 63 24 64 30 65 32 66
REMARK SMILES IDX 25 67 26 68 27 69 28 70 29 71 55 72 56 73 65 74 57 75 58 76
REMARK SMILES IDX 64 77 66 78 59 79 60 80 61 81 62 82 63 83 39 84 40 85 49 86
REMARK SMILES IDX 41 87 42 88 48 89 50 90 43 91 44 92 45 93 46 94 47 95
REMARK H PARENT 5 6 9 26 71 45 37 56
REMARK Flexibility Score: inf
ROOT
ATOM      1  C   UNL A   1      33.165  27.682  26.662  1.00  0.00     0.042 C 
ENDROOT
BRANCH   1   2
ATOM      2  C   UNL A   1      31.675  27.730  26.338  1.00  0.00     0.117 C 
BRANCH   2   3
ATOM      3  N   UNL A   1      30.988  26.523  26.751  1.00  0.00    -0.356 N 
ATOM      4  C   UNL A   1      30.829  25.324  26.121  1.00  0.00     0.227 C 
ATOM      5  O   UNL A   1      30.186  24.472  26.739  1.00  0.00    -0.274 OA
ATOM      6  H   UNL A   1      30.563  26.577  27.637  1.00  0.00     0.163 HD
BRANCH   4   7
ATOM      7  C   UNL A   1      31.467  25.073  24.741  1.00  0.00     0.108 C 
ATOM      8  C   UNL A   1      30.477  25.249  23.588  1.00  0.00     0.023 C 
BRANCH   7   9
ATOM      9  C   UNL A   1      32.100  23.691  24.625  1.00  0.00    -0.000 A 
ATOM     10  C   UNL A   1      31.652  22.753  23.682  1.00  0.00     0.008 A 
ATOM     11  C   UNL A   1      33.185  23.341  25.432  1.00  0.00     0.127 A 
ATOM     12  C   UNL A   1      32.243  21.493  23.588  1.00  0.00     0.004 A 
ATOM     13  C   UNL A   1      33.783  22.085  25.344  1.00  0.00     0.043 A 
ATOM     14  F   UNL A   1      33.674  24.220  26.319  1.00  0.00    -0.207 F 
ATOM     15  C   UNL A   1      33.301  21.137  24.433  1.00  0.00    -0.044 A 
BRANCH  15  16
ATOM     16  C   UNL A   1      33.885  19.747  24.380  1.00  0.00     0.047 C 
BRANCH  16  17
ATOM     17  C   UNL A   1      32.905  18.620  24.032  1.00  0.00     0.060 C 
ATOM     18  C   UNL A   1      33.245  17.774  22.801  1.00  0.00     0.012 C 
ATOM     19  C   UNL A   1      32.810  17.571  25.116  1.00  0.00     0.136 C 
ATOM     20  C   UNL A   1      33.945  16.525  23.323  1.00  0.00     0.009 C 
ATOM     21  C   UNL A   1      33.284  16.218  24.660  1.00  0.00     0.076 C 
ATOM     22  O   UNL A   1      32.363  17.793  26.236  1.00  0.00    -0.299 OA
ENDBRANCH  16  17
ENDBRANCH  15  16
ENDBRANCH   7   9
ENDBRANCH   4   7
ENDBRANCH   2   3
ENDBRANCH   1   2
BRANCH   1  23
ATOM     23  C   UNL A   1      34.009  28.704  25.907  1.00  0.00     0.118 C 
BRANCH  23  24
ATOM     24  N   UNL A   1      33.790  30.069  26.363  1.00  0.00    -0.352 N 
ATOM     25  C   UNL A   1      34.450  30.782  27.335  1.00  0.00     0.251 C 
ATOM     26  H   UNL A   1      33.062  30.552  25.909  1.00  0.00     0.163 HD
ATOM     27  O   UNL A   1      34.010  31.868  27.701  1.00  0.00    -0.269 OA
BRANCH  25  28
ATOM     28  C   UNL A   1      35.673  30.227  27.956  1.00  0.00     0.039 A 
ATOM     29  C   UNL A   1      36.884  30.307  27.262  1.00  0.00     0.014 A 
ATOM     30  C   UNL A   1      35.624  29.635  29.219  1.00  0.00     0.014 A 
ATOM     31  C   UNL A   1      38.062  29.865  27.871  1.00  0.00     0.010 A 
ATOM     32  C   UNL A   1      36.805  29.261  29.852  1.00  0.00     0.010 A 
ATOM     33  C   UNL A   1      38.037  29.376  29.187  1.00  0.00    -0.014 A 
BRANCH  33  34
ATOM     34  C   UNL A   1      39.275  28.976  29.903  1.00  0.00     0.031 A 
ATOM     35  C   UNL A   1      39.746  29.780  31.083  1.00  0.00     0.074 A 
ATOM     36  C   UNL A   1      40.035  27.973  29.422  1.00  0.00     0.049 A 
ATOM     37  N   UNL A   1      40.882  29.715  31.728  1.00  0.00    -0.248 NA
ATOM     38  C   UNL A   1      38.830  30.818  31.577  1.00  0.00     0.031 C 
ATOM     39  C   UNL A   1      39.706  27.148  28.257  1.00  0.00     0.029 A 
ATOM     40  N   UNL A   1      41.258  27.502  29.829  1.00  0.00    -0.354 N 
ATOM     41  C   UNL A   1      40.830  30.724  32.682  1.00  0.00     0.074 A 
ATOM     42  C   UNL A   1      39.569  31.411  32.503  1.00  0.00     0.031 C 
ATOM     43  C   UNL A   1      40.707  26.280  28.039  1.00  0.00     0.029 A 
ATOM     44  C   UNL A   1      41.765  26.514  29.017  1.00  0.00     0.049 A 
ATOM     45  H   UNL A   1      41.728  27.838  30.626  1.00  0.00     0.167 HD
ATOM     46  C   UNL A   1      41.746  31.042  33.628  1.00  0.00     0.037 A 
ATOM     47  C   UNL A   1      42.959  25.889  29.037  1.00  0.00     0.037 A 
ATOM     48  C   UNL A   1      42.987  30.337  33.815  1.00  0.00     0.049 A 
ATOM     49  C   UNL A   1      43.957  26.241  30.104  1.00  0.00     0.074 A 
ATOM     50  C   UNL A   1      43.953  30.536  34.785  1.00  0.00     0.029 A 
ATOM     51  N   UNL A   1      43.437  29.299  33.009  1.00  0.00    -0.354 N 
ATOM     52  N   UNL A   1      43.870  27.156  31.039  1.00  0.00    -0.248 NA
ATOM     53  C   UNL A   1      45.213  25.477  30.125  1.00  0.00     0.031 C 
ATOM     54  C   UNL A   1      45.004  29.644  34.543  1.00  0.00     0.029 A 
ATOM     55  C   UNL A   1      44.673  28.859  33.450  1.00  0.00     0.049 A 
ATOM     56  H   UNL A   1      42.948  28.931  32.239  1.00  0.00     0.167 HD
ATOM     57  C   UNL A   1      45.046  27.063  31.775  1.00  0.00     0.074 A 
ATOM     58  C   UNL A   1      45.829  26.001  31.177  1.00  0.00     0.031 C 
ATOM     59  C   UNL A   1      45.436  27.790  32.851  1.00  0.00     0.037 A 
BRANCH  46  60
ATOM     60  C   UNL A   1      41.437  32.213  34.520  1.00  0.00     0.058 A 
ATOM     61  C   UNL A   1      40.775  32.052  35.748  1.00  0.00     0.135 A 
ATOM     62  C   UNL A   1      41.793  33.516  34.135  1.00  0.00     0.135 A 
ATOM     63  F   UNL A   1      40.401  30.830  36.160  1.00  0.00    -0.206 F 
ATOM     64  C   UNL A   1      40.427  33.144  36.536  1.00  0.00     0.059 A 
ATOM     65  C   UNL A   1      41.482  34.621  34.922  1.00  0.00     0.059 A 
ATOM     66  F   UNL A   1      42.433  33.727  32.975  1.00  0.00    -0.206 F 
ATOM     67  C   UNL A   1      40.775  34.426  36.108  1.00  0.00     0.060 A 
BRANCH  67  68
ATOM     68  S   UNL A   1      40.276  35.839  37.115  1.00  0.00     0.124 S 
ATOM     69  O   UNL A   1      39.827  36.777  36.091  1.00  0.00    -0.237 OA
ATOM     70  O   UNL A   1      39.228  35.272  37.957  1.00  0.00    -0.237 OA
ATOM     71  O   UNL A   1      41.503  36.210  37.811  1.00  0.00    -0.744 OA
ENDBRANCH  67  68
ENDBRANCH  46  60
BRANCH  47  72
ATOM     72  C   UNL A   1      43.254  24.858  28.008  1.00  0.00     0.058 A 
ATOM     73  C   UNL A   1      43.900  25.198  26.811  1.00  0.00     0.135 A 
ATOM     74  C   UNL A   1      42.963  23.504  28.234  1.00  0.00     0.135 A 
ATOM     75  F   UNL A   1      44.192  26.481  26.547  1.00  0.00    -0.206 F 
ATOM     76  C   UNL A   1      44.256  24.231  25.875  1.00  0.00     0.059 A 
ATOM     77  C   UNL A   1      43.326  22.516  27.323  1.00  0.00     0.059 A 
ATOM     78  F   UNL A   1      42.361  23.126  29.372  1.00  0.00    -0.206 F 
ATOM     79  C   UNL A   1      43.975  22.890  26.146  1.00  0.00     0.060 A 
BRANCH  79  80
ATOM     80  S   UNL A   1      44.531  21.634  24.973  1.00  0.00     0.124 S 
ATOM     81  O   UNL A   1      43.569  20.565  25.209  1.00  0.00    -0.237 OA
ATOM     82  O   UNL A   1      44.411  22.332  23.697  1.00  0.00    -0.237 OA
ATOM     83  O   UNL A   1      45.900  21.359  25.400  1.00  0.00    -0.744 OA
ENDBRANCH  79  80
ENDBRANCH  47  72
BRANCH  59  84
ATOM     84  C   UNL A   1      46.752  27.448  33.489  1.00  0.00     0.058 A 
ATOM     85  C   UNL A   1      46.858  26.457  34.475  1.00  0.00     0.135 A 
ATOM     86  C   UNL A   1      47.937  28.045  33.025  1.00  0.00     0.135 A 
ATOM     87  F   UNL A   1      45.755  25.863  34.957  1.00  0.00    -0.206 F 
ATOM     88  C   UNL A   1      48.095  26.064  34.978  1.00  0.00     0.059 A 
ATOM     89  C   UNL A   1      49.185  27.652  33.499  1.00  0.00     0.059 A 
ATOM     90  F   UNL A   1      47.889  28.995  32.079  1.00  0.00    -0.206 F 
ATOM     91  C   UNL A   1      49.254  26.661  34.476  1.00  0.00     0.060 A 
BRANCH  91  92
ATOM     92  S   UNL A   1      50.856  26.082  35.073  1.00  0.00     0.124 S 
ATOM     93  O   UNL A   1      51.732  26.439  33.962  1.00  0.00    -0.237 OA
ATOM     94  O   UNL A   1      51.034  26.860  36.296  1.00  0.00    -0.237 OA
ATOM     95  O   UNL A   1      50.647  24.651  35.274  1.00  0.00    -0.744 OA
ENDBRANCH  91  92
ENDBRANCH  59  84
ENDBRANCH  33  34
ENDBRANCH  25  28
ENDBRANCH  23  24
ENDBRANCH   1  23
TORSDOF 16
ENDMDL
MODEL 3
REMARK VINA RESULT:      -9.2      4.675     11.650
REMARK SMILES C[C@@H](C(=O)NCCCNC(=O)c1ccc(-c2c3nc(c(-c4c(F)cc(S(=O)(=O)[O-])cc4F)c4ccc([nH]4)c(-c4c(F)cc(S(=O)(=O)[O-])cc4F)c4nc(c(-c5c(F)cc(S(=O)(=O)[O-])cc5F)c5ccc2[nH]5)C=C4)C=C3)cc1)c1ccc(C[C@H]2CCCC2=O)cc1F
REMARK SMILES IDX 7 1 6 2 5 3 3 4 4 5 2 7 1 8 78 9 79 10 90 11 80 12 89 13
REMARK SMILES IDX 91 14 81 15 82 16 83 17 84 18 87 19 85 20 86 21 88 22 8 23
REMARK SMILES IDX 9 24 10 25 11 27 12 28 13 29 77 30 14 31 76 32 15 33 16 34
REMARK SMILES IDX 17 35 70 36 18 37 75 38 69 39 71 40 19 41 74 42 68 43 67 44
REMARK SMILES IDX 20 46 54 47 33 48 53 49 34 50 37 51 52 52 72 53 35 54 36 55
REMARK SMILES IDX 51 57 73 58 38 59 21 60 22 61 31 62 23 63 24 64 30 65 32 66
REMARK SMILES IDX 25 67 26 68 27 69 28 70 29 71 55 72 56 73 65 74 57 75 58 76
REMARK SMILES IDX 64 77 66 78 59 79 60 80 61 81 62 82 63 83 39 84 40 85 49 86
REMARK SMILES IDX 41 87 42 88 48 89 50 90 43 91 44 92 45 93 46 94 47 95
REMARK H PARENT 5 6 9 26 71 45 37 56
REMARK Flexibility Score: inf
ROOT
ATOM      1  C   UNL A   1      35.686  23.457  25.636  1.00  0.00     0.042 C 
ENDROOT
BRANCH   1   2
ATOM      2  C   UNL A   1      34.806  22.555  24.775  1.00  0.00     0.117 C 
BRANCH   2   3
ATOM      3  N   UNL A   1      34.563  23.122  23.463  1.00  0.00    -0.356 N 
ATOM      4  C   UNL A   1      33.584  23.959  23.018  1.00  0.00     0.227 C 
ATOM      5  O   UNL A   1      33.647  24.277  21.828  1.00  0.00    -0.274 OA
ATOM      6  H   UNL A   1      35.217  22.858  22.776  1.00  0.00     0.163 HD
BRANCH   4   7
ATOM      7  C   UNL A   1      32.507  24.490  23.983  1.00  0.00     0.108 C 
ATOM      8  C   UNL A   1      31.303  23.553  24.104  1.00  0.00     0.023 C 
BRANCH   7   9
ATOM      9  C   UNL A   1      32.002  25.876  23.602  1.00  0.00    -0.000 A 
ATOM     10  C   UNL A   1      30.711  26.073  23.085  1.00  0.00     0.008 A 
ATOM     11  C   UNL A   1      32.804  27.001  23.805  1.00  0.00     0.127 A 
ATOM     12  C   UNL A   1      30.263  27.349  22.741  1.00  0.00     0.004 A 
ATOM     13  C   UNL A   1      32.364  28.280  23.467  1.00  0.00     0.043 A 
ATOM     14  F   UNL A   1      34.028  26.867  24.336  1.00  0.00    -0.207 F 
ATOM     15  C   UNL A   1      31.093  28.464  22.908  1.00  0.00    -0.044 A 
BRANCH  15  16
ATOM     16  C   UNL A   1      30.633  29.831  22.463  1.00  0.00     0.047 C 
BRANCH  16  17
ATOM     17  C   UNL A   1      29.215  30.231  22.887  1.00  0.00     0.060 C 
ATOM     18  C   UNL A   1      29.103  31.388  23.886  1.00  0.00     0.012 C 
ATOM     19  C   UNL A   1      28.378  30.732  21.733  1.00  0.00     0.136 C 
ATOM     20  C   UNL A   1      28.828  32.639  23.059  1.00  0.00     0.009 C 
ATOM     21  C   UNL A   1      27.973  32.173  21.889  1.00  0.00     0.076 C 
ATOM     22  O   UNL A   1      28.039  30.028  20.788  1.00  0.00    -0.299 OA
ENDBRANCH  16  17
ENDBRANCH  15  16
ENDBRANCH   7   9
ENDBRANCH   4   7
ENDBRANCH   2   3
ENDBRANCH   1   2
BRANCH   1  23
ATOM     23  C   UNL A   1      37.039  23.795  25.018  1.00  0.00     0.118 C 
BRANCH  23  24
ATOM     24  N   UNL A   1      38.071  22.823  25.346  1.00  0.00    -0.352 N 
ATOM     25  C   UNL A   1      39.235  22.993  26.059  1.00  0.00     0.251 C 
ATOM     26  H   UNL A   1      37.915  21.912  25.008  1.00  0.00     0.163 HD
ATOM     27  O   UNL A   1      40.070  22.093  26.087  1.00  0.00    -0.269 OA
BRANCH  25  28
ATOM     28  C   UNL A   1      39.489  24.266  26.767  1.00  0.00     0.039 A 
ATOM     29  C   UNL A   1      38.943  24.458  28.040  1.00  0.00     0.014 A 
ATOM     30  C   UNL A   1      40.266  25.266  26.178  1.00  0.00     0.014 A 
ATOM     31  C   UNL A   1      39.245  25.619  28.756  1.00  0.00     0.010 A 
ATOM     32  C   UNL A   1      40.622  26.388  26.918  1.00  0.00     0.010 A 
ATOM     33  C   UNL A   1      40.120  26.575  28.216  1.00  0.00    -0.014 A 
BRANCH  33  34
ATOM     34  C   UNL A   1      40.535  27.782  28.976  1.00  0.00     0.031 A 
ATOM     35  C   UNL A   1      41.811  27.760  29.771  1.00  0.00     0.074 A 
ATOM     36  C   UNL A   1      39.711  28.845  29.050  1.00  0.00     0.049 A 
ATOM     37  N   UNL A   1      42.260  28.628  30.640  1.00  0.00    -0.248 NA
ATOM     38  C   UNL A   1      42.677  26.585  29.587  1.00  0.00     0.031 C 
ATOM     39  C   UNL A   1      38.426  28.967  28.360  1.00  0.00     0.029 A 
ATOM     40  N   UNL A   1      39.815  30.009  29.769  1.00  0.00    -0.354 N 
ATOM     41  C   UNL A   1      43.443  28.089  31.132  1.00  0.00     0.074 A 
ATOM     42  C   UNL A   1      43.619  26.803  30.493  1.00  0.00     0.031 C 
ATOM     43  C   UNL A   1      37.856  30.136  28.697  1.00  0.00     0.029 A 
ATOM     44  C   UNL A   1      38.713  30.824  29.658  1.00  0.00     0.049 A 
ATOM     45  H   UNL A   1      40.602  30.239  30.313  1.00  0.00     0.167 HD
ATOM     46  C   UNL A   1      44.309  28.625  32.025  1.00  0.00     0.037 A 
ATOM     47  C   UNL A   1      38.409  31.980  30.282  1.00  0.00     0.037 A 
ATOM     48  C   UNL A   1      44.138  29.917  32.635  1.00  0.00     0.049 A 
ATOM     49  C   UNL A   1      39.388  32.569  31.258  1.00  0.00     0.074 A 
ATOM     50  C   UNL A   1      44.989  30.580  33.502  1.00  0.00     0.029 A 
ATOM     51  N   UNL A   1      43.036  30.741  32.449  1.00  0.00    -0.354 N 
ATOM     52  N   UNL A   1      40.534  32.079  31.668  1.00  0.00    -0.248 NA
ATOM     53  C   UNL A   1      39.042  33.867  31.854  1.00  0.00     0.031 C 
ATOM     54  C   UNL A   1      44.384  31.788  33.868  1.00  0.00     0.029 A 
ATOM     55  C   UNL A   1      43.178  31.898  33.195  1.00  0.00     0.049 A 
ATOM     56  H   UNL A   1      42.268  30.533  31.870  1.00  0.00     0.167 HD
ATOM     57  C   UNL A   1      41.057  33.018  32.551  1.00  0.00     0.074 A 
ATOM     58  C   UNL A   1      40.103  34.107  32.615  1.00  0.00     0.031 C 
ATOM     59  C   UNL A   1      42.224  32.981  33.239  1.00  0.00     0.037 A 
BRANCH  46  60
ATOM     60  C   UNL A   1      45.510  27.800  32.400  1.00  0.00     0.058 A 
ATOM     61  C   UNL A   1      46.724  27.902  31.701  1.00  0.00     0.135 A 
ATOM     62  C   UNL A   1      45.442  26.884  33.462  1.00  0.00     0.135 A 
ATOM     63  F   UNL A   1      46.841  28.753  30.669  1.00  0.00    -0.206 F 
ATOM     64  C   UNL A   1      47.809  27.086  32.004  1.00  0.00     0.059 A 
ATOM     65  C   UNL A   1      46.525  26.078  33.803  1.00  0.00     0.059 A 
ATOM     66  F   UNL A   1      44.308  26.750  34.168  1.00  0.00    -0.206 F 
ATOM     67  C   UNL A   1      47.694  26.169  33.050  1.00  0.00     0.060 A 
BRANCH  67  68
ATOM     68  S   UNL A   1      49.092  25.082  33.403  1.00  0.00     0.124 S 
ATOM     69  O   UNL A   1      48.415  23.915  33.960  1.00  0.00    -0.237 OA
ATOM     70  O   UNL A   1      49.690  24.898  32.084  1.00  0.00    -0.237 OA
ATOM     71  O   UNL A   1      49.892  25.854  34.348  1.00  0.00    -0.744 OA
ENDBRANCH  67  68
ENDBRANCH  46  60
BRANCH  47  72
ATOM     72  C   UNL A   1      37.115  32.648  29.982  1.00  0.00     0.058 A 
ATOM     73  C   UNL A   1      35.965  32.365  30.732  1.00  0.00     0.135 A 
ATOM     74  C   UNL A   1      37.023  33.635  28.988  1.00  0.00     0.135 A 
ATOM     75  F   UNL A   1      36.003  31.424  31.688  1.00  0.00    -0.206 F 
ATOM     76  C   UNL A   1      34.769  33.042  30.515  1.00  0.00     0.059 A 
ATOM     77  C   UNL A   1      35.844  34.340  28.766  1.00  0.00     0.059 A 
ATOM     78  F   UNL A   1      38.101  33.954  28.255  1.00  0.00    -0.206 F 
ATOM     79  C   UNL A   1      34.722  34.037  29.537  1.00  0.00     0.060 A 
BRANCH  79  80
ATOM     80  S   UNL A   1      33.195  34.980  29.333  1.00  0.00     0.124 S 
ATOM     81  O   UNL A   1      33.703  36.272  28.888  1.00  0.00    -0.237 OA
ATOM     82  O   UNL A   1      32.482  34.194  28.330  1.00  0.00    -0.237 OA
ATOM     83  O   UNL A   1      32.605  34.957  30.669  1.00  0.00    -0.744 OA
ENDBRANCH  79  80
ENDBRANCH  47  72
BRANCH  59  84
ATOM     84  C   UNL A   1      42.569  34.163  34.099  1.00  0.00     0.058 A 
ATOM     85  C   UNL A   1      42.317  34.168  35.479  1.00  0.00     0.135 A 
ATOM     86  C   UNL A   1      43.262  35.256  33.552  1.00  0.00     0.135 A 
ATOM     87  F   UNL A   1      41.651  33.152  36.048  1.00  0.00    -0.206 F 
ATOM     88  C   UNL A   1      42.743  35.216  36.289  1.00  0.00     0.059 A 
ATOM     89  C   UNL A   1      43.716  36.303  34.347  1.00  0.00     0.059 A 
ATOM     90  F   UNL A   1      43.532  35.294  32.238  1.00  0.00    -0.206 F 
ATOM     91  C   UNL A   1      43.452  36.274  35.715  1.00  0.00     0.060 A 
BRANCH  91  92
ATOM     92  S   UNL A   1      44.075  37.584  36.790  1.00  0.00     0.124 S 
ATOM     93  O   UNL A   1      44.129  38.718  35.872  1.00  0.00    -0.237 OA
ATOM     94  O   UNL A   1      43.048  37.655  37.825  1.00  0.00    -0.237 OA
ATOM     95  O   UNL A   1      45.369  37.073  37.234  1.00  0.00    -0.744 OA
ENDBRANCH  91  92
ENDBRANCH  59  84
ENDBRANCH  33  34
ENDBRANCH  25  28
ENDBRANCH  23  24
ENDBRANCH   1  23
TORSDOF 16
ENDMDL
