MODEL 1
REMARK VINA RESULT:     -10.0      0.000      0.000
REMARK SMILES CCCC[C@@](CC)(C[C@H]1CCOC1)C(=O)NCCCNC(=O)c1ccc(-c2c3nc(c(-c4c(F)cc(S(=O)(=O)[O-])cc4F)c4ccc([nH]4)c(-c4c(F)cc(S(=O)(=O)[O-])cc4F)c4nc(c(-c5c(F)cc(S(=O)(=O)[O-])cc5F)c5ccc2[nH]5)C=C4)C=C3)cc1
REMARK SMILES IDX 18 1 17 2 16 3 14 4 15 5 5 7 4 8 3 9 2 10 1 11 6 12 7 13
REMARK SMILES IDX 8 14 9 15 10 16 13 17 11 18 12 19 19 20 20 21 21 22 22 24
REMARK SMILES IDX 23 25 24 26 88 27 25 28 87 29 26 30 27 31 28 32 81 33 29 34
REMARK SMILES IDX 86 35 80 36 82 37 30 38 85 39 79 40 78 41 31 43 65 44 44 45
REMARK SMILES IDX 64 46 45 47 48 48 63 49 83 50 46 51 47 52 62 54 84 55 49 56
REMARK SMILES IDX 32 57 33 58 42 59 34 60 35 61 41 62 43 63 36 64 37 65 38 66
REMARK SMILES IDX 39 67 40 68 66 69 67 70 76 71 68 72 69 73 75 74 77 75 70 76
REMARK SMILES IDX 71 77 72 78 73 79 74 80 50 81 51 82 60 83 52 84 53 85 59 86
REMARK SMILES IDX 61 87 54 88 55 89 56 90 57 91 58 92
REMARK H PARENT 16 6 20 23 82 42 48 53
REMARK Flexibility Score: inf
ROOT
ATOM      1  C   UNL A   1      33.540  28.057  26.088  1.00  0.00     0.042 C 
ENDROOT
BRANCH   1   2
ATOM      2  C   UNL A   1      32.436  27.207  25.470  1.00  0.00     0.117 C 
BRANCH   2   3
ATOM      3  N   UNL A   1      31.991  26.156  26.371  1.00  0.00    -0.356 N 
ATOM      4  C   UNL A   1      32.165  24.812  26.421  1.00  0.00     0.226 C 
ATOM      5  O   UNL A   1      31.392  24.235  27.189  1.00  0.00    -0.274 OA
ATOM      6  H   UNL A   1      31.437  26.496  27.111  1.00  0.00     0.163 HD
BRANCH   4   7
ATOM      7  C   UNL A   1      33.204  24.048  25.569  1.00  0.00     0.049 C 
BRANCH   7   8
ATOM      8  C   UNL A   1      34.646  24.665  25.712  1.00  0.00     0.017 C 
BRANCH   8   9
ATOM      9  C   UNL A   1      35.830  23.802  26.196  1.00  0.00     0.001 C 
BRANCH   9  10
ATOM     10  C   UNL A   1      37.036  23.667  25.261  1.00  0.00    -0.003 C 
ATOM     11  C   UNL A   1      37.989  22.536  25.632  1.00  0.00     0.004 C 
ENDBRANCH   9  10
ENDBRANCH   8   9
ENDBRANCH   7   8
BRANCH   7  12
ATOM     12  C   UNL A   1      32.753  24.134  24.072  1.00  0.00     0.013 C 
ATOM     13  C   UNL A   1      33.853  24.311  23.032  1.00  0.00     0.005 C 
ENDBRANCH   7  12
BRANCH   7  14
ATOM     14  C   UNL A   1      33.283  22.567  26.092  1.00  0.00     0.023 C 
BRANCH  14  15
ATOM     15  C   UNL A   1      33.377  21.435  25.042  1.00  0.00     0.018 C 
ATOM     16  C   UNL A   1      34.482  20.412  25.202  1.00  0.00     0.034 C 
ATOM     17  C   UNL A   1      32.148  20.532  25.048  1.00  0.00     0.163 C 
ATOM     18  C   UNL A   1      33.967  19.228  24.408  1.00  0.00     0.160 C 
ATOM     19  O   UNL A   1      32.538  19.311  24.409  1.00  0.00    -0.381 OA
ENDBRANCH  14  15
ENDBRANCH   7  14
ENDBRANCH   4   7
ENDBRANCH   2   3
ENDBRANCH   1   2
BRANCH   1  20
ATOM     20  C   UNL A   1      33.236  28.542  27.501  1.00  0.00     0.118 C 
BRANCH  20  21
ATOM     21  N   UNL A   1      33.357  29.989  27.628  1.00  0.00    -0.352 N 
ATOM     22  C   UNL A   1      34.407  30.741  28.094  1.00  0.00     0.251 C 
ATOM     23  H   UNL A   1      32.569  30.503  27.335  1.00  0.00     0.163 HD
ATOM     24  O   UNL A   1      34.241  31.935  28.342  1.00  0.00    -0.269 OA
BRANCH  22  25
ATOM     25  C   UNL A   1      35.721  30.108  28.326  1.00  0.00     0.039 A 
ATOM     26  C   UNL A   1      36.626  30.012  27.267  1.00  0.00     0.014 A 
ATOM     27  C   UNL A   1      36.067  29.630  29.592  1.00  0.00     0.014 A 
ATOM     28  C   UNL A   1      37.916  29.531  27.504  1.00  0.00     0.010 A 
ATOM     29  C   UNL A   1      37.375  29.225  29.844  1.00  0.00     0.010 A 
ATOM     30  C   UNL A   1      38.318  29.189  28.806  1.00  0.00    -0.014 A 
BRANCH  30  31
ATOM     31  C   UNL A   1      39.733  28.858  29.118  1.00  0.00     0.031 A 
ATOM     32  C   UNL A   1      40.665  29.915  29.646  1.00  0.00     0.074 A 
ATOM     33  C   UNL A   1      40.198  27.625  28.827  1.00  0.00     0.049 A 
ATOM     34  N   UNL A   1      41.951  29.839  29.868  1.00  0.00    -0.248 NA
ATOM     35  C   UNL A   1      40.082  31.234  29.944  1.00  0.00     0.031 C 
ATOM     36  C   UNL A   1      39.401  26.531  28.262  1.00  0.00     0.029 A 
ATOM     37  N   UNL A   1      41.457  27.086  28.940  1.00  0.00    -0.354 N 
ATOM     38  C   UNL A   1      42.336  31.100  30.308  1.00  0.00     0.074 A 
ATOM     39  C   UNL A   1      41.153  31.932  30.298  1.00  0.00     0.031 C 
ATOM     40  C   UNL A   1      40.185  25.457  28.083  1.00  0.00     0.029 A 
ATOM     41  C   UNL A   1      41.552  25.796  28.469  1.00  0.00     0.049 A 
ATOM     42  H   UNL A   1      42.220  27.577  29.321  1.00  0.00     0.167 HD
ATOM     43  C   UNL A   1      43.564  31.517  30.695  1.00  0.00     0.037 A 
ATOM     44  C   UNL A   1      42.620  24.986  28.332  1.00  0.00     0.037 A 
ATOM     45  C   UNL A   1      44.727  30.669  30.735  1.00  0.00     0.049 A 
ATOM     46  C   UNL A   1      43.975  25.488  28.755  1.00  0.00     0.074 A 
ATOM     47  C   UNL A   1      45.991  30.974  31.212  1.00  0.00     0.029 A 
ATOM     48  N   UNL A   1      44.780  29.365  30.269  1.00  0.00    -0.354 N 
ATOM     49  N   UNL A   1      44.297  26.648  29.277  1.00  0.00    -0.248 NA
ATOM     50  C   UNL A   1      45.114  24.578  28.567  1.00  0.00     0.031 C 
ATOM     51  C   UNL A   1      46.823  29.878  30.973  1.00  0.00     0.029 A 
ATOM     52  C   UNL A   1      46.066  28.868  30.402  1.00  0.00     0.049 A 
ATOM     53  H   UNL A   1      44.016  28.866  29.899  1.00  0.00     0.167 HD
ATOM     54  C   UNL A   1      45.670  26.598  29.494  1.00  0.00     0.074 A 
ATOM     55  C   UNL A   1      46.114  25.286  29.073  1.00  0.00     0.031 C 
ATOM     56  C   UNL A   1      46.492  27.556  29.988  1.00  0.00     0.037 A 
BRANCH  43  57
ATOM     57  C   UNL A   1      43.738  32.950  31.112  1.00  0.00     0.058 A 
ATOM     58  C   UNL A   1      43.648  33.346  32.455  1.00  0.00     0.135 A 
ATOM     59  C   UNL A   1      44.121  33.918  30.168  1.00  0.00     0.135 A 
ATOM     60  F   UNL A   1      43.272  32.465  33.396  1.00  0.00    -0.206 F 
ATOM     61  C   UNL A   1      43.936  34.649  32.849  1.00  0.00     0.059 A 
ATOM     62  C   UNL A   1      44.437  35.221  30.542  1.00  0.00     0.059 A 
ATOM     63  F   UNL A   1      44.217  33.594  28.869  1.00  0.00    -0.206 F 
ATOM     64  C   UNL A   1      44.342  35.576  31.887  1.00  0.00     0.060 A 
BRANCH  64  65
ATOM     65  S   UNL A   1      44.778  37.242  32.428  1.00  0.00     0.124 S 
ATOM     66  O   UNL A   1      43.508  37.715  32.969  1.00  0.00    -0.237 OA
ATOM     67  O   UNL A   1      45.827  36.984  33.409  1.00  0.00    -0.237 OA
ATOM     68  O   UNL A   1      45.218  37.897  31.200  1.00  0.00    -0.744 OA
ENDBRANCH  64  65
ENDBRANCH  43  57
BRANCH  44  69
ATOM     69  C   UNL A   1      42.471  23.628  27.738  1.00  0.00     0.058 A 
ATOM     70  C   UNL A   1      42.392  22.485  28.547  1.00  0.00     0.135 A 
ATOM     71  C   UNL A   1      42.444  23.443  26.345  1.00  0.00     0.135 A 
ATOM     72  F   UNL A   1      42.420  22.608  29.883  1.00  0.00    -0.206 F 
ATOM     73  C   UNL A   1      42.336  21.206  28.002  1.00  0.00     0.059 A 
ATOM     74  C   UNL A   1      42.353  22.177  25.776  1.00  0.00     0.059 A 
ATOM     75  F   UNL A   1      42.496  24.502  25.523  1.00  0.00    -0.206 F 
ATOM     76  C   UNL A   1      42.322  21.062  26.613  1.00  0.00     0.060 A 
BRANCH  76  77
ATOM     77  S   UNL A   1      42.248  19.399  25.914  1.00  0.00     0.124 S 
ATOM     78  O   UNL A   1      42.804  18.601  27.001  1.00  0.00    -0.237 OA
ATOM     79  O   UNL A   1      40.820  19.234  25.665  1.00  0.00    -0.237 OA
ATOM     80  O   UNL A   1      43.077  19.502  24.718  1.00  0.00    -0.744 OA
ENDBRANCH  76  77
ENDBRANCH  44  69
BRANCH  56  81
ATOM     81  C   UNL A   1      47.952  27.224  30.117  1.00  0.00     0.058 A 
ATOM     82  C   UNL A   1      48.860  27.497  29.082  1.00  0.00     0.135 A 
ATOM     83  C   UNL A   1      48.462  26.701  31.316  1.00  0.00     0.135 A 
ATOM     84  F   UNL A   1      48.422  27.987  27.911  1.00  0.00    -0.206 F 
ATOM     85  C   UNL A   1      50.221  27.254  29.228  1.00  0.00     0.059 A 
ATOM     86  C   UNL A   1      49.824  26.478  31.495  1.00  0.00     0.059 A 
ATOM     87  F   UNL A   1      47.638  26.429  32.340  1.00  0.00    -0.206 F 
ATOM     88  C   UNL A   1      50.695  26.753  30.441  1.00  0.00     0.060 A 
BRANCH  88  89
ATOM     89  S   UNL A   1      52.472  26.504  30.636  1.00  0.00     0.124 S 
ATOM     90  O   UNL A   1      52.895  26.301  29.254  1.00  0.00    -0.237 OA
ATOM     91  O   UNL A   1      52.896  27.756  31.252  1.00  0.00    -0.237 OA
ATOM     92  O   UNL A   1      52.560  25.327  31.497  1.00  0.00    -0.744 OA
ENDBRANCH  88  89
ENDBRANCH  56  81
ENDBRANCH  30  31
ENDBRANCH  22  25
ENDBRANCH  20  21
ENDBRANCH   1  20
TORSDOF 19
ENDMDL
MODEL 2
REMARK VINA RESULT:      -9.8      5.318     10.511
REMARK SMILES CCCC[C@@](CC)(C[C@H]1CCOC1)C(=O)NCCCNC(=O)c1ccc(-c2c3nc(c(-c4c(F)cc(S(=O)(=O)[O-])cc4F)c4ccc([nH]4)c(-c4c(F)cc(S(=O)(=O)[O-])cc4F)c4nc(c(-c5c(F)cc(S(=O)(=O)[O-])cc5F)c5ccc2[nH]5)C=C4)C=C3)cc1
REMARK SMILES IDX 18 1 17 2 16 3 14 4 15 5 5 7 4 8 3 9 2 10 1 11 6 12 7 13
REMARK SMILES IDX 8 14 9 15 10 16 13 17 11 18 12 19 19 20 20 21 21 22 22 24
REMARK SMILES IDX 23 25 24 26 88 27 25 28 87 29 26 30 27 31 28 32 81 33 29 34
REMARK SMILES IDX 86 35 80 36 82 37 30 38 85 39 79 40 78 41 31 43 65 44 44 45
REMARK SMILES IDX 64 46 45 47 48 48 63 49 83 50 46 51 47 52 62 54 84 55 49 56
REMARK SMILES IDX 32 57 33 58 42 59 34 60 35 61 41 62 43 63 36 64 37 65 38 66
REMARK SMILES IDX 39 67 40 68 66 69 67 70 76 71 68 72 69 73 75 74 77 75 70 76
REMARK SMILES IDX 71 77 72 78 73 79 74 80 50 81 51 82 60 83 52 84 53 85 59 86
REMARK SMILES IDX 61 87 54 88 55 89 56 90 57 91 58 92
REMARK H PARENT 16 6 20 23 82 42 48 53
REMARK Flexibility Score: inf
ROOT
ATOM      1  C   UNL A   1      37.812  23.972  26.220  1.00  0.00     0.042 C 
ENDROOT
BRANCH   1   2
ATOM      2  C   UNL A   1      37.411  22.763  25.383  1.00  0.00     0.117 C 
BRANCH   2   3
ATOM      3  N   UNL A   1      36.624  23.144  24.220  1.00  0.00    -0.356 N 
ATOM      4  C   UNL A   1      35.371  22.860  23.789  1.00  0.00     0.226 C 
ATOM      5  O   UNL A   1      35.168  23.154  22.609  1.00  0.00    -0.274 OA
ATOM      6  H   UNL A   1      37.111  23.742  23.609  1.00  0.00     0.163 HD
BRANCH   4   7
ATOM      7  C   UNL A   1      34.291  22.189  24.668  1.00  0.00     0.049 C 
BRANCH   7   8
ATOM      8  C   UNL A   1      32.905  22.096  23.924  1.00  0.00     0.017 C 
BRANCH   8   9
ATOM      9  C   UNL A   1      31.729  23.010  24.326  1.00  0.00     0.001 C 
BRANCH   9  10
ATOM     10  C   UNL A   1      31.211  23.999  23.278  1.00  0.00    -0.003 C 
ATOM     11  C   UNL A   1      32.155  25.165  23.000  1.00  0.00     0.004 C 
ENDBRANCH   9  10
ENDBRANCH   8   9
ENDBRANCH   7   8
BRANCH   7  12
ATOM     12  C   UNL A   1      34.123  23.051  25.964  1.00  0.00     0.013 C 
ATOM     13  C   UNL A   1      34.193  22.312  27.295  1.00  0.00     0.005 C 
ENDBRANCH   7  12
BRANCH   7  14
ATOM     14  C   UNL A   1      34.746  20.715  24.976  1.00  0.00     0.023 C 
BRANCH  14  15
ATOM     15  C   UNL A   1      33.766  19.570  24.626  1.00  0.00     0.018 C 
ATOM     16  C   UNL A   1      34.350  18.199  24.352  1.00  0.00     0.034 C 
ATOM     17  C   UNL A   1      32.812  19.250  25.772  1.00  0.00     0.163 C 
ATOM     18  C   UNL A   1      33.175  17.274  24.596  1.00  0.00     0.160 C 
ATOM     19  O   UNL A   1      32.307  17.933  25.525  1.00  0.00    -0.381 OA
ENDBRANCH  14  15
ENDBRANCH   7  14
ENDBRANCH   4   7
ENDBRANCH   2   3
ENDBRANCH   1   2
BRANCH   1  20
ATOM     20  C   UNL A   1      39.172  23.838  26.897  1.00  0.00     0.118 C 
BRANCH  20  21
ATOM     21  N   UNL A   1      40.268  24.241  26.026  1.00  0.00    -0.352 N 
ATOM     22  C   UNL A   1      41.130  25.303  26.139  1.00  0.00     0.251 C 
ATOM     23  H   UNL A   1      40.412  23.665  25.240  1.00  0.00     0.163 HD
ATOM     24  O   UNL A   1      41.844  25.615  25.187  1.00  0.00    -0.269 OA
BRANCH  22  25
ATOM     25  C   UNL A   1      41.174  26.086  27.391  1.00  0.00     0.039 A 
ATOM     26  C   UNL A   1      42.236  26.967  27.605  1.00  0.00     0.014 A 
ATOM     27  C   UNL A   1      40.156  25.967  28.341  1.00  0.00     0.014 A 
ATOM     28  C   UNL A   1      42.222  27.803  28.724  1.00  0.00     0.010 A 
ATOM     29  C   UNL A   1      40.104  26.854  29.412  1.00  0.00     0.010 A 
ATOM     30  C   UNL A   1      41.127  27.795  29.604  1.00  0.00    -0.014 A 
BRANCH  30  31
ATOM     31  C   UNL A   1      40.997  28.801  30.689  1.00  0.00     0.031 A 
ATOM     32  C   UNL A   1      41.832  28.691  31.936  1.00  0.00     0.074 A 
ATOM     33  C   UNL A   1      40.049  29.757  30.588  1.00  0.00     0.049 A 
ATOM     34  N   UNL A   1      41.776  29.406  33.028  1.00  0.00    -0.248 NA
ATOM     35  C   UNL A   1      42.848  27.624  31.970  1.00  0.00     0.031 C 
ATOM     36  C   UNL A   1      39.143  29.933  29.449  1.00  0.00     0.029 A 
ATOM     37  N   UNL A   1      39.670  30.748  31.462  1.00  0.00    -0.354 N 
ATOM     38  C   UNL A   1      42.728  28.868  33.886  1.00  0.00     0.074 A 
ATOM     39  C   UNL A   1      43.330  27.747  33.199  1.00  0.00     0.031 C 
ATOM     40  C   UNL A   1      38.321  30.965  29.691  1.00  0.00     0.029 A 
ATOM     41  C   UNL A   1      38.601  31.495  31.022  1.00  0.00     0.049 A 
ATOM     42  H   UNL A   1      40.121  30.907  32.323  1.00  0.00     0.167 HD
ATOM     43  C   UNL A   1      43.071  29.282  35.128  1.00  0.00     0.037 A 
ATOM     44  C   UNL A   1      37.903  32.474  31.631  1.00  0.00     0.037 A 
ATOM     45  C   UNL A   1      42.489  30.422  35.787  1.00  0.00     0.049 A 
ATOM     46  C   UNL A   1      38.300  32.897  33.020  1.00  0.00     0.074 A 
ATOM     47  C   UNL A   1      42.846  30.981  37.003  1.00  0.00     0.029 A 
ATOM     48  N   UNL A   1      41.423  31.164  35.303  1.00  0.00    -0.354 N 
ATOM     49  N   UNL A   1      39.280  32.449  33.769  1.00  0.00    -0.248 NA
ATOM     50  C   UNL A   1      37.497  33.954  33.652  1.00  0.00     0.031 C 
ATOM     51  C   UNL A   1      41.954  32.018  37.284  1.00  0.00     0.029 A 
ATOM     52  C   UNL A   1      41.078  32.145  36.218  1.00  0.00     0.049 A 
ATOM     53  H   UNL A   1      40.979  31.016  34.438  1.00  0.00     0.167 HD
ATOM     54  C   UNL A   1      39.219  33.181  34.951  1.00  0.00     0.074 A 
ATOM     55  C   UNL A   1      38.125  34.118  34.808  1.00  0.00     0.031 C 
ATOM     56  C   UNL A   1      39.992  33.079  36.058  1.00  0.00     0.037 A 
BRANCH  43  57
ATOM     57  C   UNL A   1      44.125  28.514  35.876  1.00  0.00     0.058 A 
ATOM     58  C   UNL A   1      45.478  28.879  35.830  1.00  0.00     0.135 A 
ATOM     59  C   UNL A   1      43.755  27.473  36.746  1.00  0.00     0.135 A 
ATOM     60  F   UNL A   1      45.888  29.855  35.005  1.00  0.00    -0.206 F 
ATOM     61  C   UNL A   1      46.429  28.244  36.624  1.00  0.00     0.059 A 
ATOM     62  C   UNL A   1      44.684  26.842  37.567  1.00  0.00     0.059 A 
ATOM     63  F   UNL A   1      42.473  27.082  36.825  1.00  0.00    -0.206 F 
ATOM     64  C   UNL A   1      46.020  27.235  37.499  1.00  0.00     0.060 A 
BRANCH  64  65
ATOM     65  S   UNL A   1      47.256  26.473  38.570  1.00  0.00     0.124 S 
ATOM     66  O   UNL A   1      47.848  25.483  37.675  1.00  0.00    -0.237 OA
ATOM     67  O   UNL A   1      48.110  27.606  38.913  1.00  0.00    -0.237 OA
ATOM     68  O   UNL A   1      46.467  25.929  39.670  1.00  0.00    -0.744 OA
ENDBRANCH  64  65
ENDBRANCH  43  57
BRANCH  44  69
ATOM     69  C   UNL A   1      36.734  33.104  30.955  1.00  0.00     0.058 A 
ATOM     70  C   UNL A   1      36.907  34.031  29.917  1.00  0.00     0.135 A 
ATOM     71  C   UNL A   1      35.420  32.820  31.363  1.00  0.00     0.135 A 
ATOM     72  F   UNL A   1      38.143  34.340  29.495  1.00  0.00    -0.206 F 
ATOM     73  C   UNL A   1      35.826  34.687  29.335  1.00  0.00     0.059 A 
ATOM     74  C   UNL A   1      34.321  33.437  30.773  1.00  0.00     0.059 A 
ATOM     75  F   UNL A   1      35.194  31.927  32.338  1.00  0.00    -0.206 F 
ATOM     76  C   UNL A   1      34.536  34.386  29.775  1.00  0.00     0.060 A 
BRANCH  76  77
ATOM     77  S   UNL A   1      33.140  35.241  29.014  1.00  0.00     0.124 S 
ATOM     78  O   UNL A   1      32.293  35.505  30.171  1.00  0.00    -0.237 OA
ATOM     79  O   UNL A   1      33.783  36.405  28.413  1.00  0.00    -0.237 OA
ATOM     80  O   UNL A   1      32.624  34.261  28.064  1.00  0.00    -0.744 OA
ENDBRANCH  76  77
ENDBRANCH  44  69
BRANCH  56  81
ATOM     81  C   UNL A   1      39.700  34.010  37.202  1.00  0.00     0.058 A 
ATOM     82  C   UNL A   1      38.930  33.601  38.301  1.00  0.00     0.135 A 
ATOM     83  C   UNL A   1      40.261  35.297  37.236  1.00  0.00     0.135 A 
ATOM     84  F   UNL A   1      38.363  32.384  38.314  1.00  0.00    -0.206 F 
ATOM     85  C   UNL A   1      38.717  34.438  39.391  1.00  0.00     0.059 A 
ATOM     86  C   UNL A   1      40.086  36.140  38.329  1.00  0.00     0.059 A 
ATOM     87  F   UNL A   1      41.011  35.735  36.213  1.00  0.00    -0.206 F 
ATOM     88  C   UNL A   1      39.307  35.703  39.399  1.00  0.00     0.060 A 
BRANCH  88  89
ATOM     89  S   UNL A   1      39.074  36.753  40.849  1.00  0.00     0.124 S 
ATOM     90  O   UNL A   1      40.454  37.022  41.244  1.00  0.00    -0.237 OA
ATOM     91  O   UNL A   1      38.341  37.887  40.297  1.00  0.00    -0.237 OA
ATOM     92  O   UNL A   1      38.313  35.908  41.765  1.00  0.00    -0.744 OA
ENDBRANCH  88  89
ENDBRANCH  56  81
ENDBRANCH  30  31
ENDBRANCH  22  25
ENDBRANCH  20  21
ENDBRANCH   1  20
TORSDOF 19
ENDMDL
MODEL 3
REMARK VINA RESULT:      -9.7      5.039      6.525
REMARK SMILES CCCC[C@@](CC)(C[C@H]1CCOC1)C(=O)NCCCNC(=O)c1ccc(-c2c3nc(c(-c4c(F)cc(S(=O)(=O)[O-])cc4F)c4ccc([nH]4)c(-c4c(F)cc(S(=O)(=O)[O-])cc4F)c4nc(c(-c5c(F)cc(S(=O)(=O)[O-])cc5F)c5ccc2[nH]5)C=C4)C=C3)cc1
REMARK SMILES IDX 18 1 17 2 16 3 14 4 15 5 5 7 4 8 3 9 2 10 1 11 6 12 7 13
REMARK SMILES IDX 8 14 9 15 10 16 13 17 11 18 12 19 19 20 20 21 21 22 22 24
REMARK SMILES IDX 23 25 24 26 88 27 25 28 87 29 26 30 27 31 28 32 81 33 29 34
REMARK SMILES IDX 86 35 80 36 82 37 30 38 85 39 79 40 78 41 31 43 65 44 44 45
REMARK SMILES IDX 64 46 45 47 48 48 63 49 83 50 46 51 47 52 62 54 84 55 49 56
REMARK SMILES IDX 32 57 33 58 42 59 34 60 35 61 41 62 43 63 36 64 37 65 38 66
REMARK SMILES IDX 39 67 40 68 66 69 67 70 76 71 68 72 69 73 75 74 77 75 70 76
REMARK SMILES IDX 71 77 72 78 73 79 74 80 50 81 51 82 60 83 52 84 53 85 59 86
REMARK SMILES IDX 61 87 54 88 55 89 56 90 57 91 58 92
REMARK H PARENT 16 6 20 23 82 42 48 53
REMARK Flexibility Score: inf
ROOT
ATOM      1  C   UNL A   1      31.618  31.844  26.836  1.00  0.00     0.042 C 
ENDROOT
BRANCH   1   2
ATOM      2  C   UNL A   1      31.966  30.479  26.254  1.00  0.00     0.117 C 
BRANCH   2   3
ATOM      3  N   UNL A   1      31.197  30.188  25.054  1.00  0.00    -0.356 N 
ATOM      4  C   UNL A   1      31.133  29.137  24.199  1.00  0.00     0.226 C 
ATOM      5  O   UNL A   1      30.556  29.387  23.139  1.00  0.00    -0.274 OA
ATOM      6  H   UNL A   1      30.586  30.919  24.805  1.00  0.00     0.163 HD
BRANCH   4   7
ATOM      7  C   UNL A   1      31.757  27.753  24.491  1.00  0.00     0.049 C 
BRANCH   7   8
ATOM      8  C   UNL A   1      31.185  27.120  25.816  1.00  0.00     0.017 C 
BRANCH   8   9
ATOM      9  C   UNL A   1      30.070  26.056  25.765  1.00  0.00     0.001 C 
BRANCH   9  10
ATOM     10  C   UNL A   1      30.429  24.632  26.201  1.00  0.00    -0.003 C 
ATOM     11  C   UNL A   1      31.876  24.464  26.651  1.00  0.00     0.004 C 
ENDBRANCH   9  10
ENDBRANCH   8   9
ENDBRANCH   7   8
BRANCH   7  12
ATOM     12  C   UNL A   1      33.304  27.946  24.639  1.00  0.00     0.013 C 
ATOM     13  C   UNL A   1      33.944  27.417  25.917  1.00  0.00     0.005 C 
ENDBRANCH   7  12
BRANCH   7  14
ATOM     14  C   UNL A   1      31.379  26.779  23.316  1.00  0.00     0.023 C 
BRANCH  14  15
ATOM     15  C   UNL A   1      32.449  25.763  22.849  1.00  0.00     0.018 C 
ATOM     16  C   UNL A   1      32.138  24.288  23.005  1.00  0.00     0.034 C 
ATOM     17  C   UNL A   1      32.711  25.843  21.349  1.00  0.00     0.163 C 
ATOM     18  C   UNL A   1      33.070  23.638  22.003  1.00  0.00     0.160 C 
ATOM     19  O   UNL A   1      33.327  24.604  20.978  1.00  0.00    -0.381 OA
ENDBRANCH  14  15
ENDBRANCH   7  14
ENDBRANCH   4   7
ENDBRANCH   2   3
ENDBRANCH   1   2
BRANCH   1  20
ATOM     20  C   UNL A   1      32.797  32.564  27.483  1.00  0.00     0.118 C 
BRANCH  20  21
ATOM     21  N   UNL A   1      32.550  33.990  27.653  1.00  0.00    -0.352 N 
ATOM     22  C   UNL A   1      33.048  34.857  28.594  1.00  0.00     0.251 C 
ATOM     23  H   UNL A   1      31.938  34.391  26.994  1.00  0.00     0.163 HD
ATOM     24  O   UNL A   1      32.549  35.975  28.719  1.00  0.00    -0.269 OA
BRANCH  22  25
ATOM     25  C   UNL A   1      34.156  34.433  29.473  1.00  0.00     0.039 A 
ATOM     26  C   UNL A   1      33.866  33.984  30.764  1.00  0.00     0.014 A 
ATOM     27  C   UNL A   1      35.476  34.456  29.017  1.00  0.00     0.014 A 
ATOM     28  C   UNL A   1      34.891  33.463  31.558  1.00  0.00     0.010 A 
ATOM     29  C   UNL A   1      36.481  33.866  29.778  1.00  0.00     0.010 A 
ATOM     30  C   UNL A   1      36.195  33.346  31.049  1.00  0.00    -0.014 A 
BRANCH  30  31
ATOM     31  C   UNL A   1      37.257  32.625  31.797  1.00  0.00     0.031 A 
ATOM     32  C   UNL A   1      37.721  33.127  33.137  1.00  0.00     0.074 A 
ATOM     33  C   UNL A   1      37.871  31.572  31.215  1.00  0.00     0.049 A 
ATOM     34  N   UNL A   1      38.706  32.696  33.879  1.00  0.00    -0.248 NA
ATOM     35  C   UNL A   1      36.998  34.276  33.709  1.00  0.00     0.031 C 
ATOM     36  C   UNL A   1      37.543  31.026  29.894  1.00  0.00     0.029 A 
ATOM     37  N   UNL A   1      38.915  30.788  31.643  1.00  0.00    -0.354 N 
ATOM     38  C   UNL A   1      38.739  33.529  34.991  1.00  0.00     0.074 A 
ATOM     39  C   UNL A   1      37.691  34.510  34.815  1.00  0.00     0.031 C 
ATOM     40  C   UNL A   1      38.362  29.998  29.624  1.00  0.00     0.029 A 
ATOM     41  C   UNL A   1      39.309  29.841  30.724  1.00  0.00     0.049 A 
ATOM     42  H   UNL A   1      39.341  30.894  32.523  1.00  0.00     0.167 HD
ATOM     43  C   UNL A   1      39.563  33.470  36.063  1.00  0.00     0.037 A 
ATOM     44  C   UNL A   1      40.334  28.967  30.747  1.00  0.00     0.037 A 
ATOM     45  C   UNL A   1      40.580  32.466  36.244  1.00  0.00     0.049 A 
ATOM     46  C   UNL A   1      41.243  28.941  31.947  1.00  0.00     0.074 A 
ATOM     47  C   UNL A   1      41.393  32.262  37.346  1.00  0.00     0.029 A 
ATOM     48  N   UNL A   1      40.936  31.514  35.301  1.00  0.00    -0.354 N 
ATOM     49  N   UNL A   1      41.185  29.664  33.040  1.00  0.00    -0.248 NA
ATOM     50  C   UNL A   1      42.361  27.986  31.918  1.00  0.00     0.031 C 
ATOM     51  C   UNL A   1      42.286  31.231  37.043  1.00  0.00     0.029 A 
ATOM     52  C   UNL A   1      41.990  30.752  35.777  1.00  0.00     0.049 A 
ATOM     53  H   UNL A   1      40.504  31.397  34.425  1.00  0.00     0.167 HD
ATOM     54  C   UNL A   1      42.246  29.239  33.833  1.00  0.00     0.074 A 
ATOM     55  C   UNL A   1      42.913  28.179  33.108  1.00  0.00     0.031 C 
ATOM     56  C   UNL A   1      42.639  29.693  35.048  1.00  0.00     0.037 A 
BRANCH  43  57
ATOM     57  C   UNL A   1      39.418  34.509  37.139  1.00  0.00     0.058 A 
ATOM     58  C   UNL A   1      38.686  34.263  38.311  1.00  0.00     0.135 A 
ATOM     59  C   UNL A   1      40.124  35.722  37.049  1.00  0.00     0.135 A 
ATOM     60  F   UNL A   1      37.982  33.129  38.443  1.00  0.00    -0.206 F 
ATOM     61  C   UNL A   1      38.662  35.181  39.357  1.00  0.00     0.059 A 
ATOM     62  C   UNL A   1      40.134  36.642  38.093  1.00  0.00     0.059 A 
ATOM     63  F   UNL A   1      40.836  36.008  35.947  1.00  0.00    -0.206 F 
ATOM     64  C   UNL A   1      39.400  36.361  39.244  1.00  0.00     0.060 A 
BRANCH  64  65
ATOM     65  S   UNL A   1      39.412  37.504  40.640  1.00  0.00     0.124 S 
ATOM     66  O   UNL A   1      38.479  38.530  40.186  1.00  0.00    -0.237 OA
ATOM     67  O   UNL A   1      38.942  36.662  41.735  1.00  0.00    -0.237 OA
ATOM     68  O   UNL A   1      40.807  37.923  40.729  1.00  0.00    -0.744 OA
ENDBRANCH  64  65
ENDBRANCH  43  57
BRANCH  44  69
ATOM     69  C   UNL A   1      40.588  28.066  29.588  1.00  0.00     0.058 A 
ATOM     70  C   UNL A   1      39.848  26.889  29.408  1.00  0.00     0.135 A 
ATOM     71  C   UNL A   1      41.605  28.345  28.659  1.00  0.00     0.135 A 
ATOM     72  F   UNL A   1      38.870  26.574  30.271  1.00  0.00    -0.206 F 
ATOM     73  C   UNL A   1      40.132  25.998  28.377  1.00  0.00     0.059 A 
ATOM     74  C   UNL A   1      41.884  27.488  27.600  1.00  0.00     0.059 A 
ATOM     75  F   UNL A   1      42.332  29.467  28.771  1.00  0.00    -0.206 F 
ATOM     76  C   UNL A   1      41.157  26.305  27.480  1.00  0.00     0.060 A 
BRANCH  76  77
ATOM     77  S   UNL A   1      41.517  25.144  26.145  1.00  0.00     0.124 S 
ATOM     78  O   UNL A   1      41.580  26.035  24.992  1.00  0.00    -0.237 OA
ATOM     79  O   UNL A   1      42.784  24.564  26.576  1.00  0.00    -0.237 OA
ATOM     80  O   UNL A   1      40.377  24.233  26.177  1.00  0.00    -0.744 OA
ENDBRANCH  76  77
ENDBRANCH  44  69
BRANCH  56  81
ATOM     81  C   UNL A   1      43.835  29.040  35.683  1.00  0.00     0.058 A 
ATOM     82  C   UNL A   1      45.129  29.551  35.505  1.00  0.00     0.135 A 
ATOM     83  C   UNL A   1      43.676  27.940  36.542  1.00  0.00     0.135 A 
ATOM     84  F   UNL A   1      45.337  30.595  34.686  1.00  0.00    -0.206 F 
ATOM     85  C   UNL A   1      46.227  28.990  36.148  1.00  0.00     0.059 A 
ATOM     86  C   UNL A   1      44.756  27.381  37.219  1.00  0.00     0.059 A 
ATOM     87  F   UNL A   1      42.459  27.416  36.753  1.00  0.00    -0.206 F 
ATOM     88  C   UNL A   1      46.029  27.911  37.010  1.00  0.00     0.060 A 
BRANCH  88  89
ATOM     89  S   UNL A   1      47.455  27.234  37.886  1.00  0.00     0.124 S 
ATOM     90  O   UNL A   1      48.456  27.182  36.825  1.00  0.00    -0.237 OA
ATOM     91  O   UNL A   1      47.684  28.232  38.925  1.00  0.00    -0.237 OA
ATOM     92  O   UNL A   1      46.979  25.938  38.364  1.00  0.00    -0.744 OA
ENDBRANCH  88  89
ENDBRANCH  56  81
ENDBRANCH  30  31
ENDBRANCH  22  25
ENDBRANCH  20  21
ENDBRANCH   1  20
TORSDOF 19
ENDMDL
