MODEL 1
REMARK VINA RESULT:     -10.4      0.000      0.000
REMARK SMILES C=Cc1cncc(-c2ccc([C@@H](C)C(=O)NCCCNC(=O)c3ccc(-c4c5nc(c(-c6c(F)cc(S(=O)(=O)[O-])cc6F)c6ccc([nH]6)c(-c6c(F)cc(S(=O)(=O)[O-])cc6F)c6nc(c(-c7c(F)cc(S(=O)(=O)[O-])cc7F)c7ccc4[nH]7)C=C6)C=C5)cc3)cc2)c1
REMARK SMILES IDX 18 1 17 2 16 3 14 4 15 5 12 7 13 8 11 9 8 10 9 11 90 12
REMARK SMILES IDX 10 13 89 14 7 15 3 16 4 17 91 18 5 19 6 20 2 21 1 22 19 23
REMARK SMILES IDX 20 24 21 25 22 27 23 28 24 29 88 30 25 31 87 32 26 33 27 34
REMARK SMILES IDX 28 35 81 36 29 37 86 38 80 39 82 40 30 41 85 42 79 43 78 44
REMARK SMILES IDX 31 46 65 47 44 48 64 49 45 50 48 51 63 52 83 53 46 54 47 55
REMARK SMILES IDX 62 57 84 58 49 59 32 60 33 61 42 62 34 63 35 64 41 65 43 66
REMARK SMILES IDX 36 67 37 68 38 69 39 70 40 71 66 72 67 73 76 74 68 75 69 76
REMARK SMILES IDX 75 77 77 78 70 79 71 80 72 81 73 82 74 83 50 84 51 85 60 86
REMARK SMILES IDX 52 87 53 88 59 89 61 90 54 91 55 92 56 93 57 94 58 95
REMARK H PARENT 16 6 20 26 82 45 48 56
REMARK Flexibility Score: inf
ROOT
ATOM      1  C   UNL A   1      34.473  33.969  28.742  1.00  0.00     0.042 C 
ENDROOT
BRANCH   1   2
ATOM      2  C   UNL A   1      33.105  34.643  28.794  1.00  0.00     0.117 C 
BRANCH   2   3
ATOM      3  N   UNL A   1      33.157  35.969  29.380  1.00  0.00    -0.356 N 
ATOM      4  C   UNL A   1      33.012  36.405  30.661  1.00  0.00     0.227 C 
ATOM      5  O   UNL A   1      33.075  37.630  30.831  1.00  0.00    -0.274 OA
ATOM      6  H   UNL A   1      33.330  36.688  28.729  1.00  0.00     0.163 HD
BRANCH   4   7
ATOM      7  C   UNL A   1      32.794  35.478  31.867  1.00  0.00     0.105 C 
ATOM      8  C   UNL A   1      31.899  36.065  32.959  1.00  0.00     0.023 C 
BRANCH   7   9
ATOM      9  C   UNL A   1      34.065  34.795  32.343  1.00  0.00    -0.036 A 
ATOM     10  C   UNL A   1      36.423  33.372  33.109  1.00  0.00    -0.017 A 
ATOM     11  C   UNL A   1      36.485  34.662  32.559  1.00  0.00     0.009 A 
ATOM     12  C   UNL A   1      35.148  32.822  33.296  1.00  0.00     0.009 A 
ATOM     13  C   UNL A   1      35.329  35.372  32.214  1.00  0.00     0.005 A 
ATOM     14  C   UNL A   1      33.991  33.512  32.906  1.00  0.00     0.005 A 
BRANCH  10  15
ATOM     15  C   UNL A   1      37.657  32.638  33.461  1.00  0.00     0.001 A 
ATOM     16  C   UNL A   1      39.064  30.638  33.429  1.00  0.00    -0.007 A 
ATOM     17  C   UNL A   1      40.024  31.372  34.116  1.00  0.00     0.119 A 
ATOM     18  C   UNL A   1      37.865  31.292  33.111  1.00  0.00     0.020 A 
ATOM     19  N   UNL A   1      39.869  32.659  34.494  1.00  0.00    -0.263 NA
ATOM     20  C   UNL A   1      38.702  33.252  34.155  1.00  0.00     0.119 A 
BRANCH  16  21
ATOM     21  C   UNL A   1      39.313  29.226  33.121  1.00  0.00     0.002 C 
ATOM     22  C   UNL A   1      40.520  28.647  33.143  1.00  0.00     0.009 C 
ENDBRANCH  16  21
ENDBRANCH  10  15
ENDBRANCH   7   9
ENDBRANCH   4   7
ENDBRANCH   2   3
ENDBRANCH   1   2
BRANCH   1  23
ATOM     23  C   UNL A   1      34.521  32.604  29.419  1.00  0.00     0.118 C 
BRANCH  23  24
ATOM     24  N   UNL A   1      33.960  31.552  28.583  1.00  0.00    -0.352 N 
ATOM     25  C   UNL A   1      34.552  30.469  27.979  1.00  0.00     0.251 C 
ATOM     26  H   UNL A   1      32.992  31.630  28.422  1.00  0.00     0.163 HD
ATOM     27  O   UNL A   1      33.908  29.839  27.142  1.00  0.00    -0.269 OA
BRANCH  25  28
ATOM     28  C   UNL A   1      35.938  30.057  28.304  1.00  0.00     0.039 A 
ATOM     29  C   UNL A   1      36.917  30.159  27.309  1.00  0.00     0.014 A 
ATOM     30  C   UNL A   1      36.275  29.513  29.546  1.00  0.00     0.014 A 
ATOM     31  C   UNL A   1      38.233  29.767  27.576  1.00  0.00     0.010 A 
ATOM     32  C   UNL A   1      37.603  29.200  29.837  1.00  0.00     0.010 A 
ATOM     33  C   UNL A   1      38.594  29.312  28.853  1.00  0.00    -0.014 A 
BRANCH  33  34
ATOM     34  C   UNL A   1      40.001  28.953  29.171  1.00  0.00     0.031 A 
ATOM     35  C   UNL A   1      40.922  29.954  29.812  1.00  0.00     0.074 A 
ATOM     36  C   UNL A   1      40.469  27.739  28.819  1.00  0.00     0.049 A 
ATOM     37  N   UNL A   1      42.188  29.833  30.124  1.00  0.00    -0.248 NA
ATOM     38  C   UNL A   1      40.354  31.276  30.117  1.00  0.00     0.031 C 
ATOM     39  C   UNL A   1      39.697  26.704  28.129  1.00  0.00     0.029 A 
ATOM     40  N   UNL A   1      41.710  27.175  28.981  1.00  0.00    -0.354 N 
ATOM     41  C   UNL A   1      42.571  31.064  30.644  1.00  0.00     0.074 A 
ATOM     42  C   UNL A   1      41.418  31.934  30.554  1.00  0.00     0.031 C 
ATOM     43  C   UNL A   1      40.475  25.627  27.941  1.00  0.00     0.029 A 
ATOM     44  C   UNL A   1      41.807  25.904  28.468  1.00  0.00     0.049 A 
ATOM     45  H   UNL A   1      42.460  27.637  29.421  1.00  0.00     0.167 HD
ATOM     46  C   UNL A   1      43.766  31.431  31.170  1.00  0.00     0.037 A 
ATOM     47  C   UNL A   1      42.852  25.054  28.423  1.00  0.00     0.037 A 
ATOM     48  C   UNL A   1      44.905  30.555  31.272  1.00  0.00     0.049 A 
ATOM     49  C   UNL A   1      44.160  25.465  29.037  1.00  0.00     0.074 A 
ATOM     50  C   UNL A   1      46.137  30.805  31.851  1.00  0.00     0.029 A 
ATOM     51  N   UNL A   1      44.954  29.259  30.776  1.00  0.00    -0.354 N 
ATOM     52  N   UNL A   1      44.482  26.606  29.600  1.00  0.00    -0.248 NA
ATOM     53  C   UNL A   1      45.242  24.472  29.024  1.00  0.00     0.031 C 
ATOM     54  C   UNL A   1      46.944  29.676  31.667  1.00  0.00     0.029 A 
ATOM     55  C   UNL A   1      46.202  28.705  31.015  1.00  0.00     0.049 A 
ATOM     56  H   UNL A   1      44.211  28.802  30.321  1.00  0.00     0.167 HD
ATOM     57  C   UNL A   1      45.801  26.467  30.015  1.00  0.00     0.074 A 
ATOM     58  C   UNL A   1      46.209  25.122  29.658  1.00  0.00     0.031 C 
ATOM     59  C   UNL A   1      46.600  27.370  30.637  1.00  0.00     0.037 A 
BRANCH  46  60
ATOM     60  C   UNL A   1      43.893  32.847  31.667  1.00  0.00     0.058 A 
ATOM     61  C   UNL A   1      43.616  33.188  33.002  1.00  0.00     0.135 A 
ATOM     62  C   UNL A   1      44.278  33.880  30.797  1.00  0.00     0.135 A 
ATOM     63  F   UNL A   1      43.235  32.244  33.876  1.00  0.00    -0.206 F 
ATOM     64  C   UNL A   1      43.662  34.508  33.442  1.00  0.00     0.059 A 
ATOM     65  C   UNL A   1      44.359  35.203  31.223  1.00  0.00     0.059 A 
ATOM     66  F   UNL A   1      44.560  33.612  29.513  1.00  0.00    -0.206 F 
ATOM     67  C   UNL A   1      44.024  35.510  32.541  1.00  0.00     0.060 A 
BRANCH  67  68
ATOM     68  S   UNL A   1      44.032  37.223  33.111  1.00  0.00     0.124 S 
ATOM     69  O   UNL A   1      45.281  37.271  33.865  1.00  0.00    -0.237 OA
ATOM     70  O   UNL A   1      44.020  37.972  31.859  1.00  0.00    -0.237 OA
ATOM     71  O   UNL A   1      42.813  37.321  33.908  1.00  0.00    -0.744 OA
ENDBRANCH  67  68
ENDBRANCH  46  60
BRANCH  47  72
ATOM     72  C   UNL A   1      42.673  23.718  27.796  1.00  0.00     0.058 A 
ATOM     73  C   UNL A   1      42.736  23.561  26.405  1.00  0.00     0.135 A 
ATOM     74  C   UNL A   1      42.515  22.565  28.581  1.00  0.00     0.135 A 
ATOM     75  F   UNL A   1      42.881  24.636  25.615  1.00  0.00    -0.206 F 
ATOM     76  C   UNL A   1      42.654  22.307  25.811  1.00  0.00     0.059 A 
ATOM     77  C   UNL A   1      42.454  21.297  28.011  1.00  0.00     0.059 A 
ATOM     78  F   UNL A   1      42.465  22.663  29.918  1.00  0.00    -0.206 F 
ATOM     79  C   UNL A   1      42.524  21.178  26.623  1.00  0.00     0.060 A 
BRANCH  79  80
ATOM     80  S   UNL A   1      42.513  19.549  25.843  1.00  0.00     0.124 S 
ATOM     81  O   UNL A   1      41.157  19.487  25.309  1.00  0.00    -0.237 OA
ATOM     82  O   UNL A   1      43.582  19.677  24.857  1.00  0.00    -0.237 OA
ATOM     83  O   UNL A   1      42.797  18.643  26.951  1.00  0.00    -0.744 OA
ENDBRANCH  79  80
ENDBRANCH  47  72
BRANCH  59  84
ATOM     84  C   UNL A   1      48.000  26.933  30.971  1.00  0.00     0.058 A 
ATOM     85  C   UNL A   1      48.297  26.281  32.178  1.00  0.00     0.135 A 
ATOM     86  C   UNL A   1      49.048  27.135  30.059  1.00  0.00     0.135 A 
ATOM     87  F   UNL A   1      47.332  26.068  33.086  1.00  0.00    -0.206 F 
ATOM     88  C   UNL A   1      49.591  25.868  32.481  1.00  0.00     0.059 A 
ATOM     89  C   UNL A   1      50.344  26.708  30.330  1.00  0.00     0.059 A 
ATOM     90  F   UNL A   1      48.816  27.743  28.886  1.00  0.00    -0.206 F 
ATOM     91  C   UNL A   1      50.608  26.086  31.551  1.00  0.00     0.060 A 
BRANCH  91  92
ATOM     92  S   UNL A   1      52.280  25.529  31.946  1.00  0.00     0.124 S 
ATOM     93  O   UNL A   1      52.598  26.354  33.105  1.00  0.00    -0.237 OA
ATOM     94  O   UNL A   1      52.080  24.107  32.216  1.00  0.00    -0.237 OA
ATOM     95  O   UNL A   1      53.033  25.829  30.732  1.00  0.00    -0.744 OA
ENDBRANCH  91  92
ENDBRANCH  59  84
ENDBRANCH  33  34
ENDBRANCH  25  28
ENDBRANCH  23  24
ENDBRANCH   1  23
TORSDOF 16
ENDMDL
MODEL 2
REMARK VINA RESULT:     -10.4      3.154     11.162
REMARK SMILES C=Cc1cncc(-c2ccc([C@@H](C)C(=O)NCCCNC(=O)c3ccc(-c4c5nc(c(-c6c(F)cc(S(=O)(=O)[O-])cc6F)c6ccc([nH]6)c(-c6c(F)cc(S(=O)(=O)[O-])cc6F)c6nc(c(-c7c(F)cc(S(=O)(=O)[O-])cc7F)c7ccc4[nH]7)C=C6)C=C5)cc3)cc2)c1
REMARK SMILES IDX 18 1 17 2 16 3 14 4 15 5 12 7 13 8 11 9 8 10 9 11 90 12
REMARK SMILES IDX 10 13 89 14 7 15 3 16 4 17 91 18 5 19 6 20 2 21 1 22 19 23
REMARK SMILES IDX 20 24 21 25 22 27 23 28 24 29 88 30 25 31 87 32 26 33 27 34
REMARK SMILES IDX 28 35 81 36 29 37 86 38 80 39 82 40 30 41 85 42 79 43 78 44
REMARK SMILES IDX 31 46 65 47 44 48 64 49 45 50 48 51 63 52 83 53 46 54 47 55
REMARK SMILES IDX 62 57 84 58 49 59 32 60 33 61 42 62 34 63 35 64 41 65 43 66
REMARK SMILES IDX 36 67 37 68 38 69 39 70 40 71 66 72 67 73 76 74 68 75 69 76
REMARK SMILES IDX 75 77 77 78 70 79 71 80 72 81 73 82 74 83 50 84 51 85 60 86
REMARK SMILES IDX 52 87 53 88 59 89 61 90 54 91 55 92 56 93 57 94 58 95
REMARK H PARENT 16 6 20 26 82 45 48 56
REMARK Flexibility Score: inf
ROOT
ATOM      1  C   UNL A   1      40.827  19.986  26.173  1.00  0.00     0.042 C 
ENDROOT
BRANCH   1   2
ATOM      2  C   UNL A   1      42.128  19.547  26.840  1.00  0.00     0.117 C 
BRANCH   2   3
ATOM      3  N   UNL A   1      43.293  19.803  26.014  1.00  0.00    -0.356 N 
ATOM      4  C   UNL A   1      43.826  20.955  25.524  1.00  0.00     0.227 C 
ATOM      5  O   UNL A   1      44.826  20.832  24.805  1.00  0.00    -0.274 OA
ATOM      6  H   UNL A   1      43.791  18.993  25.762  1.00  0.00     0.163 HD
BRANCH   4   7
ATOM      7  C   UNL A   1      43.270  22.357  25.822  1.00  0.00     0.105 C 
ATOM      8  C   UNL A   1      43.530  23.385  24.721  1.00  0.00     0.023 C 
BRANCH   7   9
ATOM      9  C   UNL A   1      43.533  22.823  27.245  1.00  0.00    -0.036 A 
ATOM     10  C   UNL A   1      44.090  23.866  29.847  1.00  0.00    -0.017 A 
ATOM     11  C   UNL A   1      42.786  23.533  29.449  1.00  0.00     0.009 A 
ATOM     12  C   UNL A   1      45.116  23.635  28.920  1.00  0.00     0.009 A 
ATOM     13  C   UNL A   1      42.517  22.992  28.186  1.00  0.00     0.005 A 
ATOM     14  C   UNL A   1      44.842  23.139  27.637  1.00  0.00     0.005 A 
BRANCH  10  15
ATOM     15  C   UNL A   1      44.352  24.442  31.183  1.00  0.00     0.001 A 
ATOM     16  C   UNL A   1      44.771  26.333  32.676  1.00  0.00    -0.007 A 
ATOM     17  C   UNL A   1      44.775  25.426  33.730  1.00  0.00     0.119 A 
ATOM     18  C   UNL A   1      44.564  25.816  31.389  1.00  0.00     0.020 A 
ATOM     19  N   UNL A   1      44.597  24.095  33.587  1.00  0.00    -0.263 NA
ATOM     20  C   UNL A   1      44.387  23.645  32.329  1.00  0.00     0.119 A 
BRANCH  16  21
ATOM     21  C   UNL A   1      45.036  27.751  32.938  1.00  0.00     0.002 C 
ATOM     22  C   UNL A   1      44.311  28.761  32.441  1.00  0.00     0.009 C 
ENDBRANCH  16  21
ENDBRANCH  10  15
ENDBRANCH   7   9
ENDBRANCH   4   7
ENDBRANCH   2   3
ENDBRANCH   1   2
BRANCH   1  23
ATOM     23  C   UNL A   1      40.129  21.145  26.875  1.00  0.00     0.118 C 
BRANCH  23  24
ATOM     24  N   UNL A   1      38.985  21.639  26.121  1.00  0.00    -0.352 N 
ATOM     25  C   UNL A   1      38.429  22.893  26.046  1.00  0.00     0.251 C 
ATOM     26  H   UNL A   1      38.533  20.959  25.572  1.00  0.00     0.163 HD
ATOM     27  O   UNL A   1      37.331  23.018  25.507  1.00  0.00    -0.269 OA
BRANCH  25  28
ATOM     28  C   UNL A   1      39.112  24.084  26.605  1.00  0.00     0.039 A 
ATOM     29  C   UNL A   1      39.936  24.840  25.763  1.00  0.00     0.014 A 
ATOM     30  C   UNL A   1      39.008  24.429  27.956  1.00  0.00     0.014 A 
ATOM     31  C   UNL A   1      40.607  25.962  26.260  1.00  0.00     0.010 A 
ATOM     32  C   UNL A   1      39.611  25.594  28.429  1.00  0.00     0.010 A 
ATOM     33  C   UNL A   1      40.426  26.367  27.591  1.00  0.00    -0.014 A 
BRANCH  33  34
ATOM     34  C   UNL A   1      41.081  27.593  28.116  1.00  0.00     0.031 A 
ATOM     35  C   UNL A   1      42.581  27.715  28.131  1.00  0.00     0.074 A 
ATOM     36  C   UNL A   1      40.323  28.576  28.642  1.00  0.00     0.049 A 
ATOM     37  N   UNL A   1      43.328  28.690  28.586  1.00  0.00    -0.248 NA
ATOM     38  C   UNL A   1      43.342  26.580  27.590  1.00  0.00     0.031 C 
ATOM     39  C   UNL A   1      38.863  28.548  28.751  1.00  0.00     0.029 A 
ATOM     40  N   UNL A   1      40.674  29.781  29.197  1.00  0.00    -0.354 N 
ATOM     41  C   UNL A   1      44.643  28.279  28.402  1.00  0.00     0.074 A 
ATOM     42  C   UNL A   1      44.591  26.944  27.845  1.00  0.00     0.031 C 
ATOM     43  C   UNL A   1      38.443  29.688  29.321  1.00  0.00     0.029 A 
ATOM     44  C   UNL A   1      39.602  30.514  29.645  1.00  0.00     0.049 A 
ATOM     45  H   UNL A   1      41.606  30.091  29.268  1.00  0.00     0.167 HD
ATOM     46  C   UNL A   1      45.790  28.959  28.651  1.00  0.00     0.037 A 
ATOM     47  C   UNL A   1      39.553  31.715  30.253  1.00  0.00     0.037 A 
ATOM     48  C   UNL A   1      45.834  30.294  29.190  1.00  0.00     0.049 A 
ATOM     49  C   UNL A   1      40.831  32.468  30.494  1.00  0.00     0.074 A 
ATOM     50  C   UNL A   1      46.937  31.098  29.415  1.00  0.00     0.029 A 
ATOM     51  N   UNL A   1      44.723  31.021  29.597  1.00  0.00    -0.354 N 
ATOM     52  N   UNL A   1      42.064  32.099  30.239  1.00  0.00    -0.248 NA
ATOM     53  C   UNL A   1      40.712  33.803  31.094  1.00  0.00     0.031 C 
ATOM     54  C   UNL A   1      46.498  32.293  29.996  1.00  0.00     0.029 A 
ATOM     55  C   UNL A   1      45.117  32.254  30.092  1.00  0.00     0.049 A 
ATOM     56  H   UNL A   1      43.792  30.705  29.542  1.00  0.00     0.167 HD
ATOM     57  C   UNL A   1      42.869  33.159  30.638  1.00  0.00     0.074 A 
ATOM     58  C   UNL A   1      41.980  34.193  31.133  1.00  0.00     0.031 C 
ATOM     59  C   UNL A   1      44.221  33.267  30.598  1.00  0.00     0.037 A 
BRANCH  46  60
ATOM     60  C   UNL A   1      47.085  28.255  28.346  1.00  0.00     0.058 A 
ATOM     61  C   UNL A   1      47.680  28.323  27.074  1.00  0.00     0.135 A 
ATOM     62  C   UNL A   1      47.734  27.491  29.329  1.00  0.00     0.135 A 
ATOM     63  F   UNL A   1      47.099  29.032  26.093  1.00  0.00    -0.206 F 
ATOM     64  C   UNL A   1      48.838  27.613  26.772  1.00  0.00     0.059 A 
ATOM     65  C   UNL A   1      48.911  26.797  29.057  1.00  0.00     0.059 A 
ATOM     66  F   UNL A   1      47.217  27.396  30.563  1.00  0.00    -0.206 F 
ATOM     67  C   UNL A   1      49.440  26.843  27.768  1.00  0.00     0.060 A 
BRANCH  67  68
ATOM     68  S   UNL A   1      50.914  25.888  27.350  1.00  0.00     0.124 S 
ATOM     69  O   UNL A   1      51.154  26.314  25.975  1.00  0.00    -0.237 OA
ATOM     70  O   UNL A   1      51.883  26.356  28.335  1.00  0.00    -0.237 OA
ATOM     71  O   UNL A   1      50.479  24.504  27.512  1.00  0.00    -0.744 OA
ENDBRANCH  67  68
ENDBRANCH  46  60
BRANCH  47  72
ATOM     72  C   UNL A   1      38.233  32.280  30.638  1.00  0.00     0.058 A 
ATOM     73  C   UNL A   1      37.687  32.035  31.905  1.00  0.00     0.135 A 
ATOM     74  C   UNL A   1      37.533  33.138  29.775  1.00  0.00     0.135 A 
ATOM     75  F   UNL A   1      38.318  31.217  32.761  1.00  0.00    -0.206 F 
ATOM     76  C   UNL A   1      36.494  32.624  32.308  1.00  0.00     0.059 A 
ATOM     77  C   UNL A   1      36.350  33.757  30.165  1.00  0.00     0.059 A 
ATOM     78  F   UNL A   1      38.024  33.415  28.558  1.00  0.00    -0.206 F 
ATOM     79  C   UNL A   1      35.837  33.493  31.435  1.00  0.00     0.060 A 
BRANCH  79  80
ATOM     80  S   UNL A   1      34.339  34.324  32.008  1.00  0.00     0.124 S 
ATOM     81  O   UNL A   1      34.885  35.532  32.614  1.00  0.00    -0.237 OA
ATOM     82  O   UNL A   1      33.600  34.512  30.762  1.00  0.00    -0.237 OA
ATOM     83  O   UNL A   1      33.754  33.361  32.936  1.00  0.00    -0.744 OA
ENDBRANCH  79  80
ENDBRANCH  47  72
BRANCH  59  84
ATOM     84  C   UNL A   1      44.823  34.550  31.103  1.00  0.00     0.058 A 
ATOM     85  C   UNL A   1      45.205  34.703  32.445  1.00  0.00     0.135 A 
ATOM     86  C   UNL A   1      45.051  35.623  30.229  1.00  0.00     0.135 A 
ATOM     87  F   UNL A   1      45.002  33.708  33.323  1.00  0.00    -0.206 F 
ATOM     88  C   UNL A   1      45.770  35.886  32.908  1.00  0.00     0.059 A 
ATOM     89  C   UNL A   1      45.639  36.807  30.665  1.00  0.00     0.059 A 
ATOM     90  F   UNL A   1      44.714  35.525  28.934  1.00  0.00    -0.206 F 
ATOM     91  C   UNL A   1      45.983  36.934  32.011  1.00  0.00     0.060 A 
BRANCH  91  92
ATOM     92  S   UNL A   1      46.736  38.458  32.619  1.00  0.00     0.124 S 
ATOM     93  O   UNL A   1      45.691  38.971  33.498  1.00  0.00    -0.237 OA
ATOM     94  O   UNL A   1      47.940  37.970  33.284  1.00  0.00    -0.237 OA
ATOM     95  O   UNL A   1      46.970  39.230  31.402  1.00  0.00    -0.744 OA
ENDBRANCH  91  92
ENDBRANCH  59  84
ENDBRANCH  33  34
ENDBRANCH  25  28
ENDBRANCH  23  24
ENDBRANCH   1  23
TORSDOF 16
ENDMDL
MODEL 3
REMARK VINA RESULT:     -10.3      4.254      6.856
REMARK SMILES C=Cc1cncc(-c2ccc([C@@H](C)C(=O)NCCCNC(=O)c3ccc(-c4c5nc(c(-c6c(F)cc(S(=O)(=O)[O-])cc6F)c6ccc([nH]6)c(-c6c(F)cc(S(=O)(=O)[O-])cc6F)c6nc(c(-c7c(F)cc(S(=O)(=O)[O-])cc7F)c7ccc4[nH]7)C=C6)C=C5)cc3)cc2)c1
REMARK SMILES IDX 18 1 17 2 16 3 14 4 15 5 12 7 13 8 11 9 8 10 9 11 90 12
REMARK SMILES IDX 10 13 89 14 7 15 3 16 4 17 91 18 5 19 6 20 2 21 1 22 19 23
REMARK SMILES IDX 20 24 21 25 22 27 23 28 24 29 88 30 25 31 87 32 26 33 27 34
REMARK SMILES IDX 28 35 81 36 29 37 86 38 80 39 82 40 30 41 85 42 79 43 78 44
REMARK SMILES IDX 31 46 65 47 44 48 64 49 45 50 48 51 63 52 83 53 46 54 47 55
REMARK SMILES IDX 62 57 84 58 49 59 32 60 33 61 42 62 34 63 35 64 41 65 43 66
REMARK SMILES IDX 36 67 37 68 38 69 39 70 40 71 66 72 67 73 76 74 68 75 69 76
REMARK SMILES IDX 75 77 77 78 70 79 71 80 72 81 73 82 74 83 50 84 51 85 60 86
REMARK SMILES IDX 52 87 53 88 59 89 61 90 54 91 55 92 56 93 57 94 58 95
REMARK H PARENT 16 6 20 26 82 45 48 56
REMARK Flexibility Score: inf
ROOT
ATOM      1  C   UNL A   1      34.919  30.078  27.529  1.00  0.00     0.042 C 
ENDROOT
BRANCH   1   2
ATOM      2  C   UNL A   1      33.501  30.341  27.032  1.00  0.00     0.117 C 
BRANCH   2   3
ATOM      3  N   UNL A   1      32.525  29.446  27.624  1.00  0.00    -0.356 N 
ATOM      4  C   UNL A   1      31.850  28.375  27.125  1.00  0.00     0.227 C 
ATOM      5  O   UNL A   1      31.041  27.834  27.891  1.00  0.00    -0.274 OA
ATOM      6  H   UNL A   1      32.313  29.652  28.563  1.00  0.00     0.163 HD
BRANCH   4   7
ATOM      7  C   UNL A   1      32.048  27.817  25.707  1.00  0.00     0.105 C 
ATOM      8  C   UNL A   1      30.865  28.050  24.768  1.00  0.00     0.023 C 
BRANCH   7   9
ATOM      9  C   UNL A   1      32.653  26.423  25.684  1.00  0.00    -0.036 A 
ATOM     10  C   UNL A   1      33.702  23.772  25.472  1.00  0.00    -0.017 A 
ATOM     11  C   UNL A   1      34.540  24.899  25.486  1.00  0.00     0.009 A 
ATOM     12  C   UNL A   1      32.325  24.002  25.598  1.00  0.00     0.009 A 
ATOM     13  C   UNL A   1      34.028  26.195  25.622  1.00  0.00     0.005 A 
ATOM     14  C   UNL A   1      31.808  25.303  25.686  1.00  0.00     0.005 A 
BRANCH  10  15
ATOM     15  C   UNL A   1      34.262  22.413  25.321  1.00  0.00     0.001 A 
ATOM     16  C   UNL A   1      34.035  20.021  24.863  1.00  0.00    -0.007 A 
ATOM     17  C   UNL A   1      35.415  19.922  25.001  1.00  0.00     0.119 A 
ATOM     18  C   UNL A   1      33.465  21.291  25.038  1.00  0.00     0.020 A 
ATOM     19  N   UNL A   1      36.226  20.962  25.292  1.00  0.00    -0.263 NA
ATOM     20  C   UNL A   1      35.633  22.168  25.438  1.00  0.00     0.119 A 
BRANCH  16  21
ATOM     21  C   UNL A   1      33.242  18.814  24.607  1.00  0.00     0.002 C 
ATOM     22  C   UNL A   1      32.528  18.600  23.494  1.00  0.00     0.009 C 
ENDBRANCH  16  21
ENDBRANCH  10  15
ENDBRANCH   7   9
ENDBRANCH   4   7
ENDBRANCH   2   3
ENDBRANCH   1   2
BRANCH   1  23
ATOM     23  C   UNL A   1      35.542  31.246  28.285  1.00  0.00     0.118 C 
BRANCH  23  24
ATOM     24  N   UNL A   1      35.519  31.046  29.727  1.00  0.00    -0.352 N 
ATOM     25  C   UNL A   1      36.428  30.451  30.568  1.00  0.00     0.251 C 
ATOM     26  H   UNL A   1      34.717  31.397  30.176  1.00  0.00     0.163 HD
ATOM     27  O   UNL A   1      36.088  30.210  31.725  1.00  0.00    -0.269 OA
BRANCH  25  28
ATOM     28  C   UNL A   1      37.791  30.087  30.112  1.00  0.00     0.039 A 
ATOM     29  C   UNL A   1      38.745  29.731  31.072  1.00  0.00     0.014 A 
ATOM     30  C   UNL A   1      38.162  30.155  28.766  1.00  0.00     0.014 A 
ATOM     31  C   UNL A   1      40.044  29.394  30.678  1.00  0.00     0.010 A 
ATOM     32  C   UNL A   1      39.432  29.740  28.368  1.00  0.00     0.010 A 
ATOM     33  C   UNL A   1      40.391  29.366  29.319  1.00  0.00    -0.014 A 
BRANCH  33  34
ATOM     34  C   UNL A   1      41.749  28.949  28.882  1.00  0.00     0.031 A 
ATOM     35  C   UNL A   1      42.871  29.949  28.804  1.00  0.00     0.074 A 
ATOM     36  C   UNL A   1      41.956  27.676  28.491  1.00  0.00     0.049 A 
ATOM     37  N   UNL A   1      44.107  29.776  28.407  1.00  0.00    -0.248 NA
ATOM     38  C   UNL A   1      42.554  31.330  29.195  1.00  0.00     0.031 C 
ATOM     39  C   UNL A   1      40.934  26.628  28.453  1.00  0.00     0.029 A 
ATOM     40  N   UNL A   1      43.090  27.050  28.037  1.00  0.00    -0.354 N 
ATOM     41  C   UNL A   1      44.709  31.027  28.485  1.00  0.00     0.074 A 
ATOM     42  C   UNL A   1      43.687  31.958  28.913  1.00  0.00     0.031 C 
ATOM     43  C   UNL A   1      41.490  25.487  28.017  1.00  0.00     0.029 A 
ATOM     44  C   UNL A   1      42.898  25.728  27.716  1.00  0.00     0.049 A 
ATOM     45  H   UNL A   1      43.959  27.505  27.949  1.00  0.00     0.167 HD
ATOM     46  C   UNL A   1      45.999  31.367  28.244  1.00  0.00     0.037 A 
ATOM     47  C   UNL A   1      43.756  24.810  27.229  1.00  0.00     0.037 A 
ATOM     48  C   UNL A   1      47.016  30.432  27.834  1.00  0.00     0.049 A 
ATOM     49  C   UNL A   1      45.189  25.196  26.997  1.00  0.00     0.074 A 
ATOM     50  C   UNL A   1      48.366  30.658  27.633  1.00  0.00     0.029 A 
ATOM     51  N   UNL A   1      46.791  29.090  27.555  1.00  0.00    -0.354 N 
ATOM     52  N   UNL A   1      45.763  26.365  27.154  1.00  0.00    -0.248 NA
ATOM     53  C   UNL A   1      46.096  24.136  26.534  1.00  0.00     0.031 C 
ATOM     54  C   UNL A   1      48.949  29.464  27.191  1.00  0.00     0.029 A 
ATOM     55  C   UNL A   1      47.972  28.482  27.161  1.00  0.00     0.049 A 
ATOM     56  H   UNL A   1      45.920  28.638  27.627  1.00  0.00     0.167 HD
ATOM     57  C   UNL A   1      47.098  26.183  26.818  1.00  0.00     0.074 A 
ATOM     58  C   UNL A   1      47.252  24.783  26.470  1.00  0.00     0.031 C 
ATOM     59  C   UNL A   1      48.106  27.091  26.800  1.00  0.00     0.037 A 
BRANCH  46  60
ATOM     60  C   UNL A   1      46.372  32.815  28.415  1.00  0.00     0.058 A 
ATOM     61  C   UNL A   1      46.322  33.722  27.342  1.00  0.00     0.135 A 
ATOM     62  C   UNL A   1      46.800  33.303  29.660  1.00  0.00     0.135 A 
ATOM     63  F   UNL A   1      45.929  33.309  26.126  1.00  0.00    -0.206 F 
ATOM     64  C   UNL A   1      46.737  35.043  27.483  1.00  0.00     0.059 A 
ATOM     65  C   UNL A   1      47.191  34.629  29.831  1.00  0.00     0.059 A 
ATOM     66  F   UNL A   1      46.861  32.486  30.723  1.00  0.00    -0.206 F 
ATOM     67  C   UNL A   1      47.181  35.484  28.730  1.00  0.00     0.060 A 
BRANCH  67  68
ATOM     68  S   UNL A   1      47.762  37.185  28.888  1.00  0.00     0.124 S 
ATOM     69  O   UNL A   1      46.507  37.902  29.097  1.00  0.00    -0.237 OA
ATOM     70  O   UNL A   1      48.647  37.110  30.046  1.00  0.00    -0.237 OA
ATOM     71  O   UNL A   1      48.424  37.438  27.612  1.00  0.00    -0.744 OA
ENDBRANCH  67  68
ENDBRANCH  46  60
BRANCH  47  72
ATOM     72  C   UNL A   1      43.269  23.430  26.966  1.00  0.00     0.058 A 
ATOM     73  C   UNL A   1      43.113  22.958  25.656  1.00  0.00     0.135 A 
ATOM     74  C   UNL A   1      43.025  22.535  28.020  1.00  0.00     0.135 A 
ATOM     75  F   UNL A   1      43.329  23.780  24.617  1.00  0.00    -0.206 F 
ATOM     76  C   UNL A   1      42.739  21.645  25.396  1.00  0.00     0.059 A 
ATOM     77  C   UNL A   1      42.673  21.210  27.785  1.00  0.00     0.059 A 
ATOM     78  F   UNL A   1      43.177  22.936  29.291  1.00  0.00    -0.206 F 
ATOM     79  C   UNL A   1      42.532  20.774  26.468  1.00  0.00     0.060 A 
BRANCH  79  80
ATOM     80  S   UNL A   1      42.138  19.047  26.113  1.00  0.00     0.124 S 
ATOM     81  O   UNL A   1      42.478  18.402  27.376  1.00  0.00    -0.237 OA
ATOM     82  O   UNL A   1      40.715  19.118  25.795  1.00  0.00    -0.237 OA
ATOM     83  O   UNL A   1      43.010  18.727  24.987  1.00  0.00    -0.744 OA
ENDBRANCH  79  80
ENDBRANCH  47  72
BRANCH  59  84
ATOM     84  C   UNL A   1      49.467  26.598  26.390  1.00  0.00     0.058 A 
ATOM     85  C   UNL A   1      49.924  26.718  25.069  1.00  0.00     0.135 A 
ATOM     86  C   UNL A   1      50.336  26.033  27.337  1.00  0.00     0.135 A 
ATOM     87  F   UNL A   1      49.130  27.245  24.124  1.00  0.00    -0.206 F 
ATOM     88  C   UNL A   1      51.187  26.270  24.694  1.00  0.00     0.059 A 
ATOM     89  C   UNL A   1      51.613  25.602  26.989  1.00  0.00     0.059 A 
ATOM     90  F   UNL A   1      49.953  25.905  28.616  1.00  0.00    -0.206 F 
ATOM     91  C   UNL A   1      52.025  25.713  25.661  1.00  0.00     0.060 A 
BRANCH  91  92
ATOM     92  S   UNL A   1      53.669  25.154  25.168  1.00  0.00     0.124 S 
ATOM     93  O   UNL A   1      53.828  25.812  23.876  1.00  0.00    -0.237 OA
ATOM     94  O   UNL A   1      54.511  25.666  26.246  1.00  0.00    -0.237 OA
ATOM     95  O   UNL A   1      53.535  23.701  25.123  1.00  0.00    -0.744 OA
ENDBRANCH  91  92
ENDBRANCH  59  84
ENDBRANCH  33  34
ENDBRANCH  25  28
ENDBRANCH  23  24
ENDBRANCH   1  23
TORSDOF 16
ENDMDL
