MODEL 1
REMARK VINA RESULT:     -11.2      0.000      0.000
REMARK SMILES C[C@H](Sc1ccnc(C(=O)NCCCNC(=O)c2ccc(-c3c4nc(c(-c5c(F)cc(S(=O)(=O)[O-])cc5F)c5ccc([nH]5)c(-c5c(F)cc(S(=O)(=O)[O-])cc5F)c5nc(c(-c6c(F)cc(S(=O)(=O)[O-])cc6F)c6ccc3[nH]6)C=C5)C=C4)cc2)c1)[C@@H](C)O
REMARK SMILES IDX 12 1 11 2 9 3 10 4 8 6 4 7 5 8 84 9 6 10 7 11 3 12 2 13 1 14
REMARK SMILES IDX 85 15 86 16 87 17 13 19 14 20 15 21 16 22 17 24 18 25 19 26
REMARK SMILES IDX 83 27 20 28 82 29 21 30 22 31 23 32 76 33 24 34 81 35 75 36
REMARK SMILES IDX 77 37 25 38 80 39 74 40 73 41 26 43 60 44 39 45 59 46 40 47
REMARK SMILES IDX 43 48 58 49 78 50 41 51 42 52 57 54 79 55 44 56 27 57 28 58
REMARK SMILES IDX 37 59 29 60 30 61 36 62 38 63 31 64 32 65 33 66 34 67 35 68
REMARK SMILES IDX 61 69 62 70 71 71 63 72 64 73 70 74 72 75 65 76 66 77 67 78
REMARK SMILES IDX 68 79 69 80 45 81 46 82 55 83 47 84 48 85 54 86 56 87 49 88
REMARK SMILES IDX 50 89 51 90 52 91 53 92
REMARK H PARENT 11 5 87 18 15 23 77 42 43 53
REMARK Flexibility Score: inf
ROOT
ATOM      1  C   UNL A   1      41.536  20.543  27.603  1.00  0.00     0.118 C 
ENDROOT
BRANCH   1   2
ATOM      2  N   UNL A   1      41.627  19.247  26.959  1.00  0.00    -0.351 N 
ATOM      3  C   UNL A   1      42.523  18.688  26.074  1.00  0.00     0.269 C 
ATOM      4  O   UNL A   1      42.299  17.518  25.751  1.00  0.00    -0.268 OA
ATOM      5  H   UNL A   1      40.894  18.637  27.205  1.00  0.00     0.163 HD
BRANCH   3   6
ATOM      6  C   UNL A   1      43.742  19.393  25.536  1.00  0.00     0.129 A 
ATOM      7  C   UNL A   1      44.999  21.317  24.797  1.00  0.00     0.011 A 
ATOM      8  C   UNL A   1      46.113  20.500  24.683  1.00  0.00     0.035 A 
ATOM      9  C   UNL A   1      43.785  20.732  25.182  1.00  0.00     0.049 A 
ATOM     10  C   UNL A   1      45.979  19.157  24.987  1.00  0.00     0.113 A 
ATOM     11  N   UNL A   1      44.838  18.597  25.426  1.00  0.00    -0.251 NA
BRANCH   7  12
ATOM     12  S   UNL A   1      44.959  23.097  24.625  1.00  0.00    -0.120 SA
BRANCH  12  13
ATOM     13  C   UNL A   1      46.126  23.819  25.858  1.00  0.00     0.077 C 
ATOM     14  C   UNL A   1      47.148  24.748  25.201  1.00  0.00     0.022 C 
BRANCH  13  15
ATOM     15  C   UNL A   1      45.467  24.384  27.134  1.00  0.00     0.124 C 
ATOM     16  C   UNL A   1      44.622  23.355  27.885  1.00  0.00     0.039 C 
BRANCH  15  17
ATOM     17  O   UNL A   1      46.478  24.865  28.029  1.00  0.00    -0.392 OA
ATOM     18  H   UNL A   1      47.092  25.439  27.545  1.00  0.00     0.210 HD
ENDBRANCH  15  17
ENDBRANCH  13  15
ENDBRANCH  12  13
ENDBRANCH   7  12
ENDBRANCH   3   6
ENDBRANCH   1   2
BRANCH   1  19
ATOM     19  C   UNL A   1      40.662  21.504  26.795  1.00  0.00     0.042 C 
BRANCH  19  20
ATOM     20  C   UNL A   1      40.814  22.965  27.219  1.00  0.00     0.118 C 
BRANCH  20  21
ATOM     21  N   UNL A   1      41.438  23.764  26.176  1.00  0.00    -0.352 N 
ATOM     22  C   UNL A   1      41.640  25.117  26.089  1.00  0.00     0.251 C 
ATOM     23  H   UNL A   1      41.770  23.249  25.405  1.00  0.00     0.163 HD
ATOM     24  O   UNL A   1      41.968  25.593  25.004  1.00  0.00    -0.269 OA
BRANCH  22  25
ATOM     25  C   UNL A   1      41.476  26.003  27.264  1.00  0.00     0.039 A 
ATOM     26  C   UNL A   1      40.341  25.837  28.065  1.00  0.00     0.014 A 
ATOM     27  C   UNL A   1      42.369  27.045  27.536  1.00  0.00     0.014 A 
ATOM     28  C   UNL A   1      40.117  26.693  29.145  1.00  0.00     0.010 A 
ATOM     29  C   UNL A   1      42.178  27.856  28.654  1.00  0.00     0.010 A 
ATOM     30  C   UNL A   1      41.042  27.700  29.460  1.00  0.00    -0.014 A 
BRANCH  30  31
ATOM     31  C   UNL A   1      40.813  28.598  30.622  1.00  0.00     0.031 A 
ATOM     32  C   UNL A   1      41.642  28.459  31.871  1.00  0.00     0.074 A 
ATOM     33  C   UNL A   1      39.838  29.525  30.556  1.00  0.00     0.049 A 
ATOM     34  N   UNL A   1      41.590  29.156  32.978  1.00  0.00    -0.248 NA
ATOM     35  C   UNL A   1      42.646  27.383  31.889  1.00  0.00     0.031 C 
ATOM     36  C   UNL A   1      38.931  29.717  29.423  1.00  0.00     0.029 A 
ATOM     37  N   UNL A   1      39.446  30.479  31.459  1.00  0.00    -0.354 N 
ATOM     38  C   UNL A   1      42.540  28.596  33.826  1.00  0.00     0.074 A 
ATOM     39  C   UNL A   1      43.118  27.471  33.124  1.00  0.00     0.031 C 
ATOM     40  C   UNL A   1      38.109  30.746  29.686  1.00  0.00     0.029 A 
ATOM     41  C   UNL A   1      38.413  31.271  31.013  1.00  0.00     0.049 A 
ATOM     42  H   UNL A   1      39.864  30.589  32.345  1.00  0.00     0.167 HD
ATOM     43  C   UNL A   1      42.912  28.998  35.066  1.00  0.00     0.037 A 
ATOM     44  C   UNL A   1      37.789  32.308  31.603  1.00  0.00     0.037 A 
ATOM     45  C   UNL A   1      42.351  30.136  35.748  1.00  0.00     0.049 A 
ATOM     46  C   UNL A   1      38.249  32.760  32.961  1.00  0.00     0.074 A 
ATOM     47  C   UNL A   1      42.693  30.657  36.984  1.00  0.00     0.029 A 
ATOM     48  N   UNL A   1      41.330  30.932  35.249  1.00  0.00    -0.354 N 
ATOM     49  N   UNL A   1      39.189  32.256  33.724  1.00  0.00    -0.248 NA
ATOM     50  C   UNL A   1      37.575  33.934  33.531  1.00  0.00     0.031 C 
ATOM     51  C   UNL A   1      41.858  31.750  37.246  1.00  0.00     0.029 A 
ATOM     52  C   UNL A   1      41.024  31.935  36.154  1.00  0.00     0.049 A 
ATOM     53  H   UNL A   1      40.887  30.803  34.379  1.00  0.00     0.167 HD
ATOM     54  C   UNL A   1      39.235  33.063  34.854  1.00  0.00     0.074 A 
ATOM     55  C   UNL A   1      38.241  34.100  34.665  1.00  0.00     0.031 C 
ATOM     56  C   UNL A   1      40.028  32.957  35.950  1.00  0.00     0.037 A 
BRANCH  43  57
ATOM     57  C   UNL A   1      43.987  28.205  35.760  1.00  0.00     0.058 A 
ATOM     58  C   UNL A   1      43.676  27.144  36.627  1.00  0.00     0.135 A 
ATOM     59  C   UNL A   1      45.344  28.490  35.540  1.00  0.00     0.135 A 
ATOM     60  F   UNL A   1      42.395  26.838  36.886  1.00  0.00    -0.206 F 
ATOM     61  C   UNL A   1      44.670  26.417  37.274  1.00  0.00     0.059 A 
ATOM     62  C   UNL A   1      46.356  27.757  36.156  1.00  0.00     0.059 A 
ATOM     63  F   UNL A   1      45.700  29.492  34.720  1.00  0.00    -0.206 F 
ATOM     64  C   UNL A   1      46.008  26.732  37.035  1.00  0.00     0.060 A 
BRANCH  64  65
ATOM     65  S   UNL A   1      47.285  25.780  37.883  1.00  0.00     0.124 S 
ATOM     66  O   UNL A   1      46.592  25.391  39.108  1.00  0.00    -0.237 OA
ATOM     67  O   UNL A   1      47.553  24.701  36.938  1.00  0.00    -0.237 OA
ATOM     68  O   UNL A   1      48.370  26.743  38.054  1.00  0.00    -0.744 OA
ENDBRANCH  64  65
ENDBRANCH  43  57
BRANCH  44  69
ATOM     69  C   UNL A   1      36.693  33.014  30.890  1.00  0.00     0.058 A 
ATOM     70  C   UNL A   1      35.357  32.864  31.293  1.00  0.00     0.135 A 
ATOM     71  C   UNL A   1      36.958  33.867  29.809  1.00  0.00     0.135 A 
ATOM     72  F   UNL A   1      35.054  32.056  32.321  1.00  0.00    -0.206 F 
ATOM     73  C   UNL A   1      34.321  33.523  30.640  1.00  0.00     0.059 A 
ATOM     74  C   UNL A   1      35.941  34.554  29.154  1.00  0.00     0.059 A 
ATOM     75  F   UNL A   1      38.222  34.060  29.398  1.00  0.00    -0.206 F 
ATOM     76  C   UNL A   1      34.623  34.368  29.572  1.00  0.00     0.060 A 
BRANCH  76  77
ATOM     77  S   UNL A   1      33.278  35.263  28.766  1.00  0.00     0.124 S 
ATOM     78  O   UNL A   1      32.528  35.761  29.914  1.00  0.00    -0.237 OA
ATOM     79  O   UNL A   1      33.997  36.267  27.988  1.00  0.00    -0.237 OA
ATOM     80  O   UNL A   1      32.613  34.229  27.977  1.00  0.00    -0.744 OA
ENDBRANCH  76  77
ENDBRANCH  44  69
BRANCH  56  81
ATOM     81  C   UNL A   1      39.863  34.009  37.012  1.00  0.00     0.058 A 
ATOM     82  C   UNL A   1      39.070  33.790  38.149  1.00  0.00     0.135 A 
ATOM     83  C   UNL A   1      40.510  35.249  36.890  1.00  0.00     0.135 A 
ATOM     84  F   UNL A   1      38.427  32.623  38.311  1.00  0.00    -0.206 F 
ATOM     85  C   UNL A   1      38.888  34.781  39.108  1.00  0.00     0.059 A 
ATOM     86  C   UNL A   1      40.363  36.244  37.850  1.00  0.00     0.059 A 
ATOM     87  F   UNL A   1      41.290  35.504  35.828  1.00  0.00    -0.206 F 
ATOM     88  C   UNL A   1      39.533  36.008  38.944  1.00  0.00     0.060 A 
BRANCH  88  89
ATOM     89  S   UNL A   1      39.282  37.294  40.187  1.00  0.00     0.124 S 
ATOM     90  O   UNL A   1      38.538  36.569  41.212  1.00  0.00    -0.237 OA
ATOM     91  O   UNL A   1      40.649  37.664  40.539  1.00  0.00    -0.237 OA
ATOM     92  O   UNL A   1      38.529  38.317  39.468  1.00  0.00    -0.744 OA
ENDBRANCH  88  89
ENDBRANCH  56  81
ENDBRANCH  30  31
ENDBRANCH  22  25
ENDBRANCH  20  21
ENDBRANCH  19  20
ENDBRANCH   1  19
TORSDOF 17
ENDMDL
MODEL 2
REMARK VINA RESULT:     -11.1      3.370      5.251
REMARK SMILES C[C@H](Sc1ccnc(C(=O)NCCCNC(=O)c2ccc(-c3c4nc(c(-c5c(F)cc(S(=O)(=O)[O-])cc5F)c5ccc([nH]5)c(-c5c(F)cc(S(=O)(=O)[O-])cc5F)c5nc(c(-c6c(F)cc(S(=O)(=O)[O-])cc6F)c6ccc3[nH]6)C=C5)C=C4)cc2)c1)[C@@H](C)O
REMARK SMILES IDX 12 1 11 2 9 3 10 4 8 6 4 7 5 8 84 9 6 10 7 11 3 12 2 13 1 14
REMARK SMILES IDX 85 15 86 16 87 17 13 19 14 20 15 21 16 22 17 24 18 25 19 26
REMARK SMILES IDX 83 27 20 28 82 29 21 30 22 31 23 32 76 33 24 34 81 35 75 36
REMARK SMILES IDX 77 37 25 38 80 39 74 40 73 41 26 43 60 44 39 45 59 46 40 47
REMARK SMILES IDX 43 48 58 49 78 50 41 51 42 52 57 54 79 55 44 56 27 57 28 58
REMARK SMILES IDX 37 59 29 60 30 61 36 62 38 63 31 64 32 65 33 66 34 67 35 68
REMARK SMILES IDX 61 69 62 70 71 71 63 72 64 73 70 74 72 75 65 76 66 77 67 78
REMARK SMILES IDX 68 79 69 80 45 81 46 82 55 83 47 84 48 85 54 86 56 87 49 88
REMARK SMILES IDX 50 89 51 90 52 91 53 92
REMARK H PARENT 11 5 87 18 15 23 77 42 43 53
REMARK Flexibility Score: inf
ROOT
ATOM      1  C   UNL A   1      37.994  23.122  26.161  1.00  0.00     0.118 C 
ENDROOT
BRANCH   1   2
ATOM      2  N   UNL A   1      37.749  23.219  24.734  1.00  0.00    -0.351 N 
ATOM      3  C   UNL A   1      36.620  23.099  23.955  1.00  0.00     0.269 C 
ATOM      4  O   UNL A   1      36.781  23.278  22.745  1.00  0.00    -0.268 OA
ATOM      5  H   UNL A   1      38.562  23.412  24.212  1.00  0.00     0.163 HD
BRANCH   3   6
ATOM      6  C   UNL A   1      35.240  22.813  24.492  1.00  0.00     0.129 A 
ATOM      7  C   UNL A   1      33.158  21.596  24.616  1.00  0.00     0.011 A 
ATOM      8  C   UNL A   1      32.810  22.378  25.707  1.00  0.00     0.035 A 
ATOM      9  C   UNL A   1      34.375  21.861  23.973  1.00  0.00     0.049 A 
ATOM     10  C   UNL A   1      33.693  23.356  26.127  1.00  0.00     0.113 A 
ATOM     11  N   UNL A   1      34.895  23.573  25.563  1.00  0.00    -0.251 NA
BRANCH   7  12
ATOM     12  S   UNL A   1      32.270  20.173  23.995  1.00  0.00    -0.120 SA
BRANCH  12  13
ATOM     13  C   UNL A   1      33.227  18.661  24.440  1.00  0.00     0.077 C 
ATOM     14  C   UNL A   1      32.696  18.006  25.718  1.00  0.00     0.022 C 
BRANCH  13  15
ATOM     15  C   UNL A   1      33.491  17.683  23.276  1.00  0.00     0.124 C 
ATOM     16  C   UNL A   1      34.036  16.331  23.734  1.00  0.00     0.039 C 
BRANCH  15  17
ATOM     17  O   UNL A   1      32.275  17.448  22.554  1.00  0.00    -0.392 OA
ATOM     18  H   UNL A   1      31.886  18.297  22.291  1.00  0.00     0.210 HD
ENDBRANCH  15  17
ENDBRANCH  13  15
ENDBRANCH  12  13
ENDBRANCH   7  12
ENDBRANCH   3   6
ENDBRANCH   1   2
BRANCH   1  19
ATOM     19  C   UNL A   1      39.295  22.370  26.450  1.00  0.00     0.042 C 
BRANCH  19  20
ATOM     20  C   UNL A   1      40.356  23.234  27.131  1.00  0.00     0.118 C 
BRANCH  20  21
ATOM     21  N   UNL A   1      41.127  23.999  26.165  1.00  0.00    -0.352 N 
ATOM     22  C   UNL A   1      41.400  25.341  26.102  1.00  0.00     0.251 C 
ATOM     23  H   UNL A   1      41.518  23.467  25.434  1.00  0.00     0.163 HD
ATOM     24  O   UNL A   1      41.866  25.798  25.060  1.00  0.00    -0.269 OA
BRANCH  22  25
ATOM     25  C   UNL A   1      41.148  26.239  27.253  1.00  0.00     0.039 A 
ATOM     26  C   UNL A   1      42.012  27.321  27.450  1.00  0.00     0.014 A 
ATOM     27  C   UNL A   1      40.136  25.982  28.183  1.00  0.00     0.014 A 
ATOM     28  C   UNL A   1      41.848  28.154  28.558  1.00  0.00     0.010 A 
ATOM     29  C   UNL A   1      39.931  26.854  29.253  1.00  0.00     0.010 A 
ATOM     30  C   UNL A   1      40.796  27.938  29.461  1.00  0.00    -0.014 A 
BRANCH  30  31
ATOM     31  C   UNL A   1      40.608  28.837  30.630  1.00  0.00     0.031 A 
ATOM     32  C   UNL A   1      41.469  28.690  31.856  1.00  0.00     0.074 A 
ATOM     33  C   UNL A   1      39.639  29.772  30.592  1.00  0.00     0.049 A 
ATOM     34  N   UNL A   1      41.454  29.386  32.964  1.00  0.00    -0.248 NA
ATOM     35  C   UNL A   1      42.463  27.604  31.845  1.00  0.00     0.031 C 
ATOM     36  C   UNL A   1      38.702  29.974  29.484  1.00  0.00     0.029 A 
ATOM     37  N   UNL A   1      39.281  30.730  31.506  1.00  0.00    -0.354 N 
ATOM     38  C   UNL A   1      42.422  28.817  33.785  1.00  0.00     0.074 A 
ATOM     39  C   UNL A   1      42.971  27.687  33.067  1.00  0.00     0.031 C 
ATOM     40  C   UNL A   1      37.898  31.010  29.770  1.00  0.00     0.029 A 
ATOM     41  C   UNL A   1      38.243  31.530  31.089  1.00  0.00     0.049 A 
ATOM     42  H   UNL A   1      39.724  30.835  32.380  1.00  0.00     0.167 HD
ATOM     43  C   UNL A   1      42.832  29.214  35.015  1.00  0.00     0.037 A 
ATOM     44  C   UNL A   1      37.645  32.572  31.697  1.00  0.00     0.037 A 
ATOM     45  C   UNL A   1      42.300  30.357  35.713  1.00  0.00     0.049 A 
ATOM     46  C   UNL A   1      38.146  33.019  33.042  1.00  0.00     0.074 A 
ATOM     47  C   UNL A   1      42.681  30.874  36.939  1.00  0.00     0.029 A 
ATOM     48  N   UNL A   1      41.273  31.162  35.243  1.00  0.00    -0.354 N 
ATOM     49  N   UNL A   1      39.102  32.506  33.778  1.00  0.00    -0.248 NA
ATOM     50  C   UNL A   1      37.498  34.199  33.631  1.00  0.00     0.031 C 
ATOM     51  C   UNL A   1      41.864  31.974  37.224  1.00  0.00     0.029 A 
ATOM     52  C   UNL A   1      41.001  32.167  36.156  1.00  0.00     0.049 A 
ATOM     53  H   UNL A   1      40.805  31.038  34.385  1.00  0.00     0.167 HD
ATOM     54  C   UNL A   1      39.186  33.312  34.907  1.00  0.00     0.074 A 
ATOM     55  C   UNL A   1      38.197  34.358  34.746  1.00  0.00     0.031 C 
ATOM     56  C   UNL A   1      40.009  33.198  35.980  1.00  0.00     0.037 A 
BRANCH  43  57
ATOM     57  C   UNL A   1      43.919  28.411  35.678  1.00  0.00     0.058 A 
ATOM     58  C   UNL A   1      43.622  27.358  36.560  1.00  0.00     0.135 A 
ATOM     59  C   UNL A   1      45.272  28.678  35.413  1.00  0.00     0.135 A 
ATOM     60  F   UNL A   1      42.347  27.069  36.861  1.00  0.00    -0.206 F 
ATOM     61  C   UNL A   1      44.627  26.621  37.178  1.00  0.00     0.059 A 
ATOM     62  C   UNL A   1      46.293  27.935  36.000  1.00  0.00     0.059 A 
ATOM     63  F   UNL A   1      45.613  29.671  34.577  1.00  0.00    -0.206 F 
ATOM     64  C   UNL A   1      45.961  26.919  36.895  1.00  0.00     0.060 A 
BRANCH  64  65
ATOM     65  S   UNL A   1      47.253  25.955  37.707  1.00  0.00     0.124 S 
ATOM     66  O   UNL A   1      48.035  27.005  38.355  1.00  0.00    -0.237 OA
ATOM     67  O   UNL A   1      46.487  25.094  38.602  1.00  0.00    -0.237 OA
ATOM     68  O   UNL A   1      47.914  25.272  36.599  1.00  0.00    -0.744 OA
ENDBRANCH  64  65
ENDBRANCH  43  57
BRANCH  44  69
ATOM     69  C   UNL A   1      36.536  33.289  31.015  1.00  0.00     0.058 A 
ATOM     70  C   UNL A   1      36.785  34.116  29.909  1.00  0.00     0.135 A 
ATOM     71  C   UNL A   1      35.206  33.146  31.437  1.00  0.00     0.135 A 
ATOM     72  F   UNL A   1      38.042  34.286  29.469  1.00  0.00    -0.206 F 
ATOM     73  C   UNL A   1      35.758  34.788  29.255  1.00  0.00     0.059 A 
ATOM     74  C   UNL A   1      34.159  33.790  30.787  1.00  0.00     0.059 A 
ATOM     75  F   UNL A   1      34.913  32.349  32.479  1.00  0.00    -0.206 F 
ATOM     76  C   UNL A   1      34.447  34.617  29.702  1.00  0.00     0.060 A 
BRANCH  76  77
ATOM     77  S   UNL A   1      33.112  35.449  28.812  1.00  0.00     0.124 S 
ATOM     78  O   UNL A   1      32.323  35.994  29.910  1.00  0.00    -0.237 OA
ATOM     79  O   UNL A   1      33.839  36.421  28.002  1.00  0.00    -0.237 OA
ATOM     80  O   UNL A   1      32.485  34.363  28.061  1.00  0.00    -0.744 OA
ENDBRANCH  76  77
ENDBRANCH  44  69
BRANCH  56  81
ATOM     81  C   UNL A   1      39.883  34.250  37.047  1.00  0.00     0.058 A 
ATOM     82  C   UNL A   1      39.058  34.069  38.168  1.00  0.00     0.135 A 
ATOM     83  C   UNL A   1      40.600  35.453  36.947  1.00  0.00     0.135 A 
ATOM     84  F   UNL A   1      38.348  32.938  38.309  1.00  0.00    -0.206 F 
ATOM     85  C   UNL A   1      38.913  35.062  39.131  1.00  0.00     0.059 A 
ATOM     86  C   UNL A   1      40.490  36.449  37.911  1.00  0.00     0.059 A 
ATOM     87  F   UNL A   1      41.413  35.671  35.901  1.00  0.00    -0.206 F 
ATOM     88  C   UNL A   1      39.628  36.252  38.989  1.00  0.00     0.060 A 
BRANCH  88  89
ATOM     89  S   UNL A   1      39.426  37.542  40.236  1.00  0.00     0.124 S 
ATOM     90  O   UNL A   1      38.468  38.430  39.587  1.00  0.00    -0.237 OA
ATOM     91  O   UNL A   1      38.920  36.794  41.384  1.00  0.00    -0.237 OA
ATOM     92  O   UNL A   1      40.775  38.077  40.392  1.00  0.00    -0.744 OA
ENDBRANCH  88  89
ENDBRANCH  56  81
ENDBRANCH  30  31
ENDBRANCH  22  25
ENDBRANCH  20  21
ENDBRANCH  19  20
ENDBRANCH   1  19
TORSDOF 17
ENDMDL
MODEL 3
REMARK VINA RESULT:     -11.0      5.660     14.505
REMARK SMILES C[C@H](Sc1ccnc(C(=O)NCCCNC(=O)c2ccc(-c3c4nc(c(-c5c(F)cc(S(=O)(=O)[O-])cc5F)c5ccc([nH]5)c(-c5c(F)cc(S(=O)(=O)[O-])cc5F)c5nc(c(-c6c(F)cc(S(=O)(=O)[O-])cc6F)c6ccc3[nH]6)C=C5)C=C4)cc2)c1)[C@@H](C)O
REMARK SMILES IDX 12 1 11 2 9 3 10 4 8 6 4 7 5 8 84 9 6 10 7 11 3 12 2 13 1 14
REMARK SMILES IDX 85 15 86 16 87 17 13 19 14 20 15 21 16 22 17 24 18 25 19 26
REMARK SMILES IDX 83 27 20 28 82 29 21 30 22 31 23 32 76 33 24 34 81 35 75 36
REMARK SMILES IDX 77 37 25 38 80 39 74 40 73 41 26 43 60 44 39 45 59 46 40 47
REMARK SMILES IDX 43 48 58 49 78 50 41 51 42 52 57 54 79 55 44 56 27 57 28 58
REMARK SMILES IDX 37 59 29 60 30 61 36 62 38 63 31 64 32 65 33 66 34 67 35 68
REMARK SMILES IDX 61 69 62 70 71 71 63 72 64 73 70 74 72 75 65 76 66 77 67 78
REMARK SMILES IDX 68 79 69 80 45 81 46 82 55 83 47 84 48 85 54 86 56 87 49 88
REMARK SMILES IDX 50 89 51 90 52 91 53 92
REMARK H PARENT 11 5 87 18 15 23 77 42 43 53
REMARK Flexibility Score: inf
ROOT
ATOM      1  C   UNL A   1      33.879  33.480  28.675  1.00  0.00     0.118 C 
ENDROOT
BRANCH   1   2
ATOM      2  N   UNL A   1      33.207  34.734  28.394  1.00  0.00    -0.351 N 
ATOM      3  C   UNL A   1      32.911  35.843  29.156  1.00  0.00     0.269 C 
ATOM      4  O   UNL A   1      32.341  36.764  28.564  1.00  0.00    -0.268 OA
ATOM      5  H   UNL A   1      32.897  34.810  27.462  1.00  0.00     0.163 HD
BRANCH   3   6
ATOM      6  C   UNL A   1      33.274  36.000  30.610  1.00  0.00     0.129 A 
ATOM      7  C   UNL A   1      34.064  35.224  32.756  1.00  0.00     0.011 A 
ATOM      8  C   UNL A   1      34.012  36.534  33.207  1.00  0.00     0.035 A 
ATOM      9  C   UNL A   1      33.637  34.957  31.448  1.00  0.00     0.049 A 
ATOM     10  C   UNL A   1      33.573  37.515  32.336  1.00  0.00     0.113 A 
ATOM     11  N   UNL A   1      33.228  37.282  31.057  1.00  0.00    -0.251 NA
BRANCH   7  12
ATOM     12  S   UNL A   1      34.747  33.821  33.630  1.00  0.00    -0.120 SA
BRANCH  12  13
ATOM     13  C   UNL A   1      36.566  34.077  33.793  1.00  0.00     0.077 C 
ATOM     14  C   UNL A   1      37.044  33.872  35.233  1.00  0.00     0.022 C 
BRANCH  13  15
ATOM     15  C   UNL A   1      37.428  33.376  32.722  1.00  0.00     0.124 C 
ATOM     16  C   UNL A   1      37.609  34.208  31.453  1.00  0.00     0.039 C 
BRANCH  15  17
ATOM     17  O   UNL A   1      38.728  33.093  33.254  1.00  0.00    -0.392 OA
ATOM     18  H   UNL A   1      38.786  33.429  34.162  1.00  0.00     0.210 HD
ENDBRANCH  15  17
ENDBRANCH  13  15
ENDBRANCH  12  13
ENDBRANCH   7  12
ENDBRANCH   3   6
ENDBRANCH   1   2
BRANCH   1  19
ATOM     19  C   UNL A   1      35.313  33.488  28.142  1.00  0.00     0.042 C 
BRANCH  19  20
ATOM     20  C   UNL A   1      36.029  32.147  28.308  1.00  0.00     0.118 C 
BRANCH  20  21
ATOM     21  N   UNL A   1      35.875  31.619  29.655  1.00  0.00    -0.352 N 
ATOM     22  C   UNL A   1      36.606  30.679  30.334  1.00  0.00     0.251 C 
ATOM     23  H   UNL A   1      35.121  31.997  30.162  1.00  0.00     0.163 HD
ATOM     24  O   UNL A   1      36.143  30.212  31.372  1.00  0.00    -0.269 OA
BRANCH  22  25
ATOM     25  C   UNL A   1      37.929  30.224  29.846  1.00  0.00     0.039 A 
ATOM     26  C   UNL A   1      38.964  30.080  30.776  1.00  0.00     0.014 A 
ATOM     27  C   UNL A   1      38.187  30.024  28.487  1.00  0.00     0.014 A 
ATOM     28  C   UNL A   1      40.242  29.714  30.349  1.00  0.00     0.010 A 
ATOM     29  C   UNL A   1      39.447  29.594  28.069  1.00  0.00     0.010 A 
ATOM     30  C   UNL A   1      40.491  29.452  28.993  1.00  0.00    -0.014 A 
BRANCH  30  31
ATOM     31  C   UNL A   1      41.847  29.043  28.541  1.00  0.00     0.031 A 
ATOM     32  C   UNL A   1      42.966  30.047  28.469  1.00  0.00     0.074 A 
ATOM     33  C   UNL A   1      42.059  27.765  28.171  1.00  0.00     0.049 A 
ATOM     34  N   UNL A   1      44.211  29.871  28.106  1.00  0.00    -0.248 NA
ATOM     35  C   UNL A   1      42.639  31.436  28.829  1.00  0.00     0.031 C 
ATOM     36  C   UNL A   1      41.040  26.713  28.142  1.00  0.00     0.029 A 
ATOM     37  N   UNL A   1      43.200  27.131  27.751  1.00  0.00    -0.354 N 
ATOM     38  C   UNL A   1      44.811  31.124  28.182  1.00  0.00     0.074 A 
ATOM     39  C   UNL A   1      43.780  32.060  28.576  1.00  0.00     0.031 C 
ATOM     40  C   UNL A   1      41.609  25.559  27.756  1.00  0.00     0.029 A 
ATOM     41  C   UNL A   1      43.024  25.793  27.487  1.00  0.00     0.049 A 
ATOM     42  H   UNL A   1      44.066  27.591  27.647  1.00  0.00     0.167 HD
ATOM     43  C   UNL A   1      46.106  31.459  27.964  1.00  0.00     0.037 A 
ATOM     44  C   UNL A   1      43.905  24.858  27.083  1.00  0.00     0.037 A 
ATOM     45  C   UNL A   1      47.133  30.517  27.598  1.00  0.00     0.049 A 
ATOM     46  C   UNL A   1      45.344  25.246  26.890  1.00  0.00     0.074 A 
ATOM     47  C   UNL A   1      48.485  30.745  27.404  1.00  0.00     0.029 A 
ATOM     48  N   UNL A   1      46.921  29.164  27.373  1.00  0.00    -0.354 N 
ATOM     49  N   UNL A   1      45.906  26.424  27.023  1.00  0.00    -0.248 NA
ATOM     50  C   UNL A   1      46.273  24.174  26.509  1.00  0.00     0.031 C 
ATOM     51  C   UNL A   1      49.084  29.535  27.032  1.00  0.00     0.029 A 
ATOM     52  C   UNL A   1      48.113  28.546  27.034  1.00  0.00     0.049 A 
ATOM     53  H   UNL A   1      46.050  28.710  27.442  1.00  0.00     0.167 HD
ATOM     54  C   UNL A   1      47.258  26.232  26.763  1.00  0.00     0.074 A 
ATOM     55  C   UNL A   1      47.430  24.820  26.485  1.00  0.00     0.031 C 
ATOM     56  C   UNL A   1      48.265  27.140  26.757  1.00  0.00     0.037 A 
BRANCH  43  57
ATOM     57  C   UNL A   1      46.487  32.906  28.130  1.00  0.00     0.058 A 
ATOM     58  C   UNL A   1      46.370  33.823  27.072  1.00  0.00     0.135 A 
ATOM     59  C   UNL A   1      46.952  33.389  29.364  1.00  0.00     0.135 A 
ATOM     60  F   UNL A   1      45.947  33.414  25.867  1.00  0.00    -0.206 F 
ATOM     61  C   UNL A   1      46.730  35.159  27.224  1.00  0.00     0.059 A 
ATOM     62  C   UNL A   1      47.291  34.728  29.545  1.00  0.00     0.059 A 
ATOM     63  F   UNL A   1      47.082  32.557  30.410  1.00  0.00    -0.206 F 
ATOM     64  C   UNL A   1      47.193  35.602  28.464  1.00  0.00     0.060 A 
BRANCH  64  65
ATOM     65  S   UNL A   1      47.656  37.337  28.644  1.00  0.00     0.124 S 
ATOM     66  O   UNL A   1      47.736  37.467  30.096  1.00  0.00    -0.237 OA
ATOM     67  O   UNL A   1      48.929  37.398  27.933  1.00  0.00    -0.237 OA
ATOM     68  O   UNL A   1      46.553  38.051  28.009  1.00  0.00    -0.744 OA
ENDBRANCH  64  65
ENDBRANCH  43  57
BRANCH  44  69
ATOM     69  C   UNL A   1      43.454  23.457  26.879  1.00  0.00     0.058 A 
ATOM     70  C   UNL A   1      43.287  22.934  25.587  1.00  0.00     0.135 A 
ATOM     71  C   UNL A   1      43.203  22.606  27.966  1.00  0.00     0.135 A 
ATOM     72  F   UNL A   1      43.513  23.710  24.516  1.00  0.00    -0.206 F 
ATOM     73  C   UNL A   1      42.873  21.623  25.380  1.00  0.00     0.059 A 
ATOM     74  C   UNL A   1      42.809  21.285  27.784  1.00  0.00     0.059 A 
ATOM     75  F   UNL A   1      43.368  23.053  29.221  1.00  0.00    -0.206 F 
ATOM     76  C   UNL A   1      42.637  20.805  26.486  1.00  0.00     0.060 A 
BRANCH  76  77
ATOM     77  S   UNL A   1      42.154  19.087  26.207  1.00  0.00     0.124 S 
ATOM     78  O   UNL A   1      40.756  19.235  25.820  1.00  0.00    -0.237 OA
ATOM     79  O   UNL A   1      43.071  18.676  25.148  1.00  0.00    -0.237 OA
ATOM     80  O   UNL A   1      42.388  18.460  27.505  1.00  0.00    -0.744 OA
ENDBRANCH  76  77
ENDBRANCH  44  69
BRANCH  56  81
ATOM     81  C   UNL A   1      49.645  26.621  26.463  1.00  0.00     0.058 A 
ATOM     82  C   UNL A   1      50.165  26.605  25.159  1.00  0.00     0.135 A 
ATOM     83  C   UNL A   1      50.458  26.136  27.500  1.00  0.00     0.135 A 
ATOM     84  F   UNL A   1      49.426  27.053  24.132  1.00  0.00    -0.206 F 
ATOM     85  C   UNL A   1      51.426  26.085  24.887  1.00  0.00     0.059 A 
ATOM     86  C   UNL A   1      51.733  25.637  27.254  1.00  0.00     0.059 A 
ATOM     87  F   UNL A   1      50.014  26.141  28.767  1.00  0.00    -0.206 F 
ATOM     88  C   UNL A   1      52.199  25.596  25.941  1.00  0.00     0.060 A 
BRANCH  88  89
ATOM     89  S   UNL A   1      53.830  24.913  25.578  1.00  0.00     0.124 S 
ATOM     90  O   UNL A   1      54.539  25.167  26.828  1.00  0.00    -0.237 OA
ATOM     91  O   UNL A   1      53.531  23.513  25.294  1.00  0.00    -0.237 OA
ATOM     92  O   UNL A   1      54.278  25.696  24.431  1.00  0.00    -0.744 OA
ENDBRANCH  88  89
ENDBRANCH  56  81
ENDBRANCH  30  31
ENDBRANCH  22  25
ENDBRANCH  20  21
ENDBRANCH  19  20
ENDBRANCH   1  19
TORSDOF 17
ENDMDL
