MODEL 1
REMARK VINA RESULT:     -13.1      0.000      0.000
REMARK SMILES O=C(NCCCNC(=O)[C@@H](Cc1ccc(F)cc1)NC(=O)c1ccn(C2CCCC2)n1)c1ccc(-c2c3nc(c(-c4c(F)cc(S(=O)(=O)[O-])cc4F)c4ccc([nH]4)c(-c4c(F)cc(S(=O)(=O)[O-])cc4F)c4nc(c(-c5c(F)cc(S(=O)(=O)[O-])cc5F)c5ccc2[nH]5)C=C4)C=C3)cc1
REMARK SMILES IDX 5 1 4 2 3 3 1 4 2 5 32 7 33 8 97 9 34 10 96 11 35 12 36 13
REMARK SMILES IDX 37 14 90 15 38 16 95 17 89 18 91 19 39 20 94 21 88 22 87 23
REMARK SMILES IDX 40 25 74 26 53 27 73 28 54 29 57 30 72 31 92 32 55 33 56 34
REMARK SMILES IDX 71 36 93 37 58 38 41 39 42 40 51 41 43 42 44 43 50 44 52 45
REMARK SMILES IDX 45 46 46 47 47 48 48 49 49 50 75 51 76 52 85 53 77 54 78 55
REMARK SMILES IDX 84 56 86 57 79 58 80 59 81 60 82 61 83 62 59 63 60 64 69 65
REMARK SMILES IDX 61 66 62 67 68 68 70 69 63 70 64 71 65 72 66 73 67 74 6 75
REMARK SMILES IDX 7 76 8 77 9 79 10 80 11 81 12 82 13 83 18 84 14 85 17 86
REMARK SMILES IDX 15 87 16 88 19 89 20 90 21 92 22 93 23 94 31 95 24 96 25 97
REMARK SMILES IDX 26 98 27 99 30 100 28 101 29 102
REMARK H PARENT 3 6 91 24 57 35 7 78 19 91
REMARK Flexibility Score: inf
ROOT
ATOM      1  C   UNL A   1      32.094  29.890  26.767  1.00  0.00     0.042 C 
ENDROOT
BRANCH   1   2
ATOM      2  C   UNL A   1      33.540  30.367  26.867  1.00  0.00     0.118 C 
BRANCH   2   3
ATOM      3  N   UNL A   1      33.779  31.302  27.948  1.00  0.00    -0.352 N 
ATOM      4  O   UNL A   1      34.569  32.569  29.543  1.00  0.00    -0.269 OA
ATOM      5  C   UNL A   1      34.806  31.612  28.795  1.00  0.00     0.251 C 
ATOM      6  H   UNL A   1      32.990  31.866  28.117  1.00  0.00     0.163 HD
BRANCH   5   7
ATOM      7  C   UNL A   1      36.114  30.909  28.939  1.00  0.00     0.039 A 
ATOM      8  C   UNL A   1      36.363  29.542  28.813  1.00  0.00     0.014 A 
ATOM      9  C   UNL A   1      37.208  31.757  29.216  1.00  0.00     0.014 A 
ATOM     10  C   UNL A   1      37.666  29.042  29.012  1.00  0.00     0.010 A 
ATOM     11  C   UNL A   1      38.493  31.263  29.427  1.00  0.00     0.010 A 
ATOM     12  C   UNL A   1      38.725  29.896  29.357  1.00  0.00    -0.014 A 
BRANCH  12  13
ATOM     13  C   UNL A   1      40.109  29.393  29.425  1.00  0.00     0.031 A 
ATOM     14  C   UNL A   1      40.615  29.220  30.823  1.00  0.00     0.074 A 
ATOM     15  C   UNL A   1      40.801  28.887  28.374  1.00  0.00     0.049 A 
ATOM     16  N   UNL A   1      41.611  29.812  31.397  1.00  0.00    -0.248 NA
ATOM     17  C   UNL A   1      39.833  28.368  31.738  1.00  0.00     0.031 C 
ATOM     18  C   UNL A   1      40.323  28.693  27.002  1.00  0.00     0.029 A 
ATOM     19  N   UNL A   1      42.057  28.340  28.323  1.00  0.00    -0.354 N 
ATOM     20  C   UNL A   1      41.715  29.247  32.670  1.00  0.00     0.074 A 
ATOM     21  C   UNL A   1      40.499  28.512  32.885  1.00  0.00     0.031 C 
ATOM     22  C   UNL A   1      41.175  27.881  26.331  1.00  0.00     0.029 A 
ATOM     23  C   UNL A   1      42.327  27.597  27.170  1.00  0.00     0.049 A 
ATOM     24  H   UNL A   1      42.717  28.461  29.043  1.00  0.00     0.167 HD
ATOM     25  C   UNL A   1      42.894  29.233  33.354  1.00  0.00     0.037 A 
ATOM     26  C   UNL A   1      43.396  26.781  26.934  1.00  0.00     0.037 A 
ATOM     27  C   UNL A   1      43.834  30.167  32.794  1.00  0.00     0.049 A 
ATOM     28  C   UNL A   1      44.460  27.173  27.891  1.00  0.00     0.074 A 
ATOM     29  C   UNL A   1      43.856  31.535  32.599  1.00  0.00     0.029 A 
ATOM     30  N   UNL A   1      44.827  29.658  31.997  1.00  0.00    -0.354 N 
ATOM     31  N   UNL A   1      45.083  28.318  27.864  1.00  0.00    -0.248 NA
ATOM     32  C   UNL A   1      44.519  26.455  29.152  1.00  0.00     0.031 C 
ATOM     33  C   UNL A   1      44.515  31.716  31.348  1.00  0.00     0.029 A 
ATOM     34  C   UNL A   1      44.921  30.462  30.891  1.00  0.00     0.049 A 
ATOM     35  H   UNL A   1      45.373  28.861  32.185  1.00  0.00     0.167 HD
ATOM     36  C   UNL A   1      45.218  28.670  29.198  1.00  0.00     0.074 A 
ATOM     37  C   UNL A   1      44.925  27.449  29.945  1.00  0.00     0.031 C 
ATOM     38  C   UNL A   1      45.278  29.979  29.576  1.00  0.00     0.037 A 
BRANCH  25  39
ATOM     39  C   UNL A   1      43.335  28.125  34.288  1.00  0.00     0.058 A 
ATOM     40  C   UNL A   1      43.674  26.824  33.856  1.00  0.00     0.135 A 
ATOM     41  C   UNL A   1      43.715  28.441  35.610  1.00  0.00     0.135 A 
ATOM     42  F   UNL A   1      43.466  26.409  32.601  1.00  0.00    -0.206 F 
ATOM     43  C   UNL A   1      44.337  25.909  34.666  1.00  0.00     0.059 A 
ATOM     44  C   UNL A   1      44.431  27.556  36.421  1.00  0.00     0.059 A 
ATOM     45  F   UNL A   1      43.462  29.657  36.122  1.00  0.00    -0.206 F 
ATOM     46  C   UNL A   1      44.739  26.290  35.937  1.00  0.00     0.060 A 
BRANCH  46  47
ATOM     47  S   UNL A   1      45.734  25.130  36.888  1.00  0.00     0.124 S 
ATOM     48  O   UNL A   1      46.730  26.019  37.478  1.00  0.00    -0.237 OA
ATOM     49  O   UNL A   1      44.749  24.575  37.810  1.00  0.00    -0.237 OA
ATOM     50  O   UNL A   1      46.235  24.207  35.876  1.00  0.00    -0.744 OA
ENDBRANCH  46  47
ENDBRANCH  25  39
BRANCH  26  51
ATOM     51  C   UNL A   1      43.459  25.469  26.214  1.00  0.00     0.058 A 
ATOM     52  C   UNL A   1      42.772  24.338  26.695  1.00  0.00     0.135 A 
ATOM     53  C   UNL A   1      44.446  25.213  25.236  1.00  0.00     0.135 A 
ATOM     54  F   UNL A   1      41.838  24.452  27.649  1.00  0.00    -0.206 F 
ATOM     55  C   UNL A   1      43.086  23.038  26.290  1.00  0.00     0.059 A 
ATOM     56  C   UNL A   1      44.781  23.916  24.816  1.00  0.00     0.059 A 
ATOM     57  F   UNL A   1      45.164  26.224  24.722  1.00  0.00    -0.206 F 
ATOM     58  C   UNL A   1      44.116  22.831  25.378  1.00  0.00     0.060 A 
BRANCH  58  59
ATOM     59  S   UNL A   1      44.613  21.125  25.030  1.00  0.00     0.124 S 
ATOM     60  O   UNL A   1      43.570  20.366  25.713  1.00  0.00    -0.237 OA
ATOM     61  O   UNL A   1      44.567  21.085  23.571  1.00  0.00    -0.237 OA
ATOM     62  O   UNL A   1      45.945  21.027  25.615  1.00  0.00    -0.744 OA
ENDBRANCH  58  59
ENDBRANCH  26  51
BRANCH  38  63
ATOM     63  C   UNL A   1      45.524  31.028  28.521  1.00  0.00     0.058 A 
ATOM     64  C   UNL A   1      46.820  31.554  28.424  1.00  0.00     0.135 A 
ATOM     65  C   UNL A   1      44.523  31.637  27.741  1.00  0.00     0.135 A 
ATOM     66  F   UNL A   1      47.810  31.047  29.177  1.00  0.00    -0.206 F 
ATOM     67  C   UNL A   1      47.117  32.640  27.610  1.00  0.00     0.059 A 
ATOM     68  C   UNL A   1      44.806  32.709  26.888  1.00  0.00     0.059 A 
ATOM     69  F   UNL A   1      43.242  31.254  27.838  1.00  0.00    -0.206 F 
ATOM     70  C   UNL A   1      46.104  33.213  26.844  1.00  0.00     0.060 A 
BRANCH  70  71
ATOM     71  S   UNL A   1      46.524  34.643  25.826  1.00  0.00     0.124 S 
ATOM     72  O   UNL A   1      47.917  34.372  25.484  1.00  0.00    -0.237 OA
ATOM     73  O   UNL A   1      45.573  34.530  24.724  1.00  0.00    -0.237 OA
ATOM     74  O   UNL A   1      46.312  35.782  26.715  1.00  0.00    -0.744 OA
ENDBRANCH  70  71
ENDBRANCH  38  63
ENDBRANCH  12  13
ENDBRANCH   5   7
ENDBRANCH   2   3
ENDBRANCH   1   2
BRANCH   1  75
ATOM     75  C   UNL A   1      31.677  29.288  25.417  1.00  0.00     0.117 C 
BRANCH  75  76
ATOM     76  N   UNL A   1      32.640  29.555  24.362  1.00  0.00    -0.354 N 
ATOM     77  C   UNL A   1      33.443  28.757  23.614  1.00  0.00     0.242 C 
ATOM     78  H   UNL A   1      32.727  30.511  24.146  1.00  0.00     0.163 HD
ATOM     79  O   UNL A   1      34.158  29.349  22.791  1.00  0.00    -0.273 OA
BRANCH  77  80
ATOM     80  C   UNL A   1      33.507  27.208  23.688  1.00  0.00     0.176 C 
BRANCH  80  81
ATOM     81  C   UNL A   1      33.070  26.532  25.009  1.00  0.00     0.070 C 
BRANCH  81  82
ATOM     82  C   UNL A   1      33.667  25.239  25.526  1.00  0.00    -0.045 A 
ATOM     83  C   UNL A   1      35.005  24.858  25.351  1.00  0.00     0.007 A 
ATOM     84  C   UNL A   1      32.844  24.396  26.299  1.00  0.00     0.007 A 
ATOM     85  C   UNL A   1      35.460  23.608  25.782  1.00  0.00     0.039 A 
ATOM     86  C   UNL A   1      33.308  23.165  26.770  1.00  0.00     0.039 A 
ATOM     87  C   UNL A   1      34.604  22.770  26.479  1.00  0.00     0.123 A 
ATOM     88  F   UNL A   1      35.033  21.566  26.869  1.00  0.00    -0.207 F 
ENDBRANCH  81  82
ENDBRANCH  80  81
BRANCH  80  89
ATOM     89  N   UNL A   1      33.059  26.534  22.478  1.00  0.00    -0.339 N 
ATOM     90  C   UNL A   1      31.814  26.433  21.894  1.00  0.00     0.272 C 
ATOM     91  H   UNL A   1      33.774  26.066  21.989  1.00  0.00     0.164 HD
ATOM     92  O   UNL A   1      31.748  25.771  20.863  1.00  0.00    -0.267 OA
BRANCH  90  93
ATOM     93  C   UNL A   1      30.622  27.032  22.525  1.00  0.00     0.150 A 
ATOM     94  C   UNL A   1      29.735  26.526  23.516  1.00  0.00     0.056 A 
ATOM     95  N   UNL A   1      30.252  28.280  22.177  1.00  0.00    -0.167 NA
ATOM     96  C   UNL A   1      28.776  27.499  23.693  1.00  0.00     0.110 A 
ATOM     97  N   UNL A   1      29.136  28.528  22.875  1.00  0.00    -0.269 N 
BRANCH  97  98
ATOM     98  C   UNL A   1      28.439  29.784  22.693  1.00  0.00     0.107 C 
ATOM     99  C   UNL A   1      28.914  30.901  23.621  1.00  0.00     0.027 C 
ATOM    100  C   UNL A   1      28.623  30.396  21.302  1.00  0.00     0.027 C 
ATOM    101  C   UNL A   1      28.354  32.163  22.977  1.00  0.00     0.002 C 
ATOM    102  C   UNL A   1      28.300  31.879  21.476  1.00  0.00     0.002 C 
ENDBRANCH  97  98
ENDBRANCH  90  93
ENDBRANCH  80  89
ENDBRANCH  77  80
ENDBRANCH  75  76
ENDBRANCH   1  75
TORSDOF 18
ENDMDL
MODEL 2
REMARK VINA RESULT:     -12.9      3.456      9.368
REMARK SMILES O=C(NCCCNC(=O)[C@@H](Cc1ccc(F)cc1)NC(=O)c1ccn(C2CCCC2)n1)c1ccc(-c2c3nc(c(-c4c(F)cc(S(=O)(=O)[O-])cc4F)c4ccc([nH]4)c(-c4c(F)cc(S(=O)(=O)[O-])cc4F)c4nc(c(-c5c(F)cc(S(=O)(=O)[O-])cc5F)c5ccc2[nH]5)C=C4)C=C3)cc1
REMARK SMILES IDX 5 1 4 2 3 3 1 4 2 5 32 7 33 8 97 9 34 10 96 11 35 12 36 13
REMARK SMILES IDX 37 14 90 15 38 16 95 17 89 18 91 19 39 20 94 21 88 22 87 23
REMARK SMILES IDX 40 25 74 26 53 27 73 28 54 29 57 30 72 31 92 32 55 33 56 34
REMARK SMILES IDX 71 36 93 37 58 38 41 39 42 40 51 41 43 42 44 43 50 44 52 45
REMARK SMILES IDX 45 46 46 47 47 48 48 49 49 50 75 51 76 52 85 53 77 54 78 55
REMARK SMILES IDX 84 56 86 57 79 58 80 59 81 60 82 61 83 62 59 63 60 64 69 65
REMARK SMILES IDX 61 66 62 67 68 68 70 69 63 70 64 71 65 72 66 73 67 74 6 75
REMARK SMILES IDX 7 76 8 77 9 79 10 80 11 81 12 82 13 83 18 84 14 85 17 86
REMARK SMILES IDX 15 87 16 88 19 89 20 90 21 92 22 93 23 94 31 95 24 96 25 97
REMARK SMILES IDX 26 98 27 99 30 100 28 101 29 102
REMARK H PARENT 3 6 91 24 57 35 7 78 19 91
REMARK Flexibility Score: inf
ROOT
ATOM      1  C   UNL A   1      37.448  20.765  25.029  1.00  0.00     0.042 C 
ENDROOT
BRANCH   1   2
ATOM      2  C   UNL A   1      38.206  21.911  25.692  1.00  0.00     0.118 C 
BRANCH   2   3
ATOM      3  N   UNL A   1      39.646  21.754  25.676  1.00  0.00    -0.352 N 
ATOM      4  O   UNL A   1      41.811  21.864  25.942  1.00  0.00    -0.269 OA
ATOM      5  C   UNL A   1      40.734  22.438  26.141  1.00  0.00     0.251 C 
ATOM      6  H   UNL A   1      39.913  20.933  25.202  1.00  0.00     0.163 HD
BRANCH   5   7
ATOM      7  C   UNL A   1      40.757  23.779  26.796  1.00  0.00     0.039 A 
ATOM      8  C   UNL A   1      39.843  24.820  26.633  1.00  0.00     0.014 A 
ATOM      9  C   UNL A   1      41.830  23.976  27.692  1.00  0.00     0.014 A 
ATOM     10  C   UNL A   1      40.036  26.039  27.313  1.00  0.00     0.010 A 
ATOM     11  C   UNL A   1      42.031  25.184  28.353  1.00  0.00     0.010 A 
ATOM     12  C   UNL A   1      41.150  26.238  28.144  1.00  0.00    -0.014 A 
BRANCH  12  13
ATOM     13  C   UNL A   1      41.275  27.458  28.961  1.00  0.00     0.031 A 
ATOM     14  C   UNL A   1      42.314  28.412  28.460  1.00  0.00     0.074 A 
ATOM     15  C   UNL A   1      40.396  27.838  29.922  1.00  0.00     0.049 A 
ATOM     16  N   UNL A   1      43.386  28.820  29.056  1.00  0.00    -0.248 NA
ATOM     17  C   UNL A   1      42.207  28.873  27.063  1.00  0.00     0.031 C 
ATOM     18  C   UNL A   1      39.151  27.168  30.308  1.00  0.00     0.029 A 
ATOM     19  N   UNL A   1      40.371  28.967  30.700  1.00  0.00    -0.354 N 
ATOM     20  C   UNL A   1      43.972  29.755  28.201  1.00  0.00     0.074 A 
ATOM     21  C   UNL A   1      43.313  29.608  26.931  1.00  0.00     0.031 C 
ATOM     22  C   UNL A   1      38.397  28.003  31.062  1.00  0.00     0.029 A 
ATOM     23  C   UNL A   1      39.147  29.218  31.329  1.00  0.00     0.049 A 
ATOM     24  H   UNL A   1      41.153  29.554  30.806  1.00  0.00     0.167 HD
ATOM     25  C   UNL A   1      44.791  30.740  28.667  1.00  0.00     0.037 A 
ATOM     26  C   UNL A   1      38.766  30.351  31.988  1.00  0.00     0.037 A 
ATOM     27  C   UNL A   1      45.249  30.450  30.000  1.00  0.00     0.049 A 
ATOM     28  C   UNL A   1      40.005  31.084  32.345  1.00  0.00     0.074 A 
ATOM     29  C   UNL A   1      45.982  29.435  30.583  1.00  0.00     0.029 A 
ATOM     30  N   UNL A   1      44.636  31.112  31.033  1.00  0.00    -0.354 N 
ATOM     31  N   UNL A   1      40.890  30.653  33.200  1.00  0.00    -0.248 NA
ATOM     32  C   UNL A   1      40.472  32.095  31.412  1.00  0.00     0.031 C 
ATOM     33  C   UNL A   1      45.387  29.241  31.863  1.00  0.00     0.029 A 
ATOM     34  C   UNL A   1      44.379  30.193  32.017  1.00  0.00     0.049 A 
ATOM     35  H   UNL A   1      44.422  32.072  31.064  1.00  0.00     0.167 HD
ATOM     36  C   UNL A   1      42.110  30.991  32.636  1.00  0.00     0.074 A 
ATOM     37  C   UNL A   1      41.788  31.946  31.577  1.00  0.00     0.031 C 
ATOM     38  C   UNL A   1      43.229  30.254  32.892  1.00  0.00     0.037 A 
BRANCH  25  39
ATOM     39  C   UNL A   1      44.884  32.133  28.080  1.00  0.00     0.058 A 
ATOM     40  C   UNL A   1      43.904  33.132  28.270  1.00  0.00     0.135 A 
ATOM     41  C   UNL A   1      46.116  32.586  27.560  1.00  0.00     0.135 A 
ATOM     42  F   UNL A   1      42.722  32.875  28.843  1.00  0.00    -0.206 F 
ATOM     43  C   UNL A   1      44.124  34.472  27.972  1.00  0.00     0.059 A 
ATOM     44  C   UNL A   1      46.376  33.935  27.305  1.00  0.00     0.059 A 
ATOM     45  F   UNL A   1      47.129  31.728  27.356  1.00  0.00    -0.206 F 
ATOM     46  C   UNL A   1      45.371  34.872  27.517  1.00  0.00     0.060 A 
BRANCH  46  47
ATOM     47  S   UNL A   1      45.661  36.635  27.297  1.00  0.00     0.124 S 
ATOM     48  O   UNL A   1      46.549  36.640  26.139  1.00  0.00    -0.237 OA
ATOM     49  O   UNL A   1      44.310  37.135  27.067  1.00  0.00    -0.237 OA
ATOM     50  O   UNL A   1      46.272  37.036  28.559  1.00  0.00    -0.744 OA
ENDBRANCH  46  47
ENDBRANCH  25  39
BRANCH  26  51
ATOM     51  C   UNL A   1      37.434  31.037  32.023  1.00  0.00     0.058 A 
ATOM     52  C   UNL A   1      36.814  31.489  30.843  1.00  0.00     0.135 A 
ATOM     53  C   UNL A   1      36.901  31.549  33.227  1.00  0.00     0.135 A 
ATOM     54  F   UNL A   1      37.255  31.099  29.639  1.00  0.00    -0.206 F 
ATOM     55  C   UNL A   1      35.787  32.436  30.847  1.00  0.00     0.059 A 
ATOM     56  C   UNL A   1      35.872  32.504  33.257  1.00  0.00     0.059 A 
ATOM     57  F   UNL A   1      37.429  31.186  34.406  1.00  0.00    -0.206 F 
ATOM     58  C   UNL A   1      35.346  32.967  32.055  1.00  0.00     0.060 A 
BRANCH  58  59
ATOM     59  S   UNL A   1      34.152  34.327  32.000  1.00  0.00     0.124 S 
ATOM     60  O   UNL A   1      34.965  35.456  32.439  1.00  0.00    -0.237 OA
ATOM     61  O   UNL A   1      33.768  34.339  30.590  1.00  0.00    -0.237 OA
ATOM     62  O   UNL A   1      33.107  33.907  32.927  1.00  0.00    -0.744 OA
ENDBRANCH  58  59
ENDBRANCH  26  51
BRANCH  38  63
ATOM     63  C   UNL A   1      43.207  29.276  34.038  1.00  0.00     0.058 A 
ATOM     64  C   UNL A   1      42.798  27.964  33.759  1.00  0.00     0.135 A 
ATOM     65  C   UNL A   1      43.402  29.614  35.390  1.00  0.00     0.135 A 
ATOM     66  F   UNL A   1      42.549  27.592  32.492  1.00  0.00    -0.206 F 
ATOM     67  C   UNL A   1      42.575  27.030  34.764  1.00  0.00     0.059 A 
ATOM     68  C   UNL A   1      43.219  28.681  36.416  1.00  0.00     0.059 A 
ATOM     69  F   UNL A   1      43.709  30.868  35.753  1.00  0.00    -0.206 F 
ATOM     70  C   UNL A   1      42.788  27.396  36.092  1.00  0.00     0.060 A 
BRANCH  70  71
ATOM     71  S   UNL A   1      42.455  26.164  37.368  1.00  0.00     0.124 S 
ATOM     72  O   UNL A   1      42.774  24.919  36.677  1.00  0.00    -0.237 OA
ATOM     73  O   UNL A   1      43.386  26.553  38.424  1.00  0.00    -0.237 OA
ATOM     74  O   UNL A   1      41.042  26.357  37.682  1.00  0.00    -0.744 OA
ENDBRANCH  70  71
ENDBRANCH  38  63
ENDBRANCH  12  13
ENDBRANCH   5   7
ENDBRANCH   2   3
ENDBRANCH   1   2
BRANCH   1  75
ATOM     75  C   UNL A   1      35.923  20.779  25.201  1.00  0.00     0.117 C 
BRANCH  75  76
ATOM     76  N   UNL A   1      35.268  21.739  24.329  1.00  0.00    -0.354 N 
ATOM     77  C   UNL A   1      33.967  22.057  24.107  1.00  0.00     0.242 C 
ATOM     78  H   UNL A   1      35.897  22.267  23.788  1.00  0.00     0.163 HD
ATOM     79  O   UNL A   1      33.777  22.945  23.263  1.00  0.00    -0.273 OA
BRANCH  77  80
ATOM     80  C   UNL A   1      32.744  21.433  24.832  1.00  0.00     0.176 C 
BRANCH  80  81
ATOM     81  C   UNL A   1      32.195  20.092  24.293  1.00  0.00     0.070 C 
BRANCH  81  82
ATOM     82  C   UNL A   1      32.865  18.755  24.532  1.00  0.00    -0.045 A 
ATOM     83  C   UNL A   1      33.870  18.214  23.717  1.00  0.00     0.007 A 
ATOM     84  C   UNL A   1      32.509  18.038  25.692  1.00  0.00     0.007 A 
ATOM     85  C   UNL A   1      34.377  16.933  23.954  1.00  0.00     0.039 A 
ATOM     86  C   UNL A   1      33.048  16.776  25.957  1.00  0.00     0.039 A 
ATOM     87  C   UNL A   1      33.954  16.222  25.067  1.00  0.00     0.123 A 
ATOM     88  F   UNL A   1      34.422  14.989  25.279  1.00  0.00    -0.207 F 
ENDBRANCH  81  82
ENDBRANCH  80  81
BRANCH  80  89
ATOM     89  N   UNL A   1      32.796  21.534  26.283  1.00  0.00    -0.339 N 
ATOM     90  C   UNL A   1      32.408  22.539  27.145  1.00  0.00     0.272 C 
ATOM     91  H   UNL A   1      33.177  20.743  26.730  1.00  0.00     0.164 HD
ATOM     92  O   UNL A   1      32.595  22.333  28.340  1.00  0.00    -0.267 OA
BRANCH  90  93
ATOM     93  C   UNL A   1      31.865  23.815  26.638  1.00  0.00     0.150 A 
ATOM     94  C   UNL A   1      30.526  24.233  26.403  1.00  0.00     0.056 A 
ATOM     95  N   UNL A   1      32.715  24.818  26.346  1.00  0.00    -0.167 NA
ATOM     96  C   UNL A   1      30.617  25.508  25.888  1.00  0.00     0.110 A 
ATOM     97  N   UNL A   1      31.945  25.812  25.882  1.00  0.00    -0.269 N 
BRANCH  97  98
ATOM     98  C   UNL A   1      32.558  27.040  25.422  1.00  0.00     0.107 C 
ATOM     99  C   UNL A   1      31.560  28.143  25.070  1.00  0.00     0.027 C 
ATOM    100  C   UNL A   1      33.455  27.712  26.465  1.00  0.00     0.027 C 
ATOM    101  C   UNL A   1      32.419  29.400  25.024  1.00  0.00     0.002 C 
ATOM    102  C   UNL A   1      33.553  29.170  26.022  1.00  0.00     0.002 C 
ENDBRANCH  97  98
ENDBRANCH  90  93
ENDBRANCH  80  89
ENDBRANCH  77  80
ENDBRANCH  75  76
ENDBRANCH   1  75
TORSDOF 18
ENDMDL
MODEL 3
REMARK VINA RESULT:     -12.9      1.412      3.286
REMARK SMILES O=C(NCCCNC(=O)[C@@H](Cc1ccc(F)cc1)NC(=O)c1ccn(C2CCCC2)n1)c1ccc(-c2c3nc(c(-c4c(F)cc(S(=O)(=O)[O-])cc4F)c4ccc([nH]4)c(-c4c(F)cc(S(=O)(=O)[O-])cc4F)c4nc(c(-c5c(F)cc(S(=O)(=O)[O-])cc5F)c5ccc2[nH]5)C=C4)C=C3)cc1
REMARK SMILES IDX 5 1 4 2 3 3 1 4 2 5 32 7 33 8 97 9 34 10 96 11 35 12 36 13
REMARK SMILES IDX 37 14 90 15 38 16 95 17 89 18 91 19 39 20 94 21 88 22 87 23
REMARK SMILES IDX 40 25 74 26 53 27 73 28 54 29 57 30 72 31 92 32 55 33 56 34
REMARK SMILES IDX 71 36 93 37 58 38 41 39 42 40 51 41 43 42 44 43 50 44 52 45
REMARK SMILES IDX 45 46 46 47 47 48 48 49 49 50 75 51 76 52 85 53 77 54 78 55
REMARK SMILES IDX 84 56 86 57 79 58 80 59 81 60 82 61 83 62 59 63 60 64 69 65
REMARK SMILES IDX 61 66 62 67 68 68 70 69 63 70 64 71 65 72 66 73 67 74 6 75
REMARK SMILES IDX 7 76 8 77 9 79 10 80 11 81 12 82 13 83 18 84 14 85 17 86
REMARK SMILES IDX 15 87 16 88 19 89 20 90 21 92 22 93 23 94 31 95 24 96 25 97
REMARK SMILES IDX 26 98 27 99 30 100 28 101 29 102
REMARK H PARENT 3 6 91 24 57 35 7 78 19 91
REMARK Flexibility Score: inf
ROOT
ATOM      1  C   UNL A   1      32.094  30.352  26.272  1.00  0.00     0.042 C 
ENDROOT
BRANCH   1   2
ATOM      2  C   UNL A   1      33.473  30.208  26.909  1.00  0.00     0.118 C 
BRANCH   2   3
ATOM      3  N   UNL A   1      33.772  31.218  27.904  1.00  0.00    -0.352 N 
ATOM      4  O   UNL A   1      34.648  32.591  29.360  1.00  0.00    -0.269 OA
ATOM      5  C   UNL A   1      34.840  31.578  28.677  1.00  0.00     0.251 C 
ATOM      6  H   UNL A   1      32.997  31.803  28.067  1.00  0.00     0.163 HD
BRANCH   5   7
ATOM      7  C   UNL A   1      36.148  30.871  28.812  1.00  0.00     0.039 A 
ATOM      8  C   UNL A   1      36.402  29.511  28.630  1.00  0.00     0.014 A 
ATOM      9  C   UNL A   1      37.235  31.707  29.148  1.00  0.00     0.014 A 
ATOM     10  C   UNL A   1      37.702  29.005  28.829  1.00  0.00     0.010 A 
ATOM     11  C   UNL A   1      38.516  31.206  29.360  1.00  0.00     0.010 A 
ATOM     12  C   UNL A   1      38.753  29.844  29.232  1.00  0.00    -0.014 A 
BRANCH  12  13
ATOM     13  C   UNL A   1      40.137  29.340  29.303  1.00  0.00     0.031 A 
ATOM     14  C   UNL A   1      40.634  29.149  30.702  1.00  0.00     0.074 A 
ATOM     15  C   UNL A   1      40.835  28.849  28.249  1.00  0.00     0.049 A 
ATOM     16  N   UNL A   1      41.626  29.734  31.290  1.00  0.00    -0.248 NA
ATOM     17  C   UNL A   1      39.845  28.284  31.600  1.00  0.00     0.031 C 
ATOM     18  C   UNL A   1      40.367  28.673  26.871  1.00  0.00     0.029 A 
ATOM     19  N   UNL A   1      42.092  28.303  28.200  1.00  0.00    -0.354 N 
ATOM     20  C   UNL A   1      41.721  29.152  32.556  1.00  0.00     0.074 A 
ATOM     21  C   UNL A   1      40.503  28.414  32.753  1.00  0.00     0.031 C 
ATOM     22  C   UNL A   1      41.223  27.870  26.196  1.00  0.00     0.029 A 
ATOM     23  C   UNL A   1      42.370  27.575  27.038  1.00  0.00     0.049 A 
ATOM     24  H   UNL A   1      42.747  28.415  28.925  1.00  0.00     0.167 HD
ATOM     25  C   UNL A   1      42.895  29.128  33.248  1.00  0.00     0.037 A 
ATOM     26  C   UNL A   1      43.440  26.763  26.799  1.00  0.00     0.037 A 
ATOM     27  C   UNL A   1      43.839  30.071  32.706  1.00  0.00     0.049 A 
ATOM     28  C   UNL A   1      44.498  27.142  27.767  1.00  0.00     0.074 A 
ATOM     29  C   UNL A   1      43.862  31.440  32.529  1.00  0.00     0.029 A 
ATOM     30  N   UNL A   1      44.838  29.572  31.909  1.00  0.00    -0.354 N 
ATOM     31  N   UNL A   1      45.121  28.288  27.760  1.00  0.00    -0.248 NA
ATOM     32  C   UNL A   1      44.549  26.407  29.019  1.00  0.00     0.031 C 
ATOM     33  C   UNL A   1      44.529  31.638  31.286  1.00  0.00     0.029 A 
ATOM     34  C   UNL A   1      44.939  30.390  30.815  1.00  0.00     0.049 A 
ATOM     35  H   UNL A   1      45.382  28.773  32.090  1.00  0.00     0.167 HD
ATOM     36  C   UNL A   1      45.247  28.622  29.099  1.00  0.00     0.074 A 
ATOM     37  C   UNL A   1      44.950  27.390  29.828  1.00  0.00     0.031 C 
ATOM     38  C   UNL A   1      45.304  29.926  29.495  1.00  0.00     0.037 A 
BRANCH  25  39
ATOM     39  C   UNL A   1      43.331  28.008  34.169  1.00  0.00     0.058 A 
ATOM     40  C   UNL A   1      43.666  26.711  33.723  1.00  0.00     0.135 A 
ATOM     41  C   UNL A   1      43.710  28.308  35.496  1.00  0.00     0.135 A 
ATOM     42  F   UNL A   1      43.458  26.312  32.463  1.00  0.00    -0.206 F 
ATOM     43  C   UNL A   1      44.324  25.784  34.523  1.00  0.00     0.059 A 
ATOM     44  C   UNL A   1      44.420  27.411  36.298  1.00  0.00     0.059 A 
ATOM     45  F   UNL A   1      43.460  29.518  36.021  1.00  0.00    -0.206 F 
ATOM     46  C   UNL A   1      44.724  26.149  35.799  1.00  0.00     0.060 A 
BRANCH  46  47
ATOM     47  S   UNL A   1      45.713  24.975  36.740  1.00  0.00     0.124 S 
ATOM     48  O   UNL A   1      45.216  25.196  38.094  1.00  0.00    -0.237 OA
ATOM     49  O   UNL A   1      45.341  23.707  36.122  1.00  0.00    -0.237 OA
ATOM     50  O   UNL A   1      47.082  25.414  36.493  1.00  0.00    -0.744 OA
ENDBRANCH  46  47
ENDBRANCH  25  39
BRANCH  26  51
ATOM     51  C   UNL A   1      43.509  25.460  26.062  1.00  0.00     0.058 A 
ATOM     52  C   UNL A   1      42.735  24.354  26.460  1.00  0.00     0.135 A 
ATOM     53  C   UNL A   1      44.565  25.176  25.167  1.00  0.00     0.135 A 
ATOM     54  F   UNL A   1      41.728  24.495  27.333  1.00  0.00    -0.206 F 
ATOM     55  C   UNL A   1      43.026  23.048  26.058  1.00  0.00     0.059 A 
ATOM     56  C   UNL A   1      44.879  23.872  24.752  1.00  0.00     0.059 A 
ATOM     57  F   UNL A   1      45.367  26.161  24.736  1.00  0.00    -0.206 F 
ATOM     58  C   UNL A   1      44.121  22.809  25.234  1.00  0.00     0.060 A 
BRANCH  58  59
ATOM     59  S   UNL A   1      44.572  21.088  24.898  1.00  0.00     0.124 S 
ATOM     60  O   UNL A   1      44.600  21.067  23.439  1.00  0.00    -0.237 OA
ATOM     61  O   UNL A   1      45.873  20.979  25.553  1.00  0.00    -0.237 OA
ATOM     62  O   UNL A   1      43.496  20.321  25.516  1.00  0.00    -0.744 OA
ENDBRANCH  58  59
ENDBRANCH  26  51
BRANCH  38  63
ATOM     63  C   UNL A   1      45.557  30.988  28.456  1.00  0.00     0.058 A 
ATOM     64  C   UNL A   1      46.849  31.527  28.385  1.00  0.00     0.135 A 
ATOM     65  C   UNL A   1      44.563  31.597  27.668  1.00  0.00     0.135 A 
ATOM     66  F   UNL A   1      47.832  31.021  29.149  1.00  0.00    -0.206 F 
ATOM     67  C   UNL A   1      47.149  32.626  27.588  1.00  0.00     0.059 A 
ATOM     68  C   UNL A   1      44.849  32.681  26.831  1.00  0.00     0.059 A 
ATOM     69  F   UNL A   1      43.284  31.201  27.740  1.00  0.00    -0.206 F 
ATOM     70  C   UNL A   1      46.142  33.198  26.813  1.00  0.00     0.060 A 
BRANCH  70  71
ATOM     71  S   UNL A   1      46.565  34.643  25.818  1.00  0.00     0.124 S 
ATOM     72  O   UNL A   1      46.341  35.735  26.761  1.00  0.00    -0.237 OA
ATOM     73  O   UNL A   1      47.960  34.386  25.475  1.00  0.00    -0.237 OA
ATOM     74  O   UNL A   1      45.628  34.586  24.700  1.00  0.00    -0.744 OA
ENDBRANCH  70  71
ENDBRANCH  38  63
ENDBRANCH  12  13
ENDBRANCH   5   7
ENDBRANCH   2   3
ENDBRANCH   1   2
BRANCH   1  75
ATOM     75  C   UNL A   1      31.798  29.415  25.093  1.00  0.00     0.117 C 
BRANCH  75  76
ATOM     76  N   UNL A   1      32.795  29.505  24.040  1.00  0.00    -0.354 N 
ATOM     77  C   UNL A   1      33.293  28.607  23.152  1.00  0.00     0.242 C 
ATOM     78  H   UNL A   1      33.191  30.401  23.953  1.00  0.00     0.163 HD
ATOM     79  O   UNL A   1      34.162  29.047  22.386  1.00  0.00    -0.273 OA
BRANCH  77  80
ATOM     80  C   UNL A   1      32.845  27.127  23.011  1.00  0.00     0.176 C 
BRANCH  80  81
ATOM     81  C   UNL A   1      31.658  26.648  23.878  1.00  0.00     0.070 C 
BRANCH  81  82
ATOM     82  C   UNL A   1      31.777  25.582  24.948  1.00  0.00    -0.045 A 
ATOM     83  C   UNL A   1      32.923  25.366  25.727  1.00  0.00     0.007 A 
ATOM     84  C   UNL A   1      30.638  24.804  25.234  1.00  0.00     0.007 A 
ATOM     85  C   UNL A   1      32.987  24.304  26.635  1.00  0.00     0.039 A 
ATOM     86  C   UNL A   1      30.683  23.770  26.173  1.00  0.00     0.039 A 
ATOM     87  C   UNL A   1      31.869  23.511  26.842  1.00  0.00     0.123 A 
ATOM     88  F   UNL A   1      31.939  22.483  27.692  1.00  0.00    -0.207 F 
ENDBRANCH  81  82
ENDBRANCH  80  81
BRANCH  80  89
ATOM     89  N   UNL A   1      32.842  26.633  21.641  1.00  0.00    -0.339 N 
ATOM     90  C   UNL A   1      32.938  25.357  21.129  1.00  0.00     0.272 C 
ATOM     91  H   UNL A   1      32.756  27.338  20.959  1.00  0.00     0.164 HD
ATOM     92  O   UNL A   1      32.921  25.259  19.906  1.00  0.00    -0.267 OA
BRANCH  90  93
ATOM     93  C   UNL A   1      33.125  24.189  22.012  1.00  0.00     0.150 A 
ATOM     94  C   UNL A   1      32.266  23.094  22.309  1.00  0.00     0.056 A 
ATOM     95  N   UNL A   1      34.291  24.046  22.672  1.00  0.00    -0.167 NA
ATOM     96  C   UNL A   1      32.942  22.326  23.231  1.00  0.00     0.110 A 
ATOM     97  N   UNL A   1      34.149  22.935  23.408  1.00  0.00    -0.269 N 
BRANCH  97  98
ATOM     98  C   UNL A   1      35.218  22.517  24.290  1.00  0.00     0.107 C 
ATOM     99  C   UNL A   1      35.119  21.061  24.744  1.00  0.00     0.027 C 
ATOM    100  C   UNL A   1      36.607  22.580  23.650  1.00  0.00     0.027 C 
ATOM    101  C   UNL A   1      36.510  20.761  25.287  1.00  0.00     0.002 C 
ATOM    102  C   UNL A   1      37.471  21.639  24.487  1.00  0.00     0.002 C 
ENDBRANCH  97  98
ENDBRANCH  90  93
ENDBRANCH  80  89
ENDBRANCH  77  80
ENDBRANCH  75  76
ENDBRANCH   1  75
TORSDOF 18
ENDMDL
