MODEL 1
REMARK VINA RESULT:     -11.6      0.000      0.000
REMARK SMILES O=C(CCc1nc(-c2ccccc2)c(-c2ccccc2)o1)NCCCNC(=O)c1ccc(-c2c3nc(c(-c4c(F)cc(S(=O)(=O)[O-])cc4F)c4ccc([nH]4)c(-c4c(F)cc(S(=O)(=O)[O-])cc4F)c4nc(c(-c5c(F)cc(S(=O)(=O)[O-])cc5F)c5ccc2[nH]5)C=C4)C=C3)cc1
REMARK SMILES IDX 24 1 23 2 22 3 1 4 2 5 3 7 4 8 5 9 6 10 21 11 7 12 14 13
REMARK SMILES IDX 8 14 9 15 13 16 10 17 12 18 11 19 15 20 16 21 20 22 17 23
REMARK SMILES IDX 19 24 18 25 25 26 26 27 27 28 28 30 29 31 30 32 94 33 31 34
REMARK SMILES IDX 93 35 32 36 33 37 34 38 87 39 35 40 92 41 86 42 88 43 36 44
REMARK SMILES IDX 91 45 85 46 84 47 37 49 71 50 50 51 70 52 51 53 54 54 69 55
REMARK SMILES IDX 89 56 52 57 53 58 68 60 90 61 55 62 38 63 39 64 48 65 40 66
REMARK SMILES IDX 41 67 47 68 49 69 42 70 43 71 44 72 45 73 46 74 72 75 73 76
REMARK SMILES IDX 82 77 74 78 75 79 81 80 83 81 76 82 77 83 78 84 79 85 80 86
REMARK SMILES IDX 56 87 57 88 66 89 58 90 59 91 65 92 67 93 60 94 61 95 62 96
REMARK SMILES IDX 63 97 64 98
REMARK H PARENT 22 6 26 29 88 48 54 59
REMARK Flexibility Score: inf
ROOT
ATOM      1  C   UNL A   1      40.881  21.448  26.435  1.00  0.00     0.042 C 
ENDROOT
BRANCH   1   2
ATOM      2  C   UNL A   1      41.876  20.296  26.528  1.00  0.00     0.117 C 
BRANCH   2   3
ATOM      3  N   UNL A   1      42.949  20.406  25.565  1.00  0.00    -0.356 N 
ATOM      4  O   UNL A   1      43.715  18.246  25.753  1.00  0.00    -0.275 OA
ATOM      5  C   UNL A   1      43.766  19.354  25.226  1.00  0.00     0.220 C 
ATOM      6  H   UNL A   1      43.103  21.276  25.130  1.00  0.00     0.163 HD
BRANCH   5   7
ATOM      7  C   UNL A   1      44.741  19.657  24.107  1.00  0.00     0.110 C 
BRANCH   7   8
ATOM      8  C   UNL A   1      46.076  20.159  24.652  1.00  0.00     0.107 C 
BRANCH   8   9
ATOM      9  C   UNL A   1      46.031  21.587  25.074  1.00  0.00     0.196 A 
ATOM     10  N   UNL A   1      46.340  22.665  24.371  1.00  0.00    -0.213 NA
ATOM     11  O   UNL A   1      45.653  21.833  26.371  1.00  0.00    -0.440 OA
ATOM     12  C   UNL A   1      46.169  23.691  25.268  1.00  0.00     0.117 A 
ATOM     13  C   UNL A   1      45.718  23.195  26.476  1.00  0.00     0.162 A 
BRANCH  12  14
ATOM     14  C   UNL A   1      46.401  25.094  24.993  1.00  0.00     0.004 A 
ATOM     15  C   UNL A   1      47.699  25.557  24.730  1.00  0.00     0.010 A 
ATOM     16  C   UNL A   1      45.352  26.013  25.086  1.00  0.00     0.010 A 
ATOM     17  C   UNL A   1      47.959  26.922  24.625  1.00  0.00     0.001 A 
ATOM     18  C   UNL A   1      45.614  27.382  24.977  1.00  0.00     0.001 A 
ATOM     19  C   UNL A   1      46.917  27.835  24.761  1.00  0.00     0.000 A 
ENDBRANCH  12  14
BRANCH  13  20
ATOM     20  C   UNL A   1      45.334  23.818  27.730  1.00  0.00     0.020 A 
ATOM     21  C   UNL A   1      44.246  23.344  28.468  1.00  0.00     0.012 A 
ATOM     22  C   UNL A   1      46.175  24.788  28.300  1.00  0.00     0.012 A 
ATOM     23  C   UNL A   1      44.039  23.793  29.776  1.00  0.00     0.001 A 
ATOM     24  C   UNL A   1      45.970  25.231  29.604  1.00  0.00     0.001 A 
ATOM     25  C   UNL A   1      44.909  24.722  30.347  1.00  0.00     0.000 A 
ENDBRANCH  13  20
ENDBRANCH   8   9
ENDBRANCH   7   8
ENDBRANCH   5   7
ENDBRANCH   2   3
ENDBRANCH   1   2
BRANCH   1  26
ATOM     26  C   UNL A   1      41.382  22.787  26.973  1.00  0.00     0.118 C 
BRANCH  26  27
ATOM     27  N   UNL A   1      41.648  23.767  25.933  1.00  0.00    -0.352 N 
ATOM     28  C   UNL A   1      41.764  25.135  25.995  1.00  0.00     0.251 C 
ATOM     29  H   UNL A   1      41.765  23.387  25.033  1.00  0.00     0.163 HD
ATOM     30  O   UNL A   1      41.919  25.756  24.943  1.00  0.00    -0.269 OA
BRANCH  28  31
ATOM     31  C   UNL A   1      41.691  25.882  27.279  1.00  0.00     0.039 A 
ATOM     32  C   UNL A   1      42.788  26.675  27.645  1.00  0.00     0.014 A 
ATOM     33  C   UNL A   1      40.604  25.786  28.152  1.00  0.00     0.014 A 
ATOM     34  C   UNL A   1      42.752  27.429  28.821  1.00  0.00     0.010 A 
ATOM     35  C   UNL A   1      40.548  26.564  29.307  1.00  0.00     0.010 A 
ATOM     36  C   UNL A   1      41.609  27.415  29.635  1.00  0.00    -0.014 A 
BRANCH  36  37
ATOM     37  C   UNL A   1      41.433  28.401  30.727  1.00  0.00     0.031 A 
ATOM     38  C   UNL A   1      42.219  28.312  32.002  1.00  0.00     0.074 A 
ATOM     39  C   UNL A   1      40.455  29.316  30.587  1.00  0.00     0.049 A 
ATOM     40  N   UNL A   1      42.142  29.066  33.066  1.00  0.00    -0.248 NA
ATOM     41  C   UNL A   1      43.206  27.227  32.101  1.00  0.00     0.031 C 
ATOM     42  C   UNL A   1      39.581  29.435  29.414  1.00  0.00     0.029 A 
ATOM     43  N   UNL A   1      40.008  30.296  31.433  1.00  0.00    -0.354 N 
ATOM     44  C   UNL A   1      43.073  28.558  33.964  1.00  0.00     0.074 A 
ATOM     45  C   UNL A   1      43.672  27.401  33.332  1.00  0.00     0.031 C 
ATOM     46  C   UNL A   1      38.710  30.433  29.615  1.00  0.00     0.029 A 
ATOM     47  C   UNL A   1      38.939  31.003  30.937  1.00  0.00     0.049 A 
ATOM     48  H   UNL A   1      40.414  30.477  32.311  1.00  0.00     0.167 HD
ATOM     49  C   UNL A   1      43.400  29.028  35.193  1.00  0.00     0.037 A 
ATOM     50  C   UNL A   1      38.215  31.994  31.490  1.00  0.00     0.037 A 
ATOM     51  C   UNL A   1      42.776  30.174  35.808  1.00  0.00     0.049 A 
ATOM     52  C   UNL A   1      38.590  32.488  32.858  1.00  0.00     0.074 A 
ATOM     53  C   UNL A   1      43.075  30.772  37.021  1.00  0.00     0.029 A 
ATOM     54  N   UNL A   1      41.712  30.886  35.268  1.00  0.00    -0.354 N 
ATOM     55  N   UNL A   1      39.542  32.060  33.653  1.00  0.00    -0.248 NA
ATOM     56  C   UNL A   1      37.805  33.604  33.398  1.00  0.00     0.031 C 
ATOM     57  C   UNL A   1      42.159  31.807  37.239  1.00  0.00     0.029 A 
ATOM     58  C   UNL A   1      41.324  31.894  36.137  1.00  0.00     0.049 A 
ATOM     59  H   UNL A   1      41.293  30.700  34.397  1.00  0.00     0.167 HD
ATOM     60  C   UNL A   1      39.486  32.871  34.780  1.00  0.00     0.074 A 
ATOM     61  C   UNL A   1      38.417  33.823  34.554  1.00  0.00     0.031 C 
ATOM     62  C   UNL A   1      40.251  32.830  35.900  1.00  0.00     0.037 A 
BRANCH  49  63
ATOM     63  C   UNL A   1      44.481  28.310  35.958  1.00  0.00     0.058 A 
ATOM     64  C   UNL A   1      44.184  27.252  36.833  1.00  0.00     0.135 A 
ATOM     65  C   UNL A   1      45.834  28.639  35.772  1.00  0.00     0.135 A 
ATOM     66  F   UNL A   1      42.909  26.898  37.058  1.00  0.00    -0.206 F 
ATOM     67  C   UNL A   1      45.185  26.564  37.514  1.00  0.00     0.059 A 
ATOM     68  C   UNL A   1      46.854  27.946  36.422  1.00  0.00     0.059 A 
ATOM     69  F   UNL A   1      46.180  29.639  34.946  1.00  0.00    -0.206 F 
ATOM     70  C   UNL A   1      46.518  26.919  37.302  1.00  0.00     0.060 A 
BRANCH  70  71
ATOM     71  S   UNL A   1      47.801  26.012  38.190  1.00  0.00     0.124 S 
ATOM     72  O   UNL A   1      47.051  25.486  39.327  1.00  0.00    -0.237 OA
ATOM     73  O   UNL A   1      48.228  25.026  37.203  1.00  0.00    -0.237 OA
ATOM     74  O   UNL A   1      48.786  27.041  38.512  1.00  0.00    -0.744 OA
ENDBRANCH  70  71
ENDBRANCH  49  63
BRANCH  50  75
ATOM     75  C   UNL A   1      37.087  32.593  30.730  1.00  0.00     0.058 A 
ATOM     76  C   UNL A   1      35.764  32.199  30.975  1.00  0.00     0.135 A 
ATOM     77  C   UNL A   1      37.304  33.597  29.774  1.00  0.00     0.135 A 
ATOM     78  F   UNL A   1      35.507  31.243  31.881  1.00  0.00    -0.206 F 
ATOM     79  C   UNL A   1      34.697  32.767  30.290  1.00  0.00     0.059 A 
ATOM     80  C   UNL A   1      36.251  34.200  29.094  1.00  0.00     0.059 A 
ATOM     81  F   UNL A   1      38.550  34.027  29.519  1.00  0.00    -0.206 F 
ATOM     82  C   UNL A   1      34.949  33.770  29.353  1.00  0.00     0.060 A 
BRANCH  82  83
ATOM     83  S   UNL A   1      33.550  34.534  28.506  1.00  0.00     0.124 S 
ATOM     84  O   UNL A   1      34.173  35.716  27.920  1.00  0.00    -0.237 OA
ATOM     85  O   UNL A   1      33.154  33.490  27.567  1.00  0.00    -0.237 OA
ATOM     86  O   UNL A   1      32.602  34.789  29.586  1.00  0.00    -0.744 OA
ENDBRANCH  82  83
ENDBRANCH  50  75
BRANCH  62  87
ATOM     87  C   UNL A   1      39.969  33.862  36.958  1.00  0.00     0.058 A 
ATOM     88  C   UNL A   1      39.035  33.633  37.981  1.00  0.00     0.135 A 
ATOM     89  C   UNL A   1      40.665  35.081  36.967  1.00  0.00     0.135 A 
ATOM     90  F   UNL A   1      38.334  32.488  38.012  1.00  0.00    -0.206 F 
ATOM     91  C   UNL A   1      38.783  34.587  38.960  1.00  0.00     0.059 A 
ATOM     92  C   UNL A   1      40.451  36.037  37.954  1.00  0.00     0.059 A 
ATOM     93  F   UNL A   1      41.575  35.348  36.016  1.00  0.00    -0.206 F 
ATOM     94  C   UNL A   1      39.497  35.786  38.940  1.00  0.00     0.060 A 
BRANCH  94  95
ATOM     95  S   UNL A   1      39.180  37.004  40.234  1.00  0.00     0.124 S 
ATOM     96  O   UNL A   1      38.485  38.050  39.490  1.00  0.00    -0.237 OA
ATOM     97  O   UNL A   1      38.363  36.249  41.179  1.00  0.00    -0.237 OA
ATOM     98  O   UNL A   1      40.517  37.352  40.708  1.00  0.00    -0.744 OA
ENDBRANCH  94  95
ENDBRANCH  62  87
ENDBRANCH  36  37
ENDBRANCH  28  31
ENDBRANCH  26  27
ENDBRANCH   1  26
TORSDOF 17
ENDMDL
MODEL 2
REMARK VINA RESULT:     -11.3      4.349      7.099
REMARK SMILES O=C(CCc1nc(-c2ccccc2)c(-c2ccccc2)o1)NCCCNC(=O)c1ccc(-c2c3nc(c(-c4c(F)cc(S(=O)(=O)[O-])cc4F)c4ccc([nH]4)c(-c4c(F)cc(S(=O)(=O)[O-])cc4F)c4nc(c(-c5c(F)cc(S(=O)(=O)[O-])cc5F)c5ccc2[nH]5)C=C4)C=C3)cc1
REMARK SMILES IDX 24 1 23 2 22 3 1 4 2 5 3 7 4 8 5 9 6 10 21 11 7 12 14 13
REMARK SMILES IDX 8 14 9 15 13 16 10 17 12 18 11 19 15 20 16 21 20 22 17 23
REMARK SMILES IDX 19 24 18 25 25 26 26 27 27 28 28 30 29 31 30 32 94 33 31 34
REMARK SMILES IDX 93 35 32 36 33 37 34 38 87 39 35 40 92 41 86 42 88 43 36 44
REMARK SMILES IDX 91 45 85 46 84 47 37 49 71 50 50 51 70 52 51 53 54 54 69 55
REMARK SMILES IDX 89 56 52 57 53 58 68 60 90 61 55 62 38 63 39 64 48 65 40 66
REMARK SMILES IDX 41 67 47 68 49 69 42 70 43 71 44 72 45 73 46 74 72 75 73 76
REMARK SMILES IDX 82 77 74 78 75 79 81 80 83 81 76 82 77 83 78 84 79 85 80 86
REMARK SMILES IDX 56 87 57 88 66 89 58 90 59 91 65 92 67 93 60 94 61 95 62 96
REMARK SMILES IDX 63 97 64 98
REMARK H PARENT 22 6 26 29 88 48 54 59
REMARK Flexibility Score: inf
ROOT
ATOM      1  C   UNL A   1      37.192  23.883  25.687  1.00  0.00     0.042 C 
ENDROOT
BRANCH   1   2
ATOM      2  C   UNL A   1      36.603  22.476  25.688  1.00  0.00     0.117 C 
BRANCH   2   3
ATOM      3  N   UNL A   1      35.160  22.474  25.775  1.00  0.00    -0.356 N 
ATOM      4  O   UNL A   1      34.838  20.317  25.048  1.00  0.00    -0.275 OA
ATOM      5  C   UNL A   1      34.390  21.376  25.481  1.00  0.00     0.220 C 
ATOM      6  H   UNL A   1      34.706  23.301  26.059  1.00  0.00     0.163 HD
BRANCH   5   7
ATOM      7  C   UNL A   1      32.912  21.556  25.759  1.00  0.00     0.110 C 
BRANCH   7   8
ATOM      8  C   UNL A   1      32.155  21.978  24.502  1.00  0.00     0.107 C 
BRANCH   8   9
ATOM      9  C   UNL A   1      31.790  23.423  24.502  1.00  0.00     0.196 A 
ATOM     10  N   UNL A   1      30.926  24.054  23.724  1.00  0.00    -0.213 NA
ATOM     11  O   UNL A   1      32.452  24.224  25.398  1.00  0.00    -0.440 OA
ATOM     12  C   UNL A   1      31.035  25.364  24.122  1.00  0.00     0.117 A 
ATOM     13  C   UNL A   1      31.937  25.469  25.164  1.00  0.00     0.162 A 
BRANCH  12  14
ATOM     14  C   UNL A   1      30.301  26.477  23.558  1.00  0.00     0.004 A 
ATOM     15  C   UNL A   1      30.966  27.445  22.789  1.00  0.00     0.010 A 
ATOM     16  C   UNL A   1      28.947  26.653  23.857  1.00  0.00     0.010 A 
ATOM     17  C   UNL A   1      30.307  28.602  22.377  1.00  0.00     0.001 A 
ATOM     18  C   UNL A   1      28.287  27.813  23.441  1.00  0.00     0.001 A 
ATOM     19  C   UNL A   1      28.970  28.791  22.716  1.00  0.00     0.000 A 
ENDBRANCH  12  14
BRANCH  13  20
ATOM     20  C   UNL A   1      32.391  26.578  25.982  1.00  0.00     0.020 A 
ATOM     21  C   UNL A   1      33.640  27.170  25.768  1.00  0.00     0.012 A 
ATOM     22  C   UNL A   1      31.493  27.185  26.876  1.00  0.00     0.012 A 
ATOM     23  C   UNL A   1      33.958  28.378  26.396  1.00  0.00     0.001 A 
ATOM     24  C   UNL A   1      31.810  28.391  27.497  1.00  0.00     0.001 A 
ATOM     25  C   UNL A   1      33.039  28.994  27.246  1.00  0.00     0.000 A 
ENDBRANCH  13  20
ENDBRANCH   8   9
ENDBRANCH   7   8
ENDBRANCH   5   7
ENDBRANCH   2   3
ENDBRANCH   1   2
BRANCH   1  26
ATOM     26  C   UNL A   1      38.419  24.077  26.576  1.00  0.00     0.118 C 
BRANCH  26  27
ATOM     27  N   UNL A   1      39.626  24.408  25.835  1.00  0.00    -0.352 N 
ATOM     28  C   UNL A   1      40.642  25.287  26.121  1.00  0.00     0.251 C 
ATOM     29  H   UNL A   1      39.732  23.920  24.987  1.00  0.00     0.163 HD
ATOM     30  O   UNL A   1      41.530  25.444  25.282  1.00  0.00    -0.269 OA
BRANCH  28  31
ATOM     31  C   UNL A   1      40.694  26.059  27.391  1.00  0.00     0.039 A 
ATOM     32  C   UNL A   1      41.816  26.864  27.629  1.00  0.00     0.014 A 
ATOM     33  C   UNL A   1      39.700  25.975  28.371  1.00  0.00     0.014 A 
ATOM     34  C   UNL A   1      41.894  27.641  28.789  1.00  0.00     0.010 A 
ATOM     35  C   UNL A   1      39.756  26.776  29.510  1.00  0.00     0.010 A 
ATOM     36  C   UNL A   1      40.838  27.638  29.713  1.00  0.00    -0.014 A 
BRANCH  36  37
ATOM     37  C   UNL A   1      40.766  28.644  30.799  1.00  0.00     0.031 A 
ATOM     38  C   UNL A   1      41.585  28.514  32.048  1.00  0.00     0.074 A 
ATOM     39  C   UNL A   1      39.849  29.623  30.679  1.00  0.00     0.049 A 
ATOM     40  N   UNL A   1      41.595  29.281  33.106  1.00  0.00    -0.248 NA
ATOM     41  C   UNL A   1      42.498  27.364  32.130  1.00  0.00     0.031 C 
ATOM     42  C   UNL A   1      38.948  29.791  29.533  1.00  0.00     0.029 A 
ATOM     43  N   UNL A   1      39.499  30.640  31.527  1.00  0.00    -0.354 N 
ATOM     44  C   UNL A   1      42.518  28.719  33.979  1.00  0.00     0.074 A 
ATOM     45  C   UNL A   1      43.015  27.517  33.343  1.00  0.00     0.031 C 
ATOM     46  C   UNL A   1      38.154  30.849  29.750  1.00  0.00     0.029 A 
ATOM     47  C   UNL A   1      38.465  31.414  31.057  1.00  0.00     0.049 A 
ATOM     48  H   UNL A   1      39.945  30.801  32.390  1.00  0.00     0.167 HD
ATOM     49  C   UNL A   1      42.916  29.178  35.192  1.00  0.00     0.037 A 
ATOM     50  C   UNL A   1      37.829  32.458  31.621  1.00  0.00     0.037 A 
ATOM     51  C   UNL A   1      42.393  30.370  35.812  1.00  0.00     0.049 A 
ATOM     52  C   UNL A   1      38.282  32.938  32.970  1.00  0.00     0.074 A 
ATOM     53  C   UNL A   1      42.772  30.957  37.008  1.00  0.00     0.029 A 
ATOM     54  N   UNL A   1      41.363  31.148  35.299  1.00  0.00    -0.354 N 
ATOM     55  N   UNL A   1      39.228  32.454  33.739  1.00  0.00    -0.248 NA
ATOM     56  C   UNL A   1      37.594  34.111  33.521  1.00  0.00     0.031 C 
ATOM     57  C   UNL A   1      41.937  32.055  37.243  1.00  0.00     0.029 A 
ATOM     58  C   UNL A   1      41.074  32.189  36.167  1.00  0.00     0.049 A 
ATOM     59  H   UNL A   1      40.904  30.983  34.443  1.00  0.00     0.167 HD
ATOM     60  C   UNL A   1      39.265  33.277  34.858  1.00  0.00     0.074 A 
ATOM     61  C   UNL A   1      38.256  34.299  34.654  1.00  0.00     0.031 C 
ATOM     62  C   UNL A   1      40.061  33.195  35.953  1.00  0.00     0.037 A 
BRANCH  49  63
ATOM     63  C   UNL A   1      43.970  28.394  35.931  1.00  0.00     0.058 A 
ATOM     64  C   UNL A   1      45.337  28.687  35.792  1.00  0.00     0.135 A 
ATOM     65  C   UNL A   1      43.612  27.380  36.834  1.00  0.00     0.135 A 
ATOM     66  F   UNL A   1      45.741  29.639  34.936  1.00  0.00    -0.206 F 
ATOM     67  C   UNL A   1      46.310  27.987  36.500  1.00  0.00     0.059 A 
ATOM     68  C   UNL A   1      44.566  26.686  37.575  1.00  0.00     0.059 A 
ATOM     69  F   UNL A   1      42.320  27.058  37.012  1.00  0.00    -0.206 F 
ATOM     70  C   UNL A   1      45.914  26.987  37.390  1.00  0.00     0.060 A 
BRANCH  70  71
ATOM     71  S   UNL A   1      47.190  26.095  38.304  1.00  0.00     0.124 S 
ATOM     72  O   UNL A   1      46.435  25.606  39.454  1.00  0.00    -0.237 OA
ATOM     73  O   UNL A   1      47.609  25.079  37.344  1.00  0.00    -0.237 OA
ATOM     74  O   UNL A   1      48.182  27.124  38.599  1.00  0.00    -0.744 OA
ENDBRANCH  70  71
ENDBRANCH  49  63
BRANCH  50  75
ATOM     75  C   UNL A   1      36.721  33.126  30.890  1.00  0.00     0.058 A 
ATOM     76  C   UNL A   1      35.386  32.933  31.274  1.00  0.00     0.135 A 
ATOM     77  C   UNL A   1      36.975  33.999  29.821  1.00  0.00     0.135 A 
ATOM     78  F   UNL A   1      35.095  32.108  32.291  1.00  0.00    -0.206 F 
ATOM     79  C   UNL A   1      34.340  33.570  30.616  1.00  0.00     0.059 A 
ATOM     80  C   UNL A   1      35.947  34.668  29.164  1.00  0.00     0.059 A 
ATOM     81  F   UNL A   1      38.237  34.236  29.430  1.00  0.00    -0.206 F 
ATOM     82  C   UNL A   1      34.631  34.439  29.564  1.00  0.00     0.060 A 
BRANCH  82  83
ATOM     83  S   UNL A   1      33.267  35.297  28.750  1.00  0.00     0.124 S 
ATOM     84  O   UNL A   1      32.528  35.821  29.893  1.00  0.00    -0.237 OA
ATOM     85  O   UNL A   1      33.970  36.284  27.936  1.00  0.00    -0.237 OA
ATOM     86  O   UNL A   1      32.602  34.236  27.999  1.00  0.00    -0.744 OA
ENDBRANCH  82  83
ENDBRANCH  50  75
BRANCH  62  87
ATOM     87  C   UNL A   1      39.885  34.254  37.007  1.00  0.00     0.058 A 
ATOM     88  C   UNL A   1      40.503  35.510  36.900  1.00  0.00     0.135 A 
ATOM     89  C   UNL A   1      39.062  34.021  38.119  1.00  0.00     0.135 A 
ATOM     90  F   UNL A   1      41.309  35.780  35.861  1.00  0.00    -0.206 F 
ATOM     91  C   UNL A   1      40.332  36.488  37.874  1.00  0.00     0.059 A 
ATOM     92  C   UNL A   1      38.852  34.996  39.090  1.00  0.00     0.059 A 
ATOM     93  F   UNL A   1      38.440  32.840  38.266  1.00  0.00    -0.206 F 
ATOM     94  C   UNL A   1      39.503  36.222  38.965  1.00  0.00     0.060 A 
BRANCH  94  95
ATOM     95  S   UNL A   1      39.266  37.511  40.206  1.00  0.00     0.124 S 
ATOM     96  O   UNL A   1      38.905  36.725  41.381  1.00  0.00    -0.237 OA
ATOM     97  O   UNL A   1      40.580  38.148  40.248  1.00  0.00    -0.237 OA
ATOM     98  O   UNL A   1      38.197  38.332  39.645  1.00  0.00    -0.744 OA
ENDBRANCH  94  95
ENDBRANCH  62  87
ENDBRANCH  36  37
ENDBRANCH  28  31
ENDBRANCH  26  27
ENDBRANCH   1  26
TORSDOF 17
ENDMDL
MODEL 3
REMARK VINA RESULT:     -11.2      6.744     13.224
REMARK SMILES O=C(CCc1nc(-c2ccccc2)c(-c2ccccc2)o1)NCCCNC(=O)c1ccc(-c2c3nc(c(-c4c(F)cc(S(=O)(=O)[O-])cc4F)c4ccc([nH]4)c(-c4c(F)cc(S(=O)(=O)[O-])cc4F)c4nc(c(-c5c(F)cc(S(=O)(=O)[O-])cc5F)c5ccc2[nH]5)C=C4)C=C3)cc1
REMARK SMILES IDX 24 1 23 2 22 3 1 4 2 5 3 7 4 8 5 9 6 10 21 11 7 12 14 13
REMARK SMILES IDX 8 14 9 15 13 16 10 17 12 18 11 19 15 20 16 21 20 22 17 23
REMARK SMILES IDX 19 24 18 25 25 26 26 27 27 28 28 30 29 31 30 32 94 33 31 34
REMARK SMILES IDX 93 35 32 36 33 37 34 38 87 39 35 40 92 41 86 42 88 43 36 44
REMARK SMILES IDX 91 45 85 46 84 47 37 49 71 50 50 51 70 52 51 53 54 54 69 55
REMARK SMILES IDX 89 56 52 57 53 58 68 60 90 61 55 62 38 63 39 64 48 65 40 66
REMARK SMILES IDX 41 67 47 68 49 69 42 70 43 71 44 72 45 73 46 74 72 75 73 76
REMARK SMILES IDX 82 77 74 78 75 79 81 80 83 81 76 82 77 83 78 84 79 85 80 86
REMARK SMILES IDX 56 87 57 88 66 89 58 90 59 91 65 92 67 93 60 94 61 95 62 96
REMARK SMILES IDX 63 97 64 98
REMARK H PARENT 22 6 26 29 88 48 54 59
REMARK Flexibility Score: inf
ROOT
ATOM      1  C   UNL A   1      34.704  29.122  26.970  1.00  0.00     0.042 C 
ENDROOT
BRANCH   1   2
ATOM      2  C   UNL A   1      33.362  29.481  26.341  1.00  0.00     0.117 C 
BRANCH   2   3
ATOM      3  N   UNL A   1      33.188  28.904  25.026  1.00  0.00    -0.356 N 
ATOM      4  O   UNL A   1      31.044  29.656  24.672  1.00  0.00    -0.275 OA
ATOM      5  C   UNL A   1      32.049  29.070  24.277  1.00  0.00     0.220 C 
ATOM      6  H   UNL A   1      33.921  28.366  24.649  1.00  0.00     0.163 HD
BRANCH   5   7
ATOM      7  C   UNL A   1      32.128  28.485  22.882  1.00  0.00     0.110 C 
BRANCH   7   8
ATOM      8  C   UNL A   1      31.388  27.153  22.791  1.00  0.00     0.107 C 
BRANCH   8   9
ATOM      9  C   UNL A   1      32.229  25.993  23.198  1.00  0.00     0.196 A 
ATOM     10  N   UNL A   1      33.499  25.986  23.572  1.00  0.00    -0.213 NA
ATOM     11  O   UNL A   1      31.635  24.757  23.153  1.00  0.00    -0.440 OA
ATOM     12  C   UNL A   1      33.766  24.654  23.773  1.00  0.00     0.117 A 
ATOM     13  C   UNL A   1      32.626  23.904  23.553  1.00  0.00     0.162 A 
BRANCH  12  14
ATOM     14  C   UNL A   1      35.043  24.105  24.179  1.00  0.00     0.004 A 
ATOM     15  C   UNL A   1      35.741  23.236  23.327  1.00  0.00     0.010 A 
ATOM     16  C   UNL A   1      35.541  24.354  25.461  1.00  0.00     0.010 A 
ATOM     17  C   UNL A   1      36.887  22.577  23.768  1.00  0.00     0.001 A 
ATOM     18  C   UNL A   1      36.692  23.693  25.901  1.00  0.00     0.001 A 
ATOM     19  C   UNL A   1      37.354  22.796  25.060  1.00  0.00     0.000 A 
ENDBRANCH  12  14
BRANCH  13  20
ATOM     20  C   UNL A   1      32.327  22.488  23.665  1.00  0.00     0.020 A 
ATOM     21  C   UNL A   1      32.270  21.670  22.533  1.00  0.00     0.012 A 
ATOM     22  C   UNL A   1      32.275  21.895  24.938  1.00  0.00     0.012 A 
ATOM     23  C   UNL A   1      32.222  20.280  22.676  1.00  0.00     0.001 A 
ATOM     24  C   UNL A   1      32.232  20.511  25.079  1.00  0.00     0.001 A 
ATOM     25  C   UNL A   1      32.218  19.702  23.946  1.00  0.00     0.000 A 
ENDBRANCH  13  20
ENDBRANCH   8   9
ENDBRANCH   7   8
ENDBRANCH   5   7
ENDBRANCH   2   3
ENDBRANCH   1   2
BRANCH   1  26
ATOM     26  C   UNL A   1      35.399  30.258  27.716  1.00  0.00     0.118 C 
BRANCH  26  27
ATOM     27  N   UNL A   1      35.342  30.122  29.163  1.00  0.00    -0.352 N 
ATOM     28  C   UNL A   1      36.336  29.894  30.084  1.00  0.00     0.251 C 
ATOM     29  H   UNL A   1      34.440  30.209  29.547  1.00  0.00     0.163 HD
ATOM     30  O   UNL A   1      36.015  29.742  31.263  1.00  0.00    -0.269 OA
BRANCH  28  31
ATOM     31  C   UNL A   1      37.771  29.808  29.702  1.00  0.00     0.039 A 
ATOM     32  C   UNL A   1      38.728  29.810  30.726  1.00  0.00     0.014 A 
ATOM     33  C   UNL A   1      38.201  29.777  28.372  1.00  0.00     0.014 A 
ATOM     34  C   UNL A   1      40.088  29.690  30.421  1.00  0.00     0.010 A 
ATOM     35  C   UNL A   1      39.552  29.620  28.065  1.00  0.00     0.010 A 
ATOM     36  C   UNL A   1      40.502  29.544  29.088  1.00  0.00    -0.014 A 
BRANCH  36  37
ATOM     37  C   UNL A   1      41.890  29.144  28.756  1.00  0.00     0.031 A 
ATOM     38  C   UNL A   1      43.000  30.148  28.672  1.00  0.00     0.074 A 
ATOM     39  C   UNL A   1      42.100  27.858  28.416  1.00  0.00     0.049 A 
ATOM     40  N   UNL A   1      44.252  29.961  28.344  1.00  0.00    -0.248 NA
ATOM     41  C   UNL A   1      42.659  31.546  28.976  1.00  0.00     0.031 C 
ATOM     42  C   UNL A   1      41.066  26.817  28.392  1.00  0.00     0.029 A 
ATOM     43  N   UNL A   1      43.233  27.208  28.001  1.00  0.00    -0.354 N 
ATOM     44  C   UNL A   1      44.856  31.210  28.409  1.00  0.00     0.074 A 
ATOM     45  C   UNL A   1      43.819  32.157  28.765  1.00  0.00     0.031 C 
ATOM     46  C   UNL A   1      41.614  25.662  27.989  1.00  0.00     0.029 A 
ATOM     47  C   UNL A   1      43.025  25.884  27.696  1.00  0.00     0.049 A 
ATOM     48  H   UNL A   1      44.111  27.647  27.928  1.00  0.00     0.167 HD
ATOM     49  C   UNL A   1      46.158  31.527  28.202  1.00  0.00     0.037 A 
ATOM     50  C   UNL A   1      43.873  24.953  27.222  1.00  0.00     0.037 A 
ATOM     51  C   UNL A   1      47.170  30.568  27.831  1.00  0.00     0.049 A 
ATOM     52  C   UNL A   1      45.308  25.333  26.990  1.00  0.00     0.074 A 
ATOM     53  C   UNL A   1      48.529  30.771  27.659  1.00  0.00     0.029 A 
ATOM     54  N   UNL A   1      46.932  29.227  27.554  1.00  0.00    -0.354 N 
ATOM     55  N   UNL A   1      45.885  26.499  27.154  1.00  0.00    -0.248 NA
ATOM     56  C   UNL A   1      46.207  24.272  26.522  1.00  0.00     0.031 C 
ATOM     57  C   UNL A   1      49.102  29.569  27.226  1.00  0.00     0.029 A 
ATOM     58  C   UNL A   1      48.112  28.601  27.183  1.00  0.00     0.049 A 
ATOM     59  H   UNL A   1      46.053  28.787  27.612  1.00  0.00     0.167 HD
ATOM     60  C   UNL A   1      47.223  26.308  26.831  1.00  0.00     0.074 A 
ATOM     61  C   UNL A   1      47.369  24.909  26.479  1.00  0.00     0.031 C 
ATOM     62  C   UNL A   1      48.238  27.208  26.828  1.00  0.00     0.037 A 
BRANCH  49  63
ATOM     63  C   UNL A   1      46.570  32.966  28.373  1.00  0.00     0.058 A 
ATOM     64  C   UNL A   1      46.412  33.904  27.339  1.00  0.00     0.135 A 
ATOM     65  C   UNL A   1      47.071  33.431  29.600  1.00  0.00     0.135 A 
ATOM     66  F   UNL A   1      45.946  33.517  26.141  1.00  0.00    -0.206 F 
ATOM     67  C   UNL A   1      46.760  35.241  27.506  1.00  0.00     0.059 A 
ATOM     68  C   UNL A   1      47.399  34.770  29.799  1.00  0.00     0.059 A 
ATOM     69  F   UNL A   1      47.241  32.581  30.626  1.00  0.00    -0.206 F 
ATOM     70  C   UNL A   1      47.253  35.665  28.741  1.00  0.00     0.060 A 
BRANCH  70  71
ATOM     71  S   UNL A   1      47.693  37.405  28.941  1.00  0.00     0.124 S 
ATOM     72  O   UNL A   1      47.011  38.009  27.800  1.00  0.00    -0.237 OA
ATOM     73  O   UNL A   1      47.134  37.720  30.252  1.00  0.00    -0.237 OA
ATOM     74  O   UNL A   1      49.150  37.399  28.869  1.00  0.00    -0.744 OA
ENDBRANCH  70  71
ENDBRANCH  49  63
BRANCH  50  75
ATOM     75  C   UNL A   1      43.385  23.573  26.968  1.00  0.00     0.058 A 
ATOM     76  C   UNL A   1      43.148  23.122  25.661  1.00  0.00     0.135 A 
ATOM     77  C   UNL A   1      43.181  22.666  28.020  1.00  0.00     0.135 A 
ATOM     78  F   UNL A   1      43.329  23.952  24.624  1.00  0.00    -0.206 F 
ATOM     79  C   UNL A   1      42.713  21.827  25.407  1.00  0.00     0.059 A 
ATOM     80  C   UNL A   1      42.772  21.357  27.788  1.00  0.00     0.059 A 
ATOM     81  F   UNL A   1      43.416  23.042  29.287  1.00  0.00    -0.206 F 
ATOM     82  C   UNL A   1      42.531  20.950  26.477  1.00  0.00     0.060 A 
BRANCH  82  83
ATOM     83  S   UNL A   1      42.015  19.255  26.128  1.00  0.00     0.124 S 
ATOM     84  O   UNL A   1      40.594  19.434  25.852  1.00  0.00    -0.237 OA
ATOM     85  O   UNL A   1      42.849  18.911  24.982  1.00  0.00    -0.237 OA
ATOM     86  O   UNL A   1      42.334  18.545  27.363  1.00  0.00    -0.744 OA
ENDBRANCH  82  83
ENDBRANCH  50  75
BRANCH  62  87
ATOM     87  C   UNL A   1      49.602  26.698  26.449  1.00  0.00     0.058 A 
ATOM     88  C   UNL A   1      50.433  26.053  27.379  1.00  0.00     0.135 A 
ATOM     89  C   UNL A   1      50.070  26.826  25.132  1.00  0.00     0.135 A 
ATOM     90  F   UNL A   1      50.038  25.914  28.656  1.00  0.00    -0.206 F 
ATOM     91  C   UNL A   1      51.690  25.578  27.023  1.00  0.00     0.059 A 
ATOM     92  C   UNL A   1      51.312  26.331  24.746  1.00  0.00     0.059 A 
ATOM     93  F   UNL A   1      49.312  27.428  24.201  1.00  0.00    -0.206 F 
ATOM     94  C   UNL A   1      52.120  25.720  25.703  1.00  0.00     0.060 A 
BRANCH  94  95
ATOM     95  S   UNL A   1      53.742  25.072  25.247  1.00  0.00     0.124 S 
ATOM     96  O   UNL A   1      54.587  25.631  26.297  1.00  0.00    -0.237 OA
ATOM     97  O   UNL A   1      53.529  23.629  25.305  1.00  0.00    -0.237 OA
ATOM     98  O   UNL A   1      53.961  25.614  23.909  1.00  0.00    -0.744 OA
ENDBRANCH  94  95
ENDBRANCH  62  87
ENDBRANCH  36  37
ENDBRANCH  28  31
ENDBRANCH  26  27
ENDBRANCH   1  26
TORSDOF 17
ENDMDL
