MODEL 1
REMARK VINA RESULT:     -13.1      0.000      0.000
REMARK SMILES O=C(COc1ccccc1/C=C1/SC(=O)N(c2ccc(F)cc2)C1=O)NCCCNC(=O)c1ccc(-c2c3nc(c(-c4c(F)cc(S(=O)(=O)[O-])cc4F)c4ccc([nH]4)c(-c4c(F)cc(S(=O)(=O)[O-])cc4F)c4nc(c(-c5c(F)cc(S(=O)(=O)[O-])cc5F)c5ccc2[nH]5)C=C4)C=C3)cc1
REMARK SMILES IDX 27 1 26 2 1 3 2 4 3 6 4 7 5 8 6 9 10 10 7 11 9 12 8 13 11 14
REMARK SMILES IDX 12 15 13 16 24 17 14 18 16 19 25 20 15 21 17 22 18 23 23 24
REMARK SMILES IDX 19 25 22 26 20 27 21 28 28 29 29 30 30 31 31 32 32 34 33 35
REMARK SMILES IDX 34 36 98 37 35 38 97 39 36 40 37 41 38 42 91 43 39 44 96 45
REMARK SMILES IDX 90 46 92 47 40 48 95 49 89 50 88 51 41 53 75 54 54 55 74 56
REMARK SMILES IDX 55 57 58 58 73 59 93 60 56 61 57 62 72 64 94 65 59 66 42 67
REMARK SMILES IDX 43 68 52 69 44 70 45 71 51 72 53 73 46 74 47 75 48 76 49 77
REMARK SMILES IDX 50 78 76 79 77 80 86 81 78 82 79 83 85 84 87 85 80 86 81 87
REMARK SMILES IDX 82 88 83 89 84 90 60 91 61 92 70 93 62 94 63 95 69 96 71 97
REMARK SMILES IDX 64 98 65 99 66 100 67 101 68 102
REMARK H PARENT 26 5 30 33 92 52 58 63
REMARK Flexibility Score: inf
ROOT
ATOM      1  C   UNL A   1      31.707  28.587  25.688  1.00  0.00     0.117 C 
ENDROOT
BRANCH   1   2
ATOM      2  N   UNL A   1      31.749  27.701  23.773  1.00  0.00    -0.353 N 
ATOM      3  O   UNL A   1      33.609  27.339  22.213  1.00  0.00    -0.271 OA
ATOM      4  C   UNL A   1      32.481  27.101  22.633  1.00  0.00     0.257 C 
ATOM      5  H   UNL A   1      30.804  27.673  23.498  1.00  0.00     0.163 HD
BRANCH   4   6
ATOM      6  C   UNL A   1      31.657  26.008  21.938  1.00  0.00     0.329 C 
BRANCH   6   7
ATOM      7  O   UNL A   1      31.908  24.693  22.391  1.00  0.00    -0.483 OA
BRANCH   7   8
ATOM      8  C   UNL A   1      31.860  24.457  23.748  1.00  0.00     0.127 A 
ATOM      9  C   UNL A   1      30.580  24.656  24.276  1.00  0.00     0.047 A 
ATOM     10  C   UNL A   1      32.966  24.304  24.623  1.00  0.00     0.018 A 
ATOM     11  C   UNL A   1      30.381  24.734  25.651  1.00  0.00     0.004 A 
ATOM     12  C   UNL A   1      32.745  24.391  26.006  1.00  0.00     0.012 A 
ATOM     13  C   UNL A   1      31.465  24.620  26.515  1.00  0.00     0.001 A 
BRANCH  10  14
ATOM     14  C   UNL A   1      34.371  24.193  24.209  1.00  0.00     0.033 C 
ATOM     15  C   UNL A   1      34.815  23.012  23.746  1.00  0.00     0.084 C 
ATOM     16  S   UNL A   1      36.985  22.495  24.231  1.00  0.00    -0.022 SA
ATOM     17  C   UNL A   1      33.677  21.404  23.812  1.00  0.00     0.272 C 
ATOM     18  C   UNL A   1      36.412  20.295  24.812  1.00  0.00     0.298 C 
ATOM     19  N   UNL A   1      34.671  19.998  24.399  1.00  0.00    -0.236 N 
ATOM     20  O   UNL A   1      32.514  21.370  23.440  1.00  0.00    -0.268 OA
ATOM     21  O   UNL A   1      37.250  19.556  25.301  1.00  0.00    -0.260 OA
BRANCH  19  22
ATOM     22  C   UNL A   1      34.040  18.731  24.591  1.00  0.00     0.053 A 
ATOM     23  C   UNL A   1      33.024  18.594  25.551  1.00  0.00     0.030 A 
ATOM     24  C   UNL A   1      34.417  17.605  23.852  1.00  0.00     0.030 A 
ATOM     25  C   UNL A   1      32.408  17.362  25.782  1.00  0.00     0.041 A 
ATOM     26  C   UNL A   1      33.811  16.365  24.097  1.00  0.00     0.041 A 
ATOM     27  C   UNL A   1      32.814  16.255  25.060  1.00  0.00     0.123 A 
ATOM     28  F   UNL A   1      32.242  15.068  25.296  1.00  0.00    -0.207 F 
ENDBRANCH  19  22
ENDBRANCH  10  14
ENDBRANCH   7   8
ENDBRANCH   6   7
ENDBRANCH   4   6
ENDBRANCH   1   2
BRANCH   1  29
ATOM     29  C   UNL A   1      32.501  28.177  27.125  1.00  0.00     0.042 C 
BRANCH  29  30
ATOM     30  C   UNL A   1      33.845  28.844  27.395  1.00  0.00     0.118 C 
BRANCH  30  31
ATOM     31  N   UNL A   1      33.781  30.179  27.972  1.00  0.00    -0.352 N 
ATOM     32  C   UNL A   1      34.836  30.844  28.567  1.00  0.00     0.251 C 
ATOM     33  H   UNL A   1      32.916  30.646  27.936  1.00  0.00     0.163 HD
ATOM     34  O   UNL A   1      34.692  31.951  29.068  1.00  0.00    -0.269 OA
BRANCH  32  35
ATOM     35  C   UNL A   1      36.124  30.125  28.639  1.00  0.00     0.039 A 
ATOM     36  C   UNL A   1      36.981  30.174  27.540  1.00  0.00     0.014 A 
ATOM     37  C   UNL A   1      36.549  29.603  29.862  1.00  0.00     0.014 A 
ATOM     38  C   UNL A   1      38.305  29.761  27.690  1.00  0.00     0.010 A 
ATOM     39  C   UNL A   1      37.888  29.279  30.031  1.00  0.00     0.010 A 
ATOM     40  C   UNL A   1      38.780  29.351  28.947  1.00  0.00    -0.014 A 
BRANCH  40  41
ATOM     41  C   UNL A   1      40.198  28.957  29.149  1.00  0.00     0.031 A 
ATOM     42  C   UNL A   1      41.167  29.968  29.699  1.00  0.00     0.074 A 
ATOM     43  C   UNL A   1      40.625  27.730  28.787  1.00  0.00     0.049 A 
ATOM     44  N   UNL A   1      42.458  29.868  29.871  1.00  0.00    -0.248 NA
ATOM     45  C   UNL A   1      40.611  31.279  30.075  1.00  0.00     0.031 C 
ATOM     46  C   UNL A   1      39.791  26.678  28.203  1.00  0.00     0.029 A 
ATOM     47  N   UNL A   1      41.875  27.163  28.847  1.00  0.00    -0.354 N 
ATOM     48  C   UNL A   1      42.869  31.104  30.354  1.00  0.00     0.074 A 
ATOM     49  C   UNL A   1      41.703  31.957  30.389  1.00  0.00     0.031 C 
ATOM     50  C   UNL A   1      40.546  25.589  27.980  1.00  0.00     0.029 A 
ATOM     51  C   UNL A   1      41.924  25.875  28.366  1.00  0.00     0.049 A 
ATOM     52  H   UNL A   1      42.663  27.635  29.201  1.00  0.00     0.167 HD
ATOM     53  C   UNL A   1      44.102  31.485  30.760  1.00  0.00     0.037 A 
ATOM     54  C   UNL A   1      42.965  25.027  28.245  1.00  0.00     0.037 A 
ATOM     55  C   UNL A   1      45.249  30.619  30.755  1.00  0.00     0.049 A 
ATOM     56  C   UNL A   1      44.331  25.473  28.702  1.00  0.00     0.074 A 
ATOM     57  C   UNL A   1      46.532  30.891  31.195  1.00  0.00     0.029 A 
ATOM     58  N   UNL A   1      45.251  29.313  30.288  1.00  0.00    -0.354 N 
ATOM     59  N   UNL A   1      44.692  26.627  29.212  1.00  0.00    -0.248 NA
ATOM     60  C   UNL A   1      45.430  24.505  28.574  1.00  0.00     0.031 C 
ATOM     61  C   UNL A   1      47.321  29.762  30.954  1.00  0.00     0.029 A 
ATOM     62  C   UNL A   1      46.518  28.769  30.417  1.00  0.00     0.049 A 
ATOM     63  H   UNL A   1      44.468  28.842  29.922  1.00  0.00     0.167 HD
ATOM     64  C   UNL A   1      46.046  26.510  29.501  1.00  0.00     0.074 A 
ATOM     65  C   UNL A   1      46.443  25.174  29.109  1.00  0.00     0.031 C 
ATOM     66  C   UNL A   1      46.885  27.424  30.048  1.00  0.00     0.037 A 
BRANCH  53  67
ATOM     67  C   UNL A   1      44.267  32.897  31.248  1.00  0.00     0.058 A 
ATOM     68  C   UNL A   1      44.112  33.231  32.604  1.00  0.00     0.135 A 
ATOM     69  C   UNL A   1      44.604  33.926  30.355  1.00  0.00     0.135 A 
ATOM     70  F   UNL A   1      43.770  32.290  33.498  1.00  0.00    -0.206 F 
ATOM     71  C   UNL A   1      44.253  34.540  33.051  1.00  0.00     0.059 A 
ATOM     72  C   UNL A   1      44.782  35.238  30.786  1.00  0.00     0.059 A 
ATOM     73  F   UNL A   1      44.762  33.664  29.049  1.00  0.00    -0.206 F 
ATOM     74  C   UNL A   1      44.588  35.537  32.133  1.00  0.00     0.060 A 
BRANCH  74  75
ATOM     75  S   UNL A   1      44.771  37.229  32.732  1.00  0.00     0.124 S 
ATOM     76  O   UNL A   1      46.220  37.392  32.707  1.00  0.00    -0.237 OA
ATOM     77  O   UNL A   1      44.031  37.995  31.733  1.00  0.00    -0.237 OA
ATOM     78  O   UNL A   1      44.166  37.188  34.059  1.00  0.00    -0.744 OA
ENDBRANCH  74  75
ENDBRANCH  53  67
BRANCH  54  79
ATOM     79  C   UNL A   1      42.757  23.660  27.690  1.00  0.00     0.058 A 
ATOM     80  C   UNL A   1      42.521  22.565  28.534  1.00  0.00     0.135 A 
ATOM     81  C   UNL A   1      42.786  23.420  26.307  1.00  0.00     0.135 A 
ATOM     82  F   UNL A   1      42.490  22.739  29.865  1.00  0.00    -0.206 F 
ATOM     83  C   UNL A   1      42.337  21.280  28.032  1.00  0.00     0.059 A 
ATOM     84  C   UNL A   1      42.580  22.149  25.779  1.00  0.00     0.059 A 
ATOM     85  F   UNL A   1      42.995  24.434  25.453  1.00  0.00    -0.206 F 
ATOM     86  C   UNL A   1      42.366  21.082  26.651  1.00  0.00     0.060 A 
BRANCH  86  87
ATOM     87  S   UNL A   1      42.082  19.418  26.009  1.00  0.00     0.124 S 
ATOM     88  O   UNL A   1      42.909  19.420  24.809  1.00  0.00    -0.237 OA
ATOM     89  O   UNL A   1      42.553  18.581  27.108  1.00  0.00    -0.237 OA
ATOM     90  O   UNL A   1      40.640  19.388  25.782  1.00  0.00    -0.744 OA
ENDBRANCH  86  87
ENDBRANCH  54  79
BRANCH  66  91
ATOM     91  C   UNL A   1      48.304  27.007  30.315  1.00  0.00     0.058 A 
ATOM     92  C   UNL A   1      49.329  27.222  29.383  1.00  0.00     0.135 A 
ATOM     93  C   UNL A   1      48.656  26.481  31.570  1.00  0.00     0.135 A 
ATOM     94  F   UNL A   1      49.045  27.718  28.168  1.00  0.00    -0.206 F 
ATOM     95  C   UNL A   1      50.655  26.926  29.682  1.00  0.00     0.059 A 
ATOM     96  C   UNL A   1      49.977  26.202  31.900  1.00  0.00     0.059 A 
ATOM     97  F   UNL A   1      47.713  26.265  32.501  1.00  0.00    -0.206 F 
ATOM     98  C   UNL A   1      50.970  26.426  30.947  1.00  0.00     0.060 A 
BRANCH  98  99
ATOM     99  S   UNL A   1      52.703  26.116  31.348  1.00  0.00     0.124 S 
ATOM    100  O   UNL A   1      52.637  24.782  31.932  1.00  0.00    -0.237 OA
ATOM    101  O   UNL A   1      53.346  26.206  30.040  1.00  0.00    -0.237 OA
ATOM    102  O   UNL A   1      53.035  27.192  32.278  1.00  0.00    -0.744 OA
ENDBRANCH  98  99
ENDBRANCH  66  91
ENDBRANCH  40  41
ENDBRANCH  32  35
ENDBRANCH  30  31
ENDBRANCH  29  30
ENDBRANCH   1  29
TORSDOF 17
ENDMDL
MODEL 2
REMARK VINA RESULT:     -12.9      4.856     10.653
REMARK SMILES O=C(COc1ccccc1/C=C1/SC(=O)N(c2ccc(F)cc2)C1=O)NCCCNC(=O)c1ccc(-c2c3nc(c(-c4c(F)cc(S(=O)(=O)[O-])cc4F)c4ccc([nH]4)c(-c4c(F)cc(S(=O)(=O)[O-])cc4F)c4nc(c(-c5c(F)cc(S(=O)(=O)[O-])cc5F)c5ccc2[nH]5)C=C4)C=C3)cc1
REMARK SMILES IDX 27 1 26 2 1 3 2 4 3 6 4 7 5 8 6 9 10 10 7 11 9 12 8 13 11 14
REMARK SMILES IDX 12 15 13 16 24 17 14 18 16 19 25 20 15 21 17 22 18 23 23 24
REMARK SMILES IDX 19 25 22 26 20 27 21 28 28 29 29 30 30 31 31 32 32 34 33 35
REMARK SMILES IDX 34 36 98 37 35 38 97 39 36 40 37 41 38 42 91 43 39 44 96 45
REMARK SMILES IDX 90 46 92 47 40 48 95 49 89 50 88 51 41 53 75 54 54 55 74 56
REMARK SMILES IDX 55 57 58 58 73 59 93 60 56 61 57 62 72 64 94 65 59 66 42 67
REMARK SMILES IDX 43 68 52 69 44 70 45 71 51 72 53 73 46 74 47 75 48 76 49 77
REMARK SMILES IDX 50 78 76 79 77 80 86 81 78 82 79 83 85 84 87 85 80 86 81 87
REMARK SMILES IDX 82 88 83 89 84 90 60 91 61 92 70 93 62 94 63 95 69 96 71 97
REMARK SMILES IDX 64 98 65 99 66 100 67 101 68 102
REMARK H PARENT 26 5 30 33 92 52 58 63
REMARK Flexibility Score: inf
ROOT
ATOM      1  C   UNL A   1      40.677  22.030  27.629  1.00  0.00     0.117 C 
ENDROOT
BRANCH   1   2
ATOM      2  N   UNL A   1      39.266  22.083  26.062  1.00  0.00    -0.353 N 
ATOM      3  O   UNL A   1      38.080  20.269  24.908  1.00  0.00    -0.271 OA
ATOM      4  C   UNL A   1      38.214  21.444  25.237  1.00  0.00     0.257 C 
ATOM      5  H   UNL A   1      39.347  22.991  25.691  1.00  0.00     0.163 HD
BRANCH   4   6
ATOM      6  C   UNL A   1      37.152  22.456  24.781  1.00  0.00     0.329 C 
BRANCH   6   7
ATOM      7  O   UNL A   1      36.103  21.911  24.006  1.00  0.00    -0.483 OA
BRANCH   7   8
ATOM      8  C   UNL A   1      34.834  21.918  24.543  1.00  0.00     0.127 A 
ATOM      9  C   UNL A   1      34.775  21.255  25.774  1.00  0.00     0.047 A 
ATOM     10  C   UNL A   1      33.633  22.279  23.879  1.00  0.00     0.018 A 
ATOM     11  C   UNL A   1      33.550  20.918  26.342  1.00  0.00     0.004 A 
ATOM     12  C   UNL A   1      32.408  21.925  24.467  1.00  0.00     0.012 A 
ATOM     13  C   UNL A   1      32.368  21.237  25.680  1.00  0.00     0.001 A 
BRANCH  10  14
ATOM     14  C   UNL A   1      33.546  22.882  22.543  1.00  0.00     0.033 C 
ATOM     15  C   UNL A   1      33.682  24.213  22.427  1.00  0.00     0.084 C 
ATOM     16  S   UNL A   1      32.450  25.209  20.782  1.00  0.00    -0.022 SA
ATOM     17  C   UNL A   1      33.784  25.366  24.023  1.00  0.00     0.272 C 
ATOM     18  C   UNL A   1      31.809  26.956  22.211  1.00  0.00     0.298 C 
ATOM     19  N   UNL A   1      32.727  26.824  23.770  1.00  0.00    -0.236 N 
ATOM     20  O   UNL A   1      34.508  25.147  24.982  1.00  0.00    -0.268 OA
ATOM     21  O   UNL A   1      30.981  27.772  21.842  1.00  0.00    -0.260 OA
BRANCH  19  22
ATOM     22  C   UNL A   1      32.590  27.777  24.826  1.00  0.00     0.053 A 
ATOM     23  C   UNL A   1      31.694  27.529  25.878  1.00  0.00     0.030 A 
ATOM     24  C   UNL A   1      33.320  28.969  24.837  1.00  0.00     0.030 A 
ATOM     25  C   UNL A   1      31.516  28.453  26.910  1.00  0.00     0.041 A 
ATOM     26  C   UNL A   1      33.128  29.905  25.864  1.00  0.00     0.041 A 
ATOM     27  C   UNL A   1      32.227  29.639  26.889  1.00  0.00     0.123 A 
ATOM     28  F   UNL A   1      32.042  30.537  27.864  1.00  0.00    -0.207 F 
ENDBRANCH  19  22
ENDBRANCH  10  14
ENDBRANCH   7   8
ENDBRANCH   6   7
ENDBRANCH   4   6
ENDBRANCH   1   2
BRANCH   1  29
ATOM     29  C   UNL A   1      42.369  22.085  27.610  1.00  0.00     0.042 C 
BRANCH  29  30
ATOM     30  C   UNL A   1      43.020  23.350  27.064  1.00  0.00     0.118 C 
BRANCH  30  31
ATOM     31  N   UNL A   1      42.331  23.982  25.948  1.00  0.00    -0.352 N 
ATOM     32  C   UNL A   1      41.708  25.215  25.987  1.00  0.00     0.251 C 
ATOM     33  H   UNL A   1      42.306  23.490  25.096  1.00  0.00     0.163 HD
ATOM     34  O   UNL A   1      41.113  25.661  25.016  1.00  0.00    -0.269 OA
BRANCH  32  35
ATOM     35  C   UNL A   1      41.730  25.934  27.277  1.00  0.00     0.039 A 
ATOM     36  C   UNL A   1      42.661  26.956  27.459  1.00  0.00     0.014 A 
ATOM     37  C   UNL A   1      40.695  25.730  28.191  1.00  0.00     0.014 A 
ATOM     38  C   UNL A   1      42.508  27.832  28.534  1.00  0.00     0.010 A 
ATOM     39  C   UNL A   1      40.495  26.656  29.206  1.00  0.00     0.010 A 
ATOM     40  C   UNL A   1      41.401  27.715  29.391  1.00  0.00    -0.014 A 
BRANCH  40  41
ATOM     41  C   UNL A   1      41.184  28.665  30.511  1.00  0.00     0.031 A 
ATOM     42  C   UNL A   1      42.048  28.558  31.738  1.00  0.00     0.074 A 
ATOM     43  C   UNL A   1      40.188  29.573  30.456  1.00  0.00     0.049 A 
ATOM     44  N   UNL A   1      41.975  29.221  32.862  1.00  0.00    -0.248 NA
ATOM     45  C   UNL A   1      43.117  27.545  31.707  1.00  0.00     0.031 C 
ATOM     46  C   UNL A   1      39.256  29.745  29.340  1.00  0.00     0.029 A 
ATOM     47  N   UNL A   1      39.783  30.515  31.370  1.00  0.00    -0.354 N 
ATOM     48  C   UNL A   1      42.971  28.693  33.674  1.00  0.00     0.074 A 
ATOM     49  C   UNL A   1      43.593  27.615  32.940  1.00  0.00     0.031 C 
ATOM     50  C   UNL A   1      38.406  30.746  29.625  1.00  0.00     0.029 A 
ATOM     51  C   UNL A   1      38.703  31.260  30.958  1.00  0.00     0.049 A 
ATOM     52  H   UNL A   1      40.226  30.645  32.240  1.00  0.00     0.167 HD
ATOM     53  C   UNL A   1      43.353  29.091  34.909  1.00  0.00     0.037 A 
ATOM     54  C   UNL A   1      38.026  32.242  31.589  1.00  0.00     0.037 A 
ATOM     55  C   UNL A   1      42.752  30.187  35.618  1.00  0.00     0.049 A 
ATOM     56  C   UNL A   1      38.468  32.667  32.966  1.00  0.00     0.074 A 
ATOM     57  C   UNL A   1      43.099  30.704  36.853  1.00  0.00     0.029 A 
ATOM     58  N   UNL A   1      41.680  30.936  35.154  1.00  0.00    -0.354 N 
ATOM     59  N   UNL A   1      39.451  32.197  33.697  1.00  0.00    -0.248 NA
ATOM     60  C   UNL A   1      37.717  33.758  33.603  1.00  0.00     0.031 C 
ATOM     61  C   UNL A   1      42.210  31.740  37.155  1.00  0.00     0.029 A 
ATOM     62  C   UNL A   1      41.344  31.904  36.085  1.00  0.00     0.049 A 
ATOM     63  H   UNL A   1      41.228  30.800  34.291  1.00  0.00     0.167 HD
ATOM     64  C   UNL A   1      39.460  32.959  34.860  1.00  0.00     0.074 A 
ATOM     65  C   UNL A   1      38.385  33.920  34.737  1.00  0.00     0.031 C 
ATOM     66  C   UNL A   1      40.288  32.873  35.930  1.00  0.00     0.037 A 
BRANCH  53  67
ATOM     67  C   UNL A   1      44.476  28.337  35.565  1.00  0.00     0.058 A 
ATOM     68  C   UNL A   1      44.240  27.189  36.339  1.00  0.00     0.135 A 
ATOM     69  C   UNL A   1      45.807  28.754  35.401  1.00  0.00     0.135 A 
ATOM     70  F   UNL A   1      42.986  26.758  36.545  1.00  0.00    -0.206 F 
ATOM     71  C   UNL A   1      45.280  26.501  36.955  1.00  0.00     0.059 A 
ATOM     72  C   UNL A   1      46.866  28.062  35.982  1.00  0.00     0.059 A 
ATOM     73  F   UNL A   1      46.089  29.846  34.674  1.00  0.00    -0.206 F 
ATOM     74  C   UNL A   1      46.590  26.946  36.770  1.00  0.00     0.060 A 
BRANCH  74  75
ATOM     75  S   UNL A   1      47.927  26.039  37.573  1.00  0.00     0.124 S 
ATOM     76  O   UNL A   1      48.151  26.846  38.767  1.00  0.00    -0.237 OA
ATOM     77  O   UNL A   1      47.324  24.729  37.798  1.00  0.00    -0.237 OA
ATOM     78  O   UNL A   1      49.001  26.069  36.585  1.00  0.00    -0.744 OA
ENDBRANCH  74  75
ENDBRANCH  53  67
BRANCH  54  79
ATOM     79  C   UNL A   1      36.876  32.910  30.918  1.00  0.00     0.058 A 
ATOM     80  C   UNL A   1      35.554  32.555  31.224  1.00  0.00     0.135 A 
ATOM     81  C   UNL A   1      37.073  33.918  29.961  1.00  0.00     0.135 A 
ATOM     82  F   UNL A   1      35.311  31.592  32.127  1.00  0.00    -0.206 F 
ATOM     83  C   UNL A   1      34.469  33.160  30.597  1.00  0.00     0.059 A 
ATOM     84  C   UNL A   1      36.004  34.556  29.338  1.00  0.00     0.059 A 
ATOM     85  F   UNL A   1      38.317  34.306  29.639  1.00  0.00    -0.206 F 
ATOM     86  C   UNL A   1      34.705  34.164  29.656  1.00  0.00     0.060 A 
BRANCH  86  87
ATOM     87  S   UNL A   1      33.288  34.973  28.881  1.00  0.00     0.124 S 
ATOM     88  O   UNL A   1      32.463  35.294  30.039  1.00  0.00    -0.237 OA
ATOM     89  O   UNL A   1      33.914  36.109  28.210  1.00  0.00    -0.237 OA
ATOM     90  O   UNL A   1      32.758  33.944  27.993  1.00  0.00    -0.744 OA
ENDBRANCH  86  87
ENDBRANCH  54  79
BRANCH  66  91
ATOM     91  C   UNL A   1      40.115  33.876  37.037  1.00  0.00     0.058 A 
ATOM     92  C   UNL A   1      40.864  35.060  37.087  1.00  0.00     0.135 A 
ATOM     93  C   UNL A   1      39.107  33.693  37.999  1.00  0.00     0.135 A 
ATOM     94  F   UNL A   1      41.842  35.281  36.193  1.00  0.00    -0.206 F 
ATOM     95  C   UNL A   1      40.623  36.029  38.056  1.00  0.00     0.059 A 
ATOM     96  C   UNL A   1      38.833  34.659  38.960  1.00  0.00     0.059 A 
ATOM     97  F   UNL A   1      38.356  32.581  37.988  1.00  0.00    -0.206 F 
ATOM     98  C   UNL A   1      39.599  35.823  38.983  1.00  0.00     0.060 A 
BRANCH  98  99
ATOM     99  S   UNL A   1      39.249  37.121  40.188  1.00  0.00     0.124 S 
ATOM    100  O   UNL A   1      40.593  37.558  40.549  1.00  0.00    -0.237 OA
ATOM    101  O   UNL A   1      38.462  38.069  39.406  1.00  0.00    -0.237 OA
ATOM    102  O   UNL A   1      38.514  36.421  41.238  1.00  0.00    -0.744 OA
ENDBRANCH  98  99
ENDBRANCH  66  91
ENDBRANCH  40  41
ENDBRANCH  32  35
ENDBRANCH  30  31
ENDBRANCH  29  30
ENDBRANCH   1  29
TORSDOF 17
ENDMDL
MODEL 3
REMARK VINA RESULT:     -12.7      2.359      3.138
REMARK SMILES O=C(COc1ccccc1/C=C1/SC(=O)N(c2ccc(F)cc2)C1=O)NCCCNC(=O)c1ccc(-c2c3nc(c(-c4c(F)cc(S(=O)(=O)[O-])cc4F)c4ccc([nH]4)c(-c4c(F)cc(S(=O)(=O)[O-])cc4F)c4nc(c(-c5c(F)cc(S(=O)(=O)[O-])cc5F)c5ccc2[nH]5)C=C4)C=C3)cc1
REMARK SMILES IDX 27 1 26 2 1 3 2 4 3 6 4 7 5 8 6 9 10 10 7 11 9 12 8 13 11 14
REMARK SMILES IDX 12 15 13 16 24 17 14 18 16 19 25 20 15 21 17 22 18 23 23 24
REMARK SMILES IDX 19 25 22 26 20 27 21 28 28 29 29 30 30 31 31 32 32 34 33 35
REMARK SMILES IDX 34 36 98 37 35 38 97 39 36 40 37 41 38 42 91 43 39 44 96 45
REMARK SMILES IDX 90 46 92 47 40 48 95 49 89 50 88 51 41 53 75 54 54 55 74 56
REMARK SMILES IDX 55 57 58 58 73 59 93 60 56 61 57 62 72 64 94 65 59 66 42 67
REMARK SMILES IDX 43 68 52 69 44 70 45 71 51 72 53 73 46 74 47 75 48 76 49 77
REMARK SMILES IDX 50 78 76 79 77 80 86 81 78 82 79 83 85 84 87 85 80 86 81 87
REMARK SMILES IDX 82 88 83 89 84 90 60 91 61 92 70 93 62 94 63 95 69 96 71 97
REMARK SMILES IDX 64 98 65 99 66 100 67 101 68 102
REMARK H PARENT 26 5 30 33 92 52 58 63
REMARK Flexibility Score: inf
ROOT
ATOM      1  C   UNL A   1      34.147  28.507  26.588  1.00  0.00     0.117 C 
ENDROOT
BRANCH   1   2
ATOM      2  N   UNL A   1      33.065  28.307  24.787  1.00  0.00    -0.353 N 
ATOM      3  O   UNL A   1      33.782  28.533  22.451  1.00  0.00    -0.271 OA
ATOM      4  C   UNL A   1      33.008  28.138  23.316  1.00  0.00     0.257 C 
ATOM      5  H   UNL A   1      32.121  28.344  25.065  1.00  0.00     0.163 HD
BRANCH   4   6
ATOM      6  C   UNL A   1      31.786  27.314  22.884  1.00  0.00     0.329 C 
BRANCH   6   7
ATOM      7  O   UNL A   1      31.989  25.915  22.860  1.00  0.00    -0.483 OA
BRANCH   7   8
ATOM      8  C   UNL A   1      31.893  25.228  24.050  1.00  0.00     0.127 A 
ATOM      9  C   UNL A   1      30.635  25.372  24.645  1.00  0.00     0.047 A 
ATOM     10  C   UNL A   1      32.960  24.656  24.789  1.00  0.00     0.018 A 
ATOM     11  C   UNL A   1      30.424  24.987  25.966  1.00  0.00     0.004 A 
ATOM     12  C   UNL A   1      32.729  24.280  26.121  1.00  0.00     0.012 A 
ATOM     13  C   UNL A   1      31.475  24.458  26.709  1.00  0.00     0.001 A 
BRANCH  10  14
ATOM     14  C   UNL A   1      34.350  24.540  24.328  1.00  0.00     0.033 C 
ATOM     15  C   UNL A   1      34.767  23.364  23.832  1.00  0.00     0.084 C 
ATOM     16  S   UNL A   1      36.947  22.819  24.237  1.00  0.00    -0.022 SA
ATOM     17  C   UNL A   1      33.618  21.764  23.908  1.00  0.00     0.272 C 
ATOM     18  C   UNL A   1      36.373  20.615  24.800  1.00  0.00     0.298 C 
ATOM     19  N   UNL A   1      34.617  20.341  24.439  1.00  0.00    -0.236 N 
ATOM     20  O   UNL A   1      32.443  21.747  23.574  1.00  0.00    -0.268 OA
ATOM     21  O   UNL A   1      37.220  19.861  25.249  1.00  0.00    -0.260 OA
BRANCH  19  22
ATOM     22  C   UNL A   1      33.981  19.076  24.631  1.00  0.00     0.053 A 
ATOM     23  C   UNL A   1      33.062  18.907  25.679  1.00  0.00     0.030 A 
ATOM     24  C   UNL A   1      34.259  17.983  23.803  1.00  0.00     0.030 A 
ATOM     25  C   UNL A   1      32.446  17.675  25.910  1.00  0.00     0.041 A 
ATOM     26  C   UNL A   1      33.654  16.742  24.047  1.00  0.00     0.041 A 
ATOM     27  C   UNL A   1      32.755  16.599  25.098  1.00  0.00     0.123 A 
ATOM     28  F   UNL A   1      32.183  15.412  25.330  1.00  0.00    -0.207 F 
ENDBRANCH  19  22
ENDBRANCH  10  14
ENDBRANCH   7   8
ENDBRANCH   6   7
ENDBRANCH   4   6
ENDBRANCH   1   2
BRANCH   1  29
ATOM     29  C   UNL A   1      34.985  29.822  27.246  1.00  0.00     0.042 C 
BRANCH  29  30
ATOM     30  C   UNL A   1      35.924  29.538  28.413  1.00  0.00     0.118 C 
BRANCH  30  31
ATOM     31  N   UNL A   1      35.549  30.137  29.685  1.00  0.00    -0.352 N 
ATOM     32  C   UNL A   1      36.430  30.628  30.629  1.00  0.00     0.251 C 
ATOM     33  H   UNL A   1      34.587  30.198  29.890  1.00  0.00     0.163 HD
ATOM     34  O   UNL A   1      36.037  31.081  31.696  1.00  0.00    -0.269 OA
BRANCH  32  35
ATOM     35  C   UNL A   1      37.870  30.510  30.323  1.00  0.00     0.039 A 
ATOM     36  C   UNL A   1      38.702  29.877  31.246  1.00  0.00     0.014 A 
ATOM     37  C   UNL A   1      38.326  30.831  29.044  1.00  0.00     0.014 A 
ATOM     38  C   UNL A   1      39.985  29.495  30.856  1.00  0.00     0.010 A 
ATOM     39  C   UNL A   1      39.569  30.371  28.632  1.00  0.00     0.010 A 
ATOM     40  C   UNL A   1      40.414  29.700  29.534  1.00  0.00    -0.014 A 
BRANCH  40  41
ATOM     41  C   UNL A   1      41.755  29.256  29.076  1.00  0.00     0.031 A 
ATOM     42  C   UNL A   1      42.872  30.261  29.003  1.00  0.00     0.074 A 
ATOM     43  C   UNL A   1      41.955  27.985  28.673  1.00  0.00     0.049 A 
ATOM     44  N   UNL A   1      44.089  30.113  28.551  1.00  0.00    -0.248 NA
ATOM     45  C   UNL A   1      42.566  31.624  29.471  1.00  0.00     0.031 C 
ATOM     46  C   UNL A   1      40.939  26.929  28.657  1.00  0.00     0.029 A 
ATOM     47  N   UNL A   1      43.080  27.365  28.187  1.00  0.00    -0.354 N 
ATOM     48  C   UNL A   1      44.684  31.364  28.662  1.00  0.00     0.074 A 
ATOM     49  C   UNL A   1      43.679  32.272  29.164  1.00  0.00     0.031 C 
ATOM     50  C   UNL A   1      41.494  25.791  28.207  1.00  0.00     0.029 A 
ATOM     51  C   UNL A   1      42.890  26.041  27.865  1.00  0.00     0.049 A 
ATOM     52  H   UNL A   1      43.943  27.826  28.079  1.00  0.00     0.167 HD
ATOM     53  C   UNL A   1      45.963  31.718  28.397  1.00  0.00     0.037 A 
ATOM     54  C   UNL A   1      43.745  25.137  27.346  1.00  0.00     0.037 A 
ATOM     55  C   UNL A   1      46.967  30.800  27.931  1.00  0.00     0.049 A 
ATOM     56  C   UNL A   1      45.165  25.553  27.056  1.00  0.00     0.074 A 
ATOM     57  C   UNL A   1      48.305  31.045  27.682  1.00  0.00     0.029 A 
ATOM     58  N   UNL A   1      46.742  29.461  27.645  1.00  0.00    -0.354 N 
ATOM     59  N   UNL A   1      45.729  26.726  27.223  1.00  0.00    -0.248 NA
ATOM     60  C   UNL A   1      46.067  24.527  26.516  1.00  0.00     0.031 C 
ATOM     61  C   UNL A   1      48.881  29.864  27.205  1.00  0.00     0.029 A 
ATOM     62  C   UNL A   1      47.915  28.870  27.209  1.00  0.00     0.049 A 
ATOM     63  H   UNL A   1      45.878  29.001  27.740  1.00  0.00     0.167 HD
ATOM     64  C   UNL A   1      47.058  26.569  26.845  1.00  0.00     0.074 A 
ATOM     65  C   UNL A   1      47.215  25.188  26.441  1.00  0.00     0.031 C 
ATOM     66  C   UNL A   1      48.058  27.484  26.840  1.00  0.00     0.037 A 
BRANCH  53  67
ATOM     67  C   UNL A   1      46.345  33.155  28.613  1.00  0.00     0.058 A 
ATOM     68  C   UNL A   1      46.822  33.613  29.852  1.00  0.00     0.135 A 
ATOM     69  C   UNL A   1      46.254  34.083  27.563  1.00  0.00     0.135 A 
ATOM     70  F   UNL A   1      46.910  32.774  30.895  1.00  0.00    -0.206 F 
ATOM     71  C   UNL A   1      47.163  34.946  30.052  1.00  0.00     0.059 A 
ATOM     72  C   UNL A   1      46.620  35.415  27.732  1.00  0.00     0.059 A 
ATOM     73  F   UNL A   1      45.803  33.700  26.358  1.00  0.00    -0.206 F 
ATOM     74  C   UNL A   1      47.058  35.840  28.985  1.00  0.00     0.060 A 
BRANCH  74  75
ATOM     75  S   UNL A   1      47.509  37.565  29.262  1.00  0.00     0.124 S 
ATOM     76  O   UNL A   1      48.018  37.518  30.628  1.00  0.00    -0.237 OA
ATOM     77  O   UNL A   1      48.506  37.797  28.221  1.00  0.00    -0.237 OA
ATOM     78  O   UNL A   1      46.248  38.279  29.086  1.00  0.00    -0.744 OA
ENDBRANCH  74  75
ENDBRANCH  53  67
BRANCH  54  79
ATOM     79  C   UNL A   1      43.294  23.741  27.088  1.00  0.00     0.058 A 
ATOM     80  C   UNL A   1      43.003  23.303  25.788  1.00  0.00     0.135 A 
ATOM     81  C   UNL A   1      43.148  22.815  28.134  1.00  0.00     0.135 A 
ATOM     82  F   UNL A   1      43.119  24.150  24.754  1.00  0.00    -0.206 F 
ATOM     83  C   UNL A   1      42.568  22.005  25.533  1.00  0.00     0.059 A 
ATOM     84  C   UNL A   1      42.739  21.505  27.902  1.00  0.00     0.059 A 
ATOM     85  F   UNL A   1      43.426  23.177  29.396  1.00  0.00    -0.206 F 
ATOM     86  C   UNL A   1      42.442  21.112  26.598  1.00  0.00     0.060 A 
BRANCH  86  87
ATOM     87  S   UNL A   1      41.920  19.418  26.249  1.00  0.00     0.124 S 
ATOM     88  O   UNL A   1      42.347  18.723  27.457  1.00  0.00    -0.237 OA
ATOM     89  O   UNL A   1      40.478  19.572  26.077  1.00  0.00    -0.237 OA
ATOM     90  O   UNL A   1      42.656  19.084  25.033  1.00  0.00    -0.744 OA
ENDBRANCH  86  87
ENDBRANCH  54  79
BRANCH  66  91
ATOM     91  C   UNL A   1      49.433  27.022  26.441  1.00  0.00     0.058 A 
ATOM     92  C   UNL A   1      50.309  26.426  27.359  1.00  0.00     0.135 A 
ATOM     93  C   UNL A   1      49.830  27.083  25.095  1.00  0.00     0.135 A 
ATOM     94  F   UNL A   1      49.979  26.348  28.658  1.00  0.00    -0.206 F 
ATOM     95  C   UNL A   1      51.537  25.910  26.957  1.00  0.00     0.059 A 
ATOM     96  C   UNL A   1      51.040  26.549  24.667  1.00  0.00     0.059 A 
ATOM     97  F   UNL A   1      49.022  27.634  24.175  1.00  0.00    -0.206 F 
ATOM     98  C   UNL A   1      51.889  25.967  25.608  1.00  0.00     0.060 A 
BRANCH  98  99
ATOM     99  S   UNL A   1      53.452  25.227  25.089  1.00  0.00     0.124 S 
ATOM    100  O   UNL A   1      54.401  25.885  25.980  1.00  0.00    -0.237 OA
ATOM    101  O   UNL A   1      53.223  23.807  25.341  1.00  0.00    -0.237 OA
ATOM    102  O   UNL A   1      53.554  25.598  23.680  1.00  0.00    -0.744 OA
ENDBRANCH  98  99
ENDBRANCH  66  91
ENDBRANCH  40  41
ENDBRANCH  32  35
ENDBRANCH  30  31
ENDBRANCH  29  30
ENDBRANCH   1  29
TORSDOF 17
ENDMDL
