MODEL 1
REMARK VINA RESULT:     -13.9      0.000      0.000
REMARK SMILES COC(=O)c1c(NC(=O)[C@@H]2[C@H]3CC[C@H](CC3)[C@H]2C(=O)NCCCNC(=O)c2ccc(-c3c4nc(c(-c5c(F)cc(S(=O)(=O)[O-])cc5F)c5ccc([nH]5)c(-c5c(F)cc(S(=O)(=O)[O-])cc5F)c5nc(c(-c6c(F)cc(S(=O)(=O)[O-])cc6F)c6ccc3[nH]6)C=C5)C=C4)cc2)sc(C)c1-c1ccc(C)cc1
REMARK SMILES IDX 21 1 20 2 18 3 19 4 17 6 10 7 11 8 16 9 12 10 14 11 15 12
REMARK SMILES IDX 13 13 8 14 7 15 9 17 6 18 5 19 96 20 93 21 94 22 95 23 3 24
REMARK SMILES IDX 4 25 2 26 1 27 97 28 98 29 103 30 99 31 102 32 100 33 101 34
REMARK SMILES IDX 22 35 23 36 24 37 25 38 26 40 27 41 28 42 92 43 29 44 91 45
REMARK SMILES IDX 30 46 31 47 32 48 85 49 33 50 90 51 84 52 86 53 34 54 89 55
REMARK SMILES IDX 83 56 82 57 35 59 69 60 48 61 68 62 49 63 52 64 67 65 87 66
REMARK SMILES IDX 50 67 51 68 66 70 88 71 53 72 36 73 37 74 46 75 38 76 39 77
REMARK SMILES IDX 45 78 47 79 40 80 41 81 42 82 43 83 44 84 70 85 71 86 80 87
REMARK SMILES IDX 72 88 73 89 79 90 81 91 74 92 75 93 76 94 77 95 78 96 54 97
REMARK SMILES IDX 55 98 64 99 56 100 57 101 63 102 65 103 58 104 59 105 60 106
REMARK SMILES IDX 61 107 62 108
REMARK H PARENT 20 5 7 16 24 39 86 58 52 69
REMARK Flexibility Score: inf
ROOT
ATOM      1  C   UNL A   1      33.638  29.285  26.278  1.00  0.00     0.117 C 
ENDROOT
BRANCH   1   2
ATOM      2  N   UNL A   1      34.027  29.240  24.895  1.00  0.00    -0.356 N 
ATOM      3  C   UNL A   1      33.425  28.643  23.846  1.00  0.00     0.224 C 
ATOM      4  O   UNL A   1      33.854  28.989  22.738  1.00  0.00    -0.275 OA
ATOM      5  H   UNL A   1      34.861  29.718  24.682  1.00  0.00     0.163 HD
BRANCH   3   6
ATOM      6  C   UNL A   1      32.316  27.585  23.953  1.00  0.00     0.094 C 
ATOM      7  C   UNL A   1      31.303  27.795  25.080  1.00  0.00     0.094 C 
ATOM      8  C   UNL A   1      29.896  27.349  24.555  1.00  0.00     0.002 C 
ATOM      9  C   UNL A   1      29.501  28.141  23.284  1.00  0.00     0.005 C 
ATOM     10  C   UNL A   1      29.934  25.870  24.132  1.00  0.00     0.005 C 
ATOM     11  C   UNL A   1      31.660  27.023  22.670  1.00  0.00     0.002 C 
ATOM     12  C   UNL A   1      30.503  27.875  22.150  1.00  0.00     0.005 C 
ATOM     13  C   UNL A   1      31.020  25.658  23.062  1.00  0.00     0.005 C 
BRANCH   7  14
ATOM     14  C   UNL A   1      31.537  27.201  26.511  1.00  0.00     0.229 C 
ATOM     15  N   UNL A   1      31.899  25.927  26.861  1.00  0.00    -0.317 N 
ATOM     16  H   UNL A   1      31.554  25.652  27.741  1.00  0.00     0.170 HD
ATOM     17  O   UNL A   1      31.136  27.897  27.463  1.00  0.00    -0.274 OA
BRANCH  15  18
ATOM     18  C   UNL A   1      32.648  24.954  26.239  1.00  0.00     0.111 A 
ATOM     19  C   UNL A   1      32.736  23.577  26.437  1.00  0.00     0.102 A 
ATOM     20  C   UNL A   1      33.444  22.982  25.304  1.00  0.00     0.012 A 
ATOM     21  S   UNL A   1      34.138  25.374  25.506  1.00  0.00    -0.122 S 
ATOM     22  C   UNL A   1      33.968  23.989  24.501  1.00  0.00     0.012 A 
ATOM     23  C   UNL A   1      34.439  24.021  23.088  1.00  0.00     0.057 C 
BRANCH  19  24
ATOM     24  C   UNL A   1      32.168  22.902  27.596  1.00  0.00     0.341 C 
ATOM     25  O   UNL A   1      32.822  22.220  28.368  1.00  0.00    -0.246 OA
BRANCH  24  26
ATOM     26  O   UNL A   1      30.808  23.015  27.626  1.00  0.00    -0.465 OA
ATOM     27  C   UNL A   1      30.136  22.703  26.408  1.00  0.00     0.282 C 
ENDBRANCH  24  26
ENDBRANCH  19  24
BRANCH  20  28
ATOM     28  C   UNL A   1      33.644  21.575  24.964  1.00  0.00    -0.016 A 
ATOM     29  C   UNL A   1      32.643  20.803  24.370  1.00  0.00     0.009 A 
ATOM     30  C   UNL A   1      34.871  20.971  25.276  1.00  0.00     0.009 A 
ATOM     31  C   UNL A   1      32.867  19.444  24.108  1.00  0.00     0.004 A 
ATOM     32  C   UNL A   1      35.101  19.625  24.998  1.00  0.00     0.004 A 
ATOM     33  C   UNL A   1      34.097  18.847  24.418  1.00  0.00    -0.051 A 
ATOM     34  C   UNL A   1      34.320  17.382  24.186  1.00  0.00     0.044 C 
ENDBRANCH  20  28
ENDBRANCH  15  18
ENDBRANCH   7  14
ENDBRANCH   3   6
ENDBRANCH   1   2
BRANCH   1  35
ATOM     35  C   UNL A   1      34.771  29.074  27.257  1.00  0.00     0.042 C 
BRANCH  35  36
ATOM     36  C   UNL A   1      35.397  30.366  27.753  1.00  0.00     0.118 C 
BRANCH  36  37
ATOM     37  N   UNL A   1      35.353  30.496  29.206  1.00  0.00    -0.352 N 
ATOM     38  C   UNL A   1      36.290  30.216  30.173  1.00  0.00     0.251 C 
ATOM     39  H   UNL A   1      34.503  30.847  29.556  1.00  0.00     0.163 HD
ATOM     40  O   UNL A   1      35.943  30.189  31.352  1.00  0.00    -0.269 OA
BRANCH  38  41
ATOM     41  C   UNL A   1      37.693  29.922  29.808  1.00  0.00     0.039 A 
ATOM     42  C   UNL A   1      38.574  29.447  30.785  1.00  0.00     0.014 A 
ATOM     43  C   UNL A   1      38.155  30.133  28.511  1.00  0.00     0.014 A 
ATOM     44  C   UNL A   1      39.885  29.113  30.433  1.00  0.00     0.010 A 
ATOM     45  C   UNL A   1      39.405  29.668  28.132  1.00  0.00     0.010 A 
ATOM     46  C   UNL A   1      40.298  29.175  29.092  1.00  0.00    -0.014 A 
BRANCH  46  47
ATOM     47  C   UNL A   1      41.661  28.768  28.665  1.00  0.00     0.031 A 
ATOM     48  C   UNL A   1      42.765  29.795  28.595  1.00  0.00     0.074 A 
ATOM     49  C   UNL A   1      41.884  27.503  28.257  1.00  0.00     0.049 A 
ATOM     50  N   UNL A   1      43.984  29.670  28.139  1.00  0.00    -0.248 NA
ATOM     51  C   UNL A   1      42.439  31.158  29.049  1.00  0.00     0.031 C 
ATOM     52  C   UNL A   1      40.877  26.439  28.194  1.00  0.00     0.029 A 
ATOM     53  N   UNL A   1      43.029  26.897  27.808  1.00  0.00    -0.354 N 
ATOM     54  C   UNL A   1      44.548  30.940  28.210  1.00  0.00     0.074 A 
ATOM     55  C   UNL A   1      43.521  31.833  28.693  1.00  0.00     0.031 C 
ATOM     56  C   UNL A   1      41.459  25.305  27.775  1.00  0.00     0.029 A 
ATOM     57  C   UNL A   1      42.868  25.565  27.507  1.00  0.00     0.049 A 
ATOM     58  H   UNL A   1      43.886  27.370  27.711  1.00  0.00     0.167 HD
ATOM     59  C   UNL A   1      45.817  31.323  27.934  1.00  0.00     0.037 A 
ATOM     60  C   UNL A   1      43.760  24.656  27.071  1.00  0.00     0.037 A 
ATOM     61  C   UNL A   1      46.855  30.412  27.529  1.00  0.00     0.049 A 
ATOM     62  C   UNL A   1      45.186  25.083  26.861  1.00  0.00     0.074 A 
ATOM     63  C   UNL A   1      48.195  30.674  27.306  1.00  0.00     0.029 A 
ATOM     64  N   UNL A   1      46.668  29.056  27.306  1.00  0.00    -0.354 N 
ATOM     65  N   UNL A   1      45.715  26.277  26.989  1.00  0.00    -0.248 NA
ATOM     66  C   UNL A   1      46.138  24.039  26.461  1.00  0.00     0.031 C 
ATOM     67  C   UNL A   1      48.815  29.475  26.932  1.00  0.00     0.029 A 
ATOM     68  C   UNL A   1      47.867  28.465  26.951  1.00  0.00     0.049 A 
ATOM     69  H   UNL A   1      45.808  28.583  27.389  1.00  0.00     0.167 HD
ATOM     70  C   UNL A   1      47.066  26.125  26.701  1.00  0.00     0.074 A 
ATOM     71  C   UNL A   1      47.275  24.720  26.413  1.00  0.00     0.031 C 
ATOM     72  C   UNL A   1      48.046  27.063  26.671  1.00  0.00     0.037 A 
BRANCH  59  73
ATOM     73  C   UNL A   1      46.155  32.780  28.093  1.00  0.00     0.058 A 
ATOM     74  C   UNL A   1      46.034  33.684  27.024  1.00  0.00     0.135 A 
ATOM     75  C   UNL A   1      46.598  33.283  29.327  1.00  0.00     0.135 A 
ATOM     76  F   UNL A   1      45.634  33.254  25.817  1.00  0.00    -0.206 F 
ATOM     77  C   UNL A   1      46.373  35.027  27.163  1.00  0.00     0.059 A 
ATOM     78  C   UNL A   1      46.916  34.629  29.495  1.00  0.00     0.059 A 
ATOM     79  F   UNL A   1      46.733  32.465  30.381  1.00  0.00    -0.206 F 
ATOM     80  C   UNL A   1      46.817  35.488  28.402  1.00  0.00     0.060 A 
BRANCH  80  81
ATOM     81  S   UNL A   1      47.256  37.232  28.566  1.00  0.00     0.124 S 
ATOM     82  O   UNL A   1      46.069  37.883  28.024  1.00  0.00    -0.237 OA
ATOM     83  O   UNL A   1      47.454  37.373  30.005  1.00  0.00    -0.237 OA
ATOM     84  O   UNL A   1      48.465  37.355  27.758  1.00  0.00    -0.744 OA
ENDBRANCH  80  81
ENDBRANCH  59  73
BRANCH  60  85
ATOM     85  C   UNL A   1      43.343  23.245  26.861  1.00  0.00     0.058 A 
ATOM     86  C   UNL A   1      43.227  22.719  25.566  1.00  0.00     0.135 A 
ATOM     87  C   UNL A   1      43.078  22.389  27.941  1.00  0.00     0.135 A 
ATOM     88  F   UNL A   1      43.470  23.499  24.501  1.00  0.00    -0.206 F 
ATOM     89  C   UNL A   1      42.846  21.400  25.345  1.00  0.00     0.059 A 
ATOM     90  C   UNL A   1      42.716  21.060  27.746  1.00  0.00     0.059 A 
ATOM     91  F   UNL A   1      43.197  22.839  29.199  1.00  0.00    -0.206 F 
ATOM     92  C   UNL A   1      42.592  20.577  26.444  1.00  0.00     0.060 A 
BRANCH  92  93
ATOM     93  S   UNL A   1      42.149  18.851  26.150  1.00  0.00     0.124 S 
ATOM     94  O   UNL A   1      42.440  18.248  27.446  1.00  0.00    -0.237 OA
ATOM     95  O   UNL A   1      40.735  18.950  25.796  1.00  0.00    -0.237 OA
ATOM     96  O   UNL A   1      43.033  18.461  25.057  1.00  0.00    -0.744 OA
ENDBRANCH  92  93
ENDBRANCH  60  85
BRANCH  72  97
ATOM     97  C   UNL A   1      49.429  26.586  26.336  1.00  0.00     0.058 A 
ATOM     98  C   UNL A   1      50.263  26.019  27.311  1.00  0.00     0.135 A 
ATOM     99  C   UNL A   1      49.916  26.681  25.023  1.00  0.00     0.135 A 
ATOM    100  F   UNL A   1      49.842  25.911  28.582  1.00  0.00    -0.206 F 
ATOM    101  C   UNL A   1      51.550  25.592  27.003  1.00  0.00     0.059 A 
ATOM    102  C   UNL A   1      51.191  26.240  24.688  1.00  0.00     0.059 A 
ATOM    103  F   UNL A   1      49.150  27.205  24.054  1.00  0.00    -0.206 F 
ATOM    104  C   UNL A   1      52.007  25.714  25.690  1.00  0.00     0.060 A 
BRANCH 104 105
ATOM    105  S   UNL A   1      53.678  25.156  25.296  1.00  0.00     0.124 S 
ATOM    106  O   UNL A   1      53.859  25.702  23.955  1.00  0.00    -0.237 OA
ATOM    107  O   UNL A   1      54.475  25.779  26.348  1.00  0.00    -0.237 OA
ATOM    108  O   UNL A   1      53.575  23.702  25.374  1.00  0.00    -0.744 OA
ENDBRANCH 104 105
ENDBRANCH  72  97
ENDBRANCH  46  47
ENDBRANCH  38  41
ENDBRANCH  36  37
ENDBRANCH  35  36
ENDBRANCH   1  35
TORSDOF 18
ENDMDL
MODEL 2
REMARK VINA RESULT:     -13.6      1.402      2.363
REMARK SMILES COC(=O)c1c(NC(=O)[C@@H]2[C@H]3CC[C@H](CC3)[C@H]2C(=O)NCCCNC(=O)c2ccc(-c3c4nc(c(-c5c(F)cc(S(=O)(=O)[O-])cc5F)c5ccc([nH]5)c(-c5c(F)cc(S(=O)(=O)[O-])cc5F)c5nc(c(-c6c(F)cc(S(=O)(=O)[O-])cc6F)c6ccc3[nH]6)C=C5)C=C4)cc2)sc(C)c1-c1ccc(C)cc1
REMARK SMILES IDX 21 1 20 2 18 3 19 4 17 6 10 7 11 8 16 9 12 10 14 11 15 12
REMARK SMILES IDX 13 13 8 14 7 15 9 17 6 18 5 19 96 20 93 21 94 22 95 23 3 24
REMARK SMILES IDX 4 25 2 26 1 27 97 28 98 29 103 30 99 31 102 32 100 33 101 34
REMARK SMILES IDX 22 35 23 36 24 37 25 38 26 40 27 41 28 42 92 43 29 44 91 45
REMARK SMILES IDX 30 46 31 47 32 48 85 49 33 50 90 51 84 52 86 53 34 54 89 55
REMARK SMILES IDX 83 56 82 57 35 59 69 60 48 61 68 62 49 63 52 64 67 65 87 66
REMARK SMILES IDX 50 67 51 68 66 70 88 71 53 72 36 73 37 74 46 75 38 76 39 77
REMARK SMILES IDX 45 78 47 79 40 80 41 81 42 82 43 83 44 84 70 85 71 86 80 87
REMARK SMILES IDX 72 88 73 89 79 90 81 91 74 92 75 93 76 94 77 95 78 96 54 97
REMARK SMILES IDX 55 98 64 99 56 100 57 101 63 102 65 103 58 104 59 105 60 106
REMARK SMILES IDX 61 107 62 108
REMARK H PARENT 20 5 7 16 24 39 86 58 52 69
REMARK Flexibility Score: inf
ROOT
ATOM      1  C   UNL A   1      32.794  28.779  26.591  1.00  0.00     0.117 C 
ENDROOT
BRANCH   1   2
ATOM      2  N   UNL A   1      33.235  27.420  26.740  1.00  0.00    -0.356 N 
ATOM      3  C   UNL A   1      33.375  26.449  25.813  1.00  0.00     0.224 C 
ATOM      4  O   UNL A   1      34.014  25.460  26.193  1.00  0.00    -0.275 OA
ATOM      5  H   UNL A   1      33.471  27.157  27.659  1.00  0.00     0.163 HD
BRANCH   3   6
ATOM      6  C   UNL A   1      32.781  26.493  24.397  1.00  0.00     0.094 C 
ATOM      7  C   UNL A   1      31.319  26.932  24.302  1.00  0.00     0.094 C 
ATOM      8  C   UNL A   1      31.155  27.791  23.002  1.00  0.00     0.002 C 
ATOM      9  C   UNL A   1      32.112  29.009  23.017  1.00  0.00     0.005 C 
ATOM     10  C   UNL A   1      31.551  26.962  21.768  1.00  0.00     0.005 C 
ATOM     11  C   UNL A   1      33.633  27.025  23.220  1.00  0.00     0.002 C 
ATOM     12  C   UNL A   1      33.576  28.543  23.061  1.00  0.00     0.005 C 
ATOM     13  C   UNL A   1      32.995  26.451  21.919  1.00  0.00     0.005 C 
BRANCH   7  14
ATOM     14  C   UNL A   1      30.146  25.896  24.393  1.00  0.00     0.229 C 
ATOM     15  N   UNL A   1      30.212  24.529  24.430  1.00  0.00    -0.317 N 
ATOM     16  H   UNL A   1      29.425  24.090  24.034  1.00  0.00     0.170 HD
ATOM     17  O   UNL A   1      29.004  26.347  24.186  1.00  0.00    -0.274 OA
BRANCH  15  18
ATOM     18  C   UNL A   1      31.149  23.641  24.908  1.00  0.00     0.111 A 
ATOM     19  C   UNL A   1      32.158  22.919  24.273  1.00  0.00     0.102 A 
ATOM     20  C   UNL A   1      33.057  22.371  25.288  1.00  0.00     0.012 A 
ATOM     21  S   UNL A   1      30.817  22.746  26.330  1.00  0.00    -0.122 S 
ATOM     22  C   UNL A   1      32.514  22.578  26.551  1.00  0.00     0.012 A 
ATOM     23  C   UNL A   1      33.099  22.580  27.921  1.00  0.00     0.057 C 
BRANCH  19  24
ATOM     24  C   UNL A   1      32.255  22.794  22.825  1.00  0.00     0.341 C 
ATOM     25  O   UNL A   1      32.881  23.569  22.120  1.00  0.00    -0.246 OA
BRANCH  24  26
ATOM     26  O   UNL A   1      31.452  21.797  22.352  1.00  0.00    -0.465 OA
ATOM     27  C   UNL A   1      32.052  20.506  22.271  1.00  0.00     0.282 C 
ENDBRANCH  24  26
ENDBRANCH  19  24
BRANCH  20  28
ATOM     28  C   UNL A   1      34.340  21.690  25.128  1.00  0.00    -0.016 A 
ATOM     29  C   UNL A   1      34.436  20.303  24.993  1.00  0.00     0.009 A 
ATOM     30  C   UNL A   1      35.517  22.453  25.145  1.00  0.00     0.009 A 
ATOM     31  C   UNL A   1      35.694  19.692  24.891  1.00  0.00     0.004 A 
ATOM     32  C   UNL A   1      36.767  21.848  25.025  1.00  0.00     0.004 A 
ATOM     33  C   UNL A   1      36.866  20.460  24.904  1.00  0.00    -0.051 A 
ATOM     34  C   UNL A   1      38.214  19.804  24.847  1.00  0.00     0.044 C 
ENDBRANCH  20  28
ENDBRANCH  15  18
ENDBRANCH   7  14
ENDBRANCH   3   6
ENDBRANCH   1   2
BRANCH   1  35
ATOM     35  C   UNL A   1      33.868  29.818  26.827  1.00  0.00     0.042 C 
BRANCH  35  36
ATOM     36  C   UNL A   1      35.038  29.310  27.651  1.00  0.00     0.118 C 
BRANCH  36  37
ATOM     37  N   UNL A   1      35.211  30.041  28.902  1.00  0.00    -0.352 N 
ATOM     38  C   UNL A   1      36.286  30.148  29.752  1.00  0.00     0.251 C 
ATOM     39  H   UNL A   1      34.416  30.547  29.188  1.00  0.00     0.163 HD
ATOM     40  O   UNL A   1      36.120  30.637  30.868  1.00  0.00    -0.269 OA
BRANCH  38  41
ATOM     41  C   UNL A   1      37.623  29.660  29.350  1.00  0.00     0.039 A 
ATOM     42  C   UNL A   1      38.028  29.779  28.016  1.00  0.00     0.014 A 
ATOM     43  C   UNL A   1      38.476  29.063  30.275  1.00  0.00     0.014 A 
ATOM     44  C   UNL A   1      39.312  29.372  27.642  1.00  0.00     0.010 A 
ATOM     45  C   UNL A   1      39.794  28.795  29.937  1.00  0.00     0.010 A 
ATOM     46  C   UNL A   1      40.224  28.921  28.610  1.00  0.00    -0.014 A 
BRANCH  46  47
ATOM     47  C   UNL A   1      41.618  28.540  28.266  1.00  0.00     0.031 A 
ATOM     48  C   UNL A   1      42.697  29.595  28.225  1.00  0.00     0.074 A 
ATOM     49  C   UNL A   1      41.894  27.271  27.906  1.00  0.00     0.049 A 
ATOM     50  N   UNL A   1      43.942  29.490  27.838  1.00  0.00    -0.248 NA
ATOM     51  C   UNL A   1      42.312  30.960  28.623  1.00  0.00     0.031 C 
ATOM     52  C   UNL A   1      40.920  26.179  27.821  1.00  0.00     0.029 A 
ATOM     53  N   UNL A   1      43.077  26.685  27.535  1.00  0.00    -0.354 N 
ATOM     54  C   UNL A   1      44.468  30.777  27.902  1.00  0.00     0.074 A 
ATOM     55  C   UNL A   1      43.394  31.654  28.305  1.00  0.00     0.031 C 
ATOM     56  C   UNL A   1      41.552  25.050  27.464  1.00  0.00     0.029 A 
ATOM     57  C   UNL A   1      42.966  25.341  27.263  1.00  0.00     0.049 A 
ATOM     58  H   UNL A   1      43.925  27.178  27.470  1.00  0.00     0.167 HD
ATOM     59  C   UNL A   1      45.740  31.186  27.682  1.00  0.00     0.037 A 
ATOM     60  C   UNL A   1      43.903  24.446  26.901  1.00  0.00     0.037 A 
ATOM     61  C   UNL A   1      46.821  30.293  27.358  1.00  0.00     0.049 A 
ATOM     62  C   UNL A   1      45.327  24.905  26.754  1.00  0.00     0.074 A 
ATOM     63  C   UNL A   1      48.163  30.585  27.199  1.00  0.00     0.029 A 
ATOM     64  N   UNL A   1      46.680  28.927  27.165  1.00  0.00    -0.354 N 
ATOM     65  N   UNL A   1      45.818  26.116  26.876  1.00  0.00    -0.248 NA
ATOM     66  C   UNL A   1      46.326  23.877  26.434  1.00  0.00     0.031 C 
ATOM     67  C   UNL A   1      48.833  29.394  26.892  1.00  0.00     0.029 A 
ATOM     68  C   UNL A   1      47.912  28.359  26.890  1.00  0.00     0.049 A 
ATOM     69  H   UNL A   1      45.830  28.433  27.215  1.00  0.00     0.167 HD
ATOM     70  C   UNL A   1      47.185  25.993  26.664  1.00  0.00     0.074 A 
ATOM     71  C   UNL A   1      47.445  24.587  26.427  1.00  0.00     0.031 C 
ATOM     72  C   UNL A   1      48.141  26.956  26.659  1.00  0.00     0.037 A 
BRANCH  59  73
ATOM     73  C   UNL A   1      46.031  32.656  27.818  1.00  0.00     0.058 A 
ATOM     74  C   UNL A   1      46.552  33.196  29.006  1.00  0.00     0.135 A 
ATOM     75  C   UNL A   1      45.795  33.535  26.750  1.00  0.00     0.135 A 
ATOM     76  F   UNL A   1      46.778  32.404  30.066  1.00  0.00    -0.206 F 
ATOM     77  C   UNL A   1      46.794  34.559  29.143  1.00  0.00     0.059 A 
ATOM     78  C   UNL A   1      46.057  34.900  26.855  1.00  0.00     0.059 A 
ATOM     79  F   UNL A   1      45.297  33.075  25.592  1.00  0.00    -0.206 F 
ATOM     80  C   UNL A   1      46.539  35.403  28.062  1.00  0.00     0.060 A 
BRANCH  80  81
ATOM     81  S   UNL A   1      46.857  37.171  28.255  1.00  0.00     0.124 S 
ATOM     82  O   UNL A   1      45.542  37.660  28.655  1.00  0.00    -0.237 OA
ATOM     83  O   UNL A   1      47.883  37.195  29.292  1.00  0.00    -0.237 OA
ATOM     84  O   UNL A   1      47.304  37.581  26.927  1.00  0.00    -0.744 OA
ENDBRANCH  80  81
ENDBRANCH  59  73
BRANCH  60  85
ATOM     85  C   UNL A   1      43.535  23.018  26.709  1.00  0.00     0.058 A 
ATOM     86  C   UNL A   1      43.520  22.450  25.427  1.00  0.00     0.135 A 
ATOM     87  C   UNL A   1      43.216  22.190  27.796  1.00  0.00     0.135 A 
ATOM     88  F   UNL A   1      43.818  23.203  24.356  1.00  0.00    -0.206 F 
ATOM     89  C   UNL A   1      43.186  21.116  25.224  1.00  0.00     0.059 A 
ATOM     90  C   UNL A   1      42.898  20.847  27.620  1.00  0.00     0.059 A 
ATOM     91  F   UNL A   1      43.237  22.682  29.044  1.00  0.00    -0.206 F 
ATOM     92  C   UNL A   1      42.876  20.320  26.329  1.00  0.00     0.060 A 
BRANCH  92  93
ATOM     93  S   UNL A   1      42.493  18.575  26.062  1.00  0.00     0.124 S 
ATOM     94  O   UNL A   1      41.069  18.631  25.751  1.00  0.00    -0.237 OA
ATOM     95  O   UNL A   1      43.376  18.231  24.951  1.00  0.00    -0.237 OA
ATOM     96  O   UNL A   1      42.840  17.959  27.339  1.00  0.00    -0.744 OA
ENDBRANCH  92  93
ENDBRANCH  60  85
BRANCH  72  97
ATOM     97  C   UNL A   1      49.552  26.508  26.410  1.00  0.00     0.058 A 
ATOM     98  C   UNL A   1      50.129  26.585  25.134  1.00  0.00     0.135 A 
ATOM     99  C   UNL A   1      50.338  26.015  27.463  1.00  0.00     0.135 A 
ATOM    100  F   UNL A   1      49.414  27.045  24.095  1.00  0.00    -0.206 F 
ATOM    101  C   UNL A   1      51.430  26.155  24.901  1.00  0.00     0.059 A 
ATOM    102  C   UNL A   1      51.649  25.600  27.257  1.00  0.00     0.059 A 
ATOM    103  F   UNL A   1      49.833  25.934  28.704  1.00  0.00    -0.206 F 
ATOM    104  C   UNL A   1      52.180  25.658  25.969  1.00  0.00     0.060 A 
BRANCH 104 105
ATOM    105  S   UNL A   1      53.870  25.103  25.660  1.00  0.00     0.124 S 
ATOM    106  O   UNL A   1      53.697  23.656  25.610  1.00  0.00    -0.237 OA
ATOM    107  O   UNL A   1      54.187  25.749  24.390  1.00  0.00    -0.237 OA
ATOM    108  O   UNL A   1      54.607  25.610  26.814  1.00  0.00    -0.744 OA
ENDBRANCH 104 105
ENDBRANCH  72  97
ENDBRANCH  46  47
ENDBRANCH  38  41
ENDBRANCH  36  37
ENDBRANCH  35  36
ENDBRANCH   1  35
TORSDOF 18
ENDMDL
MODEL 3
REMARK VINA RESULT:     -13.5      0.547      7.906
REMARK SMILES COC(=O)c1c(NC(=O)[C@@H]2[C@H]3CC[C@H](CC3)[C@H]2C(=O)NCCCNC(=O)c2ccc(-c3c4nc(c(-c5c(F)cc(S(=O)(=O)[O-])cc5F)c5ccc([nH]5)c(-c5c(F)cc(S(=O)(=O)[O-])cc5F)c5nc(c(-c6c(F)cc(S(=O)(=O)[O-])cc6F)c6ccc3[nH]6)C=C5)C=C4)cc2)sc(C)c1-c1ccc(C)cc1
REMARK SMILES IDX 21 1 20 2 18 3 19 4 17 6 10 7 11 8 16 9 12 10 14 11 15 12
REMARK SMILES IDX 13 13 8 14 7 15 9 17 6 18 5 19 96 20 93 21 94 22 95 23 3 24
REMARK SMILES IDX 4 25 2 26 1 27 97 28 98 29 103 30 99 31 102 32 100 33 101 34
REMARK SMILES IDX 22 35 23 36 24 37 25 38 26 40 27 41 28 42 92 43 29 44 91 45
REMARK SMILES IDX 30 46 31 47 32 48 85 49 33 50 90 51 84 52 86 53 34 54 89 55
REMARK SMILES IDX 83 56 82 57 35 59 69 60 48 61 68 62 49 63 52 64 67 65 87 66
REMARK SMILES IDX 50 67 51 68 66 70 88 71 53 72 36 73 37 74 46 75 38 76 39 77
REMARK SMILES IDX 45 78 47 79 40 80 41 81 42 82 43 83 44 84 70 85 71 86 80 87
REMARK SMILES IDX 72 88 73 89 79 90 81 91 74 92 75 93 76 94 77 95 78 96 54 97
REMARK SMILES IDX 55 98 64 99 56 100 57 101 63 102 65 103 58 104 59 105 60 106
REMARK SMILES IDX 61 107 62 108
REMARK H PARENT 20 5 7 16 24 39 86 58 52 69
REMARK Flexibility Score: inf
ROOT
ATOM      1  C   UNL A   1      33.647  29.250  26.241  1.00  0.00     0.117 C 
ENDROOT
BRANCH   1   2
ATOM      2  N   UNL A   1      34.029  29.210  24.857  1.00  0.00    -0.356 N 
ATOM      3  C   UNL A   1      33.431  28.601  23.812  1.00  0.00     0.224 C 
ATOM      4  O   UNL A   1      33.848  28.953  22.701  1.00  0.00    -0.275 OA
ATOM      5  H   UNL A   1      34.853  29.703  24.638  1.00  0.00     0.163 HD
BRANCH   3   6
ATOM      6  C   UNL A   1      32.342  27.524  23.926  1.00  0.00     0.094 C 
ATOM      7  C   UNL A   1      31.311  27.737  25.037  1.00  0.00     0.094 C 
ATOM      8  C   UNL A   1      29.919  27.253  24.504  1.00  0.00     0.002 C 
ATOM      9  C   UNL A   1      29.525  28.013  23.213  1.00  0.00     0.005 C 
ATOM     10  C   UNL A   1      29.991  25.767  24.111  1.00  0.00     0.005 C 
ATOM     11  C   UNL A   1      31.713  26.925  22.647  1.00  0.00     0.002 C 
ATOM     12  C   UNL A   1      30.546  27.744  22.097  1.00  0.00     0.005 C 
ATOM     13  C   UNL A   1      31.094  25.555  23.059  1.00  0.00     0.005 C 
BRANCH   7  14
ATOM     14  C   UNL A   1      31.539  27.175  26.483  1.00  0.00     0.229 C 
ATOM     15  N   UNL A   1      31.901  25.910  26.863  1.00  0.00    -0.317 N 
ATOM     16  H   UNL A   1      31.552  25.655  27.747  1.00  0.00     0.170 HD
ATOM     17  O   UNL A   1      31.132  27.892  27.416  1.00  0.00    -0.274 OA
BRANCH  15  18
ATOM     18  C   UNL A   1      32.654  24.925  26.266  1.00  0.00     0.111 A 
ATOM     19  C   UNL A   1      32.700  23.544  26.455  1.00  0.00     0.102 A 
ATOM     20  C   UNL A   1      33.446  22.941  25.350  1.00  0.00     0.012 A 
ATOM     21  S   UNL A   1      34.186  25.315  25.607  1.00  0.00    -0.122 S 
ATOM     22  C   UNL A   1      34.029  23.943  24.582  1.00  0.00     0.012 A 
ATOM     23  C   UNL A   1      34.566  23.975  23.193  1.00  0.00     0.057 C 
BRANCH  19  24
ATOM     24  C   UNL A   1      32.063  22.874  27.580  1.00  0.00     0.341 C 
ATOM     25  O   UNL A   1      32.647  22.106  28.328  1.00  0.00    -0.246 OA
BRANCH  24  26
ATOM     26  O   UNL A   1      30.718  23.102  27.605  1.00  0.00    -0.465 OA
ATOM     27  C   UNL A   1      29.974  22.522  26.536  1.00  0.00     0.282 C 
ENDBRANCH  24  26
ENDBRANCH  19  24
BRANCH  20  28
ATOM     28  C   UNL A   1      33.627  21.534  25.006  1.00  0.00    -0.016 A 
ATOM     29  C   UNL A   1      34.830  20.860  25.232  1.00  0.00     0.009 A 
ATOM     30  C   UNL A   1      32.568  20.844  24.397  1.00  0.00     0.009 A 
ATOM     31  C   UNL A   1      34.970  19.521  24.839  1.00  0.00     0.004 A 
ATOM     32  C   UNL A   1      32.700  19.508  24.024  1.00  0.00     0.004 A 
ATOM     33  C   UNL A   1      33.906  18.837  24.235  1.00  0.00    -0.051 A 
ATOM     34  C   UNL A   1      34.071  17.421  23.769  1.00  0.00     0.044 C 
ENDBRANCH  20  28
ENDBRANCH  15  18
ENDBRANCH   7  14
ENDBRANCH   3   6
ENDBRANCH   1   2
BRANCH   1  35
ATOM     35  C   UNL A   1      34.781  29.009  27.214  1.00  0.00     0.042 C 
BRANCH  35  36
ATOM     36  C   UNL A   1      35.409  30.285  27.745  1.00  0.00     0.118 C 
BRANCH  36  37
ATOM     37  N   UNL A   1      35.461  30.327  29.203  1.00  0.00    -0.352 N 
ATOM     38  C   UNL A   1      36.427  29.918  30.092  1.00  0.00     0.251 C 
ATOM     39  H   UNL A   1      34.662  30.719  29.625  1.00  0.00     0.163 HD
ATOM     40  O   UNL A   1      36.148  29.844  31.287  1.00  0.00    -0.269 OA
BRANCH  38  41
ATOM     41  C   UNL A   1      37.779  29.542  29.624  1.00  0.00     0.039 A 
ATOM     42  C   UNL A   1      38.152  29.815  28.304  1.00  0.00     0.014 A 
ATOM     43  C   UNL A   1      38.677  28.899  30.472  1.00  0.00     0.014 A 
ATOM     44  C   UNL A   1      39.447  29.515  27.873  1.00  0.00     0.010 A 
ATOM     45  C   UNL A   1      40.000  28.734  30.090  1.00  0.00     0.010 A 
ATOM     46  C   UNL A   1      40.398  29.015  28.777  1.00  0.00    -0.014 A 
BRANCH  46  47
ATOM     47  C   UNL A   1      41.803  28.743  28.378  1.00  0.00     0.031 A 
ATOM     48  C   UNL A   1      42.202  27.358  27.931  1.00  0.00     0.074 A 
ATOM     49  C   UNL A   1      42.733  29.711  28.501  1.00  0.00     0.049 A 
ATOM     50  N   UNL A   1      43.391  26.887  27.654  1.00  0.00    -0.248 NA
ATOM     51  C   UNL A   1      41.129  26.353  27.831  1.00  0.00     0.031 C 
ATOM     52  C   UNL A   1      42.489  31.065  29.006  1.00  0.00     0.029 A 
ATOM     53  N   UNL A   1      44.074  29.702  28.220  1.00  0.00    -0.354 N 
ATOM     54  C   UNL A   1      43.212  25.532  27.396  1.00  0.00     0.074 A 
ATOM     55  C   UNL A   1      41.813  25.241  27.608  1.00  0.00     0.031 C 
ATOM     56  C   UNL A   1      43.632  31.767  28.958  1.00  0.00     0.029 A 
ATOM     57  C   UNL A   1      44.696  30.907  28.453  1.00  0.00     0.049 A 
ATOM     58  H   UNL A   1      44.549  28.909  27.883  1.00  0.00     0.167 HD
ATOM     59  C   UNL A   1      44.122  24.619  26.983  1.00  0.00     0.037 A 
ATOM     60  C   UNL A   1      45.977  31.276  28.272  1.00  0.00     0.037 A 
ATOM     61  C   UNL A   1      45.497  24.934  26.698  1.00  0.00     0.049 A 
ATOM     62  C   UNL A   1      46.950  30.270  27.723  1.00  0.00     0.074 A 
ATOM     63  C   UNL A   1      46.485  24.110  26.192  1.00  0.00     0.029 A 
ATOM     64  N   UNL A   1      46.069  26.186  26.876  1.00  0.00    -0.354 N 
ATOM     65  N   UNL A   1      46.750  29.007  27.428  1.00  0.00    -0.248 NA
ATOM     66  C   UNL A   1      48.318  30.741  27.468  1.00  0.00     0.031 C 
ATOM     67  C   UNL A   1      47.662  24.861  26.080  1.00  0.00     0.029 A 
ATOM     68  C   UNL A   1      47.397  26.158  26.488  1.00  0.00     0.049 A 
ATOM     69  H   UNL A   1      45.599  26.977  27.227  1.00  0.00     0.167 HD
ATOM     70  C   UNL A   1      47.962  28.536  26.939  1.00  0.00     0.074 A 
ATOM     71  C   UNL A   1      48.882  29.656  26.957  1.00  0.00     0.031 C 
ATOM     72  C   UNL A   1      48.289  27.289  26.517  1.00  0.00     0.037 A 
BRANCH  59  73
ATOM     73  C   UNL A   1      43.649  23.204  26.785  1.00  0.00     0.058 A 
ATOM     74  C   UNL A   1      43.332  22.376  27.875  1.00  0.00     0.135 A 
ATOM     75  C   UNL A   1      43.502  22.671  25.495  1.00  0.00     0.135 A 
ATOM     76  F   UNL A   1      43.472  22.829  29.131  1.00  0.00    -0.206 F 
ATOM     77  C   UNL A   1      42.921  21.059  27.694  1.00  0.00     0.059 A 
ATOM     78  C   UNL A   1      43.065  21.363  25.290  1.00  0.00     0.059 A 
ATOM     79  F   UNL A   1      43.792  23.416  24.417  1.00  0.00    -0.206 F 
ATOM     80  C   UNL A   1      42.795  20.561  26.398  1.00  0.00     0.060 A 
BRANCH  80  81
ATOM     81  S   UNL A   1      42.264  18.849  26.179  1.00  0.00     0.124 S 
ATOM     82  O   UNL A   1      43.200  18.381  25.164  1.00  0.00    -0.237 OA
ATOM     83  O   UNL A   1      42.448  18.289  27.515  1.00  0.00    -0.237 OA
ATOM     84  O   UNL A   1      40.876  18.978  25.745  1.00  0.00    -0.744 OA
ENDBRANCH  80  81
ENDBRANCH  59  73
BRANCH  60  85
ATOM     85  C   UNL A   1      46.398  32.672  28.558  1.00  0.00     0.058 A 
ATOM     86  C   UNL A   1      46.900  33.023  29.819  1.00  0.00     0.135 A 
ATOM     87  C   UNL A   1      46.332  33.674  27.578  1.00  0.00     0.135 A 
ATOM     88  F   UNL A   1      46.982  32.100  30.789  1.00  0.00    -0.206 F 
ATOM     89  C   UNL A   1      47.306  34.322  30.108  1.00  0.00     0.059 A 
ATOM     90  C   UNL A   1      46.752  34.975  27.835  1.00  0.00     0.059 A 
ATOM     91  F   UNL A   1      45.880  33.383  26.349  1.00  0.00    -0.206 F 
ATOM     92  C   UNL A   1      47.228  35.293  29.107  1.00  0.00     0.060 A 
BRANCH  92  93
ATOM     93  S   UNL A   1      47.807  36.964  29.473  1.00  0.00     0.124 S 
ATOM     94  O   UNL A   1      46.900  37.360  30.545  1.00  0.00    -0.237 OA
ATOM     95  O   UNL A   1      49.195  36.733  29.864  1.00  0.00    -0.237 OA
ATOM     96  O   UNL A   1      47.632  37.663  28.204  1.00  0.00    -0.744 OA
ENDBRANCH  92  93
ENDBRANCH  60  85
BRANCH  72  97
ATOM     97  C   UNL A   1      49.692  27.087  26.023  1.00  0.00     0.058 A 
ATOM     98  C   UNL A   1      50.017  27.231  24.666  1.00  0.00     0.135 A 
ATOM     99  C   UNL A   1      50.722  26.765  26.920  1.00  0.00     0.135 A 
ATOM    100  F   UNL A   1      49.064  27.534  23.770  1.00  0.00    -0.206 F 
ATOM    101  C   UNL A   1      51.314  27.028  24.208  1.00  0.00     0.059 A 
ATOM    102  C   UNL A   1      52.030  26.579  26.487  1.00  0.00     0.059 A 
ATOM    103  F   UNL A   1      50.461  26.628  28.230  1.00  0.00    -0.206 F 
ATOM    104  C   UNL A   1      52.312  26.695  25.125  1.00  0.00     0.060 A 
BRANCH 104 105
ATOM    105  S   UNL A   1      53.994  26.435  24.524  1.00  0.00     0.124 S 
ATOM    106  O   UNL A   1      54.771  27.206  25.489  1.00  0.00    -0.237 OA
ATOM    107  O   UNL A   1      54.138  24.985  24.607  1.00  0.00    -0.237 OA
ATOM    108  O   UNL A   1      53.956  26.978  23.170  1.00  0.00    -0.744 OA
ENDBRANCH 104 105
ENDBRANCH  72  97
ENDBRANCH  46  47
ENDBRANCH  38  41
ENDBRANCH  36  37
ENDBRANCH  35  36
ENDBRANCH   1  35
TORSDOF 18
ENDMDL
