MODEL 1
REMARK VINA RESULT:     -12.0      0.000      0.000
REMARK SMILES CS(=O)(=O)c1ccc(-n2nnc(C(=O)NCCCNC(=O)c3ccc(-c4c5nc(c(-c6c(F)cc(S(=O)(=O)[O-])cc6F)c6ccc([nH]6)c(-c6c(F)cc(S(=O)(=O)[O-])cc6F)c6nc(c(-c7c(F)cc(S(=O)(=O)[O-])cc7F)c7ccc4[nH]7)C=C6)C=C5)cc3)c2-c2cc(F)cc(F)c2)cc1
REMARK SMILES IDX 17 1 16 2 15 3 13 4 14 5 12 7 9 8 10 9 88 10 11 11 8 12 5 13
REMARK SMILES IDX 6 14 98 15 7 16 97 17 2 18 1 19 3 20 4 21 89 22 90 23 96 24
REMARK SMILES IDX 91 25 94 26 92 27 93 28 95 29 18 30 19 31 20 32 21 34 22 35
REMARK SMILES IDX 23 36 87 37 24 38 86 39 25 40 26 41 27 42 80 43 28 44 85 45
REMARK SMILES IDX 79 46 81 47 29 48 84 49 78 50 77 51 30 53 64 54 43 55 63 56
REMARK SMILES IDX 44 57 47 58 62 59 82 60 45 61 46 62 61 64 83 65 48 66 31 67
REMARK SMILES IDX 32 68 41 69 33 70 34 71 40 72 42 73 35 74 36 75 37 76 38 77
REMARK SMILES IDX 39 78 65 79 66 80 75 81 67 82 68 83 74 84 76 85 69 86 70 87
REMARK SMILES IDX 71 88 72 89 73 90 49 91 50 92 59 93 51 94 52 95 58 96 60 97
REMARK SMILES IDX 53 98 54 99 55 100 56 101 57 102
REMARK H PARENT 15 6 19 33 81 52 47 63
REMARK Flexibility Score: inf
ROOT
ATOM      1  C   UNL A   1      42.876  31.365  33.688  1.00  0.00     0.042 C 
ENDROOT
BRANCH   1   2
ATOM      2  C   UNL A   1      41.393  31.447  34.007  1.00  0.00     0.118 C 
BRANCH   2   3
ATOM      3  N   UNL A   1      40.649  30.225  34.095  1.00  0.00    -0.351 N 
ATOM      4  C   UNL A   1      39.336  29.945  33.791  1.00  0.00     0.274 C 
ATOM      5  O   UNL A   1      39.085  28.751  33.610  1.00  0.00    -0.267 OA
ATOM      6  H   UNL A   1      41.164  29.457  34.432  1.00  0.00     0.163 HD
BRANCH   4   7
ATOM      7  C   UNL A   1      38.250  30.938  33.761  1.00  0.00     0.178 A 
ATOM      8  N   UNL A   1      36.680  32.451  33.516  1.00  0.00    -0.212 N 
ATOM      9  N   UNL A   1      37.091  32.515  34.789  1.00  0.00    -0.061 NA
ATOM     10  C   UNL A   1      37.417  31.512  32.792  1.00  0.00     0.108 A 
ATOM     11  N   UNL A   1      37.953  31.537  34.979  1.00  0.00    -0.124 NA
BRANCH   8  12
ATOM     12  C   UNL A   1      35.750  33.379  32.993  1.00  0.00     0.067 A 
ATOM     13  C   UNL A   1      33.849  35.311  32.430  1.00  0.00     0.067 A 
ATOM     14  C   UNL A   1      33.451  33.979  32.609  1.00  0.00     0.022 A 
ATOM     15  C   UNL A   1      35.197  35.672  32.472  1.00  0.00     0.022 A 
ATOM     16  C   UNL A   1      34.411  32.999  32.866  1.00  0.00     0.030 A 
ATOM     17  C   UNL A   1      36.150  34.703  32.763  1.00  0.00     0.030 A 
BRANCH  13  18
ATOM     18  S   UNL A   1      32.615  36.564  32.177  1.00  0.00     0.175 S 
ATOM     19  C   UNL A   1      31.150  35.949  32.970  1.00  0.00     0.163 C 
ATOM     20  O   UNL A   1      32.337  36.616  30.754  1.00  0.00    -0.224 OA
ATOM     21  O   UNL A   1      33.066  37.737  32.900  1.00  0.00    -0.224 OA
ENDBRANCH  13  18
ENDBRANCH   8  12
BRANCH  10  22
ATOM     22  C   UNL A   1      37.352  31.478  31.325  1.00  0.00     0.009 A 
ATOM     23  C   UNL A   1      37.789  32.544  30.527  1.00  0.00     0.049 A 
ATOM     24  C   UNL A   1      36.715  30.381  30.707  1.00  0.00     0.049 A 
ATOM     25  C   UNL A   1      37.543  32.515  29.152  1.00  0.00     0.126 A 
ATOM     26  C   UNL A   1      36.495  30.375  29.335  1.00  0.00     0.126 A 
ATOM     27  F   UNL A   1      37.868  33.580  28.409  1.00  0.00    -0.207 F 
ATOM     28  C   UNL A   1      36.902  31.439  28.546  1.00  0.00     0.078 A 
ATOM     29  F   UNL A   1      35.822  29.356  28.786  1.00  0.00    -0.207 F 
ENDBRANCH  10  22
ENDBRANCH   4   7
ENDBRANCH   2   3
ENDBRANCH   1   2
BRANCH   1  30
ATOM     30  C   UNL A   1      43.262  32.538  32.796  1.00  0.00     0.118 C 
BRANCH  30  31
ATOM     31  N   UNL A   1      42.173  33.450  32.388  1.00  0.00    -0.352 N 
ATOM     32  C   UNL A   1      41.549  33.572  31.137  1.00  0.00     0.251 C 
ATOM     33  H   UNL A   1      41.839  34.053  33.090  1.00  0.00     0.163 HD
ATOM     34  O   UNL A   1      40.817  34.504  30.871  1.00  0.00    -0.269 OA
BRANCH  32  35
ATOM     35  C   UNL A   1      41.781  32.471  30.178  1.00  0.00     0.039 A 
ATOM     36  C   UNL A   1      43.013  32.224  29.562  1.00  0.00     0.014 A 
ATOM     37  C   UNL A   1      40.820  31.495  30.258  1.00  0.00     0.014 A 
ATOM     38  C   UNL A   1      43.343  30.900  29.240  1.00  0.00     0.010 A 
ATOM     39  C   UNL A   1      41.312  30.227  30.313  1.00  0.00     0.010 A 
ATOM     40  C   UNL A   1      42.512  29.879  29.708  1.00  0.00    -0.014 A 
BRANCH  40  41
ATOM     41  C   UNL A   1      42.823  28.447  29.699  1.00  0.00     0.031 A 
ATOM     42  C   UNL A   1      43.394  27.836  30.932  1.00  0.00     0.074 A 
ATOM     43  C   UNL A   1      42.363  27.632  28.719  1.00  0.00     0.049 A 
ATOM     44  N   UNL A   1      44.606  27.423  31.106  1.00  0.00    -0.248 NA
ATOM     45  C   UNL A   1      42.560  27.714  32.135  1.00  0.00     0.031 C 
ATOM     46  C   UNL A   1      41.528  27.949  27.543  1.00  0.00     0.029 A 
ATOM     47  N   UNL A   1      42.448  26.281  28.647  1.00  0.00    -0.354 N 
ATOM     48  C   UNL A   1      44.651  26.810  32.357  1.00  0.00     0.074 A 
ATOM     49  C   UNL A   1      43.416  27.171  33.009  1.00  0.00     0.031 C 
ATOM     50  C   UNL A   1      40.963  26.826  27.061  1.00  0.00     0.029 A 
ATOM     51  C   UNL A   1      41.601  25.705  27.712  1.00  0.00     0.049 A 
ATOM     52  H   UNL A   1      43.058  25.754  29.211  1.00  0.00     0.167 HD
ATOM     53  C   UNL A   1      45.622  25.903  32.679  1.00  0.00     0.037 A 
ATOM     54  C   UNL A   1      41.460  24.392  27.433  1.00  0.00     0.037 A 
ATOM     55  C   UNL A   1      46.613  25.820  31.631  1.00  0.00     0.049 A 
ATOM     56  C   UNL A   1      42.731  23.746  27.851  1.00  0.00     0.074 A 
ATOM     57  C   UNL A   1      47.498  26.713  31.061  1.00  0.00     0.029 A 
ATOM     58  N   UNL A   1      46.503  24.782  30.733  1.00  0.00    -0.354 N 
ATOM     59  N   UNL A   1      43.888  24.009  27.297  1.00  0.00    -0.248 NA
ATOM     60  C   UNL A   1      42.806  23.182  29.189  1.00  0.00     0.031 C 
ATOM     61  C   UNL A   1      47.468  26.417  29.666  1.00  0.00     0.029 A 
ATOM     62  C   UNL A   1      46.628  25.316  29.473  1.00  0.00     0.049 A 
ATOM     63  H   UNL A   1      46.361  23.832  30.953  1.00  0.00     0.167 HD
ATOM     64  C   UNL A   1      44.793  24.054  28.350  1.00  0.00     0.074 A 
ATOM     65  C   UNL A   1      44.091  23.427  29.469  1.00  0.00     0.031 C 
ATOM     66  C   UNL A   1      45.914  24.840  28.303  1.00  0.00     0.037 A 
BRANCH  53  67
ATOM     67  C   UNL A   1      45.569  24.861  33.772  1.00  0.00     0.058 A 
ATOM     68  C   UNL A   1      46.580  24.841  34.760  1.00  0.00     0.135 A 
ATOM     69  C   UNL A   1      44.720  23.737  33.751  1.00  0.00     0.135 A 
ATOM     70  F   UNL A   1      47.442  25.865  34.877  1.00  0.00    -0.206 F 
ATOM     71  C   UNL A   1      46.783  23.751  35.606  1.00  0.00     0.059 A 
ATOM     72  C   UNL A   1      44.870  22.661  34.625  1.00  0.00     0.059 A 
ATOM     73  F   UNL A   1      43.772  23.585  32.819  1.00  0.00    -0.206 F 
ATOM     74  C   UNL A   1      45.933  22.655  35.515  1.00  0.00     0.060 A 
BRANCH  74  75
ATOM     75  S   UNL A   1      46.276  21.188  36.508  1.00  0.00     0.124 S 
ATOM     76  O   UNL A   1      45.721  20.134  35.667  1.00  0.00    -0.237 OA
ATOM     77  O   UNL A   1      47.731  21.221  36.613  1.00  0.00    -0.237 OA
ATOM     78  O   UNL A   1      45.558  21.450  37.751  1.00  0.00    -0.744 OA
ENDBRANCH  74  75
ENDBRANCH  53  67
BRANCH  54  79
ATOM     79  C   UNL A   1      40.193  23.697  27.105  1.00  0.00     0.058 A 
ATOM     80  C   UNL A   1      38.952  24.316  27.310  1.00  0.00     0.135 A 
ATOM     81  C   UNL A   1      40.179  22.502  26.350  1.00  0.00     0.135 A 
ATOM     82  F   UNL A   1      38.878  25.460  28.007  1.00  0.00    -0.206 F 
ATOM     83  C   UNL A   1      37.774  23.817  26.749  1.00  0.00     0.059 A 
ATOM     84  C   UNL A   1      39.015  21.977  25.795  1.00  0.00     0.059 A 
ATOM     85  F   UNL A   1      41.314  21.851  26.052  1.00  0.00    -0.206 F 
ATOM     86  C   UNL A   1      37.819  22.659  25.971  1.00  0.00     0.060 A 
BRANCH  86  87
ATOM     87  S   UNL A   1      36.341  22.134  25.072  1.00  0.00     0.124 S 
ATOM     88  O   UNL A   1      36.189  20.755  25.523  1.00  0.00    -0.237 OA
ATOM     89  O   UNL A   1      35.340  23.079  25.553  1.00  0.00    -0.237 OA
ATOM     90  O   UNL A   1      36.724  22.297  23.672  1.00  0.00    -0.744 OA
ENDBRANCH  86  87
ENDBRANCH  54  79
BRANCH  66  91
ATOM     91  C   UNL A   1      46.303  25.471  26.984  1.00  0.00     0.058 A 
ATOM     92  C   UNL A   1      46.044  26.811  26.645  1.00  0.00     0.135 A 
ATOM     93  C   UNL A   1      47.132  24.754  26.108  1.00  0.00     0.135 A 
ATOM     94  F   UNL A   1      45.355  27.608  27.464  1.00  0.00    -0.206 F 
ATOM     95  C   UNL A   1      46.549  27.402  25.485  1.00  0.00     0.059 A 
ATOM     96  C   UNL A   1      47.674  25.330  24.957  1.00  0.00     0.059 A 
ATOM     97  F   UNL A   1      47.480  23.490  26.399  1.00  0.00    -0.206 F 
ATOM     98  C   UNL A   1      47.367  26.653  24.646  1.00  0.00     0.060 A 
BRANCH  98  99
ATOM     99  S   UNL A   1      48.089  27.450  23.196  1.00  0.00     0.124 S 
ATOM    100  O   UNL A   1      47.005  28.319  22.752  1.00  0.00    -0.237 OA
ATOM    101  O   UNL A   1      49.257  28.130  23.752  1.00  0.00    -0.237 OA
ATOM    102  O   UNL A   1      48.396  26.330  22.310  1.00  0.00    -0.744 OA
ENDBRANCH  98  99
ENDBRANCH  66  91
ENDBRANCH  40  41
ENDBRANCH  32  35
ENDBRANCH  30  31
ENDBRANCH   1  30
TORSDOF 16
ENDMDL
MODEL 2
REMARK VINA RESULT:     -11.4      3.582      8.788
REMARK SMILES CS(=O)(=O)c1ccc(-n2nnc(C(=O)NCCCNC(=O)c3ccc(-c4c5nc(c(-c6c(F)cc(S(=O)(=O)[O-])cc6F)c6ccc([nH]6)c(-c6c(F)cc(S(=O)(=O)[O-])cc6F)c6nc(c(-c7c(F)cc(S(=O)(=O)[O-])cc7F)c7ccc4[nH]7)C=C6)C=C5)cc3)c2-c2cc(F)cc(F)c2)cc1
REMARK SMILES IDX 17 1 16 2 15 3 13 4 14 5 12 7 9 8 10 9 88 10 11 11 8 12 5 13
REMARK SMILES IDX 6 14 98 15 7 16 97 17 2 18 1 19 3 20 4 21 89 22 90 23 96 24
REMARK SMILES IDX 91 25 94 26 92 27 93 28 95 29 18 30 19 31 20 32 21 34 22 35
REMARK SMILES IDX 23 36 87 37 24 38 86 39 25 40 26 41 27 42 80 43 28 44 85 45
REMARK SMILES IDX 79 46 81 47 29 48 84 49 78 50 77 51 30 53 64 54 43 55 63 56
REMARK SMILES IDX 44 57 47 58 62 59 82 60 45 61 46 62 61 64 83 65 48 66 31 67
REMARK SMILES IDX 32 68 41 69 33 70 34 71 40 72 42 73 35 74 36 75 37 76 38 77
REMARK SMILES IDX 39 78 65 79 66 80 75 81 67 82 68 83 74 84 76 85 69 86 70 87
REMARK SMILES IDX 71 88 72 89 73 90 49 91 50 92 59 93 51 94 52 95 58 96 60 97
REMARK SMILES IDX 53 98 54 99 55 100 56 101 57 102
REMARK H PARENT 15 6 19 33 81 52 47 63
REMARK Flexibility Score: inf
ROOT
ATOM      1  C   UNL A   1      41.425  26.352  35.348  1.00  0.00     0.042 C 
ENDROOT
BRANCH   1   2
ATOM      2  C   UNL A   1      41.445  27.416  36.432  1.00  0.00     0.118 C 
BRANCH   2   3
ATOM      3  N   UNL A   1      42.279  28.566  36.240  1.00  0.00    -0.351 N 
ATOM      4  C   UNL A   1      41.963  29.900  36.126  1.00  0.00     0.274 C 
ATOM      5  O   UNL A   1      42.894  30.679  36.345  1.00  0.00    -0.267 OA
ATOM      6  H   UNL A   1      43.240  28.366  36.177  1.00  0.00     0.163 HD
BRANCH   4   7
ATOM      7  C   UNL A   1      40.656  30.420  35.690  1.00  0.00     0.178 A 
ATOM      8  N   UNL A   1      38.805  31.377  35.003  1.00  0.00    -0.212 N 
ATOM      9  N   UNL A   1      38.458  30.460  35.914  1.00  0.00    -0.061 NA
ATOM     10  C   UNL A   1      40.192  31.446  34.857  1.00  0.00     0.108 A 
ATOM     11  N   UNL A   1      39.548  29.801  36.251  1.00  0.00    -0.124 NA
BRANCH   8  12
ATOM     12  C   UNL A   1      37.853  32.260  34.444  1.00  0.00     0.067 A 
ATOM     13  C   UNL A   1      35.661  33.675  33.515  1.00  0.00     0.067 A 
ATOM     14  C   UNL A   1      36.273  32.723  32.688  1.00  0.00     0.022 A 
ATOM     15  C   UNL A   1      36.175  33.965  34.781  1.00  0.00     0.022 A 
ATOM     16  C   UNL A   1      37.393  32.028  33.144  1.00  0.00     0.030 A 
ATOM     17  C   UNL A   1      37.270  33.249  35.250  1.00  0.00     0.030 A 
BRANCH  13  18
ATOM     18  S   UNL A   1      34.192  34.501  32.958  1.00  0.00     0.175 S 
ATOM     19  C   UNL A   1      34.028  35.929  34.001  1.00  0.00     0.163 C 
ATOM     20  O   UNL A   1      33.068  33.630  33.251  1.00  0.00    -0.224 OA
ATOM     21  O   UNL A   1      34.461  34.953  31.607  1.00  0.00    -0.224 OA
ENDBRANCH  13  18
ENDBRANCH   8  12
BRANCH  10  22
ATOM     22  C   UNL A   1      40.814  32.570  34.145  1.00  0.00     0.009 A 
ATOM     23  C   UNL A   1      41.095  32.530  32.773  1.00  0.00     0.049 A 
ATOM     24  C   UNL A   1      41.252  33.681  34.897  1.00  0.00     0.049 A 
ATOM     25  C   UNL A   1      41.839  33.563  32.196  1.00  0.00     0.126 A 
ATOM     26  C   UNL A   1      41.978  34.700  34.293  1.00  0.00     0.126 A 
ATOM     27  F   UNL A   1      42.195  33.469  30.909  1.00  0.00    -0.207 F 
ATOM     28  C   UNL A   1      42.282  34.651  32.942  1.00  0.00     0.078 A 
ATOM     29  F   UNL A   1      42.445  35.704  35.046  1.00  0.00    -0.207 F 
ENDBRANCH  10  22
ENDBRANCH   4   7
ENDBRANCH   2   3
ENDBRANCH   1   2
BRANCH   1  30
ATOM     30  C   UNL A   1      41.709  24.993  35.974  1.00  0.00     0.118 C 
BRANCH  30  31
ATOM     31  N   UNL A   1      42.823  24.927  36.944  1.00  0.00    -0.352 N 
ATOM     32  C   UNL A   1      44.199  24.800  36.698  1.00  0.00     0.251 C 
ATOM     33  H   UNL A   1      42.564  24.981  37.892  1.00  0.00     0.163 HD
ATOM     34  O   UNL A   1      44.990  24.542  37.582  1.00  0.00    -0.269 OA
BRANCH  32  35
ATOM     35  C   UNL A   1      44.644  25.059  35.312  1.00  0.00     0.039 A 
ATOM     36  C   UNL A   1      44.300  24.250  34.222  1.00  0.00     0.014 A 
ATOM     37  C   UNL A   1      45.070  26.350  35.130  1.00  0.00     0.014 A 
ATOM     38  C   UNL A   1      44.169  24.852  32.962  1.00  0.00     0.010 A 
ATOM     39  C   UNL A   1      44.556  26.960  34.027  1.00  0.00     0.010 A 
ATOM     40  C   UNL A   1      44.212  26.247  32.888  1.00  0.00    -0.014 A 
BRANCH  40  41
ATOM     41  C   UNL A   1      43.840  27.055  31.724  1.00  0.00     0.031 A 
ATOM     42  C   UNL A   1      42.499  27.704  31.708  1.00  0.00     0.074 A 
ATOM     43  C   UNL A   1      44.764  27.442  30.811  1.00  0.00     0.049 A 
ATOM     44  N   UNL A   1      41.487  27.379  30.973  1.00  0.00    -0.248 NA
ATOM     45  C   UNL A   1      42.212  28.800  32.642  1.00  0.00     0.031 C 
ATOM     46  C   UNL A   1      46.216  27.172  30.765  1.00  0.00     0.029 A 
ATOM     47  N   UNL A   1      44.604  28.296  29.770  1.00  0.00    -0.354 N 
ATOM     48  C   UNL A   1      40.498  28.336  31.197  1.00  0.00     0.074 A 
ATOM     49  C   UNL A   1      40.935  29.080  32.354  1.00  0.00     0.031 C 
ATOM     50  C   UNL A   1      46.824  28.055  29.950  1.00  0.00     0.029 A 
ATOM     51  C   UNL A   1      45.792  28.757  29.223  1.00  0.00     0.049 A 
ATOM     52  H   UNL A   1      43.721  28.566  29.432  1.00  0.00     0.167 HD
ATOM     53  C   UNL A   1      39.493  28.556  30.297  1.00  0.00     0.037 A 
ATOM     54  C   UNL A   1      45.940  29.620  28.196  1.00  0.00     0.037 A 
ATOM     55  C   UNL A   1      39.538  27.582  29.232  1.00  0.00     0.049 A 
ATOM     56  C   UNL A   1      44.688  29.531  27.402  1.00  0.00     0.074 A 
ATOM     57  C   UNL A   1      39.428  26.207  29.168  1.00  0.00     0.029 A 
ATOM     58  N   UNL A   1      40.136  27.960  28.050  1.00  0.00    -0.354 N 
ATOM     59  N   UNL A   1      44.306  28.445  26.779  1.00  0.00    -0.248 NA
ATOM     60  C   UNL A   1      43.622  30.477  27.695  1.00  0.00     0.031 C 
ATOM     61  C   UNL A   1      40.406  25.806  28.211  1.00  0.00     0.029 A 
ATOM     62  C   UNL A   1      41.003  26.957  27.690  1.00  0.00     0.049 A 
ATOM     63  H   UNL A   1      39.972  28.796  27.554  1.00  0.00     0.167 HD
ATOM     64  C   UNL A   1      42.934  28.370  26.986  1.00  0.00     0.074 A 
ATOM     65  C   UNL A   1      42.558  29.703  27.457  1.00  0.00     0.031 C 
ATOM     66  C   UNL A   1      42.276  27.170  27.027  1.00  0.00     0.037 A 
BRANCH  53  67
ATOM     67  C   UNL A   1      38.636  29.794  30.172  1.00  0.00     0.058 A 
ATOM     68  C   UNL A   1      37.228  29.668  30.194  1.00  0.00     0.135 A 
ATOM     69  C   UNL A   1      39.126  31.057  29.783  1.00  0.00     0.135 A 
ATOM     70  F   UNL A   1      36.651  28.511  30.557  1.00  0.00    -0.206 F 
ATOM     71  C   UNL A   1      36.375  30.692  29.781  1.00  0.00     0.059 A 
ATOM     72  C   UNL A   1      38.290  32.112  29.421  1.00  0.00     0.059 A 
ATOM     73  F   UNL A   1      40.435  31.293  29.640  1.00  0.00    -0.206 F 
ATOM     74  C   UNL A   1      36.919  31.905  29.375  1.00  0.00     0.060 A 
BRANCH  74  75
ATOM     75  S   UNL A   1      35.831  33.180  28.710  1.00  0.00     0.124 S 
ATOM     76  O   UNL A   1      35.894  32.897  27.280  1.00  0.00    -0.237 OA
ATOM     77  O   UNL A   1      34.564  32.877  29.366  1.00  0.00    -0.237 OA
ATOM     78  O   UNL A   1      36.470  34.422  29.136  1.00  0.00    -0.744 OA
ENDBRANCH  74  75
ENDBRANCH  53  67
BRANCH  54  79
ATOM     79  C   UNL A   1      46.976  30.674  28.079  1.00  0.00     0.058 A 
ATOM     80  C   UNL A   1      48.079  30.515  27.228  1.00  0.00     0.135 A 
ATOM     81  C   UNL A   1      46.780  31.967  28.614  1.00  0.00     0.135 A 
ATOM     82  F   UNL A   1      48.332  29.322  26.671  1.00  0.00    -0.206 F 
ATOM     83  C   UNL A   1      48.903  31.587  26.877  1.00  0.00     0.059 A 
ATOM     84  C   UNL A   1      47.597  33.047  28.290  1.00  0.00     0.059 A 
ATOM     85  F   UNL A   1      45.728  32.245  29.401  1.00  0.00    -0.206 F 
ATOM     86  C   UNL A   1      48.639  32.856  27.394  1.00  0.00     0.060 A 
BRANCH  86  87
ATOM     87  S   UNL A   1      49.567  34.279  26.775  1.00  0.00     0.124 S 
ATOM     88  O   UNL A   1      50.186  33.734  25.572  1.00  0.00    -0.237 OA
ATOM     89  O   UNL A   1      48.511  35.263  26.563  1.00  0.00    -0.237 OA
ATOM     90  O   UNL A   1      50.485  34.584  27.870  1.00  0.00    -0.744 OA
ENDBRANCH  86  87
ENDBRANCH  54  79
BRANCH  66  91
ATOM     91  C   UNL A   1      43.014  25.923  26.589  1.00  0.00     0.058 A 
ATOM     92  C   UNL A   1      43.640  25.026  27.472  1.00  0.00     0.135 A 
ATOM     93  C   UNL A   1      42.923  25.518  25.248  1.00  0.00     0.135 A 
ATOM     94  F   UNL A   1      43.684  25.268  28.783  1.00  0.00    -0.206 F 
ATOM     95  C   UNL A   1      44.179  23.810  27.048  1.00  0.00     0.059 A 
ATOM     96  C   UNL A   1      43.427  24.295  24.804  1.00  0.00     0.059 A 
ATOM     97  F   UNL A   1      42.279  26.291  24.358  1.00  0.00    -0.206 F 
ATOM     98  C   UNL A   1      44.065  23.450  25.709  1.00  0.00     0.060 A 
BRANCH  98  99
ATOM     99  S   UNL A   1      44.684  21.837  25.186  1.00  0.00     0.124 S 
ATOM    100  O   UNL A   1      46.028  21.826  25.753  1.00  0.00    -0.237 OA
ATOM    101  O   UNL A   1      43.732  20.914  25.799  1.00  0.00    -0.237 OA
ATOM    102  O   UNL A   1      44.620  21.905  23.729  1.00  0.00    -0.744 OA
ENDBRANCH  98  99
ENDBRANCH  66  91
ENDBRANCH  40  41
ENDBRANCH  32  35
ENDBRANCH  30  31
ENDBRANCH   1  30
TORSDOF 16
ENDMDL
MODEL 3
REMARK VINA RESULT:     -11.3      3.442      5.929
REMARK SMILES CS(=O)(=O)c1ccc(-n2nnc(C(=O)NCCCNC(=O)c3ccc(-c4c5nc(c(-c6c(F)cc(S(=O)(=O)[O-])cc6F)c6ccc([nH]6)c(-c6c(F)cc(S(=O)(=O)[O-])cc6F)c6nc(c(-c7c(F)cc(S(=O)(=O)[O-])cc7F)c7ccc4[nH]7)C=C6)C=C5)cc3)c2-c2cc(F)cc(F)c2)cc1
REMARK SMILES IDX 17 1 16 2 15 3 13 4 14 5 12 7 9 8 10 9 88 10 11 11 8 12 5 13
REMARK SMILES IDX 6 14 98 15 7 16 97 17 2 18 1 19 3 20 4 21 89 22 90 23 96 24
REMARK SMILES IDX 91 25 94 26 92 27 93 28 95 29 18 30 19 31 20 32 21 34 22 35
REMARK SMILES IDX 23 36 87 37 24 38 86 39 25 40 26 41 27 42 80 43 28 44 85 45
REMARK SMILES IDX 79 46 81 47 29 48 84 49 78 50 77 51 30 53 64 54 43 55 63 56
REMARK SMILES IDX 44 57 47 58 62 59 82 60 45 61 46 62 61 64 83 65 48 66 31 67
REMARK SMILES IDX 32 68 41 69 33 70 34 71 40 72 42 73 35 74 36 75 37 76 38 77
REMARK SMILES IDX 39 78 65 79 66 80 75 81 67 82 68 83 74 84 76 85 69 86 70 87
REMARK SMILES IDX 71 88 72 89 73 90 49 91 50 92 59 93 51 94 52 95 58 96 60 97
REMARK SMILES IDX 53 98 54 99 55 100 56 101 57 102
REMARK H PARENT 15 6 19 33 81 52 47 63
REMARK Flexibility Score: inf
ROOT
ATOM      1  C   UNL A   1      36.020  33.875  31.988  1.00  0.00     0.042 C 
ENDROOT
BRANCH   1   2
ATOM      2  C   UNL A   1      34.896  33.878  30.967  1.00  0.00     0.118 C 
BRANCH   2   3
ATOM      3  N   UNL A   1      35.154  34.444  29.676  1.00  0.00    -0.351 N 
ATOM      4  C   UNL A   1      34.635  34.140  28.437  1.00  0.00     0.274 C 
ATOM      5  O   UNL A   1      34.756  35.026  27.587  1.00  0.00    -0.267 OA
ATOM      6  H   UNL A   1      35.815  35.172  29.674  1.00  0.00     0.163 HD
BRANCH   4   7
ATOM      7  C   UNL A   1      34.051  32.840  28.067  1.00  0.00     0.178 A 
ATOM      8  N   UNL A   1      33.378  30.830  27.501  1.00  0.00    -0.212 N 
ATOM      9  N   UNL A   1      32.472  31.695  27.027  1.00  0.00    -0.061 NA
ATOM     10  C   UNL A   1      34.438  31.495  28.120  1.00  0.00     0.108 A 
ATOM     11  N   UNL A   1      32.805  32.895  27.457  1.00  0.00    -0.124 NA
BRANCH   8  12
ATOM     12  C   UNL A   1      33.304  29.449  27.208  1.00  0.00     0.067 A 
ATOM     13  C   UNL A   1      32.907  26.883  26.247  1.00  0.00     0.067 A 
ATOM     14  C   UNL A   1      31.986  27.436  27.148  1.00  0.00     0.022 A 
ATOM     15  C   UNL A   1      34.054  27.583  25.870  1.00  0.00     0.022 A 
ATOM     16  C   UNL A   1      32.198  28.718  27.654  1.00  0.00     0.030 A 
ATOM     17  C   UNL A   1      34.249  28.874  26.346  1.00  0.00     0.030 A 
BRANCH  13  18
ATOM     18  S   UNL A   1      32.590  25.281  25.549  1.00  0.00     0.175 S 
ATOM     19  C   UNL A   1      30.907  24.905  25.974  1.00  0.00     0.163 C 
ATOM     20  O   UNL A   1      33.428  24.329  26.255  1.00  0.00    -0.224 OA
ATOM     21  O   UNL A   1      32.674  25.434  24.111  1.00  0.00    -0.224 OA
ENDBRANCH  13  18
ENDBRANCH   8  12
BRANCH  10  22
ATOM     22  C   UNL A   1      35.680  30.782  28.447  1.00  0.00     0.009 A 
ATOM     23  C   UNL A   1      36.721  30.620  27.524  1.00  0.00     0.049 A 
ATOM     24  C   UNL A   1      35.773  30.136  29.699  1.00  0.00     0.049 A 
ATOM     25  C   UNL A   1      37.798  29.789  27.845  1.00  0.00     0.126 A 
ATOM     26  C   UNL A   1      36.863  29.326  29.995  1.00  0.00     0.126 A 
ATOM     27  F   UNL A   1      38.738  29.554  26.921  1.00  0.00    -0.207 F 
ATOM     28  C   UNL A   1      37.881  29.141  29.074  1.00  0.00     0.078 A 
ATOM     29  F   UNL A   1      36.888  28.666  31.159  1.00  0.00    -0.207 F 
ENDBRANCH  10  22
ENDBRANCH   4   7
ENDBRANCH   2   3
ENDBRANCH   1   2
BRANCH   1  30
ATOM     30  C   UNL A   1      36.006  32.553  32.745  1.00  0.00     0.118 C 
BRANCH  30  31
ATOM     31  N   UNL A   1      36.682  32.533  34.060  1.00  0.00    -0.352 N 
ATOM     32  C   UNL A   1      37.811  31.801  34.459  1.00  0.00     0.251 C 
ATOM     33  H   UNL A   1      36.286  33.112  34.750  1.00  0.00     0.163 HD
ATOM     34  O   UNL A   1      38.139  31.707  35.623  1.00  0.00    -0.269 OA
BRANCH  32  35
ATOM     35  C   UNL A   1      38.618  31.198  33.376  1.00  0.00     0.039 A 
ATOM     36  C   UNL A   1      39.712  31.832  32.777  1.00  0.00     0.014 A 
ATOM     37  C   UNL A   1      38.457  29.837  33.298  1.00  0.00     0.014 A 
ATOM     38  C   UNL A   1      40.765  31.037  32.301  1.00  0.00     0.010 A 
ATOM     39  C   UNL A   1      39.622  29.139  33.209  1.00  0.00     0.010 A 
ATOM     40  C   UNL A   1      40.753  29.673  32.606  1.00  0.00    -0.014 A 
BRANCH  40  41
ATOM     41  C   UNL A   1      41.872  28.745  32.427  1.00  0.00     0.031 A 
ATOM     42  C   UNL A   1      42.568  28.228  33.639  1.00  0.00     0.074 A 
ATOM     43  C   UNL A   1      42.107  28.147  31.234  1.00  0.00     0.049 A 
ATOM     44  N   UNL A   1      43.755  28.537  34.044  1.00  0.00    -0.248 NA
ATOM     45  C   UNL A   1      41.865  27.308  34.543  1.00  0.00     0.031 C 
ATOM     46  C   UNL A   1      41.376  28.271  29.956  1.00  0.00     0.029 A 
ATOM     47  N   UNL A   1      43.005  27.171  30.950  1.00  0.00    -0.354 N 
ATOM     48  C   UNL A   1      44.037  27.719  35.137  1.00  0.00     0.074 A 
ATOM     49  C   UNL A   1      42.781  27.110  35.500  1.00  0.00     0.031 C 
ATOM     50  C   UNL A   1      41.666  27.228  29.155  1.00  0.00     0.029 A 
ATOM     51  C   UNL A   1      42.785  26.528  29.741  1.00  0.00     0.049 A 
ATOM     52  H   UNL A   1      43.749  26.940  31.550  1.00  0.00     0.167 HD
ATOM     53  C   UNL A   1      45.321  27.467  35.534  1.00  0.00     0.037 A 
ATOM     54  C   UNL A   1      43.503  25.517  29.209  1.00  0.00     0.037 A 
ATOM     55  C   UNL A   1      46.256  28.270  34.782  1.00  0.00     0.049 A 
ATOM     56  C   UNL A   1      44.854  25.607  29.821  1.00  0.00     0.074 A 
ATOM     57  C   UNL A   1      46.466  29.626  34.626  1.00  0.00     0.029 A 
ATOM     58  N   UNL A   1      46.894  27.672  33.717  1.00  0.00    -0.354 N 
ATOM     59  N   UNL A   1      45.659  26.624  29.641  1.00  0.00    -0.248 NA
ATOM     60  C   UNL A   1      45.121  24.817  31.012  1.00  0.00     0.031 C 
ATOM     61  C   UNL A   1      46.764  29.793  33.242  1.00  0.00     0.029 A 
ATOM     62  C   UNL A   1      46.795  28.528  32.648  1.00  0.00     0.049 A 
ATOM     63  H   UNL A   1      47.340  26.793  33.722  1.00  0.00     0.167 HD
ATOM     64  C   UNL A   1      46.236  26.856  30.883  1.00  0.00     0.074 A 
ATOM     65  C   UNL A   1      45.953  25.645  31.654  1.00  0.00     0.031 C 
ATOM     66  C   UNL A   1      46.643  28.106  31.268  1.00  0.00     0.037 A 
BRANCH  53  67
ATOM     67  C   UNL A   1      45.804  26.309  36.376  1.00  0.00     0.058 A 
ATOM     68  C   UNL A   1      45.583  24.987  35.928  1.00  0.00     0.135 A 
ATOM     69  C   UNL A   1      46.244  26.431  37.709  1.00  0.00     0.135 A 
ATOM     70  F   UNL A   1      45.170  24.751  34.672  1.00  0.00    -0.206 F 
ATOM     71  C   UNL A   1      45.711  23.878  36.764  1.00  0.00     0.059 A 
ATOM     72  C   UNL A   1      46.433  25.333  38.546  1.00  0.00     0.059 A 
ATOM     73  F   UNL A   1      46.415  27.624  38.290  1.00  0.00    -0.206 F 
ATOM     74  C   UNL A   1      46.117  24.065  38.081  1.00  0.00     0.060 A 
BRANCH  74  75
ATOM     75  S   UNL A   1      46.148  22.653  39.203  1.00  0.00     0.124 S 
ATOM     76  O   UNL A   1      47.524  22.698  39.685  1.00  0.00    -0.237 OA
ATOM     77  O   UNL A   1      45.119  23.009  40.174  1.00  0.00    -0.237 OA
ATOM     78  O   UNL A   1      45.820  21.527  38.334  1.00  0.00    -0.744 OA
ENDBRANCH  74  75
ENDBRANCH  53  67
BRANCH  54  79
ATOM     79  C   UNL A   1      42.964  24.366  28.446  1.00  0.00     0.058 A 
ATOM     80  C   UNL A   1      42.969  24.358  27.045  1.00  0.00     0.135 A 
ATOM     81  C   UNL A   1      42.658  23.139  29.078  1.00  0.00     0.135 A 
ATOM     82  F   UNL A   1      43.259  25.479  26.367  1.00  0.00    -0.206 F 
ATOM     83  C   UNL A   1      42.746  23.191  26.310  1.00  0.00     0.059 A 
ATOM     84  C   UNL A   1      42.416  21.966  28.366  1.00  0.00     0.059 A 
ATOM     85  F   UNL A   1      42.673  23.019  30.415  1.00  0.00    -0.206 F 
ATOM     86  C   UNL A   1      42.494  21.993  26.981  1.00  0.00     0.060 A 
BRANCH  86  87
ATOM     87  S   UNL A   1      42.419  20.449  26.044  1.00  0.00     0.124 S 
ATOM     88  O   UNL A   1      41.056  20.479  25.525  1.00  0.00    -0.237 OA
ATOM     89  O   UNL A   1      43.482  20.636  25.063  1.00  0.00    -0.237 OA
ATOM     90  O   UNL A   1      42.683  19.429  27.056  1.00  0.00    -0.744 OA
ENDBRANCH  86  87
ENDBRANCH  54  79
BRANCH  66  91
ATOM     91  C   UNL A   1      46.697  29.203  30.226  1.00  0.00     0.058 A 
ATOM     92  C   UNL A   1      47.749  29.367  29.308  1.00  0.00     0.135 A 
ATOM     93  C   UNL A   1      45.560  30.000  30.022  1.00  0.00     0.135 A 
ATOM     94  F   UNL A   1      48.829  28.583  29.351  1.00  0.00    -0.206 F 
ATOM     95  C   UNL A   1      47.697  30.293  28.265  1.00  0.00     0.059 A 
ATOM     96  C   UNL A   1      45.471  30.913  28.970  1.00  0.00     0.059 A 
ATOM     97  F   UNL A   1      44.488  29.853  30.817  1.00  0.00    -0.206 F 
ATOM     98  C   UNL A   1      46.550  31.062  28.101  1.00  0.00     0.060 A 
BRANCH  98  99
ATOM     99  S   UNL A   1      46.453  32.193  26.697  1.00  0.00     0.124 S 
ATOM    100  O   UNL A   1      45.882  33.389  27.305  1.00  0.00    -0.237 OA
ATOM    101  O   UNL A   1      47.848  32.301  26.277  1.00  0.00    -0.237 OA
ATOM    102  O   UNL A   1      45.583  31.493  25.756  1.00  0.00    -0.744 OA
ENDBRANCH  98  99
ENDBRANCH  66  91
ENDBRANCH  40  41
ENDBRANCH  32  35
ENDBRANCH  30  31
ENDBRANCH   1  30
TORSDOF 16
ENDMDL
