MODEL 1
REMARK VINA RESULT:     -10.5      0.000      0.000
REMARK SMILES O=C(NCCCNC(=O)[C@H](F)[C@H](O)C1CCOCC1)c1ccc(-c2c3nc(c(-c4c(F)cc(S(=O)(=O)[O-])cc4F)c4ccc([nH]4)c(-c4c(F)cc(S(=O)(=O)[O-])cc4F)c4nc(c(-c5c(F)cc(S(=O)(=O)[O-])cc5F)c5ccc2[nH]5)C=C4)C=C3)cc1
REMARK SMILES IDX 4 1 3 2 1 3 2 4 20 6 21 7 85 8 22 9 84 10 23 11 24 12 25 13
REMARK SMILES IDX 78 14 26 15 83 16 77 17 79 18 27 19 82 20 76 21 75 22 28 24
REMARK SMILES IDX 62 25 41 26 61 27 42 28 45 29 60 30 80 31 43 32 44 33 59 35
REMARK SMILES IDX 81 36 46 37 29 38 30 39 39 40 31 41 32 42 38 43 40 44 33 45
REMARK SMILES IDX 34 46 35 47 36 48 37 49 63 50 64 51 73 52 65 53 66 54 72 55
REMARK SMILES IDX 74 56 67 57 68 58 69 59 70 60 71 61 47 62 48 63 57 64 49 65
REMARK SMILES IDX 50 66 56 67 58 68 51 69 52 70 53 71 54 72 55 73 5 74 6 75
REMARK SMILES IDX 7 76 8 77 9 79 10 80 11 81 12 82 14 83 15 84 19 85 16 86
REMARK SMILES IDX 18 87 17 88 13 89
REMARK H PARENT 3 5 79 23 45 34 7 78 13 90
REMARK Flexibility Score: inf
ROOT
ATOM      1  C   UNL A   1      37.090  33.128  30.401  1.00  0.00     0.118 C 
ENDROOT
BRANCH   1   2
ATOM      2  N   UNL A   1      36.384  31.947  30.883  1.00  0.00    -0.352 N 
ATOM      3  O   UNL A   1      35.857  29.764  30.998  1.00  0.00    -0.269 OA
ATOM      4  C   UNL A   1      36.706  30.622  30.750  1.00  0.00     0.251 C 
ATOM      5  H   UNL A   1      35.553  32.127  31.377  1.00  0.00     0.163 HD
BRANCH   4   6
ATOM      6  C   UNL A   1      38.059  30.229  30.310  1.00  0.00     0.039 A 
ATOM      7  C   UNL A   1      39.048  29.921  31.249  1.00  0.00     0.014 A 
ATOM      8  C   UNL A   1      38.329  30.127  28.944  1.00  0.00     0.014 A 
ATOM      9  C   UNL A   1      40.340  29.637  30.826  1.00  0.00     0.010 A 
ATOM     10  C   UNL A   1      39.605  29.757  28.520  1.00  0.00     0.010 A 
ATOM     11  C   UNL A   1      40.626  29.530  29.459  1.00  0.00    -0.014 A 
BRANCH  11  12
ATOM     12  C   UNL A   1      41.976  29.107  29.016  1.00  0.00     0.031 A 
ATOM     13  C   UNL A   1      43.093  30.101  28.907  1.00  0.00     0.074 A 
ATOM     14  C   UNL A   1      42.170  27.819  28.674  1.00  0.00     0.049 A 
ATOM     15  N   UNL A   1      44.307  29.929  28.453  1.00  0.00    -0.248 NA
ATOM     16  C   UNL A   1      42.808  31.472  29.356  1.00  0.00     0.031 C 
ATOM     17  C   UNL A   1      41.148  26.771  28.734  1.00  0.00     0.029 A 
ATOM     18  N   UNL A   1      43.281  27.175  28.194  1.00  0.00    -0.354 N 
ATOM     19  C   UNL A   1      44.924  31.171  28.534  1.00  0.00     0.074 A 
ATOM     20  C   UNL A   1      43.941  32.094  29.061  1.00  0.00     0.031 C 
ATOM     21  C   UNL A   1      41.678  25.616  28.308  1.00  0.00     0.029 A 
ATOM     22  C   UNL A   1      43.053  25.856  27.884  1.00  0.00     0.049 A 
ATOM     23  H   UNL A   1      44.155  27.614  28.083  1.00  0.00     0.167 HD
ATOM     24  C   UNL A   1      46.194  31.504  28.198  1.00  0.00     0.037 A 
ATOM     25  C   UNL A   1      43.845  24.947  27.284  1.00  0.00     0.037 A 
ATOM     26  C   UNL A   1      47.156  30.569  27.673  1.00  0.00     0.049 A 
ATOM     27  C   UNL A   1      45.237  25.342  26.890  1.00  0.00     0.074 A 
ATOM     28  C   UNL A   1      48.480  30.792  27.343  1.00  0.00     0.029 A 
ATOM     29  N   UNL A   1      46.891  29.237  27.383  1.00  0.00    -0.354 N 
ATOM     30  N   UNL A   1      45.824  26.510  27.016  1.00  0.00    -0.248 NA
ATOM     31  C   UNL A   1      46.077  24.307  26.276  1.00  0.00     0.031 C 
ATOM     32  C   UNL A   1      49.000  29.612  26.800  1.00  0.00     0.029 A 
ATOM     33  C   UNL A   1      48.019  28.634  26.850  1.00  0.00     0.049 A 
ATOM     34  H   UNL A   1      46.028  28.787  27.534  1.00  0.00     0.167 HD
ATOM     35  C   UNL A   1      47.110  26.344  26.519  1.00  0.00     0.074 A 
ATOM     36  C   UNL A   1      47.216  24.964  26.091  1.00  0.00     0.031 C 
ATOM     37  C   UNL A   1      48.111  27.254  26.435  1.00  0.00     0.037 A 
BRANCH  24  38
ATOM     38  C   UNL A   1      46.595  32.948  28.348  1.00  0.00     0.058 A 
ATOM     39  C   UNL A   1      46.444  33.877  27.305  1.00  0.00     0.135 A 
ATOM     40  C   UNL A   1      47.144  33.410  29.556  1.00  0.00     0.135 A 
ATOM     41  F   UNL A   1      45.933  33.491  26.125  1.00  0.00    -0.206 F 
ATOM     42  C   UNL A   1      46.872  35.195  27.435  1.00  0.00     0.059 A 
ATOM     43  C   UNL A   1      47.551  34.730  29.720  1.00  0.00     0.059 A 
ATOM     44  F   UNL A   1      47.305  32.569  30.591  1.00  0.00    -0.206 F 
ATOM     45  C   UNL A   1      47.435  35.609  28.644  1.00  0.00     0.060 A 
BRANCH  45  46
ATOM     46  S   UNL A   1      48.037  37.305  28.779  1.00  0.00     0.124 S 
ATOM     47  O   UNL A   1      48.775  37.251  30.037  1.00  0.00    -0.237 OA
ATOM     48  O   UNL A   1      48.850  37.447  27.575  1.00  0.00    -0.237 OA
ATOM     49  O   UNL A   1      46.813  38.100  28.804  1.00  0.00    -0.744 OA
ENDBRANCH  45  46
ENDBRANCH  24  38
BRANCH  25  50
ATOM     50  C   UNL A   1      43.303  23.590  27.017  1.00  0.00     0.058 A 
ATOM     51  C   UNL A   1      42.984  23.181  25.715  1.00  0.00     0.135 A 
ATOM     52  C   UNL A   1      43.192  22.643  28.049  1.00  0.00     0.135 A 
ATOM     53  F   UNL A   1      43.074  24.051  24.697  1.00  0.00    -0.206 F 
ATOM     54  C   UNL A   1      42.585  21.877  25.443  1.00  0.00     0.059 A 
ATOM     55  C   UNL A   1      42.819  21.328  27.798  1.00  0.00     0.059 A 
ATOM     56  F   UNL A   1      43.506  22.982  29.309  1.00  0.00    -0.206 F 
ATOM     57  C   UNL A   1      42.519  20.954  26.488  1.00  0.00     0.060 A 
BRANCH  57  58
ATOM     58  S   UNL A   1      42.101  19.240  26.105  1.00  0.00     0.124 S 
ATOM     59  O   UNL A   1      42.488  18.560  27.336  1.00  0.00    -0.237 OA
ATOM     60  O   UNL A   1      40.666  19.327  25.848  1.00  0.00    -0.237 OA
ATOM     61  O   UNL A   1      42.923  18.945  24.935  1.00  0.00    -0.744 OA
ENDBRANCH  57  58
ENDBRANCH  25  50
BRANCH  37  62
ATOM     62  C   UNL A   1      49.434  26.788  25.893  1.00  0.00     0.058 A 
ATOM     63  C   UNL A   1      49.829  27.054  24.574  1.00  0.00     0.135 A 
ATOM     64  C   UNL A   1      50.360  26.161  26.744  1.00  0.00     0.135 A 
ATOM     65  F   UNL A   1      48.977  27.639  23.718  1.00  0.00    -0.206 F 
ATOM     66  C   UNL A   1      51.100  26.719  24.117  1.00  0.00     0.059 A 
ATOM     67  C   UNL A   1      51.643  25.839  26.316  1.00  0.00     0.059 A 
ATOM     68  F   UNL A   1      50.030  25.888  28.017  1.00  0.00    -0.206 F 
ATOM     69  C   UNL A   1      52.004  26.123  25.000  1.00  0.00     0.060 A 
BRANCH  69  70
ATOM     70  S   UNL A   1      53.678  25.776  24.420  1.00  0.00     0.124 S 
ATOM     71  O   UNL A   1      54.444  26.825  25.087  1.00  0.00    -0.237 OA
ATOM     72  O   UNL A   1      53.902  24.419  24.908  1.00  0.00    -0.237 OA
ATOM     73  O   UNL A   1      53.570  25.905  22.970  1.00  0.00    -0.744 OA
ENDBRANCH  69  70
ENDBRANCH  37  62
ENDBRANCH  11  12
ENDBRANCH   4   6
ENDBRANCH   1   2
BRANCH   1  74
ATOM     74  C   UNL A   1      38.192  33.566  31.358  1.00  0.00     0.042 C 
BRANCH  74  75
ATOM     75  C   UNL A   1      37.722  34.582  32.386  1.00  0.00     0.117 C 
BRANCH  75  76
ATOM     76  N   UNL A   1      37.168  33.941  33.569  1.00  0.00    -0.353 N 
ATOM     77  C   UNL A   1      35.956  34.195  34.157  1.00  0.00     0.257 C 
ATOM     78  H   UNL A   1      37.724  33.249  33.994  1.00  0.00     0.163 HD
ATOM     79  O   UNL A   1      35.626  33.562  35.162  1.00  0.00    -0.272 OA
BRANCH  77  80
ATOM     80  C   UNL A   1      35.046  35.202  33.471  1.00  0.00     0.283 C 
ATOM     81  F   UNL A   1      34.447  36.028  34.382  1.00  0.00    -0.234 F 
BRANCH  80  82
ATOM     82  C   UNL A   1      33.957  34.550  32.610  1.00  0.00     0.161 C 
BRANCH  82  83
ATOM     83  C   UNL A   1      33.940  35.255  31.227  1.00  0.00     0.026 C 
ATOM     84  C   UNL A   1      32.965  36.441  31.215  1.00  0.00     0.035 C 
ATOM     85  C   UNL A   1      33.641  34.329  30.042  1.00  0.00     0.035 C 
ATOM     86  C   UNL A   1      32.974  37.119  29.851  1.00  0.00     0.160 C 
ATOM     87  C   UNL A   1      33.628  35.127  28.746  1.00  0.00     0.160 C 
ATOM     88  O   UNL A   1      32.672  36.184  28.814  1.00  0.00    -0.381 OA
ENDBRANCH  82  83
BRANCH  82  89
ATOM     89  O   UNL A   1      34.210  33.149  32.452  1.00  0.00    -0.389 OA
ATOM     90  H   UNL A   1      33.932  32.677  33.252  1.00  0.00     0.211 HD
ENDBRANCH  82  89
ENDBRANCH  80  82
ENDBRANCH  77  80
ENDBRANCH  75  76
ENDBRANCH  74  75
ENDBRANCH   1  74
TORSDOF 16
ENDMDL
MODEL 2
REMARK VINA RESULT:     -10.5      4.344     10.975
REMARK SMILES O=C(NCCCNC(=O)[C@H](F)[C@H](O)C1CCOCC1)c1ccc(-c2c3nc(c(-c4c(F)cc(S(=O)(=O)[O-])cc4F)c4ccc([nH]4)c(-c4c(F)cc(S(=O)(=O)[O-])cc4F)c4nc(c(-c5c(F)cc(S(=O)(=O)[O-])cc5F)c5ccc2[nH]5)C=C4)C=C3)cc1
REMARK SMILES IDX 4 1 3 2 1 3 2 4 20 6 21 7 85 8 22 9 84 10 23 11 24 12 25 13
REMARK SMILES IDX 78 14 26 15 83 16 77 17 79 18 27 19 82 20 76 21 75 22 28 24
REMARK SMILES IDX 62 25 41 26 61 27 42 28 45 29 60 30 80 31 43 32 44 33 59 35
REMARK SMILES IDX 81 36 46 37 29 38 30 39 39 40 31 41 32 42 38 43 40 44 33 45
REMARK SMILES IDX 34 46 35 47 36 48 37 49 63 50 64 51 73 52 65 53 66 54 72 55
REMARK SMILES IDX 74 56 67 57 68 58 69 59 70 60 71 61 47 62 48 63 57 64 49 65
REMARK SMILES IDX 50 66 56 67 58 68 51 69 52 70 53 71 54 72 55 73 5 74 6 75
REMARK SMILES IDX 7 76 8 77 9 79 10 80 11 81 12 82 14 83 15 84 19 85 16 86
REMARK SMILES IDX 18 87 17 88 13 89
REMARK H PARENT 3 5 79 23 45 34 7 78 13 90
REMARK Flexibility Score: inf
ROOT
ATOM      1  C   UNL A   1      39.061  20.451  25.865  1.00  0.00     0.118 C 
ENDROOT
BRANCH   1   2
ATOM      2  N   UNL A   1      40.110  19.445  25.986  1.00  0.00    -0.352 N 
ATOM      3  O   UNL A   1      42.207  18.637  25.932  1.00  0.00    -0.269 OA
ATOM      4  C   UNL A   1      41.465  19.606  26.100  1.00  0.00     0.251 C 
ATOM      5  H   UNL A   1      39.798  18.512  25.985  1.00  0.00     0.163 HD
BRANCH   4   6
ATOM      6  C   UNL A   1      42.030  20.931  26.421  1.00  0.00     0.039 A 
ATOM      7  C   UNL A   1      42.325  21.274  27.744  1.00  0.00     0.014 A 
ATOM      8  C   UNL A   1      42.305  21.825  25.384  1.00  0.00     0.014 A 
ATOM      9  C   UNL A   1      42.774  22.554  28.043  1.00  0.00     0.010 A 
ATOM     10  C   UNL A   1      42.837  23.079  25.678  1.00  0.00     0.010 A 
ATOM     11  C   UNL A   1      43.056  23.461  27.013  1.00  0.00    -0.014 A 
BRANCH  11  12
ATOM     12  C   UNL A   1      43.650  24.781  27.331  1.00  0.00     0.031 A 
ATOM     13  C   UNL A   1      42.797  25.901  27.849  1.00  0.00     0.074 A 
ATOM     14  C   UNL A   1      44.965  24.970  27.107  1.00  0.00     0.049 A 
ATOM     15  N   UNL A   1      43.127  27.142  28.092  1.00  0.00    -0.248 NA
ATOM     16  C   UNL A   1      41.386  25.589  28.119  1.00  0.00     0.031 C 
ATOM     17  C   UNL A   1      45.884  23.950  26.595  1.00  0.00     0.029 A 
ATOM     18  N   UNL A   1      45.752  26.081  27.262  1.00  0.00    -0.354 N 
ATOM     19  C   UNL A   1      41.963  27.769  28.518  1.00  0.00     0.074 A 
ATOM     20  C   UNL A   1      40.912  26.774  28.477  1.00  0.00     0.031 C 
ATOM     21  C   UNL A   1      47.108  24.482  26.479  1.00  0.00     0.029 A 
ATOM     22  C   UNL A   1      47.047  25.893  26.844  1.00  0.00     0.049 A 
ATOM     23  H   UNL A   1      45.422  26.930  27.636  1.00  0.00     0.167 HD
ATOM     24  C   UNL A   1      41.793  29.057  28.905  1.00  0.00     0.037 A 
ATOM     25  C   UNL A   1      48.065  26.766  26.723  1.00  0.00     0.037 A 
ATOM     26  C   UNL A   1      42.853  30.031  28.936  1.00  0.00     0.049 A 
ATOM     27  C   UNL A   1      47.850  28.194  27.125  1.00  0.00     0.074 A 
ATOM     28  C   UNL A   1      42.799  31.349  29.353  1.00  0.00     0.029 A 
ATOM     29  N   UNL A   1      44.157  29.800  28.514  1.00  0.00    -0.354 N 
ATOM     30  N   UNL A   1      46.754  28.763  27.571  1.00  0.00    -0.248 NA
ATOM     31  C   UNL A   1      48.999  29.100  27.014  1.00  0.00     0.031 C 
ATOM     32  C   UNL A   1      44.052  31.930  29.131  1.00  0.00     0.029 A 
ATOM     33  C   UNL A   1      44.907  30.958  28.635  1.00  0.00     0.049 A 
ATOM     34  H   UNL A   1      44.497  28.939  28.180  1.00  0.00     0.167 HD
ATOM     35  C   UNL A   1      47.088  30.089  27.817  1.00  0.00     0.074 A 
ATOM     36  C   UNL A   1      48.487  30.237  27.470  1.00  0.00     0.031 C 
ATOM     37  C   UNL A   1      46.304  31.088  28.292  1.00  0.00     0.037 A 
BRANCH  24  38
ATOM     38  C   UNL A   1      40.401  29.491  29.281  1.00  0.00     0.058 A 
ATOM     39  C   UNL A   1      39.399  29.700  28.319  1.00  0.00     0.135 A 
ATOM     40  C   UNL A   1      40.064  29.703  30.628  1.00  0.00     0.135 A 
ATOM     41  F   UNL A   1      39.665  29.520  27.015  1.00  0.00    -0.206 F 
ATOM     42  C   UNL A   1      38.132  30.157  28.673  1.00  0.00     0.059 A 
ATOM     43  C   UNL A   1      38.795  30.131  31.008  1.00  0.00     0.059 A 
ATOM     44  F   UNL A   1      40.978  29.512  31.592  1.00  0.00    -0.206 F 
ATOM     45  C   UNL A   1      37.844  30.380  30.021  1.00  0.00     0.060 A 
BRANCH  45  46
ATOM     46  S   UNL A   1      36.217  31.025  30.460  1.00  0.00     0.124 S 
ATOM     47  O   UNL A   1      35.944  30.304  31.699  1.00  0.00    -0.237 OA
ATOM     48  O   UNL A   1      36.474  32.455  30.605  1.00  0.00    -0.237 OA
ATOM     49  O   UNL A   1      35.384  30.653  29.320  1.00  0.00    -0.744 OA
ENDBRANCH  45  46
ENDBRANCH  24  38
BRANCH  25  50
ATOM     50  C   UNL A   1      49.360  26.286  26.175  1.00  0.00     0.058 A 
ATOM     51  C   UNL A   1      49.764  26.616  24.875  1.00  0.00     0.135 A 
ATOM     52  C   UNL A   1      50.261  25.572  26.982  1.00  0.00     0.135 A 
ATOM     53  F   UNL A   1      48.936  27.296  24.067  1.00  0.00    -0.206 F 
ATOM     54  C   UNL A   1      51.022  26.267  24.396  1.00  0.00     0.059 A 
ATOM     55  C   UNL A   1      51.533  25.233  26.534  1.00  0.00     0.059 A 
ATOM     56  F   UNL A   1      49.927  25.250  28.241  1.00  0.00    -0.206 F 
ATOM     57  C   UNL A   1      51.905  25.588  25.238  1.00  0.00     0.060 A 
BRANCH  57  58
ATOM     58  S   UNL A   1      53.571  25.232  24.640  1.00  0.00     0.124 S 
ATOM     59  O   UNL A   1      53.667  23.795  24.871  1.00  0.00    -0.237 OA
ATOM     60  O   UNL A   1      53.489  25.650  23.243  1.00  0.00    -0.237 OA
ATOM     61  O   UNL A   1      54.419  26.066  25.487  1.00  0.00    -0.744 OA
ENDBRANCH  57  58
ENDBRANCH  25  50
BRANCH  37  62
ATOM     62  C   UNL A   1      46.941  32.432  28.511  1.00  0.00     0.058 A 
ATOM     63  C   UNL A   1      46.931  33.426  27.522  1.00  0.00     0.135 A 
ATOM     64  C   UNL A   1      47.475  32.760  29.769  1.00  0.00     0.135 A 
ATOM     65  F   UNL A   1      46.444  33.158  26.299  1.00  0.00    -0.206 F 
ATOM     66  C   UNL A   1      47.422  34.703  27.774  1.00  0.00     0.059 A 
ATOM     67  C   UNL A   1      47.948  34.036  30.050  1.00  0.00     0.059 A 
ATOM     68  F   UNL A   1      47.505  31.844  30.750  1.00  0.00    -0.206 F 
ATOM     69  C   UNL A   1      47.917  35.002  29.045  1.00  0.00     0.060 A 
BRANCH  69  70
ATOM     70  S   UNL A   1      48.467  36.688  29.385  1.00  0.00     0.124 S 
ATOM     71  O   UNL A   1      48.525  37.255  28.041  1.00  0.00    -0.237 OA
ATOM     72  O   UNL A   1      47.402  37.196  30.243  1.00  0.00    -0.237 OA
ATOM     73  O   UNL A   1      49.757  36.499  30.042  1.00  0.00    -0.744 OA
ENDBRANCH  69  70
ENDBRANCH  37  62
ENDBRANCH  11  12
ENDBRANCH   4   6
ENDBRANCH   1   2
BRANCH   1  74
ATOM     74  C   UNL A   1      37.899  19.963  25.007  1.00  0.00     0.042 C 
BRANCH  74  75
ATOM     75  C   UNL A   1      36.817  21.013  24.816  1.00  0.00     0.117 C 
BRANCH  75  76
ATOM     76  N   UNL A   1      35.909  21.071  25.952  1.00  0.00    -0.353 N 
ATOM     77  C   UNL A   1      34.541  21.144  25.915  1.00  0.00     0.257 C 
ATOM     78  H   UNL A   1      36.323  21.057  26.844  1.00  0.00     0.163 HD
ATOM     79  O   UNL A   1      33.908  21.185  26.971  1.00  0.00    -0.272 OA
BRANCH  77  80
ATOM     80  C   UNL A   1      33.876  21.085  24.548  1.00  0.00     0.283 C 
ATOM     81  F   UNL A   1      33.372  22.305  24.191  1.00  0.00    -0.234 F 
BRANCH  80  82
ATOM     82  C   UNL A   1      32.752  20.045  24.463  1.00  0.00     0.161 C 
BRANCH  82  83
ATOM     83  C   UNL A   1      33.383  18.633  24.594  1.00  0.00     0.026 C 
ATOM     84  C   UNL A   1      33.416  17.907  23.242  1.00  0.00     0.035 C 
ATOM     85  C   UNL A   1      32.723  17.734  25.646  1.00  0.00     0.035 C 
ATOM     86  C   UNL A   1      34.047  16.527  23.397  1.00  0.00     0.160 C 
ATOM     87  C   UNL A   1      33.405  16.373  25.673  1.00  0.00     0.160 C 
ATOM     88  O   UNL A   1      33.358  15.760  24.386  1.00  0.00    -0.381 OA
ENDBRANCH  82  83
BRANCH  82  89
ATOM     89  O   UNL A   1      31.788  20.258  25.499  1.00  0.00    -0.389 OA
ATOM     90  H   UNL A   1      31.309  21.085  25.332  1.00  0.00     0.211 HD
ENDBRANCH  82  89
ENDBRANCH  80  82
ENDBRANCH  77  80
ENDBRANCH  75  76
ENDBRANCH  74  75
ENDBRANCH   1  74
TORSDOF 16
ENDMDL
MODEL 3
REMARK VINA RESULT:     -10.4      2.963      4.010
REMARK SMILES O=C(NCCCNC(=O)[C@H](F)[C@H](O)C1CCOCC1)c1ccc(-c2c3nc(c(-c4c(F)cc(S(=O)(=O)[O-])cc4F)c4ccc([nH]4)c(-c4c(F)cc(S(=O)(=O)[O-])cc4F)c4nc(c(-c5c(F)cc(S(=O)(=O)[O-])cc5F)c5ccc2[nH]5)C=C4)C=C3)cc1
REMARK SMILES IDX 4 1 3 2 1 3 2 4 20 6 21 7 85 8 22 9 84 10 23 11 24 12 25 13
REMARK SMILES IDX 78 14 26 15 83 16 77 17 79 18 27 19 82 20 76 21 75 22 28 24
REMARK SMILES IDX 62 25 41 26 61 27 42 28 45 29 60 30 80 31 43 32 44 33 59 35
REMARK SMILES IDX 81 36 46 37 29 38 30 39 39 40 31 41 32 42 38 43 40 44 33 45
REMARK SMILES IDX 34 46 35 47 36 48 37 49 63 50 64 51 73 52 65 53 66 54 72 55
REMARK SMILES IDX 74 56 67 57 68 58 69 59 70 60 71 61 47 62 48 63 57 64 49 65
REMARK SMILES IDX 50 66 56 67 58 68 51 69 52 70 53 71 54 72 55 73 5 74 6 75
REMARK SMILES IDX 7 76 8 77 9 79 10 80 11 81 12 82 14 83 15 84 19 85 16 86
REMARK SMILES IDX 18 87 17 88 13 89
REMARK H PARENT 3 5 79 23 45 34 7 78 13 90
REMARK Flexibility Score: inf
ROOT
ATOM      1  C   UNL A   1      34.856  32.592  27.966  1.00  0.00     0.118 C 
ENDROOT
BRANCH   1   2
ATOM      2  N   UNL A   1      34.090  31.352  27.954  1.00  0.00    -0.352 N 
ATOM      3  O   UNL A   1      33.736  29.150  27.671  1.00  0.00    -0.269 OA
ATOM      4  C   UNL A   1      34.528  30.054  27.940  1.00  0.00     0.251 C 
ATOM      5  H   UNL A   1      33.112  31.463  27.956  1.00  0.00     0.163 HD
BRANCH   4   6
ATOM      6  C   UNL A   1      35.939  29.745  28.244  1.00  0.00     0.039 A 
ATOM      7  C   UNL A   1      36.315  29.344  29.529  1.00  0.00     0.014 A 
ATOM      8  C   UNL A   1      36.888  29.818  27.223  1.00  0.00     0.014 A 
ATOM      9  C   UNL A   1      37.657  29.140  29.825  1.00  0.00     0.010 A 
ATOM     10  C   UNL A   1      38.223  29.529  27.501  1.00  0.00     0.010 A 
ATOM     11  C   UNL A   1      38.621  29.208  28.811  1.00  0.00    -0.014 A 
BRANCH  11  12
ATOM     12  C   UNL A   1      40.033  28.870  29.107  1.00  0.00     0.031 A 
ATOM     13  C   UNL A   1      40.966  29.901  29.670  1.00  0.00     0.074 A 
ATOM     14  C   UNL A   1      40.474  27.629  28.825  1.00  0.00     0.049 A 
ATOM     15  N   UNL A   1      42.249  29.809  29.904  1.00  0.00    -0.248 NA
ATOM     16  C   UNL A   1      40.385  31.210  30.002  1.00  0.00     0.031 C 
ATOM     17  C   UNL A   1      39.652  26.552  28.267  1.00  0.00     0.029 A 
ATOM     18  N   UNL A   1      41.718  27.069  28.949  1.00  0.00    -0.354 N 
ATOM     19  C   UNL A   1      42.638  31.053  30.385  1.00  0.00     0.074 A 
ATOM     20  C   UNL A   1      41.457  31.890  30.387  1.00  0.00     0.031 C 
ATOM     21  C   UNL A   1      40.412  25.462  28.098  1.00  0.00     0.029 A 
ATOM     22  C   UNL A   1      41.786  25.782  28.472  1.00  0.00     0.049 A 
ATOM     23  H   UNL A   1      42.488  27.541  29.342  1.00  0.00     0.167 HD
ATOM     24  C   UNL A   1      43.869  31.454  30.785  1.00  0.00     0.037 A 
ATOM     25  C   UNL A   1      42.841  24.961  28.308  1.00  0.00     0.037 A 
ATOM     26  C   UNL A   1      45.032  30.604  30.773  1.00  0.00     0.049 A 
ATOM     27  C   UNL A   1      44.201  25.433  28.727  1.00  0.00     0.074 A 
ATOM     28  C   UNL A   1      46.316  30.897  31.199  1.00  0.00     0.029 A 
ATOM     29  N   UNL A   1      45.058  29.301  30.291  1.00  0.00    -0.354 N 
ATOM     30  N   UNL A   1      44.547  26.597  29.225  1.00  0.00    -0.248 NA
ATOM     31  C   UNL A   1      45.314  24.489  28.568  1.00  0.00     0.031 C 
ATOM     32  C   UNL A   1      47.129  29.793  30.922  1.00  0.00     0.029 A 
ATOM     33  C   UNL A   1      46.342  28.788  30.383  1.00  0.00     0.049 A 
ATOM     34  H   UNL A   1      44.279  28.815  29.937  1.00  0.00     0.167 HD
ATOM     35  C   UNL A   1      45.913  26.519  29.462  1.00  0.00     0.074 A 
ATOM     36  C   UNL A   1      46.330  25.193  29.053  1.00  0.00     0.031 C 
ATOM     37  C   UNL A   1      46.741  27.460  29.978  1.00  0.00     0.037 A 
BRANCH  24  38
ATOM     38  C   UNL A   1      44.024  32.886  31.227  1.00  0.00     0.058 A 
ATOM     39  C   UNL A   1      43.820  33.282  32.559  1.00  0.00     0.135 A 
ATOM     40  C   UNL A   1      44.379  33.879  30.299  1.00  0.00     0.135 A 
ATOM     41  F   UNL A   1      43.471  32.377  33.488  1.00  0.00    -0.206 F 
ATOM     42  C   UNL A   1      43.909  34.616  32.944  1.00  0.00     0.059 A 
ATOM     43  C   UNL A   1      44.504  35.215  30.667  1.00  0.00     0.059 A 
ATOM     44  F   UNL A   1      44.593  33.558  29.013  1.00  0.00    -0.206 F 
ATOM     45  C   UNL A   1      44.241  35.578  31.986  1.00  0.00     0.060 A 
BRANCH  45  46
ATOM     46  S   UNL A   1      44.298  37.311  32.488  1.00  0.00     0.124 S 
ATOM     47  O   UNL A   1      45.596  37.377  33.152  1.00  0.00    -0.237 OA
ATOM     48  O   UNL A   1      44.206  38.011  31.211  1.00  0.00    -0.237 OA
ATOM     49  O   UNL A   1      43.138  37.451  33.362  1.00  0.00    -0.744 OA
ENDBRANCH  45  46
ENDBRANCH  24  38
BRANCH  25  50
ATOM     50  C   UNL A   1      42.621  23.624  27.700  1.00  0.00     0.058 A 
ATOM     51  C   UNL A   1      42.723  23.432  26.316  1.00  0.00     0.135 A 
ATOM     52  C   UNL A   1      42.404  22.494  28.506  1.00  0.00     0.135 A 
ATOM     53  F   UNL A   1      42.928  24.482  25.506  1.00  0.00    -0.206 F 
ATOM     54  C   UNL A   1      42.632  22.164  25.751  1.00  0.00     0.059 A 
ATOM     55  C   UNL A   1      42.334  21.214  27.967  1.00  0.00     0.059 A 
ATOM     56  F   UNL A   1      42.319  22.625  29.839  1.00  0.00    -0.206 F 
ATOM     57  C   UNL A   1      42.451  21.060  26.586  1.00  0.00     0.060 A 
BRANCH  57  58
ATOM     58  S   UNL A   1      42.438  19.411  25.851  1.00  0.00     0.124 S 
ATOM     59  O   UNL A   1      42.978  18.600  26.937  1.00  0.00    -0.237 OA
ATOM     60  O   UNL A   1      41.021  19.221  25.555  1.00  0.00    -0.237 OA
ATOM     61  O   UNL A   1      43.301  19.556  24.682  1.00  0.00    -0.744 OA
ENDBRANCH  57  58
ENDBRANCH  25  50
BRANCH  37  62
ATOM     62  C   UNL A   1      48.185  27.089  30.174  1.00  0.00     0.058 A 
ATOM     63  C   UNL A   1      49.142  27.285  29.168  1.00  0.00     0.135 A 
ATOM     64  C   UNL A   1      48.628  26.628  31.425  1.00  0.00     0.135 A 
ATOM     65  F   UNL A   1      48.768  27.711  27.951  1.00  0.00    -0.206 F 
ATOM     66  C   UNL A   1      50.493  27.045  29.399  1.00  0.00     0.059 A 
ATOM     67  C   UNL A   1      49.975  26.406  31.685  1.00  0.00     0.059 A 
ATOM     68  F   UNL A   1      47.750  26.427  32.421  1.00  0.00    -0.206 F 
ATOM     69  C   UNL A   1      50.901  26.618  30.664  1.00  0.00     0.060 A 
BRANCH  69  70
ATOM     70  S   UNL A   1      52.666  26.396  30.976  1.00  0.00     0.124 S 
ATOM     71  O   UNL A   1      52.976  27.583  31.768  1.00  0.00    -0.237 OA
ATOM     72  O   UNL A   1      52.699  25.127  31.694  1.00  0.00    -0.237 OA
ATOM     73  O   UNL A   1      53.247  26.367  29.637  1.00  0.00    -0.744 OA
ENDBRANCH  69  70
ENDBRANCH  37  62
ENDBRANCH  11  12
ENDBRANCH   4   6
ENDBRANCH   1   2
BRANCH   1  74
ATOM     74  C   UNL A   1      33.987  33.797  28.305  1.00  0.00     0.042 C 
BRANCH  74  75
ATOM     75  C   UNL A   1      34.360  34.450  29.627  1.00  0.00     0.117 C 
BRANCH  75  76
ATOM     76  N   UNL A   1      33.728  35.750  29.788  1.00  0.00    -0.353 N 
ATOM     77  C   UNL A   1      33.088  36.227  30.902  1.00  0.00     0.257 C 
ATOM     78  H   UNL A   1      33.762  36.353  29.011  1.00  0.00     0.163 HD
ATOM     79  O   UNL A   1      32.601  37.359  30.883  1.00  0.00    -0.272 OA
BRANCH  77  80
ATOM     80  C   UNL A   1      33.093  35.343  32.140  1.00  0.00     0.283 C 
ATOM     81  F   UNL A   1      31.910  35.440  32.821  1.00  0.00    -0.234 F 
BRANCH  80  82
ATOM     82  C   UNL A   1      34.243  35.656  33.106  1.00  0.00     0.161 C 
BRANCH  82  83
ATOM     83  C   UNL A   1      35.299  34.525  32.989  1.00  0.00     0.026 C 
ATOM     84  C   UNL A   1      34.637  33.140  32.967  1.00  0.00     0.035 C 
ATOM     85  C   UNL A   1      36.390  34.557  34.066  1.00  0.00     0.035 C 
ATOM     86  C   UNL A   1      35.694  32.049  32.843  1.00  0.00     0.160 C 
ATOM     87  C   UNL A   1      37.355  33.396  33.868  1.00  0.00     0.160 C 
ATOM     88  O   UNL A   1      36.657  32.151  33.894  1.00  0.00    -0.381 OA
ENDBRANCH  82  83
BRANCH  82  89
ATOM     89  O   UNL A   1      34.833  36.923  32.796  1.00  0.00    -0.389 OA
ATOM     90  H   UNL A   1      35.638  36.786  32.273  1.00  0.00     0.211 HD
ENDBRANCH  82  89
ENDBRANCH  80  82
ENDBRANCH  77  80
ENDBRANCH  75  76
ENDBRANCH  74  75
ENDBRANCH   1  74
TORSDOF 16
ENDMDL
