MODEL 1
REMARK VINA RESULT:     -12.3      0.000      0.000
REMARK SMILES O=C(CSc1nnc(Cc2ccncc2)n1-c1ccccc1Cl)NCCCNC(=O)c1ccc(-c2c3nc(c(-c4c(F)cc(S(=O)(=O)[O-])cc4F)c4ccc([nH]4)c(-c4c(F)cc(S(=O)(=O)[O-])cc4F)c4nc(c(-c5c(F)cc(S(=O)(=O)[O-])cc5F)c5ccc2[nH]5)C=C4)C=C3)cc1
REMARK SMILES IDX 25 1 24 2 1 3 2 4 3 6 4 7 5 8 6 9 16 10 7 11 8 12 17 13
REMARK SMILES IDX 18 14 22 15 19 16 21 17 23 18 20 19 9 20 10 21 11 22 15 23
REMARK SMILES IDX 12 24 14 25 13 26 26 27 27 28 28 29 29 30 30 32 31 33 32 34
REMARK SMILES IDX 96 35 33 36 95 37 34 38 35 39 36 40 89 41 37 42 94 43 88 44
REMARK SMILES IDX 90 45 38 46 93 47 87 48 86 49 39 51 73 52 52 53 72 54 53 55
REMARK SMILES IDX 56 56 71 57 91 58 54 59 55 60 70 62 92 63 57 64 40 65 41 66
REMARK SMILES IDX 50 67 42 68 43 69 49 70 51 71 44 72 45 73 46 74 47 75 48 76
REMARK SMILES IDX 74 77 75 78 84 79 76 80 77 81 83 82 85 83 78 84 79 85 80 86
REMARK SMILES IDX 81 87 82 88 58 89 59 90 68 91 60 92 61 93 67 94 69 95 62 96
REMARK SMILES IDX 63 97 64 98 65 99 66 100
REMARK H PARENT 24 5 28 31 90 50 56 61
REMARK Flexibility Score: inf
ROOT
ATOM      1  C   UNL A   1      31.857  29.858  26.245  1.00  0.00     0.117 C 
ENDROOT
BRANCH   1   2
ATOM      2  N   UNL A   1      32.143  29.255  24.951  1.00  0.00    -0.355 N 
ATOM      3  O   UNL A   1      30.118  29.767  24.046  1.00  0.00    -0.274 OA
ATOM      4  C   UNL A   1      31.271  29.361  23.895  1.00  0.00     0.230 C 
ATOM      5  H   UNL A   1      32.984  28.758  24.830  1.00  0.00     0.163 HD
BRANCH   4   6
ATOM      6  C   UNL A   1      31.738  28.871  22.535  1.00  0.00     0.178 C 
BRANCH   6   7
ATOM      7  S   UNL A   1      33.291  27.969  22.470  1.00  0.00    -0.076 SA
BRANCH   7   8
ATOM      8  C   UNL A   1      32.943  26.309  22.107  1.00  0.00     0.196 A 
ATOM      9  N   UNL A   1      33.489  25.710  21.072  1.00  0.00    -0.123 NA
ATOM     10  N   UNL A   1      32.417  25.355  22.961  1.00  0.00    -0.272 N 
ATOM     11  N   UNL A   1      33.361  24.358  21.239  1.00  0.00    -0.134 NA
ATOM     12  C   UNL A   1      32.721  24.139  22.370  1.00  0.00     0.142 A 
BRANCH  10  13
ATOM     13  C   UNL A   1      31.729  25.532  24.174  1.00  0.00     0.068 A 
ATOM     14  C   UNL A   1      30.340  25.713  24.146  1.00  0.00     0.028 A 
ATOM     15  C   UNL A   1      32.435  25.618  25.377  1.00  0.00     0.065 A 
ATOM     16  C   UNL A   1      29.653  25.900  25.347  1.00  0.00     0.002 A 
ATOM     17  C   UNL A   1      31.734  25.751  26.575  1.00  0.00     0.023 A 
ATOM     18  Cl  UNL A   1      34.155  25.716  25.431  1.00  0.00    -0.082 Cl
ATOM     19  C   UNL A   1      30.345  25.886  26.560  1.00  0.00     0.002 A 
ENDBRANCH  10  13
BRANCH  12  20
ATOM     20  C   UNL A   1      32.347  22.797  22.909  1.00  0.00     0.113 C 
BRANCH  20  21
ATOM     21  C   UNL A   1      33.248  22.357  24.039  1.00  0.00    -0.037 A 
ATOM     22  C   UNL A   1      34.639  22.402  23.895  1.00  0.00     0.024 A 
ATOM     23  C   UNL A   1      32.721  21.864  25.236  1.00  0.00     0.024 A 
ATOM     24  C   UNL A   1      35.434  21.968  24.943  1.00  0.00     0.111 A 
ATOM     25  C   UNL A   1      33.601  21.459  26.229  1.00  0.00     0.111 A 
ATOM     26  N   UNL A   1      34.946  21.509  26.115  1.00  0.00    -0.265 NA
ENDBRANCH  20  21
ENDBRANCH  12  20
ENDBRANCH   7   8
ENDBRANCH   6   7
ENDBRANCH   4   6
ENDBRANCH   1   2
BRANCH   1  27
ATOM     27  C   UNL A   1      32.984  29.769  27.279  1.00  0.00     0.042 C 
BRANCH  27  28
ATOM     28  C   UNL A   1      33.934  30.954  27.248  1.00  0.00     0.118 C 
BRANCH  28  29
ATOM     29  N   UNL A   1      33.891  31.775  28.459  1.00  0.00    -0.352 N 
ATOM     30  C   UNL A   1      34.808  31.805  29.500  1.00  0.00     0.251 C 
ATOM     31  H   UNL A   1      33.119  32.380  28.545  1.00  0.00     0.163 HD
ATOM     32  O   UNL A   1      34.506  32.259  30.588  1.00  0.00    -0.269 OA
BRANCH  30  33
ATOM     33  C   UNL A   1      36.158  31.258  29.257  1.00  0.00     0.039 A 
ATOM     34  C   UNL A   1      37.274  32.093  29.169  1.00  0.00     0.014 A 
ATOM     35  C   UNL A   1      36.299  29.875  29.182  1.00  0.00     0.014 A 
ATOM     36  C   UNL A   1      38.541  31.515  29.117  1.00  0.00     0.010 A 
ATOM     37  C   UNL A   1      37.548  29.311  29.287  1.00  0.00     0.010 A 
ATOM     38  C   UNL A   1      38.678  30.118  29.217  1.00  0.00    -0.014 A 
BRANCH  38  39
ATOM     39  C   UNL A   1      39.996  29.513  29.424  1.00  0.00     0.031 A 
ATOM     40  C   UNL A   1      40.353  29.351  30.862  1.00  0.00     0.074 A 
ATOM     41  C   UNL A   1      40.729  28.933  28.443  1.00  0.00     0.049 A 
ATOM     42  N   UNL A   1      41.239  30.007  31.534  1.00  0.00    -0.248 NA
ATOM     43  C   UNL A   1      39.513  28.472  31.699  1.00  0.00     0.031 C 
ATOM     44  C   UNL A   1      40.327  28.716  27.045  1.00  0.00     0.029 A 
ATOM     45  N   UNL A   1      41.945  28.310  28.496  1.00  0.00    -0.354 N 
ATOM     46  C   UNL A   1      41.270  29.406  32.791  1.00  0.00     0.074 A 
ATOM     47  C   UNL A   1      40.051  28.652  32.909  1.00  0.00     0.031 C 
ATOM     48  C   UNL A   1      41.143  27.808  26.469  1.00  0.00     0.029 A 
ATOM     49  C   UNL A   1      42.242  27.536  27.376  1.00  0.00     0.049 A 
ATOM     50  H   UNL A   1      42.558  28.401  29.262  1.00  0.00     0.167 HD
ATOM     51  C   UNL A   1      42.443  29.303  33.476  1.00  0.00     0.037 A 
ATOM     52  C   UNL A   1      43.324  26.743  27.173  1.00  0.00     0.037 A 
ATOM     53  C   UNL A   1      43.457  30.129  32.875  1.00  0.00     0.049 A 
ATOM     54  C   UNL A   1      44.394  27.219  28.076  1.00  0.00     0.074 A 
ATOM     55  C   UNL A   1      43.775  31.468  32.837  1.00  0.00     0.029 A 
ATOM     56  N   UNL A   1      44.094  29.526  31.825  1.00  0.00    -0.354 N 
ATOM     57  N   UNL A   1      44.953  28.395  27.969  1.00  0.00    -0.248 NA
ATOM     58  C   UNL A   1      44.622  26.530  29.341  1.00  0.00     0.031 C 
ATOM     59  C   UNL A   1      44.526  31.668  31.639  1.00  0.00     0.029 A 
ATOM     60  C   UNL A   1      44.692  30.442  31.002  1.00  0.00     0.049 A 
ATOM     61  H   UNL A   1      44.121  28.553  31.679  1.00  0.00     0.167 HD
ATOM     62  C   UNL A   1      45.218  28.762  29.270  1.00  0.00     0.074 A 
ATOM     63  C   UNL A   1      45.166  27.527  30.043  1.00  0.00     0.031 C 
ATOM     64  C   UNL A   1      45.111  30.061  29.670  1.00  0.00     0.037 A 
BRANCH  51  65
ATOM     65  C   UNL A   1      42.836  28.121  34.341  1.00  0.00     0.058 A 
ATOM     66  C   UNL A   1      43.080  28.318  35.718  1.00  0.00     0.135 A 
ATOM     67  C   UNL A   1      43.262  26.879  33.823  1.00  0.00     0.135 A 
ATOM     68  F   UNL A   1      42.751  29.477  36.310  1.00  0.00    -0.206 F 
ATOM     69  C   UNL A   1      43.719  27.360  36.510  1.00  0.00     0.059 A 
ATOM     70  C   UNL A   1      43.852  25.891  34.604  1.00  0.00     0.059 A 
ATOM     71  F   UNL A   1      43.220  26.601  32.515  1.00  0.00    -0.206 F 
ATOM     72  C   UNL A   1      44.102  26.148  35.941  1.00  0.00     0.060 A 
BRANCH  72  73
ATOM     73  S   UNL A   1      44.960  24.922  36.946  1.00  0.00     0.124 S 
ATOM     74  O   UNL A   1      44.443  25.217  38.278  1.00  0.00    -0.237 OA
ATOM     75  O   UNL A   1      44.510  23.671  36.346  1.00  0.00    -0.237 OA
ATOM     76  O   UNL A   1      46.369  25.240  36.731  1.00  0.00    -0.744 OA
ENDBRANCH  72  73
ENDBRANCH  51  65
BRANCH  52  77
ATOM     77  C   UNL A   1      43.443  25.477  26.407  1.00  0.00     0.058 A 
ATOM     78  C   UNL A   1      44.374  25.331  25.364  1.00  0.00     0.135 A 
ATOM     79  C   UNL A   1      42.851  24.291  26.884  1.00  0.00     0.135 A 
ATOM     80  F   UNL A   1      44.995  26.409  24.859  1.00  0.00    -0.206 F 
ATOM     81  C   UNL A   1      44.743  24.079  24.861  1.00  0.00     0.059 A 
ATOM     82  C   UNL A   1      43.201  23.031  26.399  1.00  0.00     0.059 A 
ATOM     83  F   UNL A   1      41.982  24.325  27.907  1.00  0.00    -0.206 F 
ATOM     84  C   UNL A   1      44.168  22.930  25.403  1.00  0.00     0.060 A 
BRANCH  84  85
ATOM     85  S   UNL A   1      44.772  21.305  24.881  1.00  0.00     0.124 S 
ATOM     86  O   UNL A   1      43.852  20.406  25.568  1.00  0.00    -0.237 OA
ATOM     87  O   UNL A   1      44.632  21.373  23.431  1.00  0.00    -0.237 OA
ATOM     88  O   UNL A   1      46.148  21.282  25.372  1.00  0.00    -0.744 OA
ENDBRANCH  84  85
ENDBRANCH  52  77
BRANCH  64  89
ATOM     89  C   UNL A   1      45.327  31.133  28.648  1.00  0.00     0.058 A 
ATOM     90  C   UNL A   1      44.319  31.796  27.929  1.00  0.00     0.135 A 
ATOM     91  C   UNL A   1      46.649  31.556  28.443  1.00  0.00     0.135 A 
ATOM     92  F   UNL A   1      43.024  31.496  28.119  1.00  0.00    -0.206 F 
ATOM     93  C   UNL A   1      44.620  32.816  27.023  1.00  0.00     0.059 A 
ATOM     94  C   UNL A   1      46.970  32.587  27.570  1.00  0.00     0.059 A 
ATOM     95  F   UNL A   1      47.651  30.982  29.129  1.00  0.00    -0.206 F 
ATOM     96  C   UNL A   1      45.950  33.206  26.852  1.00  0.00     0.060 A 
BRANCH  96  97
ATOM     97  S   UNL A   1      46.343  34.561  25.726  1.00  0.00     0.124 S 
ATOM     98  O   UNL A   1      45.448  34.298  24.605  1.00  0.00    -0.237 OA
ATOM     99  O   UNL A   1      46.029  35.740  26.528  1.00  0.00    -0.237 OA
ATOM    100  O   UNL A   1      47.765  34.372  25.446  1.00  0.00    -0.744 OA
ENDBRANCH  96  97
ENDBRANCH  64  89
ENDBRANCH  38  39
ENDBRANCH  30  33
ENDBRANCH  28  29
ENDBRANCH  27  28
ENDBRANCH   1  27
TORSDOF 18
ENDMDL
MODEL 2
REMARK VINA RESULT:     -12.2      1.573      2.436
REMARK SMILES O=C(CSc1nnc(Cc2ccncc2)n1-c1ccccc1Cl)NCCCNC(=O)c1ccc(-c2c3nc(c(-c4c(F)cc(S(=O)(=O)[O-])cc4F)c4ccc([nH]4)c(-c4c(F)cc(S(=O)(=O)[O-])cc4F)c4nc(c(-c5c(F)cc(S(=O)(=O)[O-])cc5F)c5ccc2[nH]5)C=C4)C=C3)cc1
REMARK SMILES IDX 25 1 24 2 1 3 2 4 3 6 4 7 5 8 6 9 16 10 7 11 8 12 17 13
REMARK SMILES IDX 18 14 22 15 19 16 21 17 23 18 20 19 9 20 10 21 11 22 15 23
REMARK SMILES IDX 12 24 14 25 13 26 26 27 27 28 28 29 29 30 30 32 31 33 32 34
REMARK SMILES IDX 96 35 33 36 95 37 34 38 35 39 36 40 89 41 37 42 94 43 88 44
REMARK SMILES IDX 90 45 38 46 93 47 87 48 86 49 39 51 73 52 52 53 72 54 53 55
REMARK SMILES IDX 56 56 71 57 91 58 54 59 55 60 70 62 92 63 57 64 40 65 41 66
REMARK SMILES IDX 50 67 42 68 43 69 49 70 51 71 44 72 45 73 46 74 47 75 48 76
REMARK SMILES IDX 74 77 75 78 84 79 76 80 77 81 83 82 85 83 78 84 79 85 80 86
REMARK SMILES IDX 81 87 82 88 58 89 59 90 68 91 60 92 61 93 67 94 69 95 62 96
REMARK SMILES IDX 63 97 64 98 65 99 66 100
REMARK H PARENT 24 5 28 31 90 50 56 61
REMARK Flexibility Score: inf
ROOT
ATOM      1  C   UNL A   1      32.080  28.832  26.529  1.00  0.00     0.117 C 
ENDROOT
BRANCH   1   2
ATOM      2  N   UNL A   1      31.781  27.872  25.477  1.00  0.00    -0.355 N 
ATOM      3  O   UNL A   1      30.746  26.386  26.857  1.00  0.00    -0.274 OA
ATOM      4  C   UNL A   1      31.020  26.752  25.713  1.00  0.00     0.230 C 
ATOM      5  H   UNL A   1      32.133  28.029  24.571  1.00  0.00     0.163 HD
BRANCH   4   6
ATOM      6  C   UNL A   1      30.598  25.914  24.520  1.00  0.00     0.178 C 
BRANCH   6   7
ATOM      7  S   UNL A   1      31.837  24.837  23.786  1.00  0.00    -0.076 SA
BRANCH   7   8
ATOM      8  C   UNL A   1      31.898  23.369  24.708  1.00  0.00     0.196 A 
ATOM      9  N   UNL A   1      30.800  22.713  25.015  1.00  0.00    -0.123 NA
ATOM     10  N   UNL A   1      32.991  22.544  24.902  1.00  0.00    -0.272 N 
ATOM     11  N   UNL A   1      31.146  21.442  25.387  1.00  0.00    -0.134 NA
ATOM     12  C   UNL A   1      32.459  21.335  25.319  1.00  0.00     0.142 A 
BRANCH  10  13
ATOM     13  C   UNL A   1      34.357  22.823  24.722  1.00  0.00     0.068 A 
ATOM     14  C   UNL A   1      34.919  22.668  23.449  1.00  0.00     0.028 A 
ATOM     15  C   UNL A   1      35.157  23.157  25.819  1.00  0.00     0.065 A 
ATOM     16  C   UNL A   1      36.278  22.932  23.267  1.00  0.00     0.002 A 
ATOM     17  C   UNL A   1      36.500  23.472  25.616  1.00  0.00     0.023 A 
ATOM     18  Cl  UNL A   1      34.585  23.054  27.442  1.00  0.00    -0.082 Cl
ATOM     19  C   UNL A   1      37.059  23.364  24.342  1.00  0.00     0.002 A 
ENDBRANCH  10  13
BRANCH  12  20
ATOM     20  C   UNL A   1      33.247  20.117  25.673  1.00  0.00     0.113 C 
BRANCH  20  21
ATOM     21  C   UNL A   1      33.280  19.104  24.553  1.00  0.00    -0.037 A 
ATOM     22  C   UNL A   1      32.369  19.189  23.494  1.00  0.00     0.024 A 
ATOM     23  C   UNL A   1      34.190  18.043  24.561  1.00  0.00     0.024 A 
ATOM     24  C   UNL A   1      32.413  18.229  22.496  1.00  0.00     0.111 A 
ATOM     25  C   UNL A   1      34.158  17.135  23.513  1.00  0.00     0.111 A 
ATOM     26  N   UNL A   1      33.297  17.209  22.475  1.00  0.00    -0.265 NA
ENDBRANCH  20  21
ENDBRANCH  12  20
ENDBRANCH   7   8
ENDBRANCH   6   7
ENDBRANCH   4   6
ENDBRANCH   1   2
BRANCH   1  27
ATOM     27  C   UNL A   1      33.406  28.613  27.265  1.00  0.00     0.042 C 
BRANCH  27  28
ATOM     28  C   UNL A   1      34.519  29.539  26.802  1.00  0.00     0.118 C 
BRANCH  28  29
ATOM     29  N   UNL A   1      34.321  30.936  27.192  1.00  0.00    -0.352 N 
ATOM     30  C   UNL A   1      34.922  31.621  28.239  1.00  0.00     0.251 C 
ATOM     31  H   UNL A   1      33.686  31.453  26.645  1.00  0.00     0.163 HD
ATOM     32  O   UNL A   1      34.441  32.652  28.670  1.00  0.00    -0.269 OA
BRANCH  30  33
ATOM     33  C   UNL A   1      36.156  31.058  28.823  1.00  0.00     0.039 A 
ATOM     34  C   UNL A   1      36.234  29.713  29.193  1.00  0.00     0.014 A 
ATOM     35  C   UNL A   1      37.266  31.890  28.935  1.00  0.00     0.014 A 
ATOM     36  C   UNL A   1      37.471  29.193  29.572  1.00  0.00     0.010 A 
ATOM     37  C   UNL A   1      38.507  31.344  29.157  1.00  0.00     0.010 A 
ATOM     38  C   UNL A   1      38.619  30.005  29.513  1.00  0.00    -0.014 A 
BRANCH  38  39
ATOM     39  C   UNL A   1      39.954  29.417  29.655  1.00  0.00     0.031 A 
ATOM     40  C   UNL A   1      40.378  29.248  31.073  1.00  0.00     0.074 A 
ATOM     41  C   UNL A   1      40.648  28.856  28.636  1.00  0.00     0.049 A 
ATOM     42  N   UNL A   1      41.285  29.911  31.711  1.00  0.00    -0.248 NA
ATOM     43  C   UNL A   1      39.590  28.351  31.940  1.00  0.00     0.031 C 
ATOM     44  C   UNL A   1      40.186  28.645  27.256  1.00  0.00     0.029 A 
ATOM     45  N   UNL A   1      41.874  28.250  28.629  1.00  0.00    -0.354 N 
ATOM     46  C   UNL A   1      41.382  29.300  32.959  1.00  0.00     0.074 A 
ATOM     47  C   UNL A   1      40.179  28.528  33.126  1.00  0.00     0.031 C 
ATOM     48  C   UNL A   1      40.987  27.753  26.636  1.00  0.00     0.029 A 
ATOM     49  C   UNL A   1      42.130  27.489  27.489  1.00  0.00     0.049 A 
ATOM     50  H   UNL A   1      42.520  28.343  29.366  1.00  0.00     0.167 HD
ATOM     51  C   UNL A   1      42.586  29.208  33.589  1.00  0.00     0.037 A 
ATOM     52  C   UNL A   1      43.213  26.714  27.230  1.00  0.00     0.037 A 
ATOM     53  C   UNL A   1      43.560  30.053  32.950  1.00  0.00     0.049 A 
ATOM     54  C   UNL A   1      44.317  27.197  28.088  1.00  0.00     0.074 A 
ATOM     55  C   UNL A   1      43.857  31.397  32.910  1.00  0.00     0.029 A 
ATOM     56  N   UNL A   1      44.157  29.468  31.866  1.00  0.00    -0.354 N 
ATOM     57  N   UNL A   1      44.853  28.382  27.965  1.00  0.00    -0.248 NA
ATOM     58  C   UNL A   1      44.612  26.501  29.334  1.00  0.00     0.031 C 
ATOM     59  C   UNL A   1      44.550  31.618  31.681  1.00  0.00     0.029 A 
ATOM     60  C   UNL A   1      44.703  30.399  31.025  1.00  0.00     0.049 A 
ATOM     61  H   UNL A   1      44.190  28.496  31.710  1.00  0.00     0.167 HD
ATOM     62  C   UNL A   1      45.173  28.741  29.257  1.00  0.00     0.074 A 
ATOM     63  C   UNL A   1      45.173  27.500  30.019  1.00  0.00     0.031 C 
ATOM     64  C   UNL A   1      45.066  30.035  29.673  1.00  0.00     0.037 A 
BRANCH  51  65
ATOM     65  C   UNL A   1      43.034  28.025  34.425  1.00  0.00     0.058 A 
ATOM     66  C   UNL A   1      43.334  28.212  35.791  1.00  0.00     0.135 A 
ATOM     67  C   UNL A   1      43.457  26.794  33.876  1.00  0.00     0.135 A 
ATOM     68  F   UNL A   1      43.013  29.360  36.409  1.00  0.00    -0.206 F 
ATOM     69  C   UNL A   1      44.021  27.257  36.546  1.00  0.00     0.059 A 
ATOM     70  C   UNL A   1      44.095  25.809  34.621  1.00  0.00     0.059 A 
ATOM     71  F   UNL A   1      43.363  26.528  32.569  1.00  0.00    -0.206 F 
ATOM     72  C   UNL A   1      44.399  26.057  35.949  1.00  0.00     0.060 A 
BRANCH  72  73
ATOM     73  S   UNL A   1      45.318  24.836  36.904  1.00  0.00     0.124 S 
ATOM     74  O   UNL A   1      44.636  24.893  38.192  1.00  0.00    -0.237 OA
ATOM     75  O   UNL A   1      45.111  23.622  36.122  1.00  0.00    -0.237 OA
ATOM     76  O   UNL A   1      46.682  25.357  36.889  1.00  0.00    -0.744 OA
ENDBRANCH  72  73
ENDBRANCH  51  65
BRANCH  52  77
ATOM     77  C   UNL A   1      43.314  25.456  26.447  1.00  0.00     0.058 A 
ATOM     78  C   UNL A   1      44.219  25.322  25.380  1.00  0.00     0.135 A 
ATOM     79  C   UNL A   1      42.736  24.264  26.927  1.00  0.00     0.135 A 
ATOM     80  F   UNL A   1      44.825  26.407  24.871  1.00  0.00    -0.206 F 
ATOM     81  C   UNL A   1      44.577  24.076  24.854  1.00  0.00     0.059 A 
ATOM     82  C   UNL A   1      43.076  23.010  26.420  1.00  0.00     0.059 A 
ATOM     83  F   UNL A   1      41.893  24.285  27.972  1.00  0.00    -0.206 F 
ATOM     84  C   UNL A   1      44.017  22.920  25.399  1.00  0.00     0.060 A 
BRANCH  84  85
ATOM     85  S   UNL A   1      44.610  21.302  24.845  1.00  0.00     0.124 S 
ATOM     86  O   UNL A   1      43.576  20.410  25.358  1.00  0.00    -0.237 OA
ATOM     87  O   UNL A   1      44.648  21.465  23.396  1.00  0.00    -0.237 OA
ATOM     88  O   UNL A   1      45.914  21.180  25.491  1.00  0.00    -0.744 OA
ENDBRANCH  84  85
ENDBRANCH  52  77
BRANCH  64  89
ATOM     89  C   UNL A   1      45.220  31.119  28.651  1.00  0.00     0.058 A 
ATOM     90  C   UNL A   1      44.173  31.839  28.055  1.00  0.00     0.135 A 
ATOM     91  C   UNL A   1      46.531  31.489  28.313  1.00  0.00     0.135 A 
ATOM     92  F   UNL A   1      42.894  31.591  28.378  1.00  0.00    -0.206 F 
ATOM     93  C   UNL A   1      44.422  32.865  27.139  1.00  0.00     0.059 A 
ATOM     94  C   UNL A   1      46.804  32.524  27.429  1.00  0.00     0.059 A 
ATOM     95  F   UNL A   1      47.574  30.859  28.879  1.00  0.00    -0.206 F 
ATOM     96  C   UNL A   1      45.743  33.201  26.834  1.00  0.00     0.060 A 
BRANCH  96  97
ATOM     97  S   UNL A   1      46.074  34.562  25.695  1.00  0.00     0.124 S 
ATOM     98  O   UNL A   1      45.206  34.239  24.569  1.00  0.00    -0.237 OA
ATOM     99  O   UNL A   1      45.690  35.732  26.480  1.00  0.00    -0.237 OA
ATOM    100  O   UNL A   1      47.507  34.445  25.431  1.00  0.00    -0.744 OA
ENDBRANCH  96  97
ENDBRANCH  64  89
ENDBRANCH  38  39
ENDBRANCH  30  33
ENDBRANCH  28  29
ENDBRANCH  27  28
ENDBRANCH   1  27
TORSDOF 18
ENDMDL
MODEL 3
REMARK VINA RESULT:     -12.2      2.831      9.418
REMARK SMILES O=C(CSc1nnc(Cc2ccncc2)n1-c1ccccc1Cl)NCCCNC(=O)c1ccc(-c2c3nc(c(-c4c(F)cc(S(=O)(=O)[O-])cc4F)c4ccc([nH]4)c(-c4c(F)cc(S(=O)(=O)[O-])cc4F)c4nc(c(-c5c(F)cc(S(=O)(=O)[O-])cc5F)c5ccc2[nH]5)C=C4)C=C3)cc1
REMARK SMILES IDX 25 1 24 2 1 3 2 4 3 6 4 7 5 8 6 9 16 10 7 11 8 12 17 13
REMARK SMILES IDX 18 14 22 15 19 16 21 17 23 18 20 19 9 20 10 21 11 22 15 23
REMARK SMILES IDX 12 24 14 25 13 26 26 27 27 28 28 29 29 30 30 32 31 33 32 34
REMARK SMILES IDX 96 35 33 36 95 37 34 38 35 39 36 40 89 41 37 42 94 43 88 44
REMARK SMILES IDX 90 45 38 46 93 47 87 48 86 49 39 51 73 52 52 53 72 54 53 55
REMARK SMILES IDX 56 56 71 57 91 58 54 59 55 60 70 62 92 63 57 64 40 65 41 66
REMARK SMILES IDX 50 67 42 68 43 69 49 70 51 71 44 72 45 73 46 74 47 75 48 76
REMARK SMILES IDX 74 77 75 78 84 79 76 80 77 81 83 82 85 83 78 84 79 85 80 86
REMARK SMILES IDX 81 87 82 88 58 89 59 90 68 91 60 92 61 93 67 94 69 95 62 96
REMARK SMILES IDX 63 97 64 98 65 99 66 100
REMARK H PARENT 24 5 28 31 90 50 56 61
REMARK Flexibility Score: inf
ROOT
ATOM      1  C   UNL A   1      36.606  22.956  23.496  1.00  0.00     0.117 C 
ENDROOT
BRANCH   1   2
ATOM      2  N   UNL A   1      35.205  22.632  23.268  1.00  0.00    -0.355 N 
ATOM      3  O   UNL A   1      34.431  23.883  25.006  1.00  0.00    -0.274 OA
ATOM      4  C   UNL A   1      34.198  23.227  23.990  1.00  0.00     0.230 C 
ATOM      5  H   UNL A   1      34.973  21.970  22.578  1.00  0.00     0.163 HD
BRANCH   4   6
ATOM      6  C   UNL A   1      32.765  22.975  23.553  1.00  0.00     0.178 C 
BRANCH   6   7
ATOM      7  S   UNL A   1      31.750  24.412  23.184  1.00  0.00    -0.076 SA
BRANCH   7   8
ATOM      8  C   UNL A   1      31.311  25.167  24.682  1.00  0.00     0.196 A 
ATOM      9  N   UNL A   1      31.514  24.565  25.834  1.00  0.00    -0.123 NA
ATOM     10  N   UNL A   1      31.076  26.512  24.908  1.00  0.00    -0.272 N 
ATOM     11  N   UNL A   1      31.447  25.501  26.829  1.00  0.00    -0.134 NA
ATOM     12  C   UNL A   1      31.186  26.671  26.280  1.00  0.00     0.142 A 
BRANCH  10  13
ATOM     13  C   UNL A   1      30.792  27.531  23.982  1.00  0.00     0.068 A 
ATOM     14  C   UNL A   1      29.469  27.722  23.566  1.00  0.00     0.028 A 
ATOM     15  C   UNL A   1      31.831  28.277  23.418  1.00  0.00     0.065 A 
ATOM     16  C   UNL A   1      29.184  28.725  22.638  1.00  0.00     0.002 A 
ATOM     17  C   UNL A   1      31.530  29.312  22.534  1.00  0.00     0.023 A 
ATOM     18  Cl  UNL A   1      33.490  27.874  23.657  1.00  0.00    -0.082 Cl
ATOM     19  C   UNL A   1      30.208  29.539  22.148  1.00  0.00     0.002 A 
ENDBRANCH  10  13
BRANCH  12  20
ATOM     20  C   UNL A   1      30.999  27.954  27.021  1.00  0.00     0.113 C 
BRANCH  20  21
ATOM     21  C   UNL A   1      32.272  28.764  27.103  1.00  0.00    -0.037 A 
ATOM     22  C   UNL A   1      32.221  30.163  27.123  1.00  0.00     0.024 A 
ATOM     23  C   UNL A   1      33.525  28.146  27.127  1.00  0.00     0.024 A 
ATOM     24  C   UNL A   1      33.409  30.874  27.174  1.00  0.00     0.111 A 
ATOM     25  C   UNL A   1      34.657  28.946  27.184  1.00  0.00     0.111 A 
ATOM     26  N   UNL A   1      34.628  30.296  27.219  1.00  0.00    -0.265 NA
ENDBRANCH  20  21
ENDBRANCH  12  20
ENDBRANCH   7   8
ENDBRANCH   6   7
ENDBRANCH   4   6
ENDBRANCH   1   2
BRANCH   1  27
ATOM     27  C   UNL A   1      37.340  22.051  24.491  1.00  0.00     0.042 C 
BRANCH  27  28
ATOM     28  C   UNL A   1      38.060  22.814  25.590  1.00  0.00     0.118 C 
BRANCH  28  29
ATOM     29  N   UNL A   1      38.877  21.963  26.457  1.00  0.00    -0.352 N 
ATOM     30  C   UNL A   1      40.014  22.318  27.171  1.00  0.00     0.251 C 
ATOM     31  H   UNL A   1      38.585  21.027  26.546  1.00  0.00     0.163 HD
ATOM     32  O   UNL A   1      40.789  21.471  27.574  1.00  0.00    -0.269 OA
BRANCH  30  33
ATOM     33  C   UNL A   1      40.263  23.752  27.416  1.00  0.00     0.039 A 
ATOM     34  C   UNL A   1      39.236  24.694  27.323  1.00  0.00     0.014 A 
ATOM     35  C   UNL A   1      41.543  24.135  27.809  1.00  0.00     0.014 A 
ATOM     36  C   UNL A   1      39.485  26.001  27.737  1.00  0.00     0.010 A 
ATOM     37  C   UNL A   1      41.742  25.378  28.359  1.00  0.00     0.010 A 
ATOM     38  C   UNL A   1      40.733  26.332  28.295  1.00  0.00    -0.014 A 
BRANCH  38  39
ATOM     39  C   UNL A   1      40.929  27.619  28.968  1.00  0.00     0.031 A 
ATOM     40  C   UNL A   1      42.067  28.407  28.417  1.00  0.00     0.074 A 
ATOM     41  C   UNL A   1      40.043  28.167  29.834  1.00  0.00     0.049 A 
ATOM     42  N   UNL A   1      43.206  28.649  28.977  1.00  0.00    -0.248 NA
ATOM     43  C   UNL A   1      42.005  28.841  27.008  1.00  0.00     0.031 C 
ATOM     44  C   UNL A   1      38.714  27.648  30.190  1.00  0.00     0.029 A 
ATOM     45  N   UNL A   1      40.080  29.358  30.504  1.00  0.00    -0.354 N 
ATOM     46  C   UNL A   1      43.869  29.517  28.113  1.00  0.00     0.074 A 
ATOM     47  C   UNL A   1      43.204  29.407  26.842  1.00  0.00     0.031 C 
ATOM     48  C   UNL A   1      37.986  28.619  30.783  1.00  0.00     0.029 A 
ATOM     49  C   UNL A   1      38.854  29.752  31.040  1.00  0.00     0.049 A 
ATOM     50  H   UNL A   1      40.901  29.892  30.599  1.00  0.00     0.167 HD
ATOM     51  C   UNL A   1      44.676  30.496  28.606  1.00  0.00     0.037 A 
ATOM     52  C   UNL A   1      38.559  30.910  31.681  1.00  0.00     0.037 A 
ATOM     53  C   UNL A   1      44.944  30.278  30.003  1.00  0.00     0.049 A 
ATOM     54  C   UNL A   1      39.830  31.467  32.193  1.00  0.00     0.074 A 
ATOM     55  C   UNL A   1      45.744  29.452  30.759  1.00  0.00     0.029 A 
ATOM     56  N   UNL A   1      43.964  30.766  30.825  1.00  0.00    -0.354 N 
ATOM     57  N   UNL A   1      40.551  30.880  33.110  1.00  0.00    -0.248 NA
ATOM     58  C   UNL A   1      40.505  32.519  31.442  1.00  0.00     0.031 C 
ATOM     59  C   UNL A   1      45.124  29.358  32.042  1.00  0.00     0.029 A 
ATOM     60  C   UNL A   1      43.991  30.167  32.055  1.00  0.00     0.049 A 
ATOM     61  H   UNL A   1      43.319  31.462  30.564  1.00  0.00     0.167 HD
ATOM     62  C   UNL A   1      41.850  31.177  32.757  1.00  0.00     0.074 A 
ATOM     63  C   UNL A   1      41.759  32.315  31.851  1.00  0.00     0.031 C 
ATOM     64  C   UNL A   1      42.852  30.271  32.941  1.00  0.00     0.037 A 
BRANCH  51  65
ATOM     65  C   UNL A   1      44.812  31.884  28.010  1.00  0.00     0.058 A 
ATOM     66  C   UNL A   1      46.044  32.284  27.450  1.00  0.00     0.135 A 
ATOM     67  C   UNL A   1      43.882  32.924  28.230  1.00  0.00     0.135 A 
ATOM     68  F   UNL A   1      47.018  31.386  27.234  1.00  0.00    -0.206 F 
ATOM     69  C   UNL A   1      46.335  33.618  27.153  1.00  0.00     0.059 A 
ATOM     70  C   UNL A   1      44.130  34.250  27.893  1.00  0.00     0.059 A 
ATOM     71  F   UNL A   1      42.727  32.722  28.873  1.00  0.00    -0.206 F 
ATOM     72  C   UNL A   1      45.369  34.595  27.380  1.00  0.00     0.060 A 
BRANCH  72  73
ATOM     73  S   UNL A   1      45.749  36.323  27.034  1.00  0.00     0.124 S 
ATOM     74  O   UNL A   1      44.415  36.892  26.873  1.00  0.00    -0.237 OA
ATOM     75  O   UNL A   1      46.474  36.719  28.236  1.00  0.00    -0.237 OA
ATOM     76  O   UNL A   1      46.555  36.252  25.819  1.00  0.00    -0.744 OA
ENDBRANCH  72  73
ENDBRANCH  51  65
BRANCH  52  77
ATOM     77  C   UNL A   1      37.290  31.681  31.712  1.00  0.00     0.058 A 
ATOM     78  C   UNL A   1      36.635  31.975  32.921  1.00  0.00     0.135 A 
ATOM     79  C   UNL A   1      36.859  32.399  30.579  1.00  0.00     0.135 A 
ATOM     80  F   UNL A   1      36.993  31.346  34.051  1.00  0.00    -0.206 F 
ATOM     81  C   UNL A   1      35.650  32.964  33.016  1.00  0.00     0.059 A 
ATOM     82  C   UNL A   1      35.878  33.389  30.648  1.00  0.00     0.059 A 
ATOM     83  F   UNL A   1      37.453  32.219  29.389  1.00  0.00    -0.206 F 
ATOM     84  C   UNL A   1      35.294  33.684  31.876  1.00  0.00     0.060 A 
BRANCH  84  85
ATOM     85  S   UNL A   1      34.154  35.082  32.030  1.00  0.00     0.124 S 
ATOM     86  O   UNL A   1      33.906  35.425  30.634  1.00  0.00    -0.237 OA
ATOM     87  O   UNL A   1      33.031  34.487  32.748  1.00  0.00    -0.237 OA
ATOM     88  O   UNL A   1      34.924  36.065  32.786  1.00  0.00    -0.744 OA
ENDBRANCH  84  85
ENDBRANCH  52  77
BRANCH  64  89
ATOM     89  C   UNL A   1      42.703  29.269  34.045  1.00  0.00     0.058 A 
ATOM     90  C   UNL A   1      42.905  29.519  35.412  1.00  0.00     0.135 A 
ATOM     91  C   UNL A   1      42.257  27.990  33.682  1.00  0.00     0.135 A 
ATOM     92  F   UNL A   1      43.265  30.738  35.845  1.00  0.00    -0.206 F 
ATOM     93  C   UNL A   1      42.698  28.526  36.372  1.00  0.00     0.059 A 
ATOM     94  C   UNL A   1      42.017  26.995  34.621  1.00  0.00     0.059 A 
ATOM     95  F   UNL A   1      42.014  27.704  32.392  1.00  0.00    -0.206 F 
ATOM     96  C   UNL A   1      42.252  27.266  35.966  1.00  0.00     0.060 A 
BRANCH  96  97
ATOM     97  S   UNL A   1      41.929  25.994  37.206  1.00  0.00     0.124 S 
ATOM     98  O   UNL A   1      42.179  24.767  36.458  1.00  0.00    -0.237 OA
ATOM     99  O   UNL A   1      42.902  26.313  38.247  1.00  0.00    -0.237 OA
ATOM    100  O   UNL A   1      40.535  26.225  37.578  1.00  0.00    -0.744 OA
ENDBRANCH  96  97
ENDBRANCH  64  89
ENDBRANCH  38  39
ENDBRANCH  30  33
ENDBRANCH  28  29
ENDBRANCH  27  28
ENDBRANCH   1  27
TORSDOF 18
ENDMDL
