MODEL 1
REMARK VINA RESULT:     -14.6      0.000      0.000
REMARK SMILES Cc1ccccc1C(=O)Nc1ccc(OCC(=O)NCCCNC(=O)c2ccc(-c3c4nc(c(-c5c(F)cc(S(=O)(=O)[O-])cc5F)c5ccc([nH]5)c(-c5c(F)cc(S(=O)(=O)[O-])cc5F)c5nc(c(-c6c(F)cc(S(=O)(=O)[O-])cc6F)c6ccc3[nH]6)C=C5)C=C4)cc2)c(-c2nc3ccccc3s2)c1
REMARK SMILES IDX 20 1 19 2 17 3 18 4 16 6 15 7 14 8 11 9 12 10 102 11 13 12
REMARK SMILES IDX 92 13 10 14 8 15 9 16 7 18 1 19 2 20 3 21 4 22 6 23 5 24
REMARK SMILES IDX 93 25 94 26 101 27 95 28 100 29 96 30 99 31 97 32 98 33
REMARK SMILES IDX 21 34 22 35 23 36 24 37 25 39 26 40 27 41 91 42 28 43 90 44
REMARK SMILES IDX 29 45 30 46 31 47 84 48 32 49 89 50 83 51 85 52 33 53 88 54
REMARK SMILES IDX 82 55 81 56 34 58 68 59 47 60 67 61 48 62 51 63 66 64 86 65
REMARK SMILES IDX 49 66 50 67 65 69 87 70 52 71 35 72 36 73 45 74 37 75 38 76
REMARK SMILES IDX 44 77 46 78 39 79 40 80 41 81 42 82 43 83 69 84 70 85 79 86
REMARK SMILES IDX 71 87 72 88 78 89 80 90 73 91 74 92 75 93 76 94 77 95 53 96
REMARK SMILES IDX 54 97 63 98 55 99 56 100 62 101 64 102 57 103 58 104 59 105
REMARK SMILES IDX 60 106 61 107
REMARK H PARENT 19 5 10 17 23 38 85 57 51 68
REMARK Flexibility Score: inf
ROOT
ATOM      1  C   UNL A   1      31.980  29.874  25.736  1.00  0.00     0.117 C 
ENDROOT
BRANCH   1   2
ATOM      2  N   UNL A   1      32.801  28.847  25.118  1.00  0.00    -0.353 N 
ATOM      3  C   UNL A   1      33.106  27.601  25.593  1.00  0.00     0.257 C 
ATOM      4  O   UNL A   1      33.943  26.946  24.974  1.00  0.00    -0.271 OA
ATOM      5  H   UNL A   1      33.187  29.076  24.241  1.00  0.00     0.163 HD
BRANCH   3   6
ATOM      6  C   UNL A   1      32.363  27.086  26.858  1.00  0.00     0.329 C 
BRANCH   6   7
ATOM      7  O   UNL A   1      31.064  26.496  26.798  1.00  0.00    -0.483 OA
BRANCH   7   8
ATOM      8  C   UNL A   1      31.062  25.255  26.216  1.00  0.00     0.130 A 
ATOM      9  C   UNL A   1      31.317  22.725  25.077  1.00  0.00     0.042 A 
ATOM     10  C   UNL A   1      31.587  22.901  26.434  1.00  0.00     0.030 A 
ATOM     11  C   UNL A   1      30.775  23.779  24.337  1.00  0.00     0.041 A 
ATOM     12  C   UNL A   1      31.494  24.172  26.994  1.00  0.00     0.049 A 
ATOM     13  C   UNL A   1      30.593  25.063  24.902  1.00  0.00     0.055 A 
BRANCH   9  14
ATOM     14  N   UNL A   1      31.652  21.487  24.517  1.00  0.00    -0.322 N 
ATOM     15  C   UNL A   1      32.846  21.020  24.009  1.00  0.00     0.255 C 
ATOM     16  O   UNL A   1      32.825  19.973  23.357  1.00  0.00    -0.269 OA
ATOM     17  H   UNL A   1      30.911  20.841  24.480  1.00  0.00     0.170 HD
BRANCH  15  18
ATOM     18  C   UNL A   1      34.164  21.670  24.286  1.00  0.00     0.043 A 
ATOM     19  C   UNL A   1      33.929  23.601  22.583  1.00  0.00     0.045 C 
ATOM     20  C   UNL A   1      34.667  22.814  23.629  1.00  0.00    -0.038 A 
ATOM     21  C   UNL A   1      35.938  23.301  23.992  1.00  0.00     0.004 A 
ATOM     22  C   UNL A   1      36.645  22.750  25.059  1.00  0.00     0.000 A 
ATOM     23  C   UNL A   1      34.874  21.148  25.384  1.00  0.00     0.014 A 
ATOM     24  C   UNL A   1      36.099  21.692  25.774  1.00  0.00     0.001 A 
ENDBRANCH  15  18
ENDBRANCH   9  14
BRANCH  13  25
ATOM     25  C   UNL A   1      30.006  26.112  24.029  1.00  0.00     0.128 A 
ATOM     26  N   UNL A   1      30.732  26.920  23.274  1.00  0.00    -0.236 NA
ATOM     27  S   UNL A   1      28.311  26.409  23.900  1.00  0.00    -0.114 S 
ATOM     28  C   UNL A   1      29.968  27.999  22.863  1.00  0.00     0.082 A 
ATOM     29  C   UNL A   1      28.622  27.939  23.209  1.00  0.00     0.055 A 
ATOM     30  C   UNL A   1      30.436  29.139  22.184  1.00  0.00     0.030 A 
ATOM     31  C   UNL A   1      27.737  29.003  22.984  1.00  0.00     0.021 A 
ATOM     32  C   UNL A   1      29.566  30.210  21.951  1.00  0.00     0.002 A 
ATOM     33  C   UNL A   1      28.240  30.150  22.367  1.00  0.00     0.002 A 
ENDBRANCH  13  25
ENDBRANCH   7   8
ENDBRANCH   6   7
ENDBRANCH   3   6
ENDBRANCH   1   2
BRANCH   1  34
ATOM     34  C   UNL A   1      32.723  30.555  26.882  1.00  0.00     0.042 C 
BRANCH  34  35
ATOM     35  C   UNL A   1      34.170  30.107  26.985  1.00  0.00     0.118 C 
BRANCH  35  36
ATOM     36  N   UNL A   1      35.121  31.192  27.166  1.00  0.00    -0.352 N 
ATOM     37  C   UNL A   1      35.936  31.204  28.295  1.00  0.00     0.251 C 
ATOM     38  H   UNL A   1      35.187  31.911  26.498  1.00  0.00     0.163 HD
ATOM     39  O   UNL A   1      35.859  32.010  29.203  1.00  0.00    -0.269 OA
BRANCH  37  40
ATOM     40  C   UNL A   1      36.879  30.065  28.349  1.00  0.00     0.039 A 
ATOM     41  C   UNL A   1      36.932  29.255  29.484  1.00  0.00     0.014 A 
ATOM     42  C   UNL A   1      37.866  30.005  27.365  1.00  0.00     0.014 A 
ATOM     43  C   UNL A   1      38.063  28.465  29.698  1.00  0.00     0.010 A 
ATOM     44  C   UNL A   1      39.020  29.299  27.624  1.00  0.00     0.010 A 
ATOM     45  C   UNL A   1      39.131  28.549  28.802  1.00  0.00    -0.014 A 
BRANCH  45  46
ATOM     46  C   UNL A   1      40.438  27.944  29.019  1.00  0.00     0.031 A 
ATOM     47  C   UNL A   1      40.681  26.537  28.622  1.00  0.00     0.074 A 
ATOM     48  C   UNL A   1      41.466  28.715  29.434  1.00  0.00     0.049 A 
ATOM     49  N   UNL A   1      41.664  25.818  29.048  1.00  0.00    -0.248 NA
ATOM     50  C   UNL A   1      39.795  25.811  27.718  1.00  0.00     0.031 C 
ATOM     51  C   UNL A   1      42.889  28.411  29.341  1.00  0.00     0.029 A 
ATOM     52  N   UNL A   1      41.410  29.880  30.201  1.00  0.00    -0.354 N 
ATOM     53  C   UNL A   1      41.704  24.664  28.295  1.00  0.00     0.074 A 
ATOM     54  C   UNL A   1      40.487  24.686  27.517  1.00  0.00     0.031 C 
ATOM     55  C   UNL A   1      43.561  29.195  30.198  1.00  0.00     0.029 A 
ATOM     56  C   UNL A   1      42.579  29.917  30.986  1.00  0.00     0.049 A 
ATOM     57  H   UNL A   1      40.689  30.550  30.195  1.00  0.00     0.167 HD
ATOM     58  C   UNL A   1      42.825  23.885  28.321  1.00  0.00     0.037 A 
ATOM     59  C   UNL A   1      42.511  29.885  32.351  1.00  0.00     0.037 A 
ATOM     60  C   UNL A   1      43.813  24.427  29.253  1.00  0.00     0.049 A 
ATOM     61  C   UNL A   1      43.169  28.671  32.966  1.00  0.00     0.074 A 
ATOM     62  C   UNL A   1      44.914  25.248  29.066  1.00  0.00     0.029 A 
ATOM     63  N   UNL A   1      43.563  24.404  30.620  1.00  0.00    -0.354 N 
ATOM     64  N   UNL A   1      43.450  27.582  32.306  1.00  0.00    -0.248 NA
ATOM     65  C   UNL A   1      43.566  28.588  34.368  1.00  0.00     0.031 C 
ATOM     66  C   UNL A   1      45.291  25.770  30.326  1.00  0.00     0.029 A 
ATOM     67  C   UNL A   1      44.433  25.252  31.282  1.00  0.00     0.049 A 
ATOM     68  H   UNL A   1      42.867  23.863  31.056  1.00  0.00     0.167 HD
ATOM     69  C   UNL A   1      44.018  26.662  33.151  1.00  0.00     0.074 A 
ATOM     70  C   UNL A   1      44.091  27.351  34.426  1.00  0.00     0.031 C 
ATOM     71  C   UNL A   1      44.375  25.411  32.727  1.00  0.00     0.037 A 
BRANCH  58  72
ATOM     72  C   UNL A   1      43.145  22.813  27.294  1.00  0.00     0.058 A 
ATOM     73  C   UNL A   1      42.460  21.575  27.305  1.00  0.00     0.135 A 
ATOM     74  C   UNL A   1      44.142  22.918  26.306  1.00  0.00     0.135 A 
ATOM     75  F   UNL A   1      41.415  21.356  28.115  1.00  0.00    -0.206 F 
ATOM     76  C   UNL A   1      42.816  20.497  26.491  1.00  0.00     0.059 A 
ATOM     77  C   UNL A   1      44.555  21.835  25.518  1.00  0.00     0.059 A 
ATOM     78  F   UNL A   1      44.722  24.091  26.026  1.00  0.00    -0.206 F 
ATOM     79  C   UNL A   1      43.892  20.622  25.627  1.00  0.00     0.060 A 
BRANCH  79  80
ATOM     80  S   UNL A   1      44.389  19.191  24.649  1.00  0.00     0.124 S 
ATOM     81  O   UNL A   1      44.333  19.715  23.287  1.00  0.00    -0.237 OA
ATOM     82  O   UNL A   1      45.724  18.915  25.168  1.00  0.00    -0.237 OA
ATOM     83  O   UNL A   1      43.374  18.190  24.969  1.00  0.00    -0.744 OA
ENDBRANCH  79  80
ENDBRANCH  58  72
BRANCH  59  84
ATOM     84  C   UNL A   1      41.317  30.600  32.887  1.00  0.00     0.058 A 
ATOM     85  C   UNL A   1      40.173  29.825  33.154  1.00  0.00     0.135 A 
ATOM     86  C   UNL A   1      41.448  31.817  33.569  1.00  0.00     0.135 A 
ATOM     87  F   UNL A   1      39.980  28.666  32.502  1.00  0.00    -0.206 F 
ATOM     88  C   UNL A   1      39.307  30.136  34.199  1.00  0.00     0.059 A 
ATOM     89  C   UNL A   1      40.584  32.155  34.615  1.00  0.00     0.059 A 
ATOM     90  F   UNL A   1      42.507  32.610  33.343  1.00  0.00    -0.206 F 
ATOM     91  C   UNL A   1      39.578  31.258  34.978  1.00  0.00     0.060 A 
BRANCH  91  92
ATOM     92  S   UNL A   1      38.710  31.423  36.560  1.00  0.00     0.124 S 
ATOM     93  O   UNL A   1      39.737  32.003  37.418  1.00  0.00    -0.237 OA
ATOM     94  O   UNL A   1      37.600  32.317  36.214  1.00  0.00    -0.237 OA
ATOM     95  O   UNL A   1      38.322  30.054  36.876  1.00  0.00    -0.744 OA
ENDBRANCH  91  92
ENDBRANCH  59  84
BRANCH  71  96
ATOM     96  C   UNL A   1      44.804  24.255  33.605  1.00  0.00     0.058 A 
ATOM     97  C   UNL A   1      43.952  23.216  34.015  1.00  0.00     0.135 A 
ATOM     98  C   UNL A   1      46.169  24.090  33.954  1.00  0.00     0.135 A 
ATOM     99  F   UNL A   1      42.662  23.185  33.650  1.00  0.00    -0.206 F 
ATOM    100  C   UNL A   1      44.399  22.134  34.777  1.00  0.00     0.059 A 
ATOM    101  C   UNL A   1      46.646  22.990  34.663  1.00  0.00     0.059 A 
ATOM    102  F   UNL A   1      47.098  24.992  33.603  1.00  0.00    -0.206 F 
ATOM    103  C   UNL A   1      45.749  22.029  35.098  1.00  0.00     0.060 A 
BRANCH 103 104
ATOM    104  S   UNL A   1      46.346  20.606  36.028  1.00  0.00     0.124 S 
ATOM    105  O   UNL A   1      46.159  21.057  37.402  1.00  0.00    -0.237 OA
ATOM    106  O   UNL A   1      45.454  19.535  35.592  1.00  0.00    -0.237 OA
ATOM    107  O   UNL A   1      47.730  20.476  35.584  1.00  0.00    -0.744 OA
ENDBRANCH 103 104
ENDBRANCH  71  96
ENDBRANCH  45  46
ENDBRANCH  37  40
ENDBRANCH  35  36
ENDBRANCH  34  35
ENDBRANCH   1  34
TORSDOF 18
ENDMDL
MODEL 2
REMARK VINA RESULT:     -14.0      4.861     11.263
REMARK SMILES Cc1ccccc1C(=O)Nc1ccc(OCC(=O)NCCCNC(=O)c2ccc(-c3c4nc(c(-c5c(F)cc(S(=O)(=O)[O-])cc5F)c5ccc([nH]5)c(-c5c(F)cc(S(=O)(=O)[O-])cc5F)c5nc(c(-c6c(F)cc(S(=O)(=O)[O-])cc6F)c6ccc3[nH]6)C=C5)C=C4)cc2)c(-c2nc3ccccc3s2)c1
REMARK SMILES IDX 20 1 19 2 17 3 18 4 16 6 15 7 14 8 11 9 12 10 102 11 13 12
REMARK SMILES IDX 92 13 10 14 8 15 9 16 7 18 1 19 2 20 3 21 4 22 6 23 5 24
REMARK SMILES IDX 93 25 94 26 101 27 95 28 100 29 96 30 99 31 97 32 98 33
REMARK SMILES IDX 21 34 22 35 23 36 24 37 25 39 26 40 27 41 91 42 28 43 90 44
REMARK SMILES IDX 29 45 30 46 31 47 84 48 32 49 89 50 83 51 85 52 33 53 88 54
REMARK SMILES IDX 82 55 81 56 34 58 68 59 47 60 67 61 48 62 51 63 66 64 86 65
REMARK SMILES IDX 49 66 50 67 65 69 87 70 52 71 35 72 36 73 45 74 37 75 38 76
REMARK SMILES IDX 44 77 46 78 39 79 40 80 41 81 42 82 43 83 69 84 70 85 79 86
REMARK SMILES IDX 71 87 72 88 78 89 80 90 73 91 74 92 75 93 76 94 77 95 53 96
REMARK SMILES IDX 54 97 63 98 55 99 56 100 62 101 64 102 57 103 58 104 59 105
REMARK SMILES IDX 60 106 61 107
REMARK H PARENT 19 5 10 17 23 38 85 57 51 68
REMARK Flexibility Score: inf
ROOT
ATOM      1  C   UNL A   1      35.971  23.143  26.546  1.00  0.00     0.117 C 
ENDROOT
BRANCH   1   2
ATOM      2  N   UNL A   1      36.156  21.783  26.069  1.00  0.00    -0.353 N 
ATOM      3  C   UNL A   1      36.128  21.321  24.782  1.00  0.00     0.257 C 
ATOM      4  O   UNL A   1      36.161  20.104  24.614  1.00  0.00    -0.271 OA
ATOM      5  H   UNL A   1      36.325  21.104  26.763  1.00  0.00     0.163 HD
BRANCH   3   6
ATOM      6  C   UNL A   1      36.085  22.357  23.622  1.00  0.00     0.329 C 
BRANCH   6   7
ATOM      7  O   UNL A   1      34.873  22.716  22.959  1.00  0.00    -0.483 OA
BRANCH   7   8
ATOM      8  C   UNL A   1      33.999  23.399  23.764  1.00  0.00     0.130 A 
ATOM      9  C   UNL A   1      32.432  24.870  25.536  1.00  0.00     0.042 A 
ATOM     10  C   UNL A   1      33.325  25.531  24.693  1.00  0.00     0.030 A 
ATOM     11  C   UNL A   1      32.218  23.498  25.379  1.00  0.00     0.041 A 
ATOM     12  C   UNL A   1      34.133  24.792  23.834  1.00  0.00     0.049 A 
ATOM     13  C   UNL A   1      32.969  22.734  24.457  1.00  0.00     0.055 A 
BRANCH   9  14
ATOM     14  N   UNL A   1      31.821  25.633  26.539  1.00  0.00    -0.322 N 
ATOM     15  C   UNL A   1      31.227  26.876  26.490  1.00  0.00     0.255 C 
ATOM     16  O   UNL A   1      30.970  27.434  27.559  1.00  0.00    -0.269 OA
ATOM     17  H   UNL A   1      31.813  25.210  27.427  1.00  0.00     0.170 HD
BRANCH  15  18
ATOM     18  C   UNL A   1      30.804  27.532  25.215  1.00  0.00     0.043 A 
ATOM     19  C   UNL A   1      32.669  29.319  25.142  1.00  0.00     0.045 C 
ATOM     20  C   UNL A   1      31.432  28.646  24.619  1.00  0.00    -0.038 A 
ATOM     21  C   UNL A   1      30.904  29.163  23.419  1.00  0.00     0.004 A 
ATOM     22  C   UNL A   1      29.857  28.524  22.757  1.00  0.00     0.000 A 
ATOM     23  C   UNL A   1      29.771  26.878  24.515  1.00  0.00     0.014 A 
ATOM     24  C   UNL A   1      29.310  27.364  23.290  1.00  0.00     0.001 A 
ENDBRANCH  15  18
ENDBRANCH   9  14
BRANCH  13  25
ATOM     25  C   UNL A   1      32.660  21.283  24.368  1.00  0.00     0.128 A 
ATOM     26  N   UNL A   1      32.702  20.465  25.406  1.00  0.00    -0.236 NA
ATOM     27  S   UNL A   1      32.220  20.489  22.900  1.00  0.00    -0.114 S 
ATOM     28  C   UNL A   1      32.725  19.150  24.974  1.00  0.00     0.082 A 
ATOM     29  C   UNL A   1      32.574  18.973  23.602  1.00  0.00     0.055 A 
ATOM     30  C   UNL A   1      32.927  18.013  25.779  1.00  0.00     0.030 A 
ATOM     31  C   UNL A   1      32.701  17.721  22.985  1.00  0.00     0.021 A 
ATOM     32  C   UNL A   1      33.057  16.756  25.179  1.00  0.00     0.002 A 
ATOM     33  C   UNL A   1      32.968  16.618  23.797  1.00  0.00     0.002 A 
ENDBRANCH  13  25
ENDBRANCH   7   8
ENDBRANCH   6   7
ENDBRANCH   3   6
ENDBRANCH   1   2
BRANCH   1  34
ATOM     34  C   UNL A   1      37.175  24.015  26.200  1.00  0.00     0.042 C 
BRANCH  34  35
ATOM     35  C   UNL A   1      38.446  23.205  26.011  1.00  0.00     0.118 C 
BRANCH  35  36
ATOM     36  N   UNL A   1      39.192  22.967  27.236  1.00  0.00    -0.352 N 
ATOM     37  C   UNL A   1      40.287  23.772  27.536  1.00  0.00     0.251 C 
ATOM     38  H   UNL A   1      38.925  22.243  27.847  1.00  0.00     0.163 HD
ATOM     39  O   UNL A   1      41.445  23.401  27.547  1.00  0.00    -0.269 OA
BRANCH  37  40
ATOM     40  C   UNL A   1      39.927  25.189  27.762  1.00  0.00     0.039 A 
ATOM     41  C   UNL A   1      40.417  26.180  26.909  1.00  0.00     0.014 A 
ATOM     42  C   UNL A   1      39.323  25.510  28.978  1.00  0.00     0.014 A 
ATOM     43  C   UNL A   1      40.418  27.506  27.344  1.00  0.00     0.010 A 
ATOM     44  C   UNL A   1      39.412  26.803  29.443  1.00  0.00     0.010 A 
ATOM     45  C   UNL A   1      39.982  27.798  28.639  1.00  0.00    -0.014 A 
BRANCH  45  46
ATOM     46  C   UNL A   1      40.127  29.097  29.284  1.00  0.00     0.031 A 
ATOM     47  C   UNL A   1      39.051  30.109  29.165  1.00  0.00     0.074 A 
ATOM     48  C   UNL A   1      41.168  29.312  30.115  1.00  0.00     0.049 A 
ATOM     49  N   UNL A   1      39.202  31.366  29.410  1.00  0.00    -0.248 NA
ATOM     50  C   UNL A   1      37.702  29.773  28.723  1.00  0.00     0.031 C 
ATOM     51  C   UNL A   1      41.286  30.356  31.127  1.00  0.00     0.029 A 
ATOM     52  N   UNL A   1      42.430  28.716  30.084  1.00  0.00    -0.354 N 
ATOM     53  C   UNL A   1      37.954  31.949  29.427  1.00  0.00     0.074 A 
ATOM     54  C   UNL A   1      37.059  30.925  28.941  1.00  0.00     0.031 C 
ATOM     55  C   UNL A   1      42.578  30.503  31.456  1.00  0.00     0.029 A 
ATOM     56  C   UNL A   1      43.352  29.672  30.551  1.00  0.00     0.049 A 
ATOM     57  H   UNL A   1      42.636  27.800  29.790  1.00  0.00     0.167 HD
ATOM     58  C   UNL A   1      37.801  33.192  29.971  1.00  0.00     0.037 A 
ATOM     59  C   UNL A   1      44.355  30.136  29.745  1.00  0.00     0.037 A 
ATOM     60  C   UNL A   1      39.089  33.730  30.408  1.00  0.00     0.049 A 
ATOM     61  C   UNL A   1      44.271  31.618  29.461  1.00  0.00     0.074 A 
ATOM     62  C   UNL A   1      39.720  33.742  31.641  1.00  0.00     0.029 A 
ATOM     63  N   UNL A   1      40.051  34.078  29.467  1.00  0.00    -0.354 N 
ATOM     64  N   UNL A   1      43.194  32.334  29.632  1.00  0.00    -0.248 NA
ATOM     65  C   UNL A   1      45.392  32.412  28.965  1.00  0.00     0.031 C 
ATOM     66  C   UNL A   1      41.087  34.041  31.431  1.00  0.00     0.029 A 
ATOM     67  C   UNL A   1      41.284  34.231  30.073  1.00  0.00     0.049 A 
ATOM     68  H   UNL A   1      39.879  34.199  28.505  1.00  0.00     0.167 HD
ATOM     69  C   UNL A   1      43.437  33.632  29.261  1.00  0.00     0.074 A 
ATOM     70  C   UNL A   1      44.836  33.634  28.875  1.00  0.00     0.031 C 
ATOM     71  C   UNL A   1      42.463  34.592  29.301  1.00  0.00     0.037 A 
BRANCH  58  72
ATOM     72  C   UNL A   1      36.465  33.789  30.377  1.00  0.00     0.058 A 
ATOM     73  C   UNL A   1      35.531  34.202  29.399  1.00  0.00     0.135 A 
ATOM     74  C   UNL A   1      36.061  34.027  31.705  1.00  0.00     0.135 A 
ATOM     75  F   UNL A   1      35.720  33.954  28.096  1.00  0.00    -0.206 F 
ATOM     76  C   UNL A   1      34.360  34.899  29.705  1.00  0.00     0.059 A 
ATOM     77  C   UNL A   1      34.921  34.771  32.036  1.00  0.00     0.059 A 
ATOM     78  F   UNL A   1      36.727  33.499  32.739  1.00  0.00    -0.206 F 
ATOM     79  C   UNL A   1      34.081  35.215  31.025  1.00  0.00     0.060 A 
BRANCH  79  80
ATOM     80  S   UNL A   1      32.608  36.189  31.391  1.00  0.00     0.124 S 
ATOM     81  O   UNL A   1      32.048  36.413  30.061  1.00  0.00    -0.237 OA
ATOM     82  O   UNL A   1      31.853  35.288  32.254  1.00  0.00    -0.237 OA
ATOM     83  O   UNL A   1      33.142  37.381  32.045  1.00  0.00    -0.744 OA
ENDBRANCH  79  80
ENDBRANCH  58  72
BRANCH  59  84
ATOM     84  C   UNL A   1      44.877  29.093  28.816  1.00  0.00     0.058 A 
ATOM     85  C   UNL A   1      44.356  29.080  27.509  1.00  0.00     0.135 A 
ATOM     86  C   UNL A   1      46.137  28.512  29.016  1.00  0.00     0.135 A 
ATOM     87  F   UNL A   1      43.138  29.593  27.268  1.00  0.00    -0.206 F 
ATOM     88  C   UNL A   1      45.130  28.701  26.417  1.00  0.00     0.059 A 
ATOM     89  C   UNL A   1      46.928  28.114  27.934  1.00  0.00     0.059 A 
ATOM     90  F   UNL A   1      46.680  28.476  30.242  1.00  0.00    -0.206 F 
ATOM     91  C   UNL A   1      46.447  28.305  26.637  1.00  0.00     0.060 A 
BRANCH  91  92
ATOM     92  S   UNL A   1      47.559  28.215  25.210  1.00  0.00     0.124 S 
ATOM     93  O   UNL A   1      47.635  26.779  24.966  1.00  0.00    -0.237 OA
ATOM     94  O   UNL A   1      46.829  28.987  24.198  1.00  0.00    -0.237 OA
ATOM     95  O   UNL A   1      48.782  28.840  25.696  1.00  0.00    -0.744 OA
ENDBRANCH  91  92
ENDBRANCH  59  84
BRANCH  71  96
ATOM     96  C   UNL A   1      42.555  35.988  28.722  1.00  0.00     0.058 A 
ATOM     97  C   UNL A   1      42.067  36.351  27.455  1.00  0.00     0.135 A 
ATOM     98  C   UNL A   1      43.033  37.062  29.516  1.00  0.00     0.135 A 
ATOM     99  F   UNL A   1      41.477  35.454  26.650  1.00  0.00    -0.206 F 
ATOM    100  C   UNL A   1      42.117  37.663  26.978  1.00  0.00     0.059 A 
ATOM    101  C   UNL A   1      43.038  38.385  29.082  1.00  0.00     0.059 A 
ATOM    102  F   UNL A   1      43.503  36.863  30.756  1.00  0.00    -0.206 F 
ATOM    103  C   UNL A   1      42.605  38.675  27.798  1.00  0.00     0.060 A 
BRANCH 103 104
ATOM    104  S   UNL A   1      42.616  40.380  27.216  1.00  0.00     0.124 S 
ATOM    105  O   UNL A   1      43.539  40.296  26.089  1.00  0.00    -0.237 OA
ATOM    106  O   UNL A   1      41.218  40.613  26.866  1.00  0.00    -0.237 OA
ATOM    107  O   UNL A   1      43.096  41.124  28.375  1.00  0.00    -0.744 OA
ENDBRANCH 103 104
ENDBRANCH  71  96
ENDBRANCH  45  46
ENDBRANCH  37  40
ENDBRANCH  35  36
ENDBRANCH  34  35
ENDBRANCH   1  34
TORSDOF 18
ENDMDL
MODEL 3
REMARK VINA RESULT:     -13.8      4.685     11.161
REMARK SMILES Cc1ccccc1C(=O)Nc1ccc(OCC(=O)NCCCNC(=O)c2ccc(-c3c4nc(c(-c5c(F)cc(S(=O)(=O)[O-])cc5F)c5ccc([nH]5)c(-c5c(F)cc(S(=O)(=O)[O-])cc5F)c5nc(c(-c6c(F)cc(S(=O)(=O)[O-])cc6F)c6ccc3[nH]6)C=C5)C=C4)cc2)c(-c2nc3ccccc3s2)c1
REMARK SMILES IDX 20 1 19 2 17 3 18 4 16 6 15 7 14 8 11 9 12 10 102 11 13 12
REMARK SMILES IDX 92 13 10 14 8 15 9 16 7 18 1 19 2 20 3 21 4 22 6 23 5 24
REMARK SMILES IDX 93 25 94 26 101 27 95 28 100 29 96 30 99 31 97 32 98 33
REMARK SMILES IDX 21 34 22 35 23 36 24 37 25 39 26 40 27 41 91 42 28 43 90 44
REMARK SMILES IDX 29 45 30 46 31 47 84 48 32 49 89 50 83 51 85 52 33 53 88 54
REMARK SMILES IDX 82 55 81 56 34 58 68 59 47 60 67 61 48 62 51 63 66 64 86 65
REMARK SMILES IDX 49 66 50 67 65 69 87 70 52 71 35 72 36 73 45 74 37 75 38 76
REMARK SMILES IDX 44 77 46 78 39 79 40 80 41 81 42 82 43 83 69 84 70 85 79 86
REMARK SMILES IDX 71 87 72 88 78 89 80 90 73 91 74 92 75 93 76 94 77 95 53 96
REMARK SMILES IDX 54 97 63 98 55 99 56 100 62 101 64 102 57 103 58 104 59 105
REMARK SMILES IDX 60 106 61 107
REMARK H PARENT 19 5 10 17 23 38 85 57 51 68
REMARK Flexibility Score: inf
ROOT
ATOM      1  C   UNL A   1      35.982  23.403  26.695  1.00  0.00     0.117 C 
ENDROOT
BRANCH   1   2
ATOM      2  N   UNL A   1      35.965  22.054  26.156  1.00  0.00    -0.353 N 
ATOM      3  C   UNL A   1      35.591  21.641  24.907  1.00  0.00     0.257 C 
ATOM      4  O   UNL A   1      35.511  20.430  24.710  1.00  0.00    -0.271 OA
ATOM      5  H   UNL A   1      36.262  21.344  26.770  1.00  0.00     0.163 HD
BRANCH   3   6
ATOM      6  C   UNL A   1      35.319  22.718  23.819  1.00  0.00     0.329 C 
BRANCH   6   7
ATOM      7  O   UNL A   1      34.513  22.461  22.669  1.00  0.00    -0.483 OA
BRANCH   7   8
ATOM      8  C   UNL A   1      33.261  23.012  22.754  1.00  0.00     0.130 A 
ATOM      9  C   UNL A   1      30.817  24.303  23.099  1.00  0.00     0.042 A 
ATOM     10  C   UNL A   1      31.887  24.993  22.529  1.00  0.00     0.030 A 
ATOM     11  C   UNL A   1      30.931  22.933  23.348  1.00  0.00     0.041 A 
ATOM     12  C   UNL A   1      33.118  24.358  22.391  1.00  0.00     0.049 A 
ATOM     13  C   UNL A   1      32.147  22.242  23.142  1.00  0.00     0.055 A 
BRANCH   9  14
ATOM     14  N   UNL A   1      29.681  25.052  23.431  1.00  0.00    -0.322 N 
ATOM     15  C   UNL A   1      29.522  26.110  24.300  1.00  0.00     0.255 C 
ATOM     16  O   UNL A   1      28.372  26.447  24.593  1.00  0.00    -0.269 OA
ATOM     17  H   UNL A   1      28.859  24.777  22.965  1.00  0.00     0.170 HD
BRANCH  15  18
ATOM     18  C   UNL A   1      30.665  26.917  24.827  1.00  0.00     0.043 A 
ATOM     19  C   UNL A   1      30.570  28.798  23.056  1.00  0.00     0.045 C 
ATOM     20  C   UNL A   1      31.157  28.111  24.257  1.00  0.00    -0.038 A 
ATOM     21  C   UNL A   1      32.257  28.751  24.863  1.00  0.00     0.004 A 
ATOM     22  C   UNL A   1      32.782  28.294  26.070  1.00  0.00     0.000 A 
ATOM     23  C   UNL A   1      31.184  26.489  26.064  1.00  0.00     0.014 A 
ATOM     24  C   UNL A   1      32.226  27.180  26.686  1.00  0.00     0.001 A 
ENDBRANCH  15  18
ENDBRANCH   9  14
BRANCH  13  25
ATOM     25  C   UNL A   1      32.159  20.786  23.436  1.00  0.00     0.128 A 
ATOM     26  N   UNL A   1      32.101  20.291  24.661  1.00  0.00    -0.236 NA
ATOM     27  S   UNL A   1      32.260  19.567  22.218  1.00  0.00    -0.114 S 
ATOM     28  C   UNL A   1      32.487  18.961  24.654  1.00  0.00     0.082 A 
ATOM     29  C   UNL A   1      32.718  18.417  23.395  1.00  0.00     0.055 A 
ATOM     30  C   UNL A   1      32.701  18.152  25.786  1.00  0.00     0.030 A 
ATOM     31  C   UNL A   1      33.236  17.126  23.215  1.00  0.00     0.021 A 
ATOM     32  C   UNL A   1      33.218  16.862  25.623  1.00  0.00     0.002 A 
ATOM     33  C   UNL A   1      33.503  16.366  24.355  1.00  0.00     0.002 A 
ENDBRANCH  13  25
ENDBRANCH   7   8
ENDBRANCH   6   7
ENDBRANCH   3   6
ENDBRANCH   1   2
BRANCH   1  34
ATOM     34  C   UNL A   1      37.175  24.192  26.163  1.00  0.00     0.042 C 
BRANCH  34  35
ATOM     35  C   UNL A   1      38.410  23.327  25.980  1.00  0.00     0.118 C 
BRANCH  35  36
ATOM     36  N   UNL A   1      39.155  23.080  27.204  1.00  0.00    -0.352 N 
ATOM     37  C   UNL A   1      40.274  23.857  27.491  1.00  0.00     0.251 C 
ATOM     38  H   UNL A   1      38.871  22.370  27.823  1.00  0.00     0.163 HD
ATOM     39  O   UNL A   1      41.421  23.453  27.501  1.00  0.00    -0.269 OA
BRANCH  37  40
ATOM     40  C   UNL A   1      39.955  25.286  27.705  1.00  0.00     0.039 A 
ATOM     41  C   UNL A   1      40.541  26.262  26.896  1.00  0.00     0.014 A 
ATOM     42  C   UNL A   1      39.281  25.623  28.879  1.00  0.00     0.014 A 
ATOM     43  C   UNL A   1      40.564  27.583  27.342  1.00  0.00     0.010 A 
ATOM     44  C   UNL A   1      39.389  26.909  29.360  1.00  0.00     0.010 A 
ATOM     45  C   UNL A   1      40.052  27.885  28.606  1.00  0.00    -0.014 A 
BRANCH  45  46
ATOM     46  C   UNL A   1      40.203  29.173  29.271  1.00  0.00     0.031 A 
ATOM     47  C   UNL A   1      39.102  30.163  29.229  1.00  0.00     0.074 A 
ATOM     48  C   UNL A   1      41.281  29.393  30.053  1.00  0.00     0.049 A 
ATOM     49  N   UNL A   1      39.240  31.418  29.493  1.00  0.00    -0.248 NA
ATOM     50  C   UNL A   1      37.739  29.808  28.848  1.00  0.00     0.031 C 
ATOM     51  C   UNL A   1      41.428  30.418  31.080  1.00  0.00     0.029 A 
ATOM     52  N   UNL A   1      42.551  28.826  29.945  1.00  0.00    -0.354 N 
ATOM     53  C   UNL A   1      37.982  31.974  29.586  1.00  0.00     0.074 A 
ATOM     54  C   UNL A   1      37.085  30.941  29.124  1.00  0.00     0.031 C 
ATOM     55  C   UNL A   1      42.733  30.586  31.346  1.00  0.00     0.029 A 
ATOM     56  C   UNL A   1      43.476  29.792  30.385  1.00  0.00     0.049 A 
ATOM     57  H   UNL A   1      42.761  27.920  29.621  1.00  0.00     0.167 HD
ATOM     58  C   UNL A   1      37.831  33.202  30.164  1.00  0.00     0.037 A 
ATOM     59  C   UNL A   1      44.427  30.293  29.540  1.00  0.00     0.037 A 
ATOM     60  C   UNL A   1      39.129  33.758  30.547  1.00  0.00     0.049 A 
ATOM     61  C   UNL A   1      44.298  31.779  29.292  1.00  0.00     0.074 A 
ATOM     62  C   UNL A   1      39.822  33.759  31.746  1.00  0.00     0.029 A 
ATOM     63  N   UNL A   1      40.034  34.147  29.565  1.00  0.00    -0.354 N 
ATOM     64  N   UNL A   1      43.216  32.467  29.533  1.00  0.00    -0.248 NA
ATOM     65  C   UNL A   1      45.375  32.607  28.758  1.00  0.00     0.031 C 
ATOM     66  C   UNL A   1      41.170  34.091  31.474  1.00  0.00     0.029 A 
ATOM     67  C   UNL A   1      41.293  34.314  30.112  1.00  0.00     0.049 A 
ATOM     68  H   UNL A   1      39.811  34.283  28.617  1.00  0.00     0.167 HD
ATOM     69  C   UNL A   1      43.414  33.778  29.179  1.00  0.00     0.074 A 
ATOM     70  C   UNL A   1      44.791  33.818  28.722  1.00  0.00     0.031 C 
ATOM     71  C   UNL A   1      42.424  34.716  29.289  1.00  0.00     0.037 A 
BRANCH  58  72
ATOM     72  C   UNL A   1      36.506  33.762  30.650  1.00  0.00     0.058 A 
ATOM     73  C   UNL A   1      35.536  34.223  29.730  1.00  0.00     0.135 A 
ATOM     74  C   UNL A   1      36.146  33.917  32.002  1.00  0.00     0.135 A 
ATOM     75  F   UNL A   1      35.682  34.053  28.409  1.00  0.00    -0.206 F 
ATOM     76  C   UNL A   1      34.371  34.889  30.117  1.00  0.00     0.059 A 
ATOM     77  C   UNL A   1      35.013  34.629  32.416  1.00  0.00     0.059 A 
ATOM     78  F   UNL A   1      36.852  33.335  32.980  1.00  0.00    -0.206 F 
ATOM     79  C   UNL A   1      34.135  35.124  31.463  1.00  0.00     0.060 A 
BRANCH  79  80
ATOM     80  S   UNL A   1      32.670  36.061  31.935  1.00  0.00     0.124 S 
ATOM     81  O   UNL A   1      32.237  36.622  30.658  1.00  0.00    -0.237 OA
ATOM     82  O   UNL A   1      31.811  35.023  32.495  1.00  0.00    -0.237 OA
ATOM     83  O   UNL A   1      33.183  37.034  32.896  1.00  0.00    -0.744 OA
ENDBRANCH  79  80
ENDBRANCH  58  72
BRANCH  59  84
ATOM     84  C   UNL A   1      44.922  29.281  28.563  1.00  0.00     0.058 A 
ATOM     85  C   UNL A   1      45.856  28.339  29.035  1.00  0.00     0.135 A 
ATOM     86  C   UNL A   1      44.167  28.935  27.434  1.00  0.00     0.135 A 
ATOM     87  F   UNL A   1      46.629  28.634  30.093  1.00  0.00    -0.206 F 
ATOM     88  C   UNL A   1      45.893  27.038  28.543  1.00  0.00     0.059 A 
ATOM     89  C   UNL A   1      44.197  27.636  26.917  1.00  0.00     0.059 A 
ATOM     90  F   UNL A   1      43.275  29.797  26.925  1.00  0.00    -0.206 F 
ATOM     91  C   UNL A   1      44.993  26.676  27.544  1.00  0.00     0.060 A 
BRANCH  91  92
ATOM     92  S   UNL A   1      44.762  24.911  27.207  1.00  0.00     0.124 S 
ATOM     93  O   UNL A   1      44.330  24.401  28.502  1.00  0.00    -0.237 OA
ATOM     94  O   UNL A   1      43.734  24.926  26.160  1.00  0.00    -0.237 OA
ATOM     95  O   UNL A   1      46.082  24.477  26.765  1.00  0.00    -0.744 OA
ENDBRANCH  91  92
ENDBRANCH  59  84
BRANCH  71  96
ATOM     96  C   UNL A   1      42.458  36.125  28.736  1.00  0.00     0.058 A 
ATOM     97  C   UNL A   1      43.181  37.182  29.314  1.00  0.00     0.135 A 
ATOM     98  C   UNL A   1      41.849  36.419  27.489  1.00  0.00     0.135 A 
ATOM     99  F   UNL A   1      43.903  37.007  30.430  1.00  0.00    -0.206 F 
ATOM    100  C   UNL A   1      43.236  38.455  28.742  1.00  0.00     0.059 A 
ATOM    101  C   UNL A   1      41.941  37.665  26.873  1.00  0.00     0.059 A 
ATOM    102  F   UNL A   1      41.151  35.495  26.813  1.00  0.00    -0.206 F 
ATOM    103  C   UNL A   1      42.611  38.689  27.521  1.00  0.00     0.060 A 
BRANCH 103 104
ATOM    104  S   UNL A   1      42.729  40.311  26.744  1.00  0.00     0.124 S 
ATOM    105  O   UNL A   1      42.943  41.172  27.903  1.00  0.00    -0.237 OA
ATOM    106  O   UNL A   1      43.875  40.162  25.852  1.00  0.00    -0.237 OA
ATOM    107  O   UNL A   1      41.440  40.453  26.076  1.00  0.00    -0.744 OA
ENDBRANCH 103 104
ENDBRANCH  71  96
ENDBRANCH  45  46
ENDBRANCH  37  40
ENDBRANCH  35  36
ENDBRANCH  34  35
ENDBRANCH   1  34
TORSDOF 18
ENDMDL
