MODEL 1
REMARK VINA RESULT:     -12.2      0.000      0.000
REMARK SMILES O=C(NCCCNC(=O)c1ccc(-c2c3nc(c(-c4c(F)cc(S(=O)(=O)[O-])cc4F)c4ccc([nH]4)c(-c4c(F)cc(S(=O)(=O)[O-])cc4F)c4nc(c(-c5c(F)cc(S(=O)(=O)[O-])cc5F)c5ccc2[nH]5)C=C4)C=C3)cc1)C1=Cc2c(Cl)ccc(Cl)c2O[C@@H]1C(F)(F)F
REMARK SMILES IDX 6 1 5 2 4 3 3 4 1 5 2 6 76 8 77 9 87 10 78 11 86 12 79 13
REMARK SMILES IDX 85 14 80 15 81 16 83 17 82 18 84 19 88 20 89 21 90 22 91 23
REMARK SMILES IDX 7 24 8 25 9 27 10 28 11 29 75 30 12 31 74 32 13 33 14 34
REMARK SMILES IDX 15 35 68 36 16 37 73 38 67 39 69 40 17 41 72 42 66 43 65 44
REMARK SMILES IDX 18 46 52 47 31 48 51 49 32 50 35 51 50 52 70 53 33 54 34 55
REMARK SMILES IDX 49 57 71 58 36 59 19 60 20 61 29 62 21 63 22 64 28 65 30 66
REMARK SMILES IDX 23 67 24 68 25 69 26 70 27 71 53 72 54 73 63 74 55 75 56 76
REMARK SMILES IDX 62 77 64 78 57 79 58 80 59 81 60 82 61 83 37 84 38 85 47 86
REMARK SMILES IDX 39 87 40 88 46 89 48 90 41 91 42 92 43 93 44 94 45 95
REMARK H PARENT 3 7 7 26 69 45 35 56
REMARK Flexibility Score: inf
ROOT
ATOM      1  C   UNL A   1      33.451  28.541  27.264  1.00  0.00     0.118 C 
ENDROOT
BRANCH   1   2
ATOM      2  C   UNL A   1      32.076  27.900  27.101  1.00  0.00     0.042 C 
BRANCH   2   3
ATOM      3  C   UNL A   1      32.112  26.625  26.266  1.00  0.00     0.118 C 
BRANCH   3   4
ATOM      4  N   UNL A   1      31.738  25.427  27.022  1.00  0.00    -0.352 N 
ATOM      5  O   UNL A   1      31.828  23.262  27.681  1.00  0.00    -0.270 OA
ATOM      6  C   UNL A   1      32.023  24.101  26.812  1.00  0.00     0.251 C 
ATOM      7  H   UNL A   1      31.189  25.604  27.820  1.00  0.00     0.163 HD
BRANCH   6   8
ATOM      8  C   UNL A   1      32.667  23.739  25.536  1.00  0.00     0.067 C 
ATOM      9  C   UNL A   1      33.977  23.957  25.375  1.00  0.00     0.027 C 
ATOM     10  C   UNL A   1      31.900  22.846  24.623  1.00  0.00     0.314 C 
ATOM     11  C   UNL A   1      34.704  22.729  24.988  1.00  0.00     0.037 A 
ATOM     12  O   UNL A   1      32.610  21.625  24.330  1.00  0.00    -0.474 OA
ATOM     13  C   UNL A   1      36.057  22.559  25.352  1.00  0.00     0.052 A 
ATOM     14  C   UNL A   1      33.962  21.588  24.600  1.00  0.00     0.148 A 
ATOM     15  Cl  UNL A   1      37.045  23.872  25.897  1.00  0.00    -0.084 Cl
ATOM     16  C   UNL A   1      36.624  21.282  25.404  1.00  0.00     0.023 A 
ATOM     17  C   UNL A   1      34.549  20.312  24.647  1.00  0.00     0.083 A 
ATOM     18  C   UNL A   1      35.867  20.159  25.073  1.00  0.00     0.026 A 
ATOM     19  Cl  UNL A   1      33.623  18.887  24.333  1.00  0.00    -0.080 Cl
BRANCH  10  20
ATOM     20  C   UNL A   1      31.539  23.593  23.327  1.00  0.00     0.429 C 
ATOM     21  F   UNL A   1      32.422  23.315  22.338  1.00  0.00    -0.167 F 
ATOM     22  F   UNL A   1      30.314  23.247  22.865  1.00  0.00    -0.167 F 
ATOM     23  F   UNL A   1      31.539  24.938  23.494  1.00  0.00    -0.167 F 
ENDBRANCH  10  20
ENDBRANCH   6   8
ENDBRANCH   3   4
ENDBRANCH   2   3
ENDBRANCH   1   2
BRANCH   1  24
ATOM     24  N   UNL A   1      33.428  29.917  27.739  1.00  0.00    -0.352 N 
ATOM     25  C   UNL A   1      34.440  30.690  28.283  1.00  0.00     0.251 C 
ATOM     26  H   UNL A   1      32.557  30.369  27.663  1.00  0.00     0.163 HD
ATOM     27  O   UNL A   1      34.185  31.820  28.661  1.00  0.00    -0.269 OA
BRANCH  25  28
ATOM     28  C   UNL A   1      35.808  30.134  28.456  1.00  0.00     0.039 A 
ATOM     29  C   UNL A   1      36.684  30.151  27.365  1.00  0.00     0.014 A 
ATOM     30  C   UNL A   1      36.247  29.624  29.676  1.00  0.00     0.014 A 
ATOM     31  C   UNL A   1      38.012  29.744  27.529  1.00  0.00     0.010 A 
ATOM     32  C   UNL A   1      37.597  29.351  29.873  1.00  0.00     0.010 A 
ATOM     33  C   UNL A   1      38.495  29.391  28.800  1.00  0.00    -0.014 A 
BRANCH  33  34
ATOM     34  C   UNL A   1      39.926  29.049  29.023  1.00  0.00     0.031 A 
ATOM     35  C   UNL A   1      40.871  30.075  29.599  1.00  0.00     0.074 A 
ATOM     36  C   UNL A   1      40.390  27.842  28.640  1.00  0.00     0.049 A 
ATOM     37  N   UNL A   1      42.159  29.984  29.815  1.00  0.00    -0.248 NA
ATOM     38  C   UNL A   1      40.308  31.394  29.932  1.00  0.00     0.031 C 
ATOM     39  C   UNL A   1      39.601  26.798  27.978  1.00  0.00     0.029 A 
ATOM     40  N   UNL A   1      41.640  27.285  28.748  1.00  0.00    -0.354 N 
ATOM     41  C   UNL A   1      42.558  31.236  30.273  1.00  0.00     0.074 A 
ATOM     42  C   UNL A   1      41.393  32.090  30.236  1.00  0.00     0.031 C 
ATOM     43  C   UNL A   1      40.370  25.716  27.784  1.00  0.00     0.029 A 
ATOM     44  C   UNL A   1      41.715  25.995  28.273  1.00  0.00     0.049 A 
ATOM     45  H   UNL A   1      42.412  27.763  29.130  1.00  0.00     0.167 HD
ATOM     46  C   UNL A   1      43.774  31.630  30.722  1.00  0.00     0.037 A 
ATOM     47  C   UNL A   1      42.749  25.132  28.247  1.00  0.00     0.037 A 
ATOM     48  C   UNL A   1      44.910  30.754  30.817  1.00  0.00     0.049 A 
ATOM     49  C   UNL A   1      44.066  25.564  28.831  1.00  0.00     0.074 A 
ATOM     50  C   UNL A   1      46.163  31.021  31.341  1.00  0.00     0.029 A 
ATOM     51  N   UNL A   1      44.927  29.435  30.389  1.00  0.00    -0.354 N 
ATOM     52  N   UNL A   1      44.402  26.728  29.337  1.00  0.00    -0.248 NA
ATOM     53  C   UNL A   1      45.140  24.563  28.858  1.00  0.00     0.031 C 
ATOM     54  C   UNL A   1      46.949  29.872  31.198  1.00  0.00     0.029 A 
ATOM     55  C   UNL A   1      46.172  28.876  30.628  1.00  0.00     0.049 A 
ATOM     56  H   UNL A   1      44.167  28.965  29.977  1.00  0.00     0.167 HD
ATOM     57  C   UNL A   1      45.718  26.592  29.761  1.00  0.00     0.074 A 
ATOM     58  C   UNL A   1      46.108  25.226  29.475  1.00  0.00     0.031 C 
ATOM     59  C   UNL A   1      46.535  27.514  30.332  1.00  0.00     0.037 A 
BRANCH  46  60
ATOM     60  C   UNL A   1      43.925  33.060  31.169  1.00  0.00     0.058 A 
ATOM     61  C   UNL A   1      44.302  34.077  30.276  1.00  0.00     0.135 A 
ATOM     62  C   UNL A   1      43.662  33.425  32.499  1.00  0.00     0.135 A 
ATOM     63  F   UNL A   1      44.584  33.784  28.996  1.00  0.00    -0.206 F 
ATOM     64  C   UNL A   1      44.446  35.397  30.692  1.00  0.00     0.059 A 
ATOM     65  C   UNL A   1      43.770  34.745  32.931  1.00  0.00     0.059 A 
ATOM     66  F   UNL A   1      43.300  32.495  33.397  1.00  0.00    -0.206 F 
ATOM     67  C   UNL A   1      44.177  35.721  32.023  1.00  0.00     0.060 A 
BRANCH  67  68
ATOM     68  S   UNL A   1      44.354  37.441  32.542  1.00  0.00     0.124 S 
ATOM     69  O   UNL A   1      43.217  37.590  33.447  1.00  0.00    -0.237 OA
ATOM     70  O   UNL A   1      45.669  37.444  33.173  1.00  0.00    -0.237 OA
ATOM     71  O   UNL A   1      44.261  38.185  31.290  1.00  0.00    -0.744 OA
ENDBRANCH  67  68
ENDBRANCH  46  60
BRANCH  47  72
ATOM     72  C   UNL A   1      42.566  23.762  27.697  1.00  0.00     0.058 A 
ATOM     73  C   UNL A   1      42.394  22.659  28.546  1.00  0.00     0.135 A 
ATOM     74  C   UNL A   1      42.543  23.528  26.314  1.00  0.00     0.135 A 
ATOM     75  F   UNL A   1      42.408  22.829  29.878  1.00  0.00    -0.206 F 
ATOM     76  C   UNL A   1      42.229  21.370  28.048  1.00  0.00     0.059 A 
ATOM     77  C   UNL A   1      42.354  22.252  25.789  1.00  0.00     0.059 A 
ATOM     78  F   UNL A   1      42.681  24.551  25.455  1.00  0.00    -0.206 F 
ATOM     79  C   UNL A   1      42.210  21.177  26.666  1.00  0.00     0.060 A 
BRANCH  79  80
ATOM     80  S   UNL A   1      41.948  19.508  26.028  1.00  0.00     0.124 S 
ATOM     81  O   UNL A   1      42.778  19.519  24.828  1.00  0.00    -0.237 OA
ATOM     82  O   UNL A   1      42.429  18.679  27.129  1.00  0.00    -0.237 OA
ATOM     83  O   UNL A   1      40.508  19.459  25.798  1.00  0.00    -0.744 OA
ENDBRANCH  79  80
ENDBRANCH  47  72
BRANCH  59  84
ATOM     84  C   UNL A   1      47.917  27.057  30.705  1.00  0.00     0.058 A 
ATOM     85  C   UNL A   1      48.169  26.376  31.906  1.00  0.00     0.135 A 
ATOM     86  C   UNL A   1      49.000  27.296  29.844  1.00  0.00     0.135 A 
ATOM     87  F   UNL A   1      47.167  26.124  32.763  1.00  0.00    -0.206 F 
ATOM     88  C   UNL A   1      49.456  25.989  32.264  1.00  0.00     0.059 A 
ATOM     89  C   UNL A   1      50.291  26.890  30.168  1.00  0.00     0.059 A 
ATOM     90  F   UNL A   1      48.810  27.928  28.675  1.00  0.00    -0.206 F 
ATOM     91  C   UNL A   1      50.511  26.258  31.391  1.00  0.00     0.060 A 
BRANCH  91  92
ATOM     92  S   UNL A   1      52.179  25.765  31.870  1.00  0.00     0.124 S 
ATOM     93  O   UNL A   1      52.915  25.982  30.629  1.00  0.00    -0.237 OA
ATOM     94  O   UNL A   1      52.482  26.691  32.957  1.00  0.00    -0.237 OA
ATOM     95  O   UNL A   1      52.018  24.370  32.270  1.00  0.00    -0.744 OA
ENDBRANCH  91  92
ENDBRANCH  59  84
ENDBRANCH  33  34
ENDBRANCH  25  28
ENDBRANCH   1  24
TORSDOF 14
ENDMDL
MODEL 2
REMARK VINA RESULT:     -12.0      4.984     10.389
REMARK SMILES O=C(NCCCNC(=O)c1ccc(-c2c3nc(c(-c4c(F)cc(S(=O)(=O)[O-])cc4F)c4ccc([nH]4)c(-c4c(F)cc(S(=O)(=O)[O-])cc4F)c4nc(c(-c5c(F)cc(S(=O)(=O)[O-])cc5F)c5ccc2[nH]5)C=C4)C=C3)cc1)C1=Cc2c(Cl)ccc(Cl)c2O[C@@H]1C(F)(F)F
REMARK SMILES IDX 6 1 5 2 4 3 3 4 1 5 2 6 76 8 77 9 87 10 78 11 86 12 79 13
REMARK SMILES IDX 85 14 80 15 81 16 83 17 82 18 84 19 88 20 89 21 90 22 91 23
REMARK SMILES IDX 7 24 8 25 9 27 10 28 11 29 75 30 12 31 74 32 13 33 14 34
REMARK SMILES IDX 15 35 68 36 16 37 73 38 67 39 69 40 17 41 72 42 66 43 65 44
REMARK SMILES IDX 18 46 52 47 31 48 51 49 32 50 35 51 50 52 70 53 33 54 34 55
REMARK SMILES IDX 49 57 71 58 36 59 19 60 20 61 29 62 21 63 22 64 28 65 30 66
REMARK SMILES IDX 23 67 24 68 25 69 26 70 27 71 53 72 54 73 63 74 55 75 56 76
REMARK SMILES IDX 62 77 64 78 57 79 58 80 59 81 60 82 61 83 37 84 38 85 47 86
REMARK SMILES IDX 39 87 40 88 46 89 48 90 41 91 42 92 43 93 44 94 45 95
REMARK H PARENT 3 7 7 26 69 45 35 56
REMARK Flexibility Score: inf
ROOT
ATOM      1  C   UNL A   1      40.291  23.346  27.017  1.00  0.00     0.118 C 
ENDROOT
BRANCH   1   2
ATOM      2  C   UNL A   1      39.059  22.583  26.540  1.00  0.00     0.042 C 
BRANCH   2   3
ATOM      3  C   UNL A   1      37.909  23.502  26.143  1.00  0.00     0.118 C 
BRANCH   3   4
ATOM      4  N   UNL A   1      37.502  23.348  24.744  1.00  0.00    -0.352 N 
ATOM      5  O   UNL A   1      36.148  23.504  22.935  1.00  0.00    -0.270 OA
ATOM      6  C   UNL A   1      36.266  23.421  24.150  1.00  0.00     0.251 C 
ATOM      7  H   UNL A   1      38.242  23.160  24.123  1.00  0.00     0.163 HD
BRANCH   6   8
ATOM      8  C   UNL A   1      35.090  23.498  25.036  1.00  0.00     0.067 C 
ATOM      9  C   UNL A   1      34.812  24.647  25.661  1.00  0.00     0.027 C 
ATOM     10  C   UNL A   1      34.089  22.400  24.925  1.00  0.00     0.314 C 
ATOM     11  C   UNL A   1      33.437  25.116  25.383  1.00  0.00     0.037 A 
ATOM     12  O   UNL A   1      32.777  22.890  24.578  1.00  0.00    -0.474 OA
ATOM     13  C   UNL A   1      33.140  26.495  25.397  1.00  0.00     0.052 A 
ATOM     14  C   UNL A   1      32.531  24.237  24.743  1.00  0.00     0.148 A 
ATOM     15  Cl  UNL A   1      34.201  27.668  26.101  1.00  0.00    -0.084 Cl
ATOM     16  C   UNL A   1      32.018  26.987  24.724  1.00  0.00     0.023 A 
ATOM     17  C   UNL A   1      31.402  24.746  24.079  1.00  0.00     0.083 A 
ATOM     18  C   UNL A   1      31.162  26.117  24.049  1.00  0.00     0.026 A 
ATOM     19  Cl  UNL A   1      30.367  23.715  23.155  1.00  0.00    -0.080 Cl
BRANCH  10  20
ATOM     20  C   UNL A   1      34.043  21.589  26.232  1.00  0.00     0.429 C 
ATOM     21  F   UNL A   1      35.274  21.480  26.786  1.00  0.00    -0.167 F 
ATOM     22  F   UNL A   1      33.247  22.169  27.161  1.00  0.00    -0.167 F 
ATOM     23  F   UNL A   1      33.580  20.329  26.038  1.00  0.00    -0.167 F 
ENDBRANCH  10  20
ENDBRANCH   6   8
ENDBRANCH   3   4
ENDBRANCH   2   3
ENDBRANCH   1   2
BRANCH   1  24
ATOM     24  N   UNL A   1      40.922  24.176  26.000  1.00  0.00    -0.352 N 
ATOM     25  C   UNL A   1      41.390  25.477  26.074  1.00  0.00     0.251 C 
ATOM     26  H   UNL A   1      41.034  23.745  25.122  1.00  0.00     0.163 HD
ATOM     27  O   UNL A   1      41.848  26.001  25.074  1.00  0.00    -0.269 OA
BRANCH  25  28
ATOM     28  C   UNL A   1      41.284  26.249  27.341  1.00  0.00     0.039 A 
ATOM     29  C   UNL A   1      42.255  27.217  27.621  1.00  0.00     0.014 A 
ATOM     30  C   UNL A   1      40.237  26.053  28.238  1.00  0.00     0.014 A 
ATOM     31  C   UNL A   1      42.118  28.039  28.745  1.00  0.00     0.010 A 
ATOM     32  C   UNL A   1      40.028  26.956  29.275  1.00  0.00     0.010 A 
ATOM     33  C   UNL A   1      40.972  27.951  29.554  1.00  0.00    -0.014 A 
BRANCH  33  34
ATOM     34  C   UNL A   1      40.753  28.877  30.698  1.00  0.00     0.031 A 
ATOM     35  C   UNL A   1      41.590  28.750  31.948  1.00  0.00     0.074 A 
ATOM     36  C   UNL A   1      39.755  29.782  30.641  1.00  0.00     0.049 A 
ATOM     37  N   UNL A   1      41.512  29.424  33.067  1.00  0.00    -0.248 NA
ATOM     38  C   UNL A   1      42.617  27.695  31.963  1.00  0.00     0.031 C 
ATOM     39  C   UNL A   1      38.810  29.938  29.531  1.00  0.00     0.029 A 
ATOM     40  N   UNL A   1      39.363  30.744  31.539  1.00  0.00    -0.354 N 
ATOM     41  C   UNL A   1      42.451  28.854  33.921  1.00  0.00     0.074 A 
ATOM     42  C   UNL A   1      43.035  27.735  33.219  1.00  0.00     0.031 C 
ATOM     43  C   UNL A   1      37.983  30.961  29.792  1.00  0.00     0.029 A 
ATOM     44  C   UNL A   1      38.311  31.516  31.100  1.00  0.00     0.049 A 
ATOM     45  H   UNL A   1      39.793  30.870  32.415  1.00  0.00     0.167 HD
ATOM     46  C   UNL A   1      42.823  29.251  35.161  1.00  0.00     0.037 A 
ATOM     47  C   UNL A   1      37.690  32.560  31.682  1.00  0.00     0.037 A 
ATOM     48  C   UNL A   1      42.282  30.406  35.825  1.00  0.00     0.049 A 
ATOM     49  C   UNL A   1      38.179  33.034  33.023  1.00  0.00     0.074 A 
ATOM     50  C   UNL A   1      42.650  30.952  37.042  1.00  0.00     0.029 A 
ATOM     51  N   UNL A   1      41.266  31.203  35.319  1.00  0.00    -0.354 N 
ATOM     52  N   UNL A   1      39.126  32.532  33.781  1.00  0.00    -0.248 NA
ATOM     53  C   UNL A   1      37.530  34.227  33.582  1.00  0.00     0.031 C 
ATOM     54  C   UNL A   1      41.831  32.060  37.288  1.00  0.00     0.029 A 
ATOM     55  C   UNL A   1      40.985  32.231  36.203  1.00  0.00     0.049 A 
ATOM     56  H   UNL A   1      40.811  31.059  34.458  1.00  0.00     0.167 HD
ATOM     57  C   UNL A   1      39.200  33.360  34.895  1.00  0.00     0.074 A 
ATOM     58  C   UNL A   1      38.218  34.408  34.699  1.00  0.00     0.031 C 
ATOM     59  C   UNL A   1      40.002  33.261  35.985  1.00  0.00     0.037 A 
BRANCH  46  60
ATOM     60  C   UNL A   1      43.882  28.444  35.865  1.00  0.00     0.058 A 
ATOM     61  C   UNL A   1      43.551  27.388  36.732  1.00  0.00     0.135 A 
ATOM     62  C   UNL A   1      45.244  28.708  35.651  1.00  0.00     0.135 A 
ATOM     63  F   UNL A   1      42.265  27.101  36.990  1.00  0.00    -0.206 F 
ATOM     64  C   UNL A   1      44.531  26.647  37.385  1.00  0.00     0.059 A 
ATOM     65  C   UNL A   1      46.242  27.959  36.270  1.00  0.00     0.059 A 
ATOM     66  F   UNL A   1      45.619  29.706  34.834  1.00  0.00    -0.206 F 
ATOM     67  C   UNL A   1      45.874  26.940  37.147  1.00  0.00     0.060 A 
BRANCH  67  68
ATOM     68  S   UNL A   1      47.132  25.958  37.991  1.00  0.00     0.124 S 
ATOM     69  O   UNL A   1      46.308  25.082  38.820  1.00  0.00    -0.237 OA
ATOM     70  O   UNL A   1      47.823  25.312  36.881  1.00  0.00    -0.237 OA
ATOM     71  O   UNL A   1      47.912  26.956  38.716  1.00  0.00    -0.744 OA
ENDBRANCH  67  68
ENDBRANCH  46  60
BRANCH  47  72
ATOM     72  C   UNL A   1      36.578  33.255  30.980  1.00  0.00     0.058 A 
ATOM     73  C   UNL A   1      35.251  33.119  31.415  1.00  0.00     0.135 A 
ATOM     74  C   UNL A   1      36.818  34.082  29.873  1.00  0.00     0.135 A 
ATOM     75  F   UNL A   1      34.968  32.339  32.470  1.00  0.00    -0.206 F 
ATOM     76  C   UNL A   1      34.199  33.756  30.765  1.00  0.00     0.059 A 
ATOM     77  C   UNL A   1      35.787  34.752  29.221  1.00  0.00     0.059 A 
ATOM     78  F   UNL A   1      38.072  34.266  29.429  1.00  0.00    -0.206 F 
ATOM     79  C   UNL A   1      34.478  34.572  29.668  1.00  0.00     0.060 A 
BRANCH  79  80
ATOM     80  S   UNL A   1      33.112  35.434  28.859  1.00  0.00     0.124 S 
ATOM     81  O   UNL A   1      32.499  34.357  28.090  1.00  0.00    -0.237 OA
ATOM     82  O   UNL A   1      32.341  35.925  29.997  1.00  0.00    -0.237 OA
ATOM     83  O   UNL A   1      33.784  36.466  28.076  1.00  0.00    -0.744 OA
ENDBRANCH  79  80
ENDBRANCH  47  72
BRANCH  59  84
ATOM     84  C   UNL A   1      39.864  34.333  37.030  1.00  0.00     0.058 A 
ATOM     85  C   UNL A   1      38.999  34.187  38.125  1.00  0.00     0.135 A 
ATOM     86  C   UNL A   1      40.615  35.515  36.938  1.00  0.00     0.135 A 
ATOM     87  F   UNL A   1      38.257  33.076  38.258  1.00  0.00    -0.206 F 
ATOM     88  C   UNL A   1      38.846  35.198  39.068  1.00  0.00     0.059 A 
ATOM     89  C   UNL A   1      40.502  36.526  37.886  1.00  0.00     0.059 A 
ATOM     90  F   UNL A   1      41.471  35.696  35.919  1.00  0.00    -0.206 F 
ATOM     91  C   UNL A   1      39.598  36.366  38.935  1.00  0.00     0.060 A 
BRANCH  91  92
ATOM     92  S   UNL A   1      39.383  37.678  40.156  1.00  0.00     0.124 S 
ATOM     93  O   UNL A   1      38.254  38.414  39.598  1.00  0.00    -0.237 OA
ATOM     94  O   UNL A   1      39.111  36.929  41.378  1.00  0.00    -0.237 OA
ATOM     95  O   UNL A   1      40.665  38.377  40.130  1.00  0.00    -0.744 OA
ENDBRANCH  91  92
ENDBRANCH  59  84
ENDBRANCH  33  34
ENDBRANCH  25  28
ENDBRANCH   1  24
TORSDOF 14
ENDMDL
MODEL 3
REMARK VINA RESULT:     -12.0      5.108     10.482
REMARK SMILES O=C(NCCCNC(=O)c1ccc(-c2c3nc(c(-c4c(F)cc(S(=O)(=O)[O-])cc4F)c4ccc([nH]4)c(-c4c(F)cc(S(=O)(=O)[O-])cc4F)c4nc(c(-c5c(F)cc(S(=O)(=O)[O-])cc5F)c5ccc2[nH]5)C=C4)C=C3)cc1)C1=Cc2c(Cl)ccc(Cl)c2O[C@@H]1C(F)(F)F
REMARK SMILES IDX 6 1 5 2 4 3 3 4 1 5 2 6 76 8 77 9 87 10 78 11 86 12 79 13
REMARK SMILES IDX 85 14 80 15 81 16 83 17 82 18 84 19 88 20 89 21 90 22 91 23
REMARK SMILES IDX 7 24 8 25 9 27 10 28 11 29 75 30 12 31 74 32 13 33 14 34
REMARK SMILES IDX 15 35 68 36 16 37 73 38 67 39 69 40 17 41 72 42 66 43 65 44
REMARK SMILES IDX 18 46 52 47 31 48 51 49 32 50 35 51 50 52 70 53 33 54 34 55
REMARK SMILES IDX 49 57 71 58 36 59 19 60 20 61 29 62 21 63 22 64 28 65 30 66
REMARK SMILES IDX 23 67 24 68 25 69 26 70 27 71 53 72 54 73 63 74 55 75 56 76
REMARK SMILES IDX 62 77 64 78 57 79 58 80 59 81 60 82 61 83 37 84 38 85 47 86
REMARK SMILES IDX 39 87 40 88 46 89 48 90 41 91 42 92 43 93 44 94 45 95
REMARK H PARENT 3 7 7 26 69 45 35 56
REMARK Flexibility Score: inf
ROOT
ATOM      1  C   UNL A   1      38.559  24.323  26.555  1.00  0.00     0.118 C 
ENDROOT
BRANCH   1   2
ATOM      2  C   UNL A   1      37.660  23.262  25.927  1.00  0.00     0.042 C 
BRANCH   2   3
ATOM      3  C   UNL A   1      36.197  23.688  25.863  1.00  0.00     0.118 C 
BRANCH   3   4
ATOM      4  N   UNL A   1      35.698  23.837  24.494  1.00  0.00    -0.352 N 
ATOM      5  O   UNL A   1      34.440  24.684  22.811  1.00  0.00    -0.270 OA
ATOM      6  C   UNL A   1      34.572  24.452  24.005  1.00  0.00     0.251 C 
ATOM      7  H   UNL A   1      36.269  23.426  23.805  1.00  0.00     0.163 HD
BRANCH   6   8
ATOM      8  C   UNL A   1      33.571  24.912  24.985  1.00  0.00     0.067 C 
ATOM      9  C   UNL A   1      33.826  25.996  25.727  1.00  0.00     0.027 C 
ATOM     10  C   UNL A   1      32.196  24.350  24.860  1.00  0.00     0.314 C 
ATOM     11  C   UNL A   1      32.769  27.022  25.599  1.00  0.00     0.037 A 
ATOM     12  O   UNL A   1      31.203  25.377  24.661  1.00  0.00    -0.474 OA
ATOM     13  C   UNL A   1      33.083  28.389  25.755  1.00  0.00     0.052 A 
ATOM     14  C   UNL A   1      31.554  26.677  24.960  1.00  0.00     0.148 A 
ATOM     15  Cl  UNL A   1      34.564  28.928  26.471  1.00  0.00    -0.084 Cl
ATOM     16  C   UNL A   1      32.250  29.375  25.217  1.00  0.00     0.023 A 
ATOM     17  C   UNL A   1      30.723  27.680  24.433  1.00  0.00     0.083 A 
ATOM     18  C   UNL A   1      31.084  29.021  24.540  1.00  0.00     0.026 A 
ATOM     19  Cl  UNL A   1      29.317  27.284  23.510  1.00  0.00    -0.080 Cl
BRANCH  10  20
ATOM     20  C   UNL A   1      31.858  23.493  26.092  1.00  0.00     0.429 C 
ATOM     21  F   UNL A   1      31.584  24.268  27.169  1.00  0.00    -0.167 F 
ATOM     22  F   UNL A   1      30.770  22.714  25.886  1.00  0.00    -0.167 F 
ATOM     23  F   UNL A   1      32.878  22.671  26.441  1.00  0.00    -0.167 F 
ENDBRANCH  10  20
ENDBRANCH   6   8
ENDBRANCH   3   4
ENDBRANCH   2   3
ENDBRANCH   1   2
BRANCH   1  24
ATOM     24  N   UNL A   1      39.776  24.609  25.808  1.00  0.00    -0.352 N 
ATOM     25  C   UNL A   1      40.825  25.462  26.104  1.00  0.00     0.251 C 
ATOM     26  H   UNL A   1      39.866  24.121  24.958  1.00  0.00     0.163 HD
ATOM     27  O   UNL A   1      41.735  25.584  25.303  1.00  0.00    -0.269 OA
BRANCH  25  28
ATOM     28  C   UNL A   1      40.820  26.263  27.357  1.00  0.00     0.039 A 
ATOM     29  C   UNL A   1      41.631  27.400  27.431  1.00  0.00     0.014 A 
ATOM     30  C   UNL A   1      40.013  25.928  28.442  1.00  0.00     0.014 A 
ATOM     31  C   UNL A   1      41.559  28.237  28.550  1.00  0.00     0.010 A 
ATOM     32  C   UNL A   1      39.840  26.828  29.488  1.00  0.00     0.010 A 
ATOM     33  C   UNL A   1      40.621  27.988  29.565  1.00  0.00    -0.014 A 
BRANCH  33  34
ATOM     34  C   UNL A   1      40.455  28.914  30.718  1.00  0.00     0.031 A 
ATOM     35  C   UNL A   1      41.318  28.760  31.946  1.00  0.00     0.074 A 
ATOM     36  C   UNL A   1      39.480  29.846  30.689  1.00  0.00     0.049 A 
ATOM     37  N   UNL A   1      41.285  29.431  33.069  1.00  0.00    -0.248 NA
ATOM     38  C   UNL A   1      42.317  27.678  31.933  1.00  0.00     0.031 C 
ATOM     39  C   UNL A   1      38.513  30.031  29.602  1.00  0.00     0.029 A 
ATOM     40  N   UNL A   1      39.135  30.813  31.599  1.00  0.00    -0.354 N 
ATOM     41  C   UNL A   1      42.229  28.832  33.898  1.00  0.00     0.074 A 
ATOM     42  C   UNL A   1      42.766  27.701  33.179  1.00  0.00     0.031 C 
ATOM     43  C   UNL A   1      37.720  31.075  29.887  1.00  0.00     0.029 A 
ATOM     44  C   UNL A   1      38.094  31.615  31.189  1.00  0.00     0.049 A 
ATOM     45  H   UNL A   1      39.590  30.924  32.465  1.00  0.00     0.167 HD
ATOM     46  C   UNL A   1      42.641  29.214  35.131  1.00  0.00     0.037 A 
ATOM     47  C   UNL A   1      37.515  32.672  31.790  1.00  0.00     0.037 A 
ATOM     48  C   UNL A   1      42.147  30.380  35.812  1.00  0.00     0.049 A 
ATOM     49  C   UNL A   1      38.049  33.128  33.120  1.00  0.00     0.074 A 
ATOM     50  C   UNL A   1      42.559  30.911  37.022  1.00  0.00     0.029 A 
ATOM     51  N   UNL A   1      41.141  31.206  35.333  1.00  0.00    -0.354 N 
ATOM     52  N   UNL A   1      39.000  32.598  33.853  1.00  0.00    -0.248 NA
ATOM     53  C   UNL A   1      37.445  34.335  33.699  1.00  0.00     0.031 C 
ATOM     54  C   UNL A   1      41.775  32.039  37.291  1.00  0.00     0.029 A 
ATOM     55  C   UNL A   1      40.909  32.237  36.228  1.00  0.00     0.049 A 
ATOM     56  H   UNL A   1      40.661  31.077  34.483  1.00  0.00     0.167 HD
ATOM     57  C   UNL A   1      39.123  33.418  34.968  1.00  0.00     0.074 A 
ATOM     58  C   UNL A   1      38.165  34.493  34.800  1.00  0.00     0.031 C 
ATOM     59  C   UNL A   1      39.948  33.294  36.038  1.00  0.00     0.037 A 
BRANCH  46  60
ATOM     60  C   UNL A   1      43.694  28.376  35.806  1.00  0.00     0.058 A 
ATOM     61  C   UNL A   1      45.065  28.606  35.600  1.00  0.00     0.135 A 
ATOM     62  C   UNL A   1      43.332  27.348  36.692  1.00  0.00     0.135 A 
ATOM     63  F   UNL A   1      45.471  29.563  34.750  1.00  0.00    -0.206 F 
ATOM     64  C   UNL A   1      46.037  27.827  36.222  1.00  0.00     0.059 A 
ATOM     65  C   UNL A   1      44.288  26.577  37.349  1.00  0.00     0.059 A 
ATOM     66  F   UNL A   1      42.037  27.082  36.926  1.00  0.00    -0.206 F 
ATOM     67  C   UNL A   1      45.638  26.815  37.095  1.00  0.00     0.060 A 
BRANCH  67  68
ATOM     68  S   UNL A   1      46.912  25.824  37.904  1.00  0.00     0.124 S 
ATOM     69  O   UNL A   1      47.738  26.860  38.520  1.00  0.00    -0.237 OA
ATOM     70  O   UNL A   1      46.134  25.005  38.826  1.00  0.00    -0.237 OA
ATOM     71  O   UNL A   1      47.534  25.102  36.799  1.00  0.00    -0.744 OA
ENDBRANCH  67  68
ENDBRANCH  46  60
BRANCH  47  72
ATOM     72  C   UNL A   1      36.405  33.400  31.118  1.00  0.00     0.058 A 
ATOM     73  C   UNL A   1      36.639  34.175  29.972  1.00  0.00     0.135 A 
ATOM     74  C   UNL A   1      35.088  33.325  31.595  1.00  0.00     0.135 A 
ATOM     75  F   UNL A   1      37.882  34.281  29.476  1.00  0.00    -0.206 F 
ATOM     76  C   UNL A   1      35.614  34.869  29.336  1.00  0.00     0.059 A 
ATOM     77  C   UNL A   1      34.041  33.987  30.962  1.00  0.00     0.059 A 
ATOM     78  F   UNL A   1      34.805  32.578  32.675  1.00  0.00    -0.206 F 
ATOM     79  C   UNL A   1      34.316  34.767  29.839  1.00  0.00     0.060 A 
BRANCH  79  80
ATOM     80  S   UNL A   1      32.983  35.632  28.980  1.00  0.00     0.124 S 
ATOM     81  O   UNL A   1      32.189  36.131  30.097  1.00  0.00    -0.237 OA
ATOM     82  O   UNL A   1      33.713  36.638  28.215  1.00  0.00    -0.237 OA
ATOM     83  O   UNL A   1      32.361  34.580  28.183  1.00  0.00    -0.744 OA
ENDBRANCH  79  80
ENDBRANCH  47  72
BRANCH  59  84
ATOM     84  C   UNL A   1      39.864  34.365  37.089  1.00  0.00     0.058 A 
ATOM     85  C   UNL A   1      39.077  34.206  38.240  1.00  0.00     0.135 A 
ATOM     86  C   UNL A   1      40.589  35.558  36.947  1.00  0.00     0.135 A 
ATOM     87  F   UNL A   1      38.364  33.084  38.423  1.00  0.00    -0.206 F 
ATOM     88  C   UNL A   1      38.972  35.215  39.192  1.00  0.00     0.059 A 
ATOM     89  C   UNL A   1      40.524  36.568  37.901  1.00  0.00     0.059 A 
ATOM     90  F   UNL A   1      41.371  35.752  35.873  1.00  0.00    -0.206 F 
ATOM     91  C   UNL A   1      39.695  36.395  39.008  1.00  0.00     0.060 A 
BRANCH  91  92
ATOM     92  S   UNL A   1      39.543  37.705  40.241  1.00  0.00     0.124 S 
ATOM     93  O   UNL A   1      39.024  36.967  41.387  1.00  0.00    -0.237 OA
ATOM     94  O   UNL A   1      40.916  38.183  40.363  1.00  0.00    -0.237 OA
ATOM     95  O   UNL A   1      38.612  38.645  39.623  1.00  0.00    -0.744 OA
ENDBRANCH  91  92
ENDBRANCH  59  84
ENDBRANCH  33  34
ENDBRANCH  25  28
ENDBRANCH   1  24
TORSDOF 14
ENDMDL
