MODEL 1
REMARK VINA RESULT:     -12.2      0.000      0.000
REMARK SMILES [NH3+][C@H]1C=C[C@@H](C(=O)NC2(CC(=O)NCCCNC(=O)c3ccc(-c4c5nc(c(-c6c(F)cc(S(=O)(=O)[O-])cc6F)c6ccc([nH]6)c(-c6c(F)cc(S(=O)(=O)[O-])cc6F)c6nc(c(-c7c(F)cc(S(=O)(=O)[O-])cc7F)c7ccc4[nH]7)C=C6)C=C5)cc3)CCCCC2)C1
REMARK SMILES IDX 14 1 13 2 11 3 12 4 10 6 9 7 86 8 90 9 87 10 89 11 88 12
REMARK SMILES IDX 8 13 6 14 7 15 5 17 2 18 3 19 91 20 4 21 1 22 15 26 16 27
REMARK SMILES IDX 17 28 18 29 19 31 20 32 21 33 85 34 22 35 84 36 23 37 24 38
REMARK SMILES IDX 25 39 78 40 26 41 83 42 77 43 79 44 27 45 82 46 76 47 75 48
REMARK SMILES IDX 28 50 62 51 41 52 61 53 42 54 45 55 60 56 80 57 43 58 44 59
REMARK SMILES IDX 59 61 81 62 46 63 29 64 30 65 39 66 31 67 32 68 38 69 40 70
REMARK SMILES IDX 33 71 34 72 35 73 36 74 37 75 63 76 64 77 73 78 65 79 66 80
REMARK SMILES IDX 72 81 74 82 67 83 68 84 69 85 70 86 71 87 47 88 48 89 57 90
REMARK SMILES IDX 49 91 50 92 56 93 58 94 51 95 52 96 53 97 54 98 55 99
REMARK H PARENT 13 5 8 16 1 23 1 24 1 25 17 30 79 49 45 60
REMARK Flexibility Score: inf
ROOT
ATOM      1  C   UNL A   1      34.228  29.238  27.086  1.00  0.00     0.117 C 
ENDROOT
BRANCH   1   2
ATOM      2  N   UNL A   1      33.111  28.591  27.745  1.00  0.00    -0.356 N 
ATOM      3  C   UNL A   1      31.940  28.134  27.226  1.00  0.00     0.222 C 
ATOM      4  O   UNL A   1      31.036  27.835  28.009  1.00  0.00    -0.275 OA
ATOM      5  H   UNL A   1      33.214  28.464  28.716  1.00  0.00     0.163 HD
BRANCH   3   6
ATOM      6  C   UNL A   1      31.748  27.930  25.734  1.00  0.00     0.128 C 
BRANCH   6   7
ATOM      7  C   UNL A   1      31.992  26.491  25.154  1.00  0.00     0.049 C 
ATOM      8  C   UNL A   1      33.469  26.459  24.679  1.00  0.00     0.029 C 
ATOM      9  C   UNL A   1      31.074  26.227  23.954  1.00  0.00     0.029 C 
ATOM     10  C   UNL A   1      33.744  27.281  23.414  1.00  0.00     0.002 C 
ATOM     11  C   UNL A   1      31.340  27.079  22.719  1.00  0.00     0.002 C 
ATOM     12  C   UNL A   1      32.787  26.927  22.280  1.00  0.00     0.000 C 
BRANCH   7  13
ATOM     13  N   UNL A   1      31.739  25.474  26.222  1.00  0.00    -0.350 N 
ATOM     14  C   UNL A   1      31.939  24.154  26.466  1.00  0.00     0.227 C 
ATOM     15  O   UNL A   1      31.412  23.754  27.518  1.00  0.00    -0.274 OA
ATOM     16  H   UNL A   1      31.286  25.895  26.988  1.00  0.00     0.164 HD
BRANCH  14  17
ATOM     17  C   UNL A   1      32.718  23.117  25.634  1.00  0.00     0.107 C 
ATOM     18  C   UNL A   1      33.367  20.739  25.616  1.00  0.00     0.205 C 
ATOM     19  C   UNL A   1      32.255  21.031  24.667  1.00  0.00     0.033 C 
ATOM     20  C   UNL A   1      33.564  22.070  26.375  1.00  0.00     0.087 C 
ATOM     21  C   UNL A   1      31.926  22.327  24.649  1.00  0.00    -0.012 C 
BRANCH  18  22
ATOM     22  N   UNL A   1      33.047  19.590  26.446  1.00  0.00    -0.352 N 
ATOM     23  H   UNL A   1      32.164  19.182  26.136  1.00  0.00     0.345 HD
ATOM     24  H   UNL A   1      32.962  19.885  27.418  1.00  0.00     0.345 HD
ATOM     25  H   UNL A   1      33.789  18.895  26.366  1.00  0.00     0.345 HD
ENDBRANCH  18  22
ENDBRANCH  14  17
ENDBRANCH   7  13
ENDBRANCH   6   7
ENDBRANCH   3   6
ENDBRANCH   1   2
BRANCH   1  26
ATOM     26  C   UNL A   1      34.248  30.728  27.413  1.00  0.00     0.042 C 
BRANCH  26  27
ATOM     27  C   UNL A   1      35.525  31.187  28.096  1.00  0.00     0.118 C 
BRANCH  27  28
ATOM     28  N   UNL A   1      35.447  31.056  29.541  1.00  0.00    -0.352 N 
ATOM     29  C   UNL A   1      36.338  30.496  30.423  1.00  0.00     0.251 C 
ATOM     30  H   UNL A   1      34.632  31.427  29.951  1.00  0.00     0.163 HD
ATOM     31  O   UNL A   1      35.975  30.298  31.586  1.00  0.00    -0.269 OA
BRANCH  29  32
ATOM     32  C   UNL A   1      37.706  30.108  30.000  1.00  0.00     0.039 A 
ATOM     33  C   UNL A   1      38.655  29.800  30.979  1.00  0.00     0.014 A 
ATOM     34  C   UNL A   1      38.079  30.084  28.652  1.00  0.00     0.014 A 
ATOM     35  C   UNL A   1      39.951  29.428  30.608  1.00  0.00     0.010 A 
ATOM     36  C   UNL A   1      39.338  29.618  28.281  1.00  0.00     0.010 A 
ATOM     37  C   UNL A   1      40.298  29.307  29.253  1.00  0.00    -0.014 A 
BRANCH  37  38
ATOM     38  C   UNL A   1      41.666  28.904  28.833  1.00  0.00     0.031 A 
ATOM     39  C   UNL A   1      42.770  29.932  28.779  1.00  0.00     0.074 A 
ATOM     40  C   UNL A   1      41.906  27.635  28.445  1.00  0.00     0.049 A 
ATOM     41  N   UNL A   1      44.003  29.799  28.367  1.00  0.00    -0.248 NA
ATOM     42  C   UNL A   1      42.430  31.296  29.218  1.00  0.00     0.031 C 
ATOM     43  C   UNL A   1      40.912  26.561  28.402  1.00  0.00     0.029 A 
ATOM     44  N   UNL A   1      43.058  27.036  28.004  1.00  0.00    -0.354 N 
ATOM     45  C   UNL A   1      44.577  31.062  28.471  1.00  0.00     0.074 A 
ATOM     46  C   UNL A   1      43.543  31.958  28.936  1.00  0.00     0.031 C 
ATOM     47  C   UNL A   1      41.502  25.431  27.978  1.00  0.00     0.029 A 
ATOM     48  C   UNL A   1      42.904  25.706  27.685  1.00  0.00     0.049 A 
ATOM     49  H   UNL A   1      43.916  27.513  27.921  1.00  0.00     0.167 HD
ATOM     50  C   UNL A   1      45.856  31.437  28.229  1.00  0.00     0.037 A 
ATOM     51  C   UNL A   1      43.792  24.811  27.206  1.00  0.00     0.037 A 
ATOM     52  C   UNL A   1      46.893  30.531  27.812  1.00  0.00     0.049 A 
ATOM     53  C   UNL A   1      45.213  25.244  26.969  1.00  0.00     0.074 A 
ATOM     54  C   UNL A   1      48.236  30.794  27.608  1.00  0.00     0.029 A 
ATOM     55  N   UNL A   1      46.704  29.184  27.538  1.00  0.00    -0.354 N 
ATOM     56  N   UNL A   1      45.752  26.430  27.137  1.00  0.00    -0.248 NA
ATOM     57  C   UNL A   1      46.149  24.221  26.486  1.00  0.00     0.031 C 
ATOM     58  C   UNL A   1      48.852  29.616  27.173  1.00  0.00     0.029 A 
ATOM     59  C   UNL A   1      47.903  28.607  27.151  1.00  0.00     0.049 A 
ATOM     60  H   UNL A   1      45.845  28.709  27.607  1.00  0.00     0.167 HD
ATOM     61  C   UNL A   1      47.094  26.287  26.805  1.00  0.00     0.074 A 
ATOM     62  C   UNL A   1      47.288  24.898  26.439  1.00  0.00     0.031 C 
ATOM     63  C   UNL A   1      48.078  27.220  26.801  1.00  0.00     0.037 A 
BRANCH  50  64
ATOM     64  C   UNL A   1      46.210  32.887  28.424  1.00  0.00     0.058 A 
ATOM     65  C   UNL A   1      46.670  33.375  29.658  1.00  0.00     0.135 A 
ATOM     66  C   UNL A   1      46.126  33.793  27.354  1.00  0.00     0.135 A 
ATOM     67  F   UNL A   1      46.756  32.557  30.719  1.00  0.00    -0.206 F 
ATOM     68  C   UNL A   1      47.004  34.714  29.832  1.00  0.00     0.059 A 
ATOM     69  C   UNL A   1      46.483  35.131  27.498  1.00  0.00     0.059 A 
ATOM     70  F   UNL A   1      45.692  33.380  26.152  1.00  0.00    -0.206 F 
ATOM     71  C   UNL A   1      46.908  35.585  28.746  1.00  0.00     0.060 A 
BRANCH  71  72
ATOM     72  S   UNL A   1      47.355  37.317  28.986  1.00  0.00     0.124 S 
ATOM     73  O   UNL A   1      46.354  37.992  28.162  1.00  0.00    -0.237 OA
ATOM     74  O   UNL A   1      47.200  37.482  30.428  1.00  0.00    -0.237 OA
ATOM     75  O   UNL A   1      48.724  37.388  28.492  1.00  0.00    -0.744 OA
ENDBRANCH  71  72
ENDBRANCH  50  64
BRANCH  51  76
ATOM     76  C   UNL A   1      43.366  23.411  26.941  1.00  0.00     0.058 A 
ATOM     77  C   UNL A   1      43.140  22.960  25.631  1.00  0.00     0.135 A 
ATOM     78  C   UNL A   1      43.189  22.492  27.987  1.00  0.00     0.135 A 
ATOM     79  F   UNL A   1      43.292  23.802  24.598  1.00  0.00    -0.206 F 
ATOM     80  C   UNL A   1      42.739  21.655  25.369  1.00  0.00     0.059 A 
ATOM     81  C   UNL A   1      42.811  21.174  27.748  1.00  0.00     0.059 A 
ATOM     82  F   UNL A   1      43.410  22.867  29.257  1.00  0.00    -0.206 F 
ATOM     83  C   UNL A   1      42.578  20.768  26.434  1.00  0.00     0.060 A 
BRANCH  83  84
ATOM     84  S   UNL A   1      42.108  19.060  26.080  1.00  0.00     0.124 S 
ATOM     85  O   UNL A   1      40.674  19.192  25.853  1.00  0.00    -0.237 OA
ATOM     86  O   UNL A   1      42.917  18.757  24.903  1.00  0.00    -0.237 OA
ATOM     87  O   UNL A   1      42.494  18.349  27.295  1.00  0.00    -0.744 OA
ENDBRANCH  83  84
ENDBRANCH  51  76
BRANCH  63  88
ATOM     88  C   UNL A   1      49.461  26.767  26.425  1.00  0.00     0.058 A 
ATOM     89  C   UNL A   1      50.316  26.157  27.354  1.00  0.00     0.135 A 
ATOM     90  C   UNL A   1      49.913  26.897  25.101  1.00  0.00     0.135 A 
ATOM     91  F   UNL A   1      49.933  26.015  28.633  1.00  0.00    -0.206 F 
ATOM     92  C   UNL A   1      51.581  25.709  26.991  1.00  0.00     0.059 A 
ATOM     93  C   UNL A   1      51.164  26.432  24.709  1.00  0.00     0.059 A 
ATOM     94  F   UNL A   1      49.129  27.465  24.171  1.00  0.00    -0.206 F 
ATOM     95  C   UNL A   1      51.996  25.850  25.664  1.00  0.00     0.060 A 
BRANCH  95  96
ATOM     96  S   UNL A   1      53.627  25.233  25.197  1.00  0.00     0.124 S 
ATOM     97  O   UNL A   1      53.447  23.792  25.336  1.00  0.00    -0.237 OA
ATOM     98  O   UNL A   1      53.768  25.726  23.831  1.00  0.00    -0.237 OA
ATOM     99  O   UNL A   1      54.517  25.853  26.175  1.00  0.00    -0.744 OA
ENDBRANCH  95  96
ENDBRANCH  63  88
ENDBRANCH  37  38
ENDBRANCH  29  32
ENDBRANCH  27  28
ENDBRANCH  26  27
ENDBRANCH   1  26
TORSDOF 17
ENDMDL
MODEL 2
REMARK VINA RESULT:     -12.1      6.590     12.077
REMARK SMILES [NH3+][C@H]1C=C[C@@H](C(=O)NC2(CC(=O)NCCCNC(=O)c3ccc(-c4c5nc(c(-c6c(F)cc(S(=O)(=O)[O-])cc6F)c6ccc([nH]6)c(-c6c(F)cc(S(=O)(=O)[O-])cc6F)c6nc(c(-c7c(F)cc(S(=O)(=O)[O-])cc7F)c7ccc4[nH]7)C=C6)C=C5)cc3)CCCCC2)C1
REMARK SMILES IDX 14 1 13 2 11 3 12 4 10 6 9 7 86 8 90 9 87 10 89 11 88 12
REMARK SMILES IDX 8 13 6 14 7 15 5 17 2 18 3 19 91 20 4 21 1 22 15 26 16 27
REMARK SMILES IDX 17 28 18 29 19 31 20 32 21 33 85 34 22 35 84 36 23 37 24 38
REMARK SMILES IDX 25 39 78 40 26 41 83 42 77 43 79 44 27 45 82 46 76 47 75 48
REMARK SMILES IDX 28 50 62 51 41 52 61 53 42 54 45 55 60 56 80 57 43 58 44 59
REMARK SMILES IDX 59 61 81 62 46 63 29 64 30 65 39 66 31 67 32 68 38 69 40 70
REMARK SMILES IDX 33 71 34 72 35 73 36 74 37 75 63 76 64 77 73 78 65 79 66 80
REMARK SMILES IDX 72 81 74 82 67 83 68 84 69 85 70 86 71 87 47 88 48 89 57 90
REMARK SMILES IDX 49 91 50 92 56 93 58 94 51 95 52 96 53 97 54 98 55 99
REMARK H PARENT 13 5 8 16 1 23 1 24 1 25 17 30 79 49 45 60
REMARK Flexibility Score: inf
ROOT
ATOM      1  C   UNL A   1      37.679  22.599  25.730  1.00  0.00     0.117 C 
ENDROOT
BRANCH   1   2
ATOM      2  N   UNL A   1      37.437  22.993  24.356  1.00  0.00    -0.356 N 
ATOM      3  C   UNL A   1      36.353  22.769  23.565  1.00  0.00     0.222 C 
ATOM      4  O   UNL A   1      36.463  22.989  22.357  1.00  0.00    -0.275 OA
ATOM      5  H   UNL A   1      38.167  23.499  23.931  1.00  0.00     0.163 HD
BRANCH   3   6
ATOM      6  C   UNL A   1      35.020  22.322  24.136  1.00  0.00     0.128 C 
BRANCH   6   7
ATOM      7  C   UNL A   1      33.935  23.425  24.413  1.00  0.00     0.049 C 
ATOM      8  C   UNL A   1      34.283  24.037  25.796  1.00  0.00     0.029 C 
ATOM      9  C   UNL A   1      32.535  22.803  24.478  1.00  0.00     0.029 C 
ATOM     10  C   UNL A   1      34.000  23.113  26.986  1.00  0.00     0.002 C 
ATOM     11  C   UNL A   1      32.285  21.859  25.648  1.00  0.00     0.002 C 
ATOM     12  C   UNL A   1      32.577  22.565  26.963  1.00  0.00     0.000 C 
BRANCH   7  13
ATOM     13  N   UNL A   1      33.985  24.456  23.330  1.00  0.00    -0.350 N 
ATOM     14  C   UNL A   1      33.350  25.593  22.951  1.00  0.00     0.227 C 
ATOM     15  O   UNL A   1      33.724  26.033  21.851  1.00  0.00    -0.274 OA
ATOM     16  H   UNL A   1      34.704  24.241  22.693  1.00  0.00     0.164 HD
BRANCH  14  17
ATOM     17  C   UNL A   1      32.260  26.393  23.692  1.00  0.00     0.107 C 
ATOM     18  C   UNL A   1      30.447  26.128  25.342  1.00  0.00     0.205 C 
ATOM     19  C   UNL A   1      31.661  26.765  25.929  1.00  0.00     0.033 C 
ATOM     20  C   UNL A   1      30.892  25.729  23.917  1.00  0.00     0.087 C 
ATOM     21  C   UNL A   1      32.632  26.942  25.027  1.00  0.00    -0.012 C 
BRANCH  18  22
ATOM     22  N   UNL A   1      29.984  25.034  26.180  1.00  0.00    -0.352 N 
ATOM     23  H   UNL A   1      30.447  24.170  25.896  1.00  0.00     0.345 HD
ATOM     24  H   UNL A   1      28.975  24.929  26.075  1.00  0.00     0.345 HD
ATOM     25  H   UNL A   1      30.206  25.235  27.155  1.00  0.00     0.345 HD
ENDBRANCH  18  22
ENDBRANCH  14  17
ENDBRANCH   7  13
ENDBRANCH   6   7
ENDBRANCH   3   6
ENDBRANCH   1   2
BRANCH   1  26
ATOM     26  C   UNL A   1      38.288  23.757  26.515  1.00  0.00     0.042 C 
BRANCH  26  27
ATOM     27  C   UNL A   1      39.696  23.480  27.018  1.00  0.00     0.118 C 
BRANCH  27  28
ATOM     28  N   UNL A   1      40.709  24.004  26.116  1.00  0.00    -0.352 N 
ATOM     29  C   UNL A   1      41.315  25.235  26.096  1.00  0.00     0.251 C 
ATOM     30  H   UNL A   1      41.006  23.380  25.414  1.00  0.00     0.163 HD
ATOM     31  O   UNL A   1      41.992  25.545  25.112  1.00  0.00    -0.269 OA
BRANCH  29  32
ATOM     32  C   UNL A   1      41.153  26.196  27.214  1.00  0.00     0.039 A 
ATOM     33  C   UNL A   1      40.207  25.926  28.207  1.00  0.00     0.014 A 
ATOM     34  C   UNL A   1      41.891  27.382  27.275  1.00  0.00     0.014 A 
ATOM     35  C   UNL A   1      40.036  26.814  29.274  1.00  0.00     0.010 A 
ATOM     36  C   UNL A   1      41.791  28.215  28.387  1.00  0.00     0.010 A 
ATOM     37  C   UNL A   1      40.846  27.955  29.389  1.00  0.00    -0.014 A 
BRANCH  37  38
ATOM     38  C   UNL A   1      40.690  28.909  30.519  1.00  0.00     0.031 A 
ATOM     39  C   UNL A   1      41.562  28.772  31.743  1.00  0.00     0.074 A 
ATOM     40  C   UNL A   1      39.733  29.856  30.474  1.00  0.00     0.049 A 
ATOM     41  N   UNL A   1      41.529  29.450  32.861  1.00  0.00    -0.248 NA
ATOM     42  C   UNL A   1      42.584  27.712  31.718  1.00  0.00     0.031 C 
ATOM     43  C   UNL A   1      38.792  30.058  29.370  1.00  0.00     0.029 A 
ATOM     44  N   UNL A   1      39.385  30.823  31.384  1.00  0.00    -0.354 N 
ATOM     45  C   UNL A   1      42.502  28.884  33.678  1.00  0.00     0.074 A 
ATOM     46  C   UNL A   1      43.073  27.775  32.948  1.00  0.00     0.031 C 
ATOM     47  C   UNL A   1      37.989  31.095  29.659  1.00  0.00     0.029 A 
ATOM     48  C   UNL A   1      38.331  31.610  30.981  1.00  0.00     0.049 A 
ATOM     49  H   UNL A   1      39.845  30.941  32.246  1.00  0.00     0.167 HD
ATOM     50  C   UNL A   1      42.905  29.270  34.912  1.00  0.00     0.037 A 
ATOM     51  C   UNL A   1      37.708  32.628  31.608  1.00  0.00     0.037 A 
ATOM     52  C   UNL A   1      42.365  30.404  35.615  1.00  0.00     0.049 A 
ATOM     53  C   UNL A   1      38.189  33.055  32.968  1.00  0.00     0.074 A 
ATOM     54  C   UNL A   1      42.751  30.922  36.838  1.00  0.00     0.029 A 
ATOM     55  N   UNL A   1      41.325  31.198  35.155  1.00  0.00    -0.354 N 
ATOM     56  N   UNL A   1      39.156  32.548  33.696  1.00  0.00    -0.248 NA
ATOM     57  C   UNL A   1      37.502  34.195  33.589  1.00  0.00     0.031 C 
ATOM     58  C   UNL A   1      41.920  32.006  37.136  1.00  0.00     0.029 A 
ATOM     59  C   UNL A   1      41.046  32.193  36.077  1.00  0.00     0.049 A 
ATOM     60  H   UNL A   1      40.855  31.073  34.299  1.00  0.00     0.167 HD
ATOM     61  C   UNL A   1      39.210  33.323  34.849  1.00  0.00     0.074 A 
ATOM     62  C   UNL A   1      38.187  34.341  34.715  1.00  0.00     0.031 C 
ATOM     63  C   UNL A   1      40.031  33.204  35.922  1.00  0.00     0.037 A 
BRANCH  50  64
ATOM     64  C   UNL A   1      43.991  28.468  35.577  1.00  0.00     0.058 A 
ATOM     65  C   UNL A   1      45.351  28.758  35.375  1.00  0.00     0.135 A 
ATOM     66  C   UNL A   1      43.670  27.423  36.458  1.00  0.00     0.135 A 
ATOM     67  F   UNL A   1      45.715  29.736  34.532  1.00  0.00    -0.206 F 
ATOM     68  C   UNL A   1      46.353  28.020  35.998  1.00  0.00     0.059 A 
ATOM     69  C   UNL A   1      44.656  26.690  37.115  1.00  0.00     0.059 A 
ATOM     70  F   UNL A   1      42.387  27.102  36.688  1.00  0.00    -0.206 F 
ATOM     71  C   UNL A   1      45.995  26.988  36.867  1.00  0.00     0.060 A 
BRANCH  71  72
ATOM     72  S   UNL A   1      47.307  26.047  37.675  1.00  0.00     0.124 S 
ATOM     73  O   UNL A   1      48.501  26.661  37.099  1.00  0.00    -0.237 OA
ATOM     74  O   UNL A   1      47.069  26.331  39.087  1.00  0.00    -0.237 OA
ATOM     75  O   UNL A   1      47.046  24.674  37.262  1.00  0.00    -0.744 OA
ENDBRANCH  71  72
ENDBRANCH  50  64
BRANCH  51  76
ATOM     76  C   UNL A   1      36.575  33.327  30.944  1.00  0.00     0.058 A 
ATOM     77  C   UNL A   1      36.793  34.184  29.854  1.00  0.00     0.135 A 
ATOM     78  C   UNL A   1      35.252  33.144  31.374  1.00  0.00     0.135 A 
ATOM     79  F   UNL A   1      38.041  34.396  29.409  1.00  0.00    -0.206 F 
ATOM     80  C   UNL A   1      35.744  34.847  29.226  1.00  0.00     0.059 A 
ATOM     81  C   UNL A   1      34.183  33.777  30.747  1.00  0.00     0.059 A 
ATOM     82  F   UNL A   1      34.986  32.319  32.400  1.00  0.00    -0.206 F 
ATOM     83  C   UNL A   1      34.441  34.635  29.678  1.00  0.00     0.060 A 
BRANCH  83  84
ATOM     84  S   UNL A   1      33.080  35.458  28.824  1.00  0.00     0.124 S 
ATOM     85  O   UNL A   1      32.483  34.350  28.087  1.00  0.00    -0.237 OA
ATOM     86  O   UNL A   1      32.292  35.983  29.936  1.00  0.00    -0.237 OA
ATOM     87  O   UNL A   1      33.754  36.467  28.014  1.00  0.00    -0.744 OA
ENDBRANCH  83  84
ENDBRANCH  51  76
BRANCH  63  88
ATOM     88  C   UNL A   1      39.884  34.217  37.022  1.00  0.00     0.058 A 
ATOM     89  C   UNL A   1      40.468  35.490  36.935  1.00  0.00     0.135 A 
ATOM     90  C   UNL A   1      39.101  33.929  38.152  1.00  0.00     0.135 A 
ATOM     91  F   UNL A   1      41.231  35.812  35.879  1.00  0.00    -0.206 F 
ATOM     92  C   UNL A   1      40.300  36.435  37.942  1.00  0.00     0.059 A 
ATOM     93  C   UNL A   1      38.897  34.868  39.157  1.00  0.00     0.059 A 
ATOM     94  F   UNL A   1      38.511  32.729  38.278  1.00  0.00    -0.206 F 
ATOM     95  C   UNL A   1      39.510  36.115  39.048  1.00  0.00     0.060 A 
BRANCH  95  96
ATOM     96  S   UNL A   1      39.271  37.362  40.331  1.00  0.00     0.124 S 
ATOM     97  O   UNL A   1      38.515  36.616  41.330  1.00  0.00    -0.237 OA
ATOM     98  O   UNL A   1      40.642  37.702  40.697  1.00  0.00    -0.237 OA
ATOM     99  O   UNL A   1      38.533  38.418  39.643  1.00  0.00    -0.744 OA
ENDBRANCH  95  96
ENDBRANCH  63  88
ENDBRANCH  37  38
ENDBRANCH  29  32
ENDBRANCH  27  28
ENDBRANCH  26  27
ENDBRANCH   1  26
TORSDOF 17
ENDMDL
MODEL 3
REMARK VINA RESULT:     -11.9      6.556     11.984
REMARK SMILES [NH3+][C@H]1C=C[C@@H](C(=O)NC2(CC(=O)NCCCNC(=O)c3ccc(-c4c5nc(c(-c6c(F)cc(S(=O)(=O)[O-])cc6F)c6ccc([nH]6)c(-c6c(F)cc(S(=O)(=O)[O-])cc6F)c6nc(c(-c7c(F)cc(S(=O)(=O)[O-])cc7F)c7ccc4[nH]7)C=C6)C=C5)cc3)CCCCC2)C1
REMARK SMILES IDX 14 1 13 2 11 3 12 4 10 6 9 7 86 8 90 9 87 10 89 11 88 12
REMARK SMILES IDX 8 13 6 14 7 15 5 17 2 18 3 19 91 20 4 21 1 22 15 26 16 27
REMARK SMILES IDX 17 28 18 29 19 31 20 32 21 33 85 34 22 35 84 36 23 37 24 38
REMARK SMILES IDX 25 39 78 40 26 41 83 42 77 43 79 44 27 45 82 46 76 47 75 48
REMARK SMILES IDX 28 50 62 51 41 52 61 53 42 54 45 55 60 56 80 57 43 58 44 59
REMARK SMILES IDX 59 61 81 62 46 63 29 64 30 65 39 66 31 67 32 68 38 69 40 70
REMARK SMILES IDX 33 71 34 72 35 73 36 74 37 75 63 76 64 77 73 78 65 79 66 80
REMARK SMILES IDX 72 81 74 82 67 83 68 84 69 85 70 86 71 87 47 88 48 89 57 90
REMARK SMILES IDX 49 91 50 92 56 93 58 94 51 95 52 96 53 97 54 98 55 99
REMARK H PARENT 13 5 8 16 1 23 1 24 1 25 17 30 79 49 45 60
REMARK Flexibility Score: inf
ROOT
ATOM      1  C   UNL A   1      37.631  23.459  25.843  1.00  0.00     0.117 C 
ENDROOT
BRANCH   1   2
ATOM      2  N   UNL A   1      37.431  23.515  24.408  1.00  0.00    -0.356 N 
ATOM      3  C   UNL A   1      36.448  22.966  23.645  1.00  0.00     0.222 C 
ATOM      4  O   UNL A   1      36.609  22.943  22.422  1.00  0.00    -0.275 OA
ATOM      5  H   UNL A   1      38.109  24.026  23.911  1.00  0.00     0.163 HD
BRANCH   3   6
ATOM      6  C   UNL A   1      35.156  22.448  24.249  1.00  0.00     0.128 C 
BRANCH   6   7
ATOM      7  C   UNL A   1      33.935  23.434  24.322  1.00  0.00     0.049 C 
ATOM      8  C   UNL A   1      34.062  24.182  25.676  1.00  0.00     0.029 C 
ATOM      9  C   UNL A   1      32.611  22.659  24.300  1.00  0.00     0.029 C 
ATOM     10  C   UNL A   1      33.753  23.320  26.906  1.00  0.00     0.002 C 
ATOM     11  C   UNL A   1      32.339  21.780  25.515  1.00  0.00     0.002 C 
ATOM     12  C   UNL A   1      32.408  22.610  26.787  1.00  0.00     0.000 C 
BRANCH   7  13
ATOM     13  N   UNL A   1      33.990  24.382  23.166  1.00  0.00    -0.350 N 
ATOM     14  C   UNL A   1      33.300  25.431  22.651  1.00  0.00     0.227 C 
ATOM     15  O   UNL A   1      33.725  25.817  21.549  1.00  0.00    -0.274 OA
ATOM     16  H   UNL A   1      34.772  24.182  22.603  1.00  0.00     0.164 HD
BRANCH  14  17
ATOM     17  C   UNL A   1      32.095  26.188  23.243  1.00  0.00     0.107 C 
ATOM     18  C   UNL A   1      30.228  25.921  24.831  1.00  0.00     0.205 C 
ATOM     19  C   UNL A   1      31.337  26.746  25.392  1.00  0.00     0.033 C 
ATOM     20  C   UNL A   1      30.790  25.412  23.485  1.00  0.00     0.087 C 
ATOM     21  C   UNL A   1      32.334  26.921  24.518  1.00  0.00    -0.012 C 
BRANCH  18  22
ATOM     22  N   UNL A   1      29.831  24.886  25.771  1.00  0.00    -0.352 N 
ATOM     23  H   UNL A   1      30.003  23.969  25.359  1.00  0.00     0.345 HD
ATOM     24  H   UNL A   1      28.838  24.982  25.984  1.00  0.00     0.345 HD
ATOM     25  H   UNL A   1      30.373  24.980  26.630  1.00  0.00     0.345 HD
ENDBRANCH  18  22
ENDBRANCH  14  17
ENDBRANCH   7  13
ENDBRANCH   6   7
ENDBRANCH   3   6
ENDBRANCH   1   2
BRANCH   1  26
ATOM     26  C   UNL A   1      38.783  22.518  26.182  1.00  0.00     0.042 C 
BRANCH  26  27
ATOM     27  C   UNL A   1      39.856  23.155  27.050  1.00  0.00     0.118 C 
BRANCH  27  28
ATOM     28  N   UNL A   1      41.012  23.569  26.272  1.00  0.00    -0.352 N 
ATOM     29  C   UNL A   1      41.723  24.743  26.312  1.00  0.00     0.251 C 
ATOM     30  H   UNL A   1      41.334  22.908  25.616  1.00  0.00     0.163 HD
ATOM     31  O   UNL A   1      42.538  24.972  25.413  1.00  0.00    -0.269 OA
BRANCH  29  32
ATOM     32  C   UNL A   1      41.516  25.737  27.393  1.00  0.00     0.039 A 
ATOM     33  C   UNL A   1      40.418  25.591  28.245  1.00  0.00     0.014 A 
ATOM     34  C   UNL A   1      42.365  26.837  27.551  1.00  0.00     0.014 A 
ATOM     35  C   UNL A   1      40.200  26.513  29.275  1.00  0.00     0.010 A 
ATOM     36  C   UNL A   1      42.204  27.697  28.635  1.00  0.00     0.010 A 
ATOM     37  C   UNL A   1      41.108  27.561  29.496  1.00  0.00    -0.014 A 
BRANCH  37  38
ATOM     38  C   UNL A   1      40.904  28.548  30.590  1.00  0.00     0.031 A 
ATOM     39  C   UNL A   1      41.730  28.455  31.849  1.00  0.00     0.074 A 
ATOM     40  C   UNL A   1      39.943  29.486  30.481  1.00  0.00     0.049 A 
ATOM     41  N   UNL A   1      41.651  29.167  32.944  1.00  0.00    -0.248 NA
ATOM     42  C   UNL A   1      42.759  27.403  31.894  1.00  0.00     0.031 C 
ATOM     43  C   UNL A   1      39.043  29.647  29.337  1.00  0.00     0.029 A 
ATOM     44  N   UNL A   1      39.555  30.477  31.347  1.00  0.00    -0.354 N 
ATOM     45  C   UNL A   1      42.598  28.634  33.813  1.00  0.00     0.074 A 
ATOM     46  C   UNL A   1      43.202  27.507  33.139  1.00  0.00     0.031 C 
ATOM     47  C   UNL A   1      38.223  30.686  29.564  1.00  0.00     0.029 A 
ATOM     48  C   UNL A   1      38.512  31.244  30.881  1.00  0.00     0.049 A 
ATOM     49  H   UNL A   1      39.982  30.626  32.221  1.00  0.00     0.167 HD
ATOM     50  C   UNL A   1      42.951  29.060  35.049  1.00  0.00     0.037 A 
ATOM     51  C   UNL A   1      37.859  32.276  31.452  1.00  0.00     0.037 A 
ATOM     52  C   UNL A   1      42.379  30.211  35.695  1.00  0.00     0.049 A 
ATOM     53  C   UNL A   1      38.286  32.748  32.815  1.00  0.00     0.074 A 
ATOM     54  C   UNL A   1      42.715  30.769  36.916  1.00  0.00     0.029 A 
ATOM     55  N   UNL A   1      41.351  30.983  35.173  1.00  0.00    -0.354 N 
ATOM     56  N   UNL A   1      39.229  32.271  33.594  1.00  0.00    -0.248 NA
ATOM     57  C   UNL A   1      37.570  33.902  33.375  1.00  0.00     0.031 C 
ATOM     58  C   UNL A   1      41.867  31.856  37.149  1.00  0.00     0.029 A 
ATOM     59  C   UNL A   1      41.032  32.004  36.053  1.00  0.00     0.049 A 
ATOM     60  H   UNL A   1      40.914  30.828  34.305  1.00  0.00     0.167 HD
ATOM     61  C   UNL A   1      39.235  33.082  34.723  1.00  0.00     0.074 A 
ATOM     62  C   UNL A   1      38.212  34.087  34.521  1.00  0.00     0.031 C 
ATOM     63  C   UNL A   1      40.016  33.002  35.829  1.00  0.00     0.037 A 
BRANCH  50  64
ATOM     64  C   UNL A   1      44.017  28.288  35.778  1.00  0.00     0.058 A 
ATOM     65  C   UNL A   1      43.698  27.246  36.664  1.00  0.00     0.135 A 
ATOM     66  C   UNL A   1      45.377  28.565  35.559  1.00  0.00     0.135 A 
ATOM     67  F   UNL A   1      42.415  26.948  36.922  1.00  0.00    -0.206 F 
ATOM     68  C   UNL A   1      44.686  26.528  37.330  1.00  0.00     0.059 A 
ATOM     69  C   UNL A   1      46.383  27.840  36.192  1.00  0.00     0.059 A 
ATOM     70  F   UNL A   1      45.739  29.550  34.722  1.00  0.00    -0.206 F 
ATOM     71  C   UNL A   1      46.027  26.832  37.087  1.00  0.00     0.060 A 
BRANCH  71  72
ATOM     72  S   UNL A   1      47.297  25.885  37.951  1.00  0.00     0.124 S 
ATOM     73  O   UNL A   1      48.278  25.678  36.888  1.00  0.00    -0.237 OA
ATOM     74  O   UNL A   1      47.702  26.801  39.013  1.00  0.00    -0.237 OA
ATOM     75  O   UNL A   1      46.590  24.690  38.394  1.00  0.00    -0.744 OA
ENDBRANCH  71  72
ENDBRANCH  50  64
BRANCH  51  76
ATOM     76  C   UNL A   1      36.747  32.946  30.726  1.00  0.00     0.058 A 
ATOM     77  C   UNL A   1      35.409  32.617  30.992  1.00  0.00     0.135 A 
ATOM     78  C   UNL A   1      36.997  33.935  29.763  1.00  0.00     0.135 A 
ATOM     79  F   UNL A   1      35.119  31.674  31.901  1.00  0.00    -0.206 F 
ATOM     80  C   UNL A   1      34.360  33.233  30.318  1.00  0.00     0.059 A 
ATOM     81  C   UNL A   1      35.963  34.583  29.093  1.00  0.00     0.059 A 
ATOM     82  F   UNL A   1      38.258  34.301  29.485  1.00  0.00    -0.206 F 
ATOM     83  C   UNL A   1      34.646  34.217  29.371  1.00  0.00     0.060 A 
BRANCH  83  84
ATOM     84  S   UNL A   1      33.276  35.049  28.539  1.00  0.00     0.124 S 
ATOM     85  O   UNL A   1      32.608  33.931  27.883  1.00  0.00    -0.237 OA
ATOM     86  O   UNL A   1      32.559  35.654  29.659  1.00  0.00    -0.237 OA
ATOM     87  O   UNL A   1      33.948  35.994  27.653  1.00  0.00    -0.744 OA
ENDBRANCH  83  84
ENDBRANCH  51  76
BRANCH  63  88
ATOM     88  C   UNL A   1      39.822  34.047  36.891  1.00  0.00     0.058 A 
ATOM     89  C   UNL A   1      39.017  33.815  38.016  1.00  0.00     0.135 A 
ATOM     90  C   UNL A   1      40.497  35.277  36.807  1.00  0.00     0.135 A 
ATOM     91  F   UNL A   1      38.347  32.659  38.140  1.00  0.00    -0.206 F 
ATOM     92  C   UNL A   1      38.869  34.774  39.013  1.00  0.00     0.059 A 
ATOM     93  C   UNL A   1      40.384  36.239  37.805  1.00  0.00     0.059 A 
ATOM     94  F   UNL A   1      41.288  35.544  35.756  1.00  0.00    -0.206 F 
ATOM     95  C   UNL A   1      39.559  35.983  38.899  1.00  0.00     0.060 A 
BRANCH  95  96
ATOM     96  S   UNL A   1      39.386  37.205  40.215  1.00  0.00     0.124 S 
ATOM     97  O   UNL A   1      38.548  38.213  39.574  1.00  0.00    -0.237 OA
ATOM     98  O   UNL A   1      38.749  36.434  41.278  1.00  0.00    -0.237 OA
ATOM     99  O   UNL A   1      40.762  37.611  40.484  1.00  0.00    -0.744 OA
ENDBRANCH  95  96
ENDBRANCH  63  88
ENDBRANCH  37  38
ENDBRANCH  29  32
ENDBRANCH  27  28
ENDBRANCH  26  27
ENDBRANCH   1  26
TORSDOF 17
ENDMDL
