MODEL 1
REMARK VINA RESULT:     -12.5      0.000      0.000
REMARK SMILES Cc1cc(F)cc(N[C@H](C(=O)NCCCNC(=O)c2ccc(-c3c4nc(c(-c5c(F)cc(S(=O)(=O)[O-])cc5F)c5ccc([nH]5)c(-c5c(F)cc(S(=O)(=O)[O-])cc5F)c5nc(c(-c6c(F)cc(S(=O)(=O)[O-])cc6F)c6ccc3[nH]6)C=C5)C=C4)cc2)c2cc(Br)cs2)c1
REMARK SMILES IDX 14 1 13 2 12 3 10 4 11 5 9 7 8 8 7 10 1 11 2 12 3 13 91 14
REMARK SMILES IDX 4 15 5 16 6 17 85 18 86 19 90 20 87 21 89 22 88 23 15 24
REMARK SMILES IDX 16 25 17 26 18 28 19 29 20 30 84 31 21 32 83 33 22 34 23 35
REMARK SMILES IDX 24 36 77 37 25 38 82 39 76 40 78 41 26 42 81 43 75 44 74 45
REMARK SMILES IDX 27 47 61 48 40 49 60 50 41 51 44 52 59 53 79 54 42 55 43 56
REMARK SMILES IDX 58 58 80 59 45 60 28 61 29 62 38 63 30 64 31 65 37 66 39 67
REMARK SMILES IDX 32 68 33 69 34 70 35 71 36 72 62 73 63 74 72 75 64 76 65 77
REMARK SMILES IDX 71 78 73 79 66 80 67 81 68 82 69 83 70 84 46 85 47 86 56 87
REMARK SMILES IDX 48 88 49 89 55 90 57 91 50 92 51 93 52 94 53 95 54 96
REMARK H PARENT 12 6 8 9 16 27 78 46 44 57
REMARK Flexibility Score: inf
ROOT
ATOM      1  C   UNL A   1      37.720  22.801  25.917  1.00  0.00     0.042 C 
ENDROOT
BRANCH   1   2
ATOM      2  C   UNL A   1      36.238  23.047  25.692  1.00  0.00     0.117 C 
BRANCH   2   3
ATOM      3  N   UNL A   1      35.399  22.670  26.815  1.00  0.00    -0.354 N 
ATOM      4  C   UNL A   1      34.176  22.048  26.839  1.00  0.00     0.247 C 
ATOM      5  O   UNL A   1      33.763  21.795  27.979  1.00  0.00    -0.272 OA
ATOM      6  H   UNL A   1      35.765  22.897  27.699  1.00  0.00     0.163 HD
BRANCH   4   7
ATOM      7  C   UNL A   1      33.308  21.798  25.542  1.00  0.00     0.210 C 
BRANCH   7   8
ATOM      8  N   UNL A   1      32.558  20.530  25.597  1.00  0.00    -0.369 N 
ATOM      9  H   UNL A   1      31.859  20.464  26.288  1.00  0.00     0.161 HD
BRANCH   8  10
ATOM     10  C   UNL A   1      32.731  19.423  24.788  1.00  0.00     0.038 A 
ATOM     11  C   UNL A   1      33.881  15.811  25.289  1.00  0.00     0.044 C 
ATOM     12  C   UNL A   1      33.384  17.062  24.631  1.00  0.00    -0.046 A 
ATOM     13  C   UNL A   1      33.113  17.081  23.263  1.00  0.00     0.042 A 
ATOM     14  C   UNL A   1      33.214  18.241  25.373  1.00  0.00     0.029 A 
ATOM     15  C   UNL A   1      32.608  18.235  22.682  1.00  0.00     0.125 A 
ATOM     16  F   UNL A   1      32.333  18.248  21.371  1.00  0.00    -0.207 F 
ATOM     17  C   UNL A   1      32.383  19.382  23.436  1.00  0.00     0.065 A 
ENDBRANCH   8  10
ENDBRANCH   7   8
BRANCH   7  18
ATOM     18  C   UNL A   1      32.449  23.012  25.153  1.00  0.00     0.038 A 
ATOM     19  C   UNL A   1      32.595  23.951  24.140  1.00  0.00     0.033 A 
ATOM     20  S   UNL A   1      31.003  23.363  26.055  1.00  0.00    -0.145 S 
ATOM     21  C   UNL A   1      31.738  25.066  24.323  1.00  0.00     0.029 A 
ATOM     22  C   UNL A   1      30.876  24.924  25.375  1.00  0.00     0.080 A 
ATOM     23  Br  UNL A   1      31.855  26.602  23.235  1.00  0.00    -0.050 Br
ENDBRANCH   7  18
ENDBRANCH   4   7
ENDBRANCH   2   3
ENDBRANCH   1   2
BRANCH   1  24
ATOM     24  C   UNL A   1      38.528  24.048  26.240  1.00  0.00     0.118 C 
BRANCH  24  25
ATOM     25  N   UNL A   1      39.969  23.857  26.123  1.00  0.00    -0.352 N 
ATOM     26  C   UNL A   1      41.024  24.574  26.643  1.00  0.00     0.251 C 
ATOM     27  H   UNL A   1      40.233  23.080  25.578  1.00  0.00     0.163 HD
ATOM     28  O   UNL A   1      42.165  24.307  26.287  1.00  0.00    -0.269 OA
BRANCH  26  29
ATOM     29  C   UNL A   1      40.788  25.689  27.591  1.00  0.00     0.039 A 
ATOM     30  C   UNL A   1      39.768  25.572  28.539  1.00  0.00     0.014 A 
ATOM     31  C   UNL A   1      41.563  26.848  27.555  1.00  0.00     0.014 A 
ATOM     32  C   UNL A   1      39.597  26.570  29.505  1.00  0.00     0.010 A 
ATOM     33  C   UNL A   1      41.476  27.776  28.587  1.00  0.00     0.010 A 
ATOM     34  C   UNL A   1      40.487  27.654  29.573  1.00  0.00    -0.014 A 
BRANCH  34  35
ATOM     35  C   UNL A   1      40.401  28.677  30.650  1.00  0.00     0.031 A 
ATOM     36  C   UNL A   1      41.289  28.568  31.865  1.00  0.00     0.074 A 
ATOM     37  C   UNL A   1      39.470  29.652  30.578  1.00  0.00     0.049 A 
ATOM     38  N   UNL A   1      41.293  29.294  32.952  1.00  0.00    -0.248 NA
ATOM     39  C   UNL A   1      42.279  27.477  31.876  1.00  0.00     0.031 C 
ATOM     40  C   UNL A   1      38.513  29.834  29.482  1.00  0.00     0.029 A 
ATOM     41  N   UNL A   1      39.164  30.668  31.449  1.00  0.00    -0.354 N 
ATOM     42  C   UNL A   1      42.257  28.732  33.783  1.00  0.00     0.074 A 
ATOM     43  C   UNL A   1      42.783  27.574  33.097  1.00  0.00     0.031 C 
ATOM     44  C   UNL A   1      37.754  30.913  29.731  1.00  0.00     0.029 A 
ATOM     45  C   UNL A   1      38.130  31.473  31.025  1.00  0.00     0.049 A 
ATOM     46  H   UNL A   1      39.640  30.810  32.300  1.00  0.00     0.167 HD
ATOM     47  C   UNL A   1      42.681  29.155  34.997  1.00  0.00     0.037 A 
ATOM     48  C   UNL A   1      37.544  32.532  31.616  1.00  0.00     0.037 A 
ATOM     49  C   UNL A   1      42.192  30.341  35.648  1.00  0.00     0.049 A 
ATOM     50  C   UNL A   1      38.044  32.985  32.964  1.00  0.00     0.074 A 
ATOM     51  C   UNL A   1      42.624  30.907  36.835  1.00  0.00     0.029 A 
ATOM     52  N   UNL A   1      41.166  31.141  35.173  1.00  0.00    -0.354 N 
ATOM     53  N   UNL A   1      39.015  32.488  33.693  1.00  0.00    -0.248 NA
ATOM     54  C   UNL A   1      37.373  34.146  33.567  1.00  0.00     0.031 C 
ATOM     55  C   UNL A   1      41.820  32.017  37.106  1.00  0.00     0.029 A 
ATOM     56  C   UNL A   1      40.929  32.180  36.058  1.00  0.00     0.049 A 
ATOM     57  H   UNL A   1      40.676  30.994  34.331  1.00  0.00     0.167 HD
ATOM     58  C   UNL A   1      39.096  33.299  34.820  1.00  0.00     0.074 A 
ATOM     59  C   UNL A   1      38.084  34.323  34.672  1.00  0.00     0.031 C 
ATOM     60  C   UNL A   1      39.933  33.205  35.883  1.00  0.00     0.037 A 
BRANCH  47  61
ATOM     61  C   UNL A   1      43.732  28.345  35.705  1.00  0.00     0.058 A 
ATOM     62  C   UNL A   1      45.103  28.581  35.518  1.00  0.00     0.135 A 
ATOM     63  C   UNL A   1      43.359  27.371  36.647  1.00  0.00     0.135 A 
ATOM     64  F   UNL A   1      45.517  29.487  34.618  1.00  0.00    -0.206 F 
ATOM     65  C   UNL A   1      46.067  27.874  36.229  1.00  0.00     0.059 A 
ATOM     66  C   UNL A   1      44.305  26.672  37.391  1.00  0.00     0.059 A 
ATOM     67  F   UNL A   1      42.062  27.101  36.862  1.00  0.00    -0.206 F 
ATOM     68  C   UNL A   1      45.658  26.927  37.171  1.00  0.00     0.060 A 
BRANCH  68  69
ATOM     69  S   UNL A   1      46.922  26.054  38.119  1.00  0.00     0.124 S 
ATOM     70  O   UNL A   1      46.628  24.664  37.783  1.00  0.00    -0.237 OA
ATOM     71  O   UNL A   1      48.157  26.594  37.558  1.00  0.00    -0.237 OA
ATOM     72  O   UNL A   1      46.641  26.440  39.497  1.00  0.00    -0.744 OA
ENDBRANCH  68  69
ENDBRANCH  47  61
BRANCH  48  73
ATOM     73  C   UNL A   1      36.429  33.257  30.944  1.00  0.00     0.058 A 
ATOM     74  C   UNL A   1      36.673  34.094  29.844  1.00  0.00     0.135 A 
ATOM     75  C   UNL A   1      35.107  33.157  31.403  1.00  0.00     0.135 A 
ATOM     76  F   UNL A   1      37.920  34.228  29.367  1.00  0.00    -0.206 F 
ATOM     77  C   UNL A   1      35.657  34.836  29.249  1.00  0.00     0.059 A 
ATOM     78  C   UNL A   1      34.068  33.865  30.806  1.00  0.00     0.059 A 
ATOM     79  F   UNL A   1      34.812  32.355  32.439  1.00  0.00    -0.206 F 
ATOM     80  C   UNL A   1      34.357  34.716  29.741  1.00  0.00     0.060 A 
BRANCH  80  81
ATOM     81  S   UNL A   1      33.043  35.680  28.960  1.00  0.00     0.124 S 
ATOM     82  O   UNL A   1      33.809  36.679  28.227  1.00  0.00    -0.237 OA
ATOM     83  O   UNL A   1      32.366  34.672  28.149  1.00  0.00    -0.237 OA
ATOM     84  O   UNL A   1      32.274  36.180  30.096  1.00  0.00    -0.744 OA
ENDBRANCH  80  81
ENDBRANCH  48  73
BRANCH  60  85
ATOM     85  C   UNL A   1      39.832  34.265  36.945  1.00  0.00     0.058 A 
ATOM     86  C   UNL A   1      40.439  35.521  36.801  1.00  0.00     0.135 A 
ATOM     87  C   UNL A   1      39.062  34.037  38.098  1.00  0.00     0.135 A 
ATOM     88  F   UNL A   1      41.190  35.789  35.721  1.00  0.00    -0.206 F 
ATOM     89  C   UNL A   1      40.308  36.507  37.773  1.00  0.00     0.059 A 
ATOM     90  C   UNL A   1      38.890  35.019  39.068  1.00  0.00     0.059 A 
ATOM     91  F   UNL A   1      38.448  32.856  38.280  1.00  0.00    -0.206 F 
ATOM     92  C   UNL A   1      39.527  36.247  38.902  1.00  0.00     0.060 A 
BRANCH  92  93
ATOM     93  S   UNL A   1      39.335  37.549  40.137  1.00  0.00     0.124 S 
ATOM     94  O   UNL A   1      40.664  38.149  40.142  1.00  0.00    -0.237 OA
ATOM     95  O   UNL A   1      38.270  38.368  39.564  1.00  0.00    -0.237 OA
ATOM     96  O   UNL A   1      38.972  36.818  41.348  1.00  0.00    -0.744 OA
ENDBRANCH  92  93
ENDBRANCH  60  85
ENDBRANCH  34  35
ENDBRANCH  26  29
ENDBRANCH  24  25
ENDBRANCH   1  24
TORSDOF 16
ENDMDL
MODEL 2
REMARK VINA RESULT:     -12.2      7.040     12.647
REMARK SMILES Cc1cc(F)cc(N[C@H](C(=O)NCCCNC(=O)c2ccc(-c3c4nc(c(-c5c(F)cc(S(=O)(=O)[O-])cc5F)c5ccc([nH]5)c(-c5c(F)cc(S(=O)(=O)[O-])cc5F)c5nc(c(-c6c(F)cc(S(=O)(=O)[O-])cc6F)c6ccc3[nH]6)C=C5)C=C4)cc2)c2cc(Br)cs2)c1
REMARK SMILES IDX 14 1 13 2 12 3 10 4 11 5 9 7 8 8 7 10 1 11 2 12 3 13 91 14
REMARK SMILES IDX 4 15 5 16 6 17 85 18 86 19 90 20 87 21 89 22 88 23 15 24
REMARK SMILES IDX 16 25 17 26 18 28 19 29 20 30 84 31 21 32 83 33 22 34 23 35
REMARK SMILES IDX 24 36 77 37 25 38 82 39 76 40 78 41 26 42 81 43 75 44 74 45
REMARK SMILES IDX 27 47 61 48 40 49 60 50 41 51 44 52 59 53 79 54 42 55 43 56
REMARK SMILES IDX 58 58 80 59 45 60 28 61 29 62 38 63 30 64 31 65 37 66 39 67
REMARK SMILES IDX 32 68 33 69 34 70 35 71 36 72 62 73 63 74 72 75 64 76 65 77
REMARK SMILES IDX 71 78 73 79 66 80 67 81 68 82 69 83 70 84 46 85 47 86 56 87
REMARK SMILES IDX 48 88 49 89 55 90 57 91 50 92 51 93 52 94 53 95 54 96
REMARK H PARENT 12 6 8 9 16 27 78 46 44 57
REMARK Flexibility Score: inf
ROOT
ATOM      1  C   UNL A   1      34.122  30.019  26.807  1.00  0.00     0.042 C 
ENDROOT
BRANCH   1   2
ATOM      2  C   UNL A   1      33.570  28.911  25.927  1.00  0.00     0.117 C 
BRANCH   2   3
ATOM      3  N   UNL A   1      34.009  28.979  24.545  1.00  0.00    -0.354 N 
ATOM      4  C   UNL A   1      33.451  28.448  23.409  1.00  0.00     0.247 C 
ATOM      5  O   UNL A   1      34.038  28.763  22.365  1.00  0.00    -0.272 OA
ATOM      6  H   UNL A   1      34.839  29.487  24.399  1.00  0.00     0.163 HD
BRANCH   4   7
ATOM      7  C   UNL A   1      32.252  27.419  23.436  1.00  0.00     0.210 C 
BRANCH   7   8
ATOM      8  N   UNL A   1      31.232  27.709  22.411  1.00  0.00    -0.369 N 
ATOM      9  H   UNL A   1      31.418  27.377  21.502  1.00  0.00     0.161 HD
BRANCH   8  10
ATOM     10  C   UNL A   1      30.047  28.396  22.586  1.00  0.00     0.038 A 
ATOM     11  C   UNL A   1      28.773  31.913  21.791  1.00  0.00     0.044 C 
ATOM     12  C   UNL A   1      28.812  30.494  22.270  1.00  0.00    -0.046 A 
ATOM     13  C   UNL A   1      27.687  29.917  22.859  1.00  0.00     0.042 A 
ATOM     14  C   UNL A   1      29.986  29.735  22.163  1.00  0.00     0.029 A 
ATOM     15  C   UNL A   1      27.728  28.588  23.253  1.00  0.00     0.125 A 
ATOM     16  F   UNL A   1      26.642  28.029  23.804  1.00  0.00    -0.207 F 
ATOM     17  C   UNL A   1      28.877  27.822  23.087  1.00  0.00     0.065 A 
ENDBRANCH   8  10
ENDBRANCH   7   8
BRANCH   7  18
ATOM     18  C   UNL A   1      32.719  25.955  23.452  1.00  0.00     0.038 A 
ATOM     19  C   UNL A   1      32.273  24.842  22.751  1.00  0.00     0.033 A 
ATOM     20  S   UNL A   1      34.047  25.491  24.476  1.00  0.00    -0.145 S 
ATOM     21  C   UNL A   1      32.791  23.635  23.285  1.00  0.00     0.029 A 
ATOM     22  C   UNL A   1      33.703  23.830  24.285  1.00  0.00     0.080 A 
ATOM     23  Br  UNL A   1      32.203  21.947  22.686  1.00  0.00    -0.050 Br
ENDBRANCH   7  18
ENDBRANCH   4   7
ENDBRANCH   2   3
ENDBRANCH   1   2
BRANCH   1  24
ATOM     24  C   UNL A   1      35.352  29.634  27.614  1.00  0.00     0.118 C 
BRANCH  24  25
ATOM     25  N   UNL A   1      35.265  30.004  29.022  1.00  0.00    -0.352 N 
ATOM     26  C   UNL A   1      36.229  30.067  30.004  1.00  0.00     0.251 C 
ATOM     27  H   UNL A   1      34.360  30.251  29.323  1.00  0.00     0.163 HD
ATOM     28  O   UNL A   1      35.893  30.267  31.165  1.00  0.00    -0.269 OA
BRANCH  26  29
ATOM     29  C   UNL A   1      37.660  29.855  29.677  1.00  0.00     0.039 A 
ATOM     30  C   UNL A   1      38.552  29.535  30.704  1.00  0.00     0.014 A 
ATOM     31  C   UNL A   1      38.130  29.967  28.369  1.00  0.00     0.014 A 
ATOM     32  C   UNL A   1      39.885  29.233  30.401  1.00  0.00     0.010 A 
ATOM     33  C   UNL A   1      39.417  29.547  28.054  1.00  0.00     0.010 A 
ATOM     34  C   UNL A   1      40.315  29.180  29.066  1.00  0.00    -0.014 A 
BRANCH  34  35
ATOM     35  C   UNL A   1      41.695  28.761  28.699  1.00  0.00     0.031 A 
ATOM     36  C   UNL A   1      42.806  29.781  28.660  1.00  0.00     0.074 A 
ATOM     37  C   UNL A   1      41.932  27.487  28.320  1.00  0.00     0.049 A 
ATOM     38  N   UNL A   1      44.045  29.637  28.268  1.00  0.00    -0.248 NA
ATOM     39  C   UNL A   1      42.473  31.151  29.085  1.00  0.00     0.031 C 
ATOM     40  C   UNL A   1      40.930  26.418  28.262  1.00  0.00     0.029 A 
ATOM     41  N   UNL A   1      43.087  26.875  27.899  1.00  0.00    -0.354 N 
ATOM     42  C   UNL A   1      44.625  30.897  28.367  1.00  0.00     0.074 A 
ATOM     43  C   UNL A   1      43.592  31.805  28.809  1.00  0.00     0.031 C 
ATOM     44  C   UNL A   1      41.521  25.279  27.863  1.00  0.00     0.029 A 
ATOM     45  C   UNL A   1      42.929  25.543  27.589  1.00  0.00     0.049 A 
ATOM     46  H   UNL A   1      43.949  27.345  27.826  1.00  0.00     0.167 HD
ATOM     47  C   UNL A   1      45.908  31.260  28.134  1.00  0.00     0.037 A 
ATOM     48  C   UNL A   1      43.815  24.640  27.125  1.00  0.00     0.037 A 
ATOM     49  C   UNL A   1      46.945  30.339  27.748  1.00  0.00     0.049 A 
ATOM     50  C   UNL A   1      45.239  25.072  26.883  1.00  0.00     0.074 A 
ATOM     51  C   UNL A   1      48.295  30.590  27.579  1.00  0.00     0.029 A 
ATOM     52  N   UNL A   1      46.749  28.996  27.471  1.00  0.00    -0.354 N 
ATOM     53  N   UNL A   1      45.786  26.251  27.065  1.00  0.00    -0.248 NA
ATOM     54  C   UNL A   1      46.167  24.051  26.377  1.00  0.00     0.031 C 
ATOM     55  C   UNL A   1      48.906  29.412  27.144  1.00  0.00     0.029 A 
ATOM     56  C   UNL A   1      47.950  28.411  27.102  1.00  0.00     0.049 A 
ATOM     57  H   UNL A   1      45.886  28.526  27.528  1.00  0.00     0.167 HD
ATOM     58  C   UNL A   1      47.128  26.101  26.734  1.00  0.00     0.074 A 
ATOM     59  C   UNL A   1      47.312  24.718  26.350  1.00  0.00     0.031 C 
ATOM     60  C   UNL A   1      48.120  27.026  26.746  1.00  0.00     0.037 A 
BRANCH  47  61
ATOM     61  C   UNL A   1      46.279  32.709  28.295  1.00  0.00     0.058 A 
ATOM     62  C   UNL A   1      46.174  33.624  27.236  1.00  0.00     0.135 A 
ATOM     63  C   UNL A   1      46.668  33.204  29.551  1.00  0.00     0.135 A 
ATOM     64  F   UNL A   1      45.823  33.204  26.010  1.00  0.00    -0.206 F 
ATOM     65  C   UNL A   1      46.452  34.976  27.412  1.00  0.00     0.059 A 
ATOM     66  C   UNL A   1      46.923  34.556  29.758  1.00  0.00     0.059 A 
ATOM     67  F   UNL A   1      46.789  32.372  30.597  1.00  0.00    -0.206 F 
ATOM     68  C   UNL A   1      46.818  35.434  28.680  1.00  0.00     0.060 A 
BRANCH  68  69
ATOM     69  S   UNL A   1      47.128  37.199  28.900  1.00  0.00     0.124 S 
ATOM     70  O   UNL A   1      46.584  37.424  30.237  1.00  0.00    -0.237 OA
ATOM     71  O   UNL A   1      48.582  37.273  28.787  1.00  0.00    -0.237 OA
ATOM     72  O   UNL A   1      46.384  37.815  27.808  1.00  0.00    -0.744 OA
ENDBRANCH  68  69
ENDBRANCH  47  61
BRANCH  48  73
ATOM     73  C   UNL A   1      43.401  23.232  26.868  1.00  0.00     0.058 A 
ATOM     74  C   UNL A   1      43.173  22.343  27.931  1.00  0.00     0.135 A 
ATOM     75  C   UNL A   1      43.259  22.735  25.564  1.00  0.00     0.135 A 
ATOM     76  F   UNL A   1      43.299  22.766  29.197  1.00  0.00    -0.206 F 
ATOM     77  C   UNL A   1      42.857  21.005  27.711  1.00  0.00     0.059 A 
ATOM     78  C   UNL A   1      42.913  21.409  25.318  1.00  0.00     0.059 A 
ATOM     79  F   UNL A   1      43.445  23.545  24.510  1.00  0.00    -0.206 F 
ATOM     80  C   UNL A   1      42.734  20.548  26.398  1.00  0.00     0.060 A 
BRANCH  80  81
ATOM     81  S   UNL A   1      42.320  18.811  26.123  1.00  0.00     0.124 S 
ATOM     82  O   UNL A   1      43.253  18.452  25.063  1.00  0.00    -0.237 OA
ATOM     83  O   UNL A   1      42.583  18.222  27.432  1.00  0.00    -0.237 OA
ATOM     84  O   UNL A   1      40.913  18.860  25.737  1.00  0.00    -0.744 OA
ENDBRANCH  80  81
ENDBRANCH  48  73
BRANCH  60  85
ATOM     85  C   UNL A   1      49.506  26.565  26.388  1.00  0.00     0.058 A 
ATOM     86  C   UNL A   1      50.346  25.941  27.322  1.00  0.00     0.135 A 
ATOM     87  C   UNL A   1      49.974  26.698  25.070  1.00  0.00     0.135 A 
ATOM     88  F   UNL A   1      49.950  25.795  28.596  1.00  0.00    -0.206 F 
ATOM     89  C   UNL A   1      51.612  25.486  26.970  1.00  0.00     0.059 A 
ATOM     90  C   UNL A   1      51.223  26.220  24.687  1.00  0.00     0.059 A 
ATOM     91  F   UNL A   1      49.205  27.276  24.133  1.00  0.00    -0.206 F 
ATOM     92  C   UNL A   1      52.040  25.627  25.647  1.00  0.00     0.060 A 
BRANCH  92  93
ATOM     93  S   UNL A   1      53.670  24.998  25.195  1.00  0.00     0.124 S 
ATOM     94  O   UNL A   1      53.416  23.565  25.094  1.00  0.00    -0.237 OA
ATOM     95  O   UNL A   1      53.932  25.687  23.935  1.00  0.00    -0.237 OA
ATOM     96  O   UNL A   1      54.515  25.408  26.313  1.00  0.00    -0.744 OA
ENDBRANCH  92  93
ENDBRANCH  60  85
ENDBRANCH  34  35
ENDBRANCH  26  29
ENDBRANCH  24  25
ENDBRANCH   1  24
TORSDOF 16
ENDMDL
MODEL 3
REMARK VINA RESULT:     -12.1      6.745     12.117
REMARK SMILES Cc1cc(F)cc(N[C@H](C(=O)NCCCNC(=O)c2ccc(-c3c4nc(c(-c5c(F)cc(S(=O)(=O)[O-])cc5F)c5ccc([nH]5)c(-c5c(F)cc(S(=O)(=O)[O-])cc5F)c5nc(c(-c6c(F)cc(S(=O)(=O)[O-])cc6F)c6ccc3[nH]6)C=C5)C=C4)cc2)c2cc(Br)cs2)c1
REMARK SMILES IDX 14 1 13 2 12 3 10 4 11 5 9 7 8 8 7 10 1 11 2 12 3 13 91 14
REMARK SMILES IDX 4 15 5 16 6 17 85 18 86 19 90 20 87 21 89 22 88 23 15 24
REMARK SMILES IDX 16 25 17 26 18 28 19 29 20 30 84 31 21 32 83 33 22 34 23 35
REMARK SMILES IDX 24 36 77 37 25 38 82 39 76 40 78 41 26 42 81 43 75 44 74 45
REMARK SMILES IDX 27 47 61 48 40 49 60 50 41 51 44 52 59 53 79 54 42 55 43 56
REMARK SMILES IDX 58 58 80 59 45 60 28 61 29 62 38 63 30 64 31 65 37 66 39 67
REMARK SMILES IDX 32 68 33 69 34 70 35 71 36 72 62 73 63 74 72 75 64 76 65 77
REMARK SMILES IDX 71 78 73 79 66 80 67 81 68 82 69 83 70 84 46 85 47 86 56 87
REMARK SMILES IDX 48 88 49 89 55 90 57 91 50 92 51 93 52 94 53 95 54 96
REMARK H PARENT 12 6 8 9 16 27 78 46 44 57
REMARK Flexibility Score: inf
ROOT
ATOM      1  C   UNL A   1      34.329  30.516  27.222  1.00  0.00     0.042 C 
ENDROOT
BRANCH   1   2
ATOM      2  C   UNL A   1      34.256  29.000  27.264  1.00  0.00     0.117 C 
BRANCH   2   3
ATOM      3  N   UNL A   1      32.946  28.480  27.613  1.00  0.00    -0.354 N 
ATOM      4  C   UNL A   1      32.091  27.678  26.899  1.00  0.00     0.247 C 
ATOM      5  O   UNL A   1      31.075  27.345  27.524  1.00  0.00    -0.272 OA
ATOM      6  H   UNL A   1      32.620  28.744  28.502  1.00  0.00     0.163 HD
BRANCH   4   7
ATOM      7  C   UNL A   1      32.311  27.321  25.375  1.00  0.00     0.210 C 
BRANCH   7   8
ATOM      8  N   UNL A   1      32.233  25.872  25.116  1.00  0.00    -0.369 N 
ATOM      9  H   UNL A   1      31.573  25.582  24.445  1.00  0.00     0.161 HD
BRANCH   8  10
ATOM     10  C   UNL A   1      32.984  24.877  25.712  1.00  0.00     0.038 A 
ATOM     11  C   UNL A   1      36.620  23.705  25.531  1.00  0.00     0.044 C 
ATOM     12  C   UNL A   1      35.178  23.796  25.927  1.00  0.00    -0.046 A 
ATOM     13  C   UNL A   1      34.644  22.907  26.860  1.00  0.00     0.042 A 
ATOM     14  C   UNL A   1      34.335  24.755  25.345  1.00  0.00     0.029 A 
ATOM     15  C   UNL A   1      33.320  23.038  27.249  1.00  0.00     0.125 A 
ATOM     16  F   UNL A   1      32.812  22.194  28.157  1.00  0.00    -0.207 F 
ATOM     17  C   UNL A   1      32.506  24.031  26.713  1.00  0.00     0.065 A 
ENDBRANCH   8  10
ENDBRANCH   7   8
BRANCH   7  18
ATOM     18  C   UNL A   1      31.446  28.170  24.430  1.00  0.00     0.038 A 
ATOM     19  C   UNL A   1      30.911  29.444  24.573  1.00  0.00     0.033 A 
ATOM     20  S   UNL A   1      31.010  27.539  22.869  1.00  0.00    -0.145 S 
ATOM     21  C   UNL A   1      29.936  29.725  23.582  1.00  0.00     0.029 A 
ATOM     22  C   UNL A   1      29.822  28.741  22.638  1.00  0.00     0.080 A 
ATOM     23  Br  UNL A   1      28.879  31.285  23.637  1.00  0.00    -0.050 Br
ENDBRANCH   7  18
ENDBRANCH   4   7
ENDBRANCH   2   3
ENDBRANCH   1   2
BRANCH   1  24
ATOM     24  C   UNL A   1      35.467  31.119  28.029  1.00  0.00     0.118 C 
BRANCH  24  25
ATOM     25  N   UNL A   1      35.364  30.869  29.462  1.00  0.00    -0.352 N 
ATOM     26  C   UNL A   1      36.291  30.409  30.371  1.00  0.00     0.251 C 
ATOM     27  H   UNL A   1      34.478  31.062  29.846  1.00  0.00     0.163 HD
ATOM     28  O   UNL A   1      35.933  30.136  31.510  1.00  0.00    -0.269 OA
BRANCH  26  29
ATOM     29  C   UNL A   1      37.705  30.201  29.974  1.00  0.00     0.039 A 
ATOM     30  C   UNL A   1      38.681  30.090  30.968  1.00  0.00     0.014 A 
ATOM     31  C   UNL A   1      38.077  30.115  28.633  1.00  0.00     0.014 A 
ATOM     32  C   UNL A   1      40.003  29.794  30.616  1.00  0.00     0.010 A 
ATOM     33  C   UNL A   1      39.359  29.700  28.292  1.00  0.00     0.010 A 
ATOM     34  C   UNL A   1      40.342  29.540  29.278  1.00  0.00    -0.014 A 
BRANCH  34  35
ATOM     35  C   UNL A   1      41.713  29.119  28.879  1.00  0.00     0.031 A 
ATOM     36  C   UNL A   1      42.825  30.138  28.818  1.00  0.00     0.074 A 
ATOM     37  C   UNL A   1      41.940  27.847  28.492  1.00  0.00     0.049 A 
ATOM     38  N   UNL A   1      44.054  29.994  28.397  1.00  0.00    -0.248 NA
ATOM     39  C   UNL A   1      42.503  31.508  29.253  1.00  0.00     0.031 C 
ATOM     40  C   UNL A   1      40.936  26.778  28.453  1.00  0.00     0.029 A 
ATOM     41  N   UNL A   1      43.084  27.234  28.043  1.00  0.00    -0.354 N 
ATOM     42  C   UNL A   1      44.638  31.253  28.486  1.00  0.00     0.074 A 
ATOM     43  C   UNL A   1      43.616  32.161  28.954  1.00  0.00     0.031 C 
ATOM     44  C   UNL A   1      41.516  25.640  28.038  1.00  0.00     0.029 A 
ATOM     45  C   UNL A   1      42.918  25.903  27.732  1.00  0.00     0.049 A 
ATOM     46  H   UNL A   1      43.945  27.704  27.952  1.00  0.00     0.167 HD
ATOM     47  C   UNL A   1      45.916  31.615  28.225  1.00  0.00     0.037 A 
ATOM     48  C   UNL A   1      43.792  25.000  27.246  1.00  0.00     0.037 A 
ATOM     49  C   UNL A   1      46.942  30.695  27.814  1.00  0.00     0.049 A 
ATOM     50  C   UNL A   1      45.211  25.431  26.973  1.00  0.00     0.074 A 
ATOM     51  C   UNL A   1      48.288  30.945  27.615  1.00  0.00     0.029 A 
ATOM     52  N   UNL A   1      46.739  29.352  27.538  1.00  0.00    -0.354 N 
ATOM     53  N   UNL A   1      45.763  26.609  27.146  1.00  0.00    -0.248 NA
ATOM     54  C   UNL A   1      46.127  24.411  26.444  1.00  0.00     0.031 C 
ATOM     55  C   UNL A   1      48.888  29.767  27.163  1.00  0.00     0.029 A 
ATOM     56  C   UNL A   1      47.930  28.767  27.140  1.00  0.00     0.049 A 
ATOM     57  H   UNL A   1      45.876  28.883  27.612  1.00  0.00     0.167 HD
ATOM     58  C   UNL A   1      47.098  26.459  26.785  1.00  0.00     0.074 A 
ATOM     59  C   UNL A   1      47.272  25.076  26.393  1.00  0.00     0.031 C 
ATOM     60  C   UNL A   1      48.091  27.383  26.777  1.00  0.00     0.037 A 
BRANCH  47  61
ATOM     61  C   UNL A   1      46.291  33.064  28.382  1.00  0.00     0.058 A 
ATOM     62  C   UNL A   1      46.117  33.992  27.344  1.00  0.00     0.135 A 
ATOM     63  C   UNL A   1      46.757  33.544  29.617  1.00  0.00     0.135 A 
ATOM     64  F   UNL A   1      45.691  33.587  26.137  1.00  0.00    -0.206 F 
ATOM     65  C   UNL A   1      46.402  35.343  27.520  1.00  0.00     0.059 A 
ATOM     66  C   UNL A   1      47.021  34.894  29.826  1.00  0.00     0.059 A 
ATOM     67  F   UNL A   1      46.947  32.699  30.643  1.00  0.00    -0.206 F 
ATOM     68  C   UNL A   1      46.846  35.786  28.768  1.00  0.00     0.060 A 
BRANCH  68  69
ATOM     69  S   UNL A   1      47.164  37.548  28.992  1.00  0.00     0.124 S 
ATOM     70  O   UNL A   1      46.272  38.134  27.995  1.00  0.00    -0.237 OA
ATOM     71  O   UNL A   1      46.781  37.757  30.385  1.00  0.00    -0.237 OA
ATOM     72  O   UNL A   1      48.590  37.675  28.710  1.00  0.00    -0.744 OA
ENDBRANCH  68  69
ENDBRANCH  47  61
BRANCH  48  73
ATOM     73  C   UNL A   1      43.371  23.593  26.995  1.00  0.00     0.058 A 
ATOM     74  C   UNL A   1      43.132  23.135  25.690  1.00  0.00     0.135 A 
ATOM     75  C   UNL A   1      43.166  22.690  28.049  1.00  0.00     0.135 A 
ATOM     76  F   UNL A   1      43.309  23.959  24.647  1.00  0.00    -0.206 F 
ATOM     77  C   UNL A   1      42.668  21.847  25.441  1.00  0.00     0.059 A 
ATOM     78  C   UNL A   1      42.732  21.386  27.823  1.00  0.00     0.059 A 
ATOM     79  F   UNL A   1      43.399  23.068  29.316  1.00  0.00    -0.206 F 
ATOM     80  C   UNL A   1      42.468  20.981  26.517  1.00  0.00     0.060 A 
BRANCH  80  81
ATOM     81  S   UNL A   1      41.869  19.309  26.183  1.00  0.00     0.124 S 
ATOM     82  O   UNL A   1      40.447  19.544  25.970  1.00  0.00    -0.237 OA
ATOM     83  O   UNL A   1      42.641  18.939  25.001  1.00  0.00    -0.237 OA
ATOM     84  O   UNL A   1      42.215  18.581  27.401  1.00  0.00    -0.744 OA
ENDBRANCH  80  81
ENDBRANCH  48  73
BRANCH  60  85
ATOM     85  C   UNL A   1      49.467  26.922  26.386  1.00  0.00     0.058 A 
ATOM     86  C   UNL A   1      50.347  26.341  27.312  1.00  0.00     0.135 A 
ATOM     87  C   UNL A   1      49.887  27.008  25.047  1.00  0.00     0.135 A 
ATOM     88  F   UNL A   1      49.998  26.240  28.604  1.00  0.00    -0.206 F 
ATOM     89  C   UNL A   1      51.605  25.885  26.931  1.00  0.00     0.059 A 
ATOM     90  C   UNL A   1      51.126  26.528  24.638  1.00  0.00     0.059 A 
ATOM     91  F   UNL A   1      49.078  27.543  24.118  1.00  0.00    -0.206 F 
ATOM     92  C   UNL A   1      51.983  25.979  25.590  1.00  0.00     0.060 A 
BRANCH  92  93
ATOM     93  S   UNL A   1      53.603  25.348  25.103  1.00  0.00     0.124 S 
ATOM     94  O   UNL A   1      53.485  23.936  25.449  1.00  0.00    -0.237 OA
ATOM     95  O   UNL A   1      53.639  25.651  23.675  1.00  0.00    -0.237 OA
ATOM     96  O   UNL A   1      54.529  26.121  25.925  1.00  0.00    -0.744 OA
ENDBRANCH  92  93
ENDBRANCH  60  85
ENDBRANCH  34  35
ENDBRANCH  26  29
ENDBRANCH  24  25
ENDBRANCH   1  24
TORSDOF 16
ENDMDL
