MODEL 1
REMARK VINA RESULT:     -12.0      0.000      0.000
REMARK SMILES O=C(NCCCNC(=O)c1ccc(F)cc1-c1ccc(F)c(Cl)c1)c1ccc(-c2c3nc(c(-c4c(F)cc(S(=O)(=O)[O-])cc4F)c4ccc([nH]4)c(-c4c(F)cc(S(=O)(=O)[O-])cc4F)c4nc(c(-c5c(F)cc(S(=O)(=O)[O-])cc5F)c5ccc2[nH]5)C=C4)C=C3)cc1
REMARK SMILES IDX 4 1 3 2 1 3 2 4 25 6 26 7 90 8 27 9 89 10 28 11 29 12 30 13
REMARK SMILES IDX 83 14 31 15 88 16 82 17 84 18 32 19 87 20 81 21 80 22 33 24
REMARK SMILES IDX 67 25 46 26 66 27 47 28 50 29 65 30 85 31 48 32 49 33 64 35
REMARK SMILES IDX 86 36 51 37 34 38 35 39 44 40 36 41 37 42 43 43 45 44 38 45
REMARK SMILES IDX 39 46 40 47 41 48 42 49 68 50 69 51 78 52 70 53 71 54 77 55
REMARK SMILES IDX 79 56 72 57 73 58 74 59 75 60 76 61 52 62 53 63 62 64 54 65
REMARK SMILES IDX 55 66 61 67 63 68 56 69 57 70 58 71 59 72 60 73 5 74 6 75
REMARK SMILES IDX 7 76 8 77 9 79 10 80 11 81 16 82 12 83 15 84 13 85 14 86
REMARK SMILES IDX 17 87 18 88 24 89 19 90 22 91 20 92 23 93 21 94
REMARK H PARENT 3 5 84 23 50 34 7 78
REMARK Flexibility Score: inf
ROOT
ATOM      1  C   UNL A   1      33.592  28.104  27.243  1.00  0.00     0.118 C 
ENDROOT
BRANCH   1   2
ATOM      2  N   UNL A   1      33.419  29.536  27.460  1.00  0.00    -0.352 N 
ATOM      3  O   UNL A   1      33.843  31.600  28.240  1.00  0.00    -0.269 OA
ATOM      4  C   UNL A   1      34.273  30.476  27.990  1.00  0.00     0.251 C 
ATOM      5  H   UNL A   1      32.544  29.889  27.180  1.00  0.00     0.163 HD
BRANCH   4   6
ATOM      6  C   UNL A   1      35.686  30.142  28.282  1.00  0.00     0.039 A 
ATOM      7  C   UNL A   1      36.674  30.314  27.315  1.00  0.00     0.014 A 
ATOM      8  C   UNL A   1      36.039  29.684  29.556  1.00  0.00     0.014 A 
ATOM      9  C   UNL A   1      37.964  29.858  27.554  1.00  0.00     0.010 A 
ATOM     10  C   UNL A   1      37.367  29.335  29.835  1.00  0.00     0.010 A 
ATOM     11  C   UNL A   1      38.336  29.388  28.823  1.00  0.00    -0.014 A 
BRANCH  11  12
ATOM     12  C   UNL A   1      39.764  29.044  29.059  1.00  0.00     0.031 A 
ATOM     13  C   UNL A   1      40.329  27.706  28.666  1.00  0.00     0.074 A 
ATOM     14  C   UNL A   1      40.574  30.003  29.555  1.00  0.00     0.049 A 
ATOM     15  N   UNL A   1      41.570  27.295  28.721  1.00  0.00    -0.248 NA
ATOM     16  C   UNL A   1      39.390  26.696  28.151  1.00  0.00     0.031 C 
ATOM     17  C   UNL A   1      40.130  31.335  29.985  1.00  0.00     0.029 A 
ATOM     18  N   UNL A   1      41.932  30.036  29.736  1.00  0.00    -0.354 N 
ATOM     19  C   UNL A   1      41.563  25.984  28.262  1.00  0.00     0.074 A 
ATOM     20  C   UNL A   1      40.189  25.654  27.953  1.00  0.00     0.031 C 
ATOM     21  C   UNL A   1      41.202  32.079  30.291  1.00  0.00     0.029 A 
ATOM     22  C   UNL A   1      42.400  31.261  30.153  1.00  0.00     0.049 A 
ATOM     23  H   UNL A   1      42.516  29.258  29.583  1.00  0.00     0.167 HD
ATOM     24  C   UNL A   1      42.612  25.140  28.102  1.00  0.00     0.037 A 
ATOM     25  C   UNL A   1      43.655  31.683  30.402  1.00  0.00     0.037 A 
ATOM     26  C   UNL A   1      43.982  25.485  28.390  1.00  0.00     0.049 A 
ATOM     27  C   UNL A   1      44.790  30.720  30.227  1.00  0.00     0.074 A 
ATOM     28  C   UNL A   1      45.113  24.701  28.244  1.00  0.00     0.029 A 
ATOM     29  N   UNL A   1      44.408  26.713  28.874  1.00  0.00    -0.354 N 
ATOM     30  N   UNL A   1      44.759  29.483  29.792  1.00  0.00    -0.248 NA
ATOM     31  C   UNL A   1      46.128  31.200  30.595  1.00  0.00     0.031 C 
ATOM     32  C   UNL A   1      46.220  25.442  28.672  1.00  0.00     0.029 A 
ATOM     33  C   UNL A   1      45.783  26.701  29.047  1.00  0.00     0.049 A 
ATOM     34  H   UNL A   1      43.821  27.480  29.066  1.00  0.00     0.167 HD
ATOM     35  C   UNL A   1      46.071  29.035  29.839  1.00  0.00     0.074 A 
ATOM     36  C   UNL A   1      46.877  30.143  30.310  1.00  0.00     0.031 C 
ATOM     37  C   UNL A   1      46.565  27.810  29.532  1.00  0.00     0.037 A 
BRANCH  24  38
ATOM     38  C   UNL A   1      42.341  23.754  27.586  1.00  0.00     0.058 A 
ATOM     39  C   UNL A   1      42.273  22.664  28.470  1.00  0.00     0.135 A 
ATOM     40  C   UNL A   1      42.267  23.487  26.210  1.00  0.00     0.135 A 
ATOM     41  F   UNL A   1      42.330  22.865  29.796  1.00  0.00    -0.206 F 
ATOM     42  C   UNL A   1      42.172  21.356  28.007  1.00  0.00     0.059 A 
ATOM     43  C   UNL A   1      42.148  22.187  25.725  1.00  0.00     0.059 A 
ATOM     44  F   UNL A   1      42.305  24.494  25.324  1.00  0.00    -0.206 F 
ATOM     45  C   UNL A   1      42.121  21.126  26.631  1.00  0.00     0.060 A 
BRANCH  45  46
ATOM     46  S   UNL A   1      42.006  19.422  26.045  1.00  0.00     0.124 S 
ATOM     47  O   UNL A   1      42.465  18.672  27.209  1.00  0.00    -0.237 OA
ATOM     48  O   UNL A   1      40.586  19.303  25.729  1.00  0.00    -0.237 OA
ATOM     49  O   UNL A   1      42.898  19.401  24.889  1.00  0.00    -0.744 OA
ENDBRANCH  45  46
ENDBRANCH  24  38
BRANCH  25  50
ATOM     50  C   UNL A   1      43.891  33.079  30.853  1.00  0.00     0.058 A 
ATOM     51  C   UNL A   1      43.956  33.399  32.219  1.00  0.00     0.135 A 
ATOM     52  C   UNL A   1      44.033  34.124  29.929  1.00  0.00     0.135 A 
ATOM     53  F   UNL A   1      43.815  32.436  33.143  1.00  0.00    -0.206 F 
ATOM     54  C   UNL A   1      44.130  34.706  32.653  1.00  0.00     0.059 A 
ATOM     55  C   UNL A   1      44.238  35.438  30.339  1.00  0.00     0.059 A 
ATOM     56  F   UNL A   1      43.988  33.865  28.613  1.00  0.00    -0.206 F 
ATOM     57  C   UNL A   1      44.268  35.720  31.705  1.00  0.00     0.060 A 
BRANCH  57  58
ATOM     58  S   UNL A   1      44.513  37.412  32.287  1.00  0.00     0.124 S 
ATOM     59  O   UNL A   1      44.420  38.163  31.040  1.00  0.00    -0.237 OA
ATOM     60  O   UNL A   1      43.401  37.582  33.215  1.00  0.00    -0.237 OA
ATOM     61  O   UNL A   1      45.836  37.367  32.900  1.00  0.00    -0.744 OA
ENDBRANCH  57  58
ENDBRANCH  25  50
BRANCH  37  62
ATOM     62  C   UNL A   1      48.042  27.607  29.707  1.00  0.00     0.058 A 
ATOM     63  C   UNL A   1      48.561  27.127  30.919  1.00  0.00     0.135 A 
ATOM     64  C   UNL A   1      48.945  27.920  28.679  1.00  0.00     0.135 A 
ATOM     65  F   UNL A   1      47.740  26.817  31.933  1.00  0.00    -0.206 F 
ATOM     66  C   UNL A   1      49.929  26.968  31.107  1.00  0.00     0.059 A 
ATOM     67  C   UNL A   1      50.315  27.746  28.837  1.00  0.00     0.059 A 
ATOM     68  F   UNL A   1      48.492  28.369  27.497  1.00  0.00    -0.206 F 
ATOM     69  C   UNL A   1      50.799  27.280  30.061  1.00  0.00     0.060 A 
BRANCH  69  70
ATOM     70  S   UNL A   1      52.570  27.026  30.303  1.00  0.00     0.124 S 
ATOM     71  O   UNL A   1      52.987  26.566  28.982  1.00  0.00    -0.237 OA
ATOM     72  O   UNL A   1      53.025  28.360  30.684  1.00  0.00    -0.237 OA
ATOM     73  O   UNL A   1      52.626  26.026  31.364  1.00  0.00    -0.744 OA
ENDBRANCH  69  70
ENDBRANCH  37  62
ENDBRANCH  11  12
ENDBRANCH   4   6
ENDBRANCH   1   2
BRANCH   1  74
ATOM     74  C   UNL A   1      34.207  27.778  25.889  1.00  0.00     0.042 C 
BRANCH  74  75
ATOM     75  C   UNL A   1      33.662  28.619  24.746  1.00  0.00     0.118 C 
BRANCH  75  76
ATOM     76  N   UNL A   1      33.907  28.022  23.439  1.00  0.00    -0.352 N 
ATOM     77  C   UNL A   1      33.093  27.251  22.644  1.00  0.00     0.251 C 
ATOM     78  H   UNL A   1      34.800  28.199  23.064  1.00  0.00     0.163 HD
ATOM     79  O   UNL A   1      33.523  26.796  21.588  1.00  0.00    -0.269 OA
BRANCH  77  80
ATOM     80  C   UNL A   1      31.692  26.995  23.050  1.00  0.00     0.047 A 
ATOM     81  C   UNL A   1      30.741  27.995  22.769  1.00  0.00     0.017 A 
ATOM     82  C   UNL A   1      31.298  25.768  23.627  1.00  0.00    -0.003 A 
ATOM     83  C   UNL A   1      29.413  27.830  23.149  1.00  0.00     0.040 A 
ATOM     84  C   UNL A   1      29.947  25.630  24.002  1.00  0.00     0.048 A 
ATOM     85  C   UNL A   1      29.031  26.654  23.773  1.00  0.00     0.123 A 
ATOM     86  F   UNL A   1      27.755  26.490  24.143  1.00  0.00    -0.207 F 
BRANCH  82  87
ATOM     87  C   UNL A   1      32.202  24.618  23.813  1.00  0.00    -0.016 A 
ATOM     88  C   UNL A   1      32.435  23.680  22.793  1.00  0.00     0.012 A 
ATOM     89  C   UNL A   1      32.872  24.450  25.041  1.00  0.00     0.032 A 
ATOM     90  C   UNL A   1      33.305  22.603  22.998  1.00  0.00     0.041 A 
ATOM     91  C   UNL A   1      33.742  23.377  25.243  1.00  0.00     0.077 A 
ATOM     92  C   UNL A   1      33.953  22.458  24.221  1.00  0.00     0.141 A 
ATOM     93  Cl  UNL A   1      34.548  23.216  26.757  1.00  0.00    -0.081 Cl
ATOM     94  F   UNL A   1      34.789  21.423  24.394  1.00  0.00    -0.205 F 
ENDBRANCH  82  87
ENDBRANCH  77  80
ENDBRANCH  75  76
ENDBRANCH  74  75
ENDBRANCH   1  74
TORSDOF 14
ENDMDL
MODEL 2
REMARK VINA RESULT:     -11.9      1.299      2.113
REMARK SMILES O=C(NCCCNC(=O)c1ccc(F)cc1-c1ccc(F)c(Cl)c1)c1ccc(-c2c3nc(c(-c4c(F)cc(S(=O)(=O)[O-])cc4F)c4ccc([nH]4)c(-c4c(F)cc(S(=O)(=O)[O-])cc4F)c4nc(c(-c5c(F)cc(S(=O)(=O)[O-])cc5F)c5ccc2[nH]5)C=C4)C=C3)cc1
REMARK SMILES IDX 4 1 3 2 1 3 2 4 25 6 26 7 90 8 27 9 89 10 28 11 29 12 30 13
REMARK SMILES IDX 83 14 31 15 88 16 82 17 84 18 32 19 87 20 81 21 80 22 33 24
REMARK SMILES IDX 67 25 46 26 66 27 47 28 50 29 65 30 85 31 48 32 49 33 64 35
REMARK SMILES IDX 86 36 51 37 34 38 35 39 44 40 36 41 37 42 43 43 45 44 38 45
REMARK SMILES IDX 39 46 40 47 41 48 42 49 68 50 69 51 78 52 70 53 71 54 77 55
REMARK SMILES IDX 79 56 72 57 73 58 74 59 75 60 76 61 52 62 53 63 62 64 54 65
REMARK SMILES IDX 55 66 61 67 63 68 56 69 57 70 58 71 59 72 60 73 5 74 6 75
REMARK SMILES IDX 7 76 8 77 9 79 10 80 11 81 16 82 12 83 15 84 13 85 14 86
REMARK SMILES IDX 17 87 18 88 24 89 19 90 22 91 20 92 23 93 21 94
REMARK H PARENT 3 5 84 23 50 34 7 78
REMARK Flexibility Score: inf
ROOT
ATOM      1  C   UNL A   1      33.689  28.053  26.895  1.00  0.00     0.118 C 
ENDROOT
BRANCH   1   2
ATOM      2  N   UNL A   1      33.467  29.452  27.243  1.00  0.00    -0.352 N 
ATOM      3  O   UNL A   1      33.803  31.439  28.237  1.00  0.00    -0.269 OA
ATOM      4  C   UNL A   1      34.273  30.356  27.896  1.00  0.00     0.251 C 
ATOM      5  H   UNL A   1      32.594  29.810  26.963  1.00  0.00     0.163 HD
BRANCH   4   6
ATOM      6  C   UNL A   1      35.683  30.029  28.211  1.00  0.00     0.039 A 
ATOM      7  C   UNL A   1      36.681  30.170  27.250  1.00  0.00     0.014 A 
ATOM      8  C   UNL A   1      36.023  29.609  29.503  1.00  0.00     0.014 A 
ATOM      9  C   UNL A   1      37.967  29.720  27.514  1.00  0.00     0.010 A 
ATOM     10  C   UNL A   1      37.348  29.266  29.804  1.00  0.00     0.010 A 
ATOM     11  C   UNL A   1      38.327  29.288  28.801  1.00  0.00    -0.014 A 
BRANCH  11  12
ATOM     12  C   UNL A   1      39.752  28.949  29.061  1.00  0.00     0.031 A 
ATOM     13  C   UNL A   1      40.332  27.619  28.664  1.00  0.00     0.074 A 
ATOM     14  C   UNL A   1      40.546  29.907  29.583  1.00  0.00     0.049 A 
ATOM     15  N   UNL A   1      41.574  27.214  28.739  1.00  0.00    -0.248 NA
ATOM     16  C   UNL A   1      39.409  26.609  28.120  1.00  0.00     0.031 C 
ATOM     17  C   UNL A   1      40.087  31.231  30.020  1.00  0.00     0.029 A 
ATOM     18  N   UNL A   1      41.900  29.945  29.792  1.00  0.00    -0.354 N 
ATOM     19  C   UNL A   1      41.584  25.908  28.265  1.00  0.00     0.074 A 
ATOM     20  C   UNL A   1      40.218  25.575  27.926  1.00  0.00     0.031 C 
ATOM     21  C   UNL A   1      41.148  31.978  30.355  1.00  0.00     0.029 A 
ATOM     22  C   UNL A   1      42.353  31.168  30.231  1.00  0.00     0.049 A 
ATOM     23  H   UNL A   1      42.491  29.173  29.642  1.00  0.00     0.167 HD
ATOM     24  C   UNL A   1      42.640  25.072  28.117  1.00  0.00     0.037 A 
ATOM     25  C   UNL A   1      43.600  31.595  30.510  1.00  0.00     0.037 A 
ATOM     26  C   UNL A   1      44.002  25.422  28.435  1.00  0.00     0.049 A 
ATOM     27  C   UNL A   1      44.745  30.639  30.346  1.00  0.00     0.074 A 
ATOM     28  C   UNL A   1      45.141  24.646  28.302  1.00  0.00     0.029 A 
ATOM     29  N   UNL A   1      44.412  26.646  28.941  1.00  0.00    -0.354 N 
ATOM     30  N   UNL A   1      44.728  29.408  29.896  1.00  0.00    -0.248 NA
ATOM     31  C   UNL A   1      46.072  31.123  30.746  1.00  0.00     0.031 C 
ATOM     32  C   UNL A   1      46.235  25.388  28.760  1.00  0.00     0.029 A 
ATOM     33  C   UNL A   1      45.783  26.640  29.141  1.00  0.00     0.049 A 
ATOM     34  H   UNL A   1      43.817  27.407  29.130  1.00  0.00     0.167 HD
ATOM     35  C   UNL A   1      46.043  28.966  29.964  1.00  0.00     0.074 A 
ATOM     36  C   UNL A   1      46.833  30.073  30.464  1.00  0.00     0.031 C 
ATOM     37  C   UNL A   1      46.549  27.748  29.654  1.00  0.00     0.037 A 
BRANCH  24  38
ATOM     38  C   UNL A   1      42.387  23.691  27.580  1.00  0.00     0.058 A 
ATOM     39  C   UNL A   1      42.308  22.590  28.450  1.00  0.00     0.135 A 
ATOM     40  C   UNL A   1      42.342  23.438  26.199  1.00  0.00     0.135 A 
ATOM     41  F   UNL A   1      42.338  22.776  29.779  1.00  0.00    -0.206 F 
ATOM     42  C   UNL A   1      42.224  21.287  27.971  1.00  0.00     0.059 A 
ATOM     43  C   UNL A   1      42.240  22.143  25.698  1.00  0.00     0.059 A 
ATOM     44  F   UNL A   1      42.392  24.456  25.326  1.00  0.00    -0.206 F 
ATOM     45  C   UNL A   1      42.201  21.072  26.592  1.00  0.00     0.060 A 
BRANCH  45  46
ATOM     46  S   UNL A   1      42.108  19.375  25.984  1.00  0.00     0.124 S 
ATOM     47  O   UNL A   1      42.605  18.618  27.128  1.00  0.00    -0.237 OA
ATOM     48  O   UNL A   1      40.684  19.231  25.696  1.00  0.00    -0.237 OA
ATOM     49  O   UNL A   1      42.976  19.386  24.810  1.00  0.00    -0.744 OA
ENDBRANCH  45  46
ENDBRANCH  24  38
BRANCH  25  50
ATOM     50  C   UNL A   1      43.819  32.987  30.981  1.00  0.00     0.058 A 
ATOM     51  C   UNL A   1      43.738  33.312  32.344  1.00  0.00     0.135 A 
ATOM     52  C   UNL A   1      44.091  34.023  30.075  1.00  0.00     0.135 A 
ATOM     53  F   UNL A   1      43.469  32.358  33.249  1.00  0.00    -0.206 F 
ATOM     54  C   UNL A   1      43.896  34.617  32.791  1.00  0.00     0.059 A 
ATOM     55  C   UNL A   1      44.283  35.334  30.503  1.00  0.00     0.059 A 
ATOM     56  F   UNL A   1      44.188  33.757  28.764  1.00  0.00    -0.206 F 
ATOM     57  C   UNL A   1      44.166  35.622  31.862  1.00  0.00     0.060 A 
BRANCH  57  58
ATOM     58  S   UNL A   1      44.386  37.310  32.464  1.00  0.00     0.124 S 
ATOM     59  O   UNL A   1      45.798  37.304  32.831  1.00  0.00    -0.237 OA
ATOM     60  O   UNL A   1      44.038  38.104  31.291  1.00  0.00    -0.237 OA
ATOM     61  O   UNL A   1      43.446  37.395  33.577  1.00  0.00    -0.744 OA
ENDBRANCH  57  58
ENDBRANCH  25  50
BRANCH  37  62
ATOM     62  C   UNL A   1      48.023  27.551  29.855  1.00  0.00     0.058 A 
ATOM     63  C   UNL A   1      48.940  27.925  28.861  1.00  0.00     0.135 A 
ATOM     64  C   UNL A   1      48.524  26.960  31.027  1.00  0.00     0.135 A 
ATOM     65  F   UNL A   1      48.511  28.490  27.722  1.00  0.00    -0.206 F 
ATOM     66  C   UNL A   1      50.305  27.715  29.018  1.00  0.00     0.059 A 
ATOM     67  C   UNL A   1      49.887  26.763  31.215  1.00  0.00     0.059 A 
ATOM     68  F   UNL A   1      47.686  26.599  32.011  1.00  0.00    -0.206 F 
ATOM     69  C   UNL A   1      50.770  27.134  30.199  1.00  0.00     0.060 A 
BRANCH  69  70
ATOM     70  S   UNL A   1      52.548  26.908  30.411  1.00  0.00     0.124 S 
ATOM     71  O   UNL A   1      52.957  28.218  30.908  1.00  0.00    -0.237 OA
ATOM     72  O   UNL A   1      52.610  25.815  31.377  1.00  0.00    -0.237 OA
ATOM     73  O   UNL A   1      53.009  26.573  29.067  1.00  0.00    -0.744 OA
ENDBRANCH  69  70
ENDBRANCH  37  62
ENDBRANCH  11  12
ENDBRANCH   4   6
ENDBRANCH   1   2
BRANCH   1  74
ATOM     74  C   UNL A   1      34.252  27.871  25.493  1.00  0.00     0.042 C 
BRANCH  74  75
ATOM     75  C   UNL A   1      33.223  27.418  24.469  1.00  0.00     0.118 C 
BRANCH  75  76
ATOM     76  N   UNL A   1      33.753  26.435  23.532  1.00  0.00    -0.352 N 
ATOM     77  C   UNL A   1      33.670  25.064  23.535  1.00  0.00     0.251 C 
ATOM     78  H   UNL A   1      34.252  26.815  22.773  1.00  0.00     0.163 HD
ATOM     79  O   UNL A   1      34.246  24.414  22.667  1.00  0.00    -0.269 OA
BRANCH  77  80
ATOM     80  C   UNL A   1      32.864  24.375  24.570  1.00  0.00     0.047 A 
ATOM     81  C   UNL A   1      31.466  24.530  24.513  1.00  0.00     0.017 A 
ATOM     82  C   UNL A   1      33.457  23.530  25.533  1.00  0.00    -0.003 A 
ATOM     83  C   UNL A   1      30.652  23.933  25.471  1.00  0.00     0.040 A 
ATOM     84  C   UNL A   1      32.608  22.939  26.490  1.00  0.00     0.048 A 
ATOM     85  C   UNL A   1      31.233  23.153  26.458  1.00  0.00     0.123 A 
ATOM     86  F   UNL A   1      30.455  22.578  27.383  1.00  0.00    -0.207 F 
BRANCH  82  87
ATOM     87  C   UNL A   1      34.893  23.196  25.563  1.00  0.00    -0.016 A 
ATOM     88  C   UNL A   1      35.875  24.153  25.865  1.00  0.00     0.012 A 
ATOM     89  C   UNL A   1      35.306  21.875  25.297  1.00  0.00     0.032 A 
ATOM     90  C   UNL A   1      37.230  23.802  25.893  1.00  0.00     0.041 A 
ATOM     91  C   UNL A   1      36.658  21.526  25.328  1.00  0.00     0.077 A 
ATOM     92  C   UNL A   1      37.613  22.492  25.625  1.00  0.00     0.141 A 
ATOM     93  Cl  UNL A   1      37.117  19.898  25.006  1.00  0.00    -0.081 Cl
ATOM     94  F   UNL A   1      38.916  22.175  25.665  1.00  0.00    -0.205 F 
ENDBRANCH  82  87
ENDBRANCH  77  80
ENDBRANCH  75  76
ENDBRANCH  74  75
ENDBRANCH   1  74
TORSDOF 14
ENDMDL
MODEL 3
REMARK VINA RESULT:     -11.9      5.301      9.972
REMARK SMILES O=C(NCCCNC(=O)c1ccc(F)cc1-c1ccc(F)c(Cl)c1)c1ccc(-c2c3nc(c(-c4c(F)cc(S(=O)(=O)[O-])cc4F)c4ccc([nH]4)c(-c4c(F)cc(S(=O)(=O)[O-])cc4F)c4nc(c(-c5c(F)cc(S(=O)(=O)[O-])cc5F)c5ccc2[nH]5)C=C4)C=C3)cc1
REMARK SMILES IDX 4 1 3 2 1 3 2 4 25 6 26 7 90 8 27 9 89 10 28 11 29 12 30 13
REMARK SMILES IDX 83 14 31 15 88 16 82 17 84 18 32 19 87 20 81 21 80 22 33 24
REMARK SMILES IDX 67 25 46 26 66 27 47 28 50 29 65 30 85 31 48 32 49 33 64 35
REMARK SMILES IDX 86 36 51 37 34 38 35 39 44 40 36 41 37 42 43 43 45 44 38 45
REMARK SMILES IDX 39 46 40 47 41 48 42 49 68 50 69 51 78 52 70 53 71 54 77 55
REMARK SMILES IDX 79 56 72 57 73 58 74 59 75 60 76 61 52 62 53 63 62 64 54 65
REMARK SMILES IDX 55 66 61 67 63 68 56 69 57 70 58 71 59 72 60 73 5 74 6 75
REMARK SMILES IDX 7 76 8 77 9 79 10 80 11 81 16 82 12 83 15 84 13 85 14 86
REMARK SMILES IDX 17 87 18 88 24 89 19 90 22 91 20 92 23 93 21 94
REMARK H PARENT 3 5 84 23 50 34 7 78
REMARK Flexibility Score: inf
ROOT
ATOM      1  C   UNL A   1      40.046  23.164  27.114  1.00  0.00     0.118 C 
ENDROOT
BRANCH   1   2
ATOM      2  N   UNL A   1      40.787  23.941  26.126  1.00  0.00    -0.352 N 
ATOM      3  O   UNL A   1      41.609  25.748  25.074  1.00  0.00    -0.269 OA
ATOM      4  C   UNL A   1      41.131  25.273  26.102  1.00  0.00     0.251 C 
ATOM      5  H   UNL A   1      41.092  23.425  25.345  1.00  0.00     0.163 HD
BRANCH   4   6
ATOM      6  C   UNL A   1      40.913  26.137  27.285  1.00  0.00     0.039 A 
ATOM      7  C   UNL A   1      41.707  27.260  27.505  1.00  0.00     0.014 A 
ATOM      8  C   UNL A   1      39.871  25.843  28.172  1.00  0.00     0.014 A 
ATOM      9  C   UNL A   1      41.587  27.972  28.691  1.00  0.00     0.010 A 
ATOM     10  C   UNL A   1      39.674  26.634  29.312  1.00  0.00     0.010 A 
ATOM     11  C   UNL A   1      40.553  27.687  29.598  1.00  0.00    -0.014 A 
BRANCH  11  12
ATOM     12  C   UNL A   1      40.389  28.572  30.783  1.00  0.00     0.031 A 
ATOM     13  C   UNL A   1      41.328  28.501  31.957  1.00  0.00     0.074 A 
ATOM     14  C   UNL A   1      39.423  29.514  30.743  1.00  0.00     0.049 A 
ATOM     15  N   UNL A   1      41.371  29.267  33.017  1.00  0.00    -0.248 NA
ATOM     16  C   UNL A   1      42.346  27.437  31.950  1.00  0.00     0.031 C 
ATOM     17  C   UNL A   1      38.445  29.665  29.660  1.00  0.00     0.029 A 
ATOM     18  N   UNL A   1      39.131  30.547  31.595  1.00  0.00    -0.354 N 
ATOM     19  C   UNL A   1      42.404  28.778  33.806  1.00  0.00     0.074 A 
ATOM     20  C   UNL A   1      42.952  27.630  33.115  1.00  0.00     0.031 C 
ATOM     21  C   UNL A   1      37.725  30.776  29.867  1.00  0.00     0.029 A 
ATOM     22  C   UNL A   1      38.136  31.376  31.131  1.00  0.00     0.049 A 
ATOM     23  H   UNL A   1      39.589  30.682  32.456  1.00  0.00     0.167 HD
ATOM     24  C   UNL A   1      42.859  29.253  34.990  1.00  0.00     0.037 A 
ATOM     25  C   UNL A   1      37.606  32.494  31.661  1.00  0.00     0.037 A 
ATOM     26  C   UNL A   1      42.322  30.412  35.659  1.00  0.00     0.049 A 
ATOM     27  C   UNL A   1      38.124  32.985  32.980  1.00  0.00     0.074 A 
ATOM     28  C   UNL A   1      42.730  30.978  36.855  1.00  0.00     0.029 A 
ATOM     29  N   UNL A   1      41.271  31.185  35.190  1.00  0.00    -0.354 N 
ATOM     30  N   UNL A   1      39.103  32.505  33.708  1.00  0.00    -0.248 NA
ATOM     31  C   UNL A   1      37.455  34.157  33.559  1.00  0.00     0.031 C 
ATOM     32  C   UNL A   1      41.903  32.073  37.128  1.00  0.00     0.029 A 
ATOM     33  C   UNL A   1      41.006  32.213  36.082  1.00  0.00     0.049 A 
ATOM     34  H   UNL A   1      40.785  31.028  34.349  1.00  0.00     0.167 HD
ATOM     35  C   UNL A   1      39.165  33.312  34.835  1.00  0.00     0.074 A 
ATOM     36  C   UNL A   1      38.149  34.333  34.676  1.00  0.00     0.031 C 
ATOM     37  C   UNL A   1      39.980  33.210  35.913  1.00  0.00     0.037 A 
BRANCH  24  38
ATOM     38  C   UNL A   1      44.002  28.537  35.656  1.00  0.00     0.058 A 
ATOM     39  C   UNL A   1      43.757  27.547  36.622  1.00  0.00     0.135 A 
ATOM     40  C   UNL A   1      45.335  28.912  35.425  1.00  0.00     0.135 A 
ATOM     41  F   UNL A   1      42.502  27.146  36.876  1.00  0.00    -0.206 F 
ATOM     42  C   UNL A   1      44.791  26.975  37.357  1.00  0.00     0.059 A 
ATOM     43  C   UNL A   1      46.387  28.341  36.137  1.00  0.00     0.059 A 
ATOM     44  F   UNL A   1      45.625  29.837  34.497  1.00  0.00    -0.206 F 
ATOM     45  C   UNL A   1      46.103  27.387  37.115  1.00  0.00     0.060 A 
BRANCH  45  46
ATOM     46  S   UNL A   1      47.432  26.649  38.088  1.00  0.00     0.124 S 
ATOM     47  O   UNL A   1      47.024  26.973  39.451  1.00  0.00    -0.237 OA
ATOM     48  O   UNL A   1      47.340  25.241  37.713  1.00  0.00    -0.237 OA
ATOM     49  O   UNL A   1      48.627  27.338  37.608  1.00  0.00    -0.744 OA
ENDBRANCH  45  46
ENDBRANCH  24  38
BRANCH  25  50
ATOM     50  C   UNL A   1      36.518  33.211  30.946  1.00  0.00     0.058 A 
ATOM     51  C   UNL A   1      36.792  34.015  29.829  1.00  0.00     0.135 A 
ATOM     52  C   UNL A   1      35.187  33.123  31.379  1.00  0.00     0.135 A 
ATOM     53  F   UNL A   1      38.051  34.141  29.382  1.00  0.00    -0.206 F 
ATOM     54  C   UNL A   1      35.791  34.726  29.181  1.00  0.00     0.059 A 
ATOM     55  C   UNL A   1      34.162  33.802  30.727  1.00  0.00     0.059 A 
ATOM     56  F   UNL A   1      34.876  32.358  32.437  1.00  0.00    -0.206 F 
ATOM     57  C   UNL A   1      34.478  34.615  29.639  1.00  0.00     0.060 A 
BRANCH  57  58
ATOM     58  S   UNL A   1      33.186  35.531  28.772  1.00  0.00     0.124 S 
ATOM     59  O   UNL A   1      33.977  36.485  28.001  1.00  0.00    -0.237 OA
ATOM     60  O   UNL A   1      32.528  34.482  28.001  1.00  0.00    -0.237 OA
ATOM     61  O   UNL A   1      32.393  36.100  29.856  1.00  0.00    -0.744 OA
ENDBRANCH  57  58
ENDBRANCH  25  50
BRANCH  37  62
ATOM     62  C   UNL A   1      39.797  34.224  37.005  1.00  0.00     0.058 A 
ATOM     63  C   UNL A   1      39.038  33.921  38.145  1.00  0.00     0.135 A 
ATOM     64  C   UNL A   1      40.352  35.510  36.903  1.00  0.00     0.135 A 
ATOM     65  F   UNL A   1      38.484  32.707  38.288  1.00  0.00    -0.206 F 
ATOM     66  C   UNL A   1      38.830  34.862  39.147  1.00  0.00     0.059 A 
ATOM     67  C   UNL A   1      40.177  36.458  37.904  1.00  0.00     0.059 A 
ATOM     68  F   UNL A   1      41.097  35.839  35.836  1.00  0.00    -0.206 F 
ATOM     69  C   UNL A   1      39.403  36.128  39.018  1.00  0.00     0.060 A 
BRANCH  69  70
ATOM     70  S   UNL A   1      39.164  37.326  40.348  1.00  0.00     0.124 S 
ATOM     71  O   UNL A   1      38.318  38.323  39.700  1.00  0.00    -0.237 OA
ATOM     72  O   UNL A   1      38.518  36.519  41.379  1.00  0.00    -0.237 OA
ATOM     73  O   UNL A   1      40.521  37.759  40.661  1.00  0.00    -0.744 OA
ENDBRANCH  69  70
ENDBRANCH  37  62
ENDBRANCH  11  12
ENDBRANCH   4   6
ENDBRANCH   1   2
BRANCH   1  74
ATOM     74  C   UNL A   1      38.978  22.276  26.493  1.00  0.00     0.042 C 
BRANCH  74  75
ATOM     75  C   UNL A   1      37.700  23.013  26.125  1.00  0.00     0.118 C 
BRANCH  75  76
ATOM     76  N   UNL A   1      37.606  23.303  24.699  1.00  0.00    -0.352 N 
ATOM     77  C   UNL A   1      36.653  22.944  23.777  1.00  0.00     0.251 C 
ATOM     78  H   UNL A   1      38.345  23.844  24.338  1.00  0.00     0.163 HD
ATOM     79  O   UNL A   1      36.798  23.250  22.597  1.00  0.00    -0.269 OA
BRANCH  77  80
ATOM     80  C   UNL A   1      35.441  22.214  24.214  1.00  0.00     0.047 A 
ATOM     81  C   UNL A   1      35.601  20.877  24.626  1.00  0.00     0.017 A 
ATOM     82  C   UNL A   1      34.181  22.846  24.292  1.00  0.00    -0.003 A 
ATOM     83  C   UNL A   1      34.499  20.126  25.022  1.00  0.00     0.040 A 
ATOM     84  C   UNL A   1      33.083  22.060  24.696  1.00  0.00     0.048 A 
ATOM     85  C   UNL A   1      33.248  20.721  25.040  1.00  0.00     0.123 A 
ATOM     86  F   UNL A   1      32.184  20.002  25.418  1.00  0.00    -0.207 F 
BRANCH  82  87
ATOM     87  C   UNL A   1      33.961  24.279  24.025  1.00  0.00    -0.016 A 
ATOM     88  C   UNL A   1      33.610  24.755  22.751  1.00  0.00     0.012 A 
ATOM     89  C   UNL A   1      34.087  25.211  25.075  1.00  0.00     0.032 A 
ATOM     90  C   UNL A   1      33.401  26.122  22.532  1.00  0.00     0.041 A 
ATOM     91  C   UNL A   1      33.875  26.573  24.856  1.00  0.00     0.077 A 
ATOM     92  C   UNL A   1      33.533  27.022  23.584  1.00  0.00     0.141 A 
ATOM     93  Cl  UNL A   1      34.030  27.675  26.170  1.00  0.00    -0.081 Cl
ATOM     94  F   UNL A   1      33.320  28.326  23.354  1.00  0.00    -0.205 F 
ENDBRANCH  82  87
ENDBRANCH  77  80
ENDBRANCH  75  76
ENDBRANCH  74  75
ENDBRANCH   1  74
TORSDOF 14
ENDMDL
