MODEL 1
REMARK VINA RESULT:     -11.3      0.000      0.000
REMARK SMILES O=C(CSc1nnnn1C1CC1)N[C@H](CO)C(=O)NCCCNC(=O)c1ccc(-c2c3nc(c(-c4c(F)cc(S(=O)(=O)[O-])cc4F)c4ccc([nH]4)c(-c4c(F)cc(S(=O)(=O)[O-])cc4F)c4nc(c(-c5c(F)cc(S(=O)(=O)[O-])cc5F)c5ccc2[nH]5)C=C4)C=C3)cc1
REMARK SMILES IDX 20 1 19 2 17 3 18 4 14 6 13 7 1 8 2 9 3 11 4 12 5 13 6 14
REMARK SMILES IDX 9 15 7 16 8 17 10 18 11 19 12 20 15 21 16 22 21 24 22 25
REMARK SMILES IDX 23 26 24 27 25 29 26 30 27 31 91 32 28 33 90 34 29 35 30 36
REMARK SMILES IDX 31 37 84 38 32 39 89 40 83 41 85 42 33 43 88 44 82 45 81 46
REMARK SMILES IDX 34 48 68 49 47 50 67 51 48 52 51 53 66 54 86 55 49 56 50 57
REMARK SMILES IDX 65 59 87 60 52 61 35 62 36 63 45 64 37 65 38 66 44 67 46 68
REMARK SMILES IDX 39 69 40 70 41 71 42 72 43 73 69 74 70 75 79 76 71 77 72 78
REMARK SMILES IDX 78 79 80 80 73 81 74 82 75 83 76 84 77 85 53 86 54 87 63 88
REMARK SMILES IDX 55 89 56 90 62 91 64 92 57 93 58 94 59 95 60 96 61 97
REMARK H PARENT 19 5 13 10 16 23 23 28 85 47 51 58
REMARK Flexibility Score: inf
ROOT
ATOM      1  C   UNL A   1      36.573  20.987  25.380  1.00  0.00     0.117 C 
ENDROOT
BRANCH   1   2
ATOM      2  N   UNL A   1      35.632  21.429  26.393  1.00  0.00    -0.354 N 
ATOM      3  C   UNL A   1      34.287  21.627  26.270  1.00  0.00     0.244 C 
ATOM      4  O   UNL A   1      33.636  21.775  27.310  1.00  0.00    -0.273 OA
ATOM      5  H   UNL A   1      36.012  21.610  27.282  1.00  0.00     0.163 HD
BRANCH   3   6
ATOM      6  C   UNL A   1      33.571  21.592  24.906  1.00  0.00     0.197 C 
BRANCH   6   7
ATOM      7  N   UNL A   1      33.270  22.934  24.355  1.00  0.00    -0.342 N 
ATOM      8  O   UNL A   1      35.022  23.206  22.902  1.00  0.00    -0.274 OA
ATOM      9  C   UNL A   1      33.976  23.619  23.393  1.00  0.00     0.231 C 
ATOM     10  H   UNL A   1      32.475  23.389  24.719  1.00  0.00     0.164 HD
BRANCH   9  11
ATOM     11  C   UNL A   1      33.454  25.002  23.032  1.00  0.00     0.178 C 
BRANCH  11  12
ATOM     12  S   UNL A   1      31.704  25.024  22.575  1.00  0.00    -0.075 SA
BRANCH  12  13
ATOM     13  C   UNL A   1      31.261  26.652  22.939  1.00  0.00     0.210 A 
ATOM     14  N   UNL A   1      30.919  27.550  22.041  1.00  0.00    -0.102 NA
ATOM     15  N   UNL A   1      31.111  27.203  24.192  1.00  0.00    -0.217 N 
ATOM     16  N   UNL A   1      30.532  28.661  22.746  1.00  0.00    -0.023 NA
ATOM     17  N   UNL A   1      30.600  28.444  24.050  1.00  0.00    -0.044 NA
BRANCH  15  18
ATOM     18  C   UNL A   1      31.234  26.622  25.513  1.00  0.00     0.112 C 
ATOM     19  C   UNL A   1      32.513  26.372  26.286  1.00  0.00     0.029 C 
ATOM     20  C   UNL A   1      31.567  27.428  26.748  1.00  0.00     0.029 C 
ENDBRANCH  15  18
ENDBRANCH  12  13
ENDBRANCH  11  12
ENDBRANCH   9  11
ENDBRANCH   6   7
BRANCH   6  21
ATOM     21  C   UNL A   1      32.472  20.515  24.865  1.00  0.00     0.191 C 
BRANCH  21  22
ATOM     22  O   UNL A   1      32.628  19.600  25.957  1.00  0.00    -0.394 OA
ATOM     23  H   UNL A   1      32.655  20.095  26.792  1.00  0.00     0.210 HD
ENDBRANCH  21  22
ENDBRANCH   6  21
ENDBRANCH   3   6
ENDBRANCH   1   2
BRANCH   1  24
ATOM     24  C   UNL A   1      37.719  21.942  25.079  1.00  0.00     0.042 C 
BRANCH  24  25
ATOM     25  C   UNL A   1      38.728  22.090  26.198  1.00  0.00     0.118 C 
BRANCH  25  26
ATOM     26  N   UNL A   1      40.133  21.944  25.826  1.00  0.00    -0.352 N 
ATOM     27  C   UNL A   1      41.153  22.842  26.144  1.00  0.00     0.251 C 
ATOM     28  H   UNL A   1      40.381  21.145  25.309  1.00  0.00     0.163 HD
ATOM     29  O   UNL A   1      42.251  22.796  25.631  1.00  0.00    -0.269 OA
BRANCH  27  30
ATOM     30  C   UNL A   1      40.818  23.882  27.142  1.00  0.00     0.039 A 
ATOM     31  C   UNL A   1      41.560  24.018  28.314  1.00  0.00     0.014 A 
ATOM     32  C   UNL A   1      39.928  24.870  26.739  1.00  0.00     0.014 A 
ATOM     33  C   UNL A   1      41.506  25.232  29.002  1.00  0.00     0.010 A 
ATOM     34  C   UNL A   1      40.029  26.118  27.312  1.00  0.00     0.010 A 
ATOM     35  C   UNL A   1      40.788  26.317  28.466  1.00  0.00    -0.014 A 
BRANCH  35  36
ATOM     36  C   UNL A   1      40.905  27.659  29.064  1.00  0.00     0.031 A 
ATOM     37  C   UNL A   1      41.972  28.564  28.522  1.00  0.00     0.074 A 
ATOM     38  C   UNL A   1      40.037  28.188  29.956  1.00  0.00     0.049 A 
ATOM     39  N   UNL A   1      43.048  28.966  29.120  1.00  0.00    -0.248 NA
ATOM     40  C   UNL A   1      41.863  29.032  27.131  1.00  0.00     0.031 C 
ATOM     41  C   UNL A   1      38.766  27.654  30.466  1.00  0.00     0.029 A 
ATOM     42  N   UNL A   1      40.101  29.410  30.556  1.00  0.00    -0.354 N 
ATOM     43  C   UNL A   1      43.671  29.872  28.261  1.00  0.00     0.074 A 
ATOM     44  C   UNL A   1      42.960  29.786  27.010  1.00  0.00     0.031 C 
ATOM     45  C   UNL A   1      38.076  28.629  31.094  1.00  0.00     0.029 A 
ATOM     46  C   UNL A   1      38.947  29.777  31.226  1.00  0.00     0.049 A 
ATOM     47  H   UNL A   1      40.900  29.984  30.515  1.00  0.00     0.167 HD
ATOM     48  C   UNL A   1      44.629  30.746  28.690  1.00  0.00     0.037 A 
ATOM     49  C   UNL A   1      38.711  30.926  31.896  1.00  0.00     0.037 A 
ATOM     50  C   UNL A   1      45.130  30.391  29.992  1.00  0.00     0.049 A 
ATOM     51  C   UNL A   1      40.030  31.476  32.289  1.00  0.00     0.074 A 
ATOM     52  C   UNL A   1      45.775  29.289  30.519  1.00  0.00     0.029 A 
ATOM     53  N   UNL A   1      44.672  31.099  31.077  1.00  0.00    -0.354 N 
ATOM     54  N   UNL A   1      40.838  30.892  33.133  1.00  0.00    -0.248 NA
ATOM     55  C   UNL A   1      40.641  32.474  31.429  1.00  0.00     0.031 C 
ATOM     56  C   UNL A   1      45.223  29.131  31.826  1.00  0.00     0.029 A 
ATOM     57  C   UNL A   1      44.316  30.174  32.027  1.00  0.00     0.049 A 
ATOM     58  H   UNL A   1      44.612  32.077  31.157  1.00  0.00     0.167 HD
ATOM     59  C   UNL A   1      42.110  31.140  32.640  1.00  0.00     0.074 A 
ATOM     60  C   UNL A   1      41.929  32.204  31.655  1.00  0.00     0.031 C 
ATOM     61  C   UNL A   1      43.152  30.291  32.882  1.00  0.00     0.037 A 
BRANCH  48  62
ATOM     62  C   UNL A   1      44.927  32.091  28.068  1.00  0.00     0.058 A 
ATOM     63  C   UNL A   1      46.210  32.364  27.548  1.00  0.00     0.135 A 
ATOM     64  C   UNL A   1      44.077  33.209  28.209  1.00  0.00     0.135 A 
ATOM     65  F   UNL A   1      47.106  31.378  27.385  1.00  0.00    -0.206 F 
ATOM     66  C   UNL A   1      46.638  33.660  27.247  1.00  0.00     0.059 A 
ATOM     67  C   UNL A   1      44.464  34.502  27.870  1.00  0.00     0.059 A 
ATOM     68  F   UNL A   1      42.869  33.106  28.778  1.00  0.00    -0.206 F 
ATOM     69  C   UNL A   1      45.762  34.726  27.430  1.00  0.00     0.060 A 
BRANCH  69  70
ATOM     70  S   UNL A   1      46.345  36.411  27.162  1.00  0.00     0.124 S 
ATOM     71  O   UNL A   1      47.551  36.433  27.983  1.00  0.00    -0.237 OA
ATOM     72  O   UNL A   1      46.554  36.438  25.719  1.00  0.00    -0.237 OA
ATOM     73  O   UNL A   1      45.237  37.230  27.644  1.00  0.00    -0.744 OA
ENDBRANCH  69  70
ENDBRANCH  48  62
BRANCH  49  74
ATOM     74  C   UNL A   1      37.448  31.699  31.900  1.00  0.00     0.058 A 
ATOM     75  C   UNL A   1      36.772  31.988  33.094  1.00  0.00     0.135 A 
ATOM     76  C   UNL A   1      37.025  32.401  30.750  1.00  0.00     0.135 A 
ATOM     77  F   UNL A   1      37.126  31.374  34.232  1.00  0.00    -0.206 F 
ATOM     78  C   UNL A   1      35.766  32.955  33.158  1.00  0.00     0.059 A 
ATOM     79  C   UNL A   1      36.021  33.364  30.788  1.00  0.00     0.059 A 
ATOM     80  F   UNL A   1      37.643  32.233  29.570  1.00  0.00    -0.206 F 
ATOM     81  C   UNL A   1      35.413  33.655  32.003  1.00  0.00     0.060 A 
BRANCH  81  82
ATOM     82  S   UNL A   1      34.250  35.033  32.125  1.00  0.00     0.124 S 
ATOM     83  O   UNL A   1      35.015  36.003  32.901  1.00  0.00    -0.237 OA
ATOM     84  O   UNL A   1      34.026  35.372  30.724  1.00  0.00    -0.237 OA
ATOM     85  O   UNL A   1      33.102  34.448  32.813  1.00  0.00    -0.744 OA
ENDBRANCH  81  82
ENDBRANCH  49  74
BRANCH  61  86
ATOM     86  C   UNL A   1      42.991  29.226  33.939  1.00  0.00     0.058 A 
ATOM     87  C   UNL A   1      43.270  29.418  35.304  1.00  0.00     0.135 A 
ATOM     88  C   UNL A   1      42.353  28.028  33.582  1.00  0.00     0.135 A 
ATOM     89  F   UNL A   1      43.790  30.570  35.745  1.00  0.00    -0.206 F 
ATOM     90  C   UNL A   1      42.949  28.456  36.264  1.00  0.00     0.059 A 
ATOM     91  C   UNL A   1      41.999  27.067  34.526  1.00  0.00     0.059 A 
ATOM     92  F   UNL A   1      42.006  27.808  32.303  1.00  0.00    -0.206 F 
ATOM     93  C   UNL A   1      42.306  27.285  35.867  1.00  0.00     0.060 A 
BRANCH  93  94
ATOM     94  S   UNL A   1      41.791  26.092  37.124  1.00  0.00     0.124 S 
ATOM     95  O   UNL A   1      41.741  24.847  36.363  1.00  0.00    -0.237 OA
ATOM     96  O   UNL A   1      42.862  26.186  38.113  1.00  0.00    -0.237 OA
ATOM     97  O   UNL A   1      40.497  26.602  37.570  1.00  0.00    -0.744 OA
ENDBRANCH  93  94
ENDBRANCH  61  86
ENDBRANCH  35  36
ENDBRANCH  27  30
ENDBRANCH  25  26
ENDBRANCH  24  25
ENDBRANCH   1  24
TORSDOF 20
ENDMDL
MODEL 2
REMARK VINA RESULT:     -11.1      1.164      2.041
REMARK SMILES O=C(CSc1nnnn1C1CC1)N[C@H](CO)C(=O)NCCCNC(=O)c1ccc(-c2c3nc(c(-c4c(F)cc(S(=O)(=O)[O-])cc4F)c4ccc([nH]4)c(-c4c(F)cc(S(=O)(=O)[O-])cc4F)c4nc(c(-c5c(F)cc(S(=O)(=O)[O-])cc5F)c5ccc2[nH]5)C=C4)C=C3)cc1
REMARK SMILES IDX 20 1 19 2 17 3 18 4 14 6 13 7 1 8 2 9 3 11 4 12 5 13 6 14
REMARK SMILES IDX 9 15 7 16 8 17 10 18 11 19 12 20 15 21 16 22 21 24 22 25
REMARK SMILES IDX 23 26 24 27 25 29 26 30 27 31 91 32 28 33 90 34 29 35 30 36
REMARK SMILES IDX 31 37 84 38 32 39 89 40 83 41 85 42 33 43 88 44 82 45 81 46
REMARK SMILES IDX 34 48 68 49 47 50 67 51 48 52 51 53 66 54 86 55 49 56 50 57
REMARK SMILES IDX 65 59 87 60 52 61 35 62 36 63 45 64 37 65 38 66 44 67 46 68
REMARK SMILES IDX 39 69 40 70 41 71 42 72 43 73 69 74 70 75 79 76 71 77 72 78
REMARK SMILES IDX 78 79 80 80 73 81 74 82 75 83 76 84 77 85 53 86 54 87 63 88
REMARK SMILES IDX 55 89 56 90 62 91 64 92 57 93 58 94 59 95 60 96 61 97
REMARK H PARENT 19 5 13 10 16 23 23 28 85 47 51 58
REMARK Flexibility Score: inf
ROOT
ATOM      1  C   UNL A   1      36.892  22.450  25.303  1.00  0.00     0.117 C 
ENDROOT
BRANCH   1   2
ATOM      2  N   UNL A   1      35.991  22.260  26.425  1.00  0.00    -0.354 N 
ATOM      3  C   UNL A   1      34.669  21.919  26.402  1.00  0.00     0.244 C 
ATOM      4  O   UNL A   1      34.150  21.579  27.470  1.00  0.00    -0.273 OA
ATOM      5  H   UNL A   1      36.383  22.396  27.318  1.00  0.00     0.163 HD
BRANCH   3   6
ATOM      6  C   UNL A   1      33.854  21.875  25.095  1.00  0.00     0.197 C 
BRANCH   6   7
ATOM      7  N   UNL A   1      33.426  23.209  24.612  1.00  0.00    -0.342 N 
ATOM      8  O   UNL A   1      34.440  23.268  22.557  1.00  0.00    -0.274 OA
ATOM      9  C   UNL A   1      33.711  23.787  23.397  1.00  0.00     0.231 C 
ATOM     10  H   UNL A   1      32.876  23.742  25.232  1.00  0.00     0.164 HD
BRANCH   9  11
ATOM     11  C   UNL A   1      33.162  25.188  23.174  1.00  0.00     0.178 C 
BRANCH  11  12
ATOM     12  S   UNL A   1      32.497  25.958  24.670  1.00  0.00    -0.075 SA
BRANCH  12  13
ATOM     13  C   UNL A   1      31.629  27.303  24.023  1.00  0.00     0.210 A 
ATOM     14  N   UNL A   1      30.986  27.292  22.877  1.00  0.00    -0.102 NA
ATOM     15  N   UNL A   1      31.407  28.513  24.641  1.00  0.00    -0.217 N 
ATOM     16  N   UNL A   1      30.341  28.500  22.793  1.00  0.00    -0.023 NA
ATOM     17  N   UNL A   1      30.553  29.227  23.879  1.00  0.00    -0.044 NA
BRANCH  15  18
ATOM     18  C   UNL A   1      31.778  28.997  25.955  1.00  0.00     0.112 C 
ATOM     19  C   UNL A   1      33.073  29.677  26.347  1.00  0.00     0.029 C 
ATOM     20  C   UNL A   1      31.807  30.464  26.323  1.00  0.00     0.029 C 
ENDBRANCH  15  18
ENDBRANCH  12  13
ENDBRANCH  11  12
ENDBRANCH   9  11
ENDBRANCH   6   7
BRANCH   6  21
ATOM     21  C   UNL A   1      32.826  20.728  25.102  1.00  0.00     0.191 C 
BRANCH  21  22
ATOM     22  O   UNL A   1      31.589  21.170  25.677  1.00  0.00    -0.394 OA
ATOM     23  H   UNL A   1      31.732  22.008  26.145  1.00  0.00     0.210 HD
ENDBRANCH  21  22
ENDBRANCH   6  21
ENDBRANCH   3   6
ENDBRANCH   1   2
BRANCH   1  24
ATOM     24  C   UNL A   1      38.108  21.536  25.268  1.00  0.00     0.042 C 
BRANCH  24  25
ATOM     25  C   UNL A   1      39.137  21.813  26.344  1.00  0.00     0.118 C 
BRANCH  25  26
ATOM     26  N   UNL A   1      40.536  21.781  25.925  1.00  0.00    -0.352 N 
ATOM     27  C   UNL A   1      41.439  22.840  26.033  1.00  0.00     0.251 C 
ATOM     28  H   UNL A   1      40.870  20.942  25.535  1.00  0.00     0.163 HD
ATOM     29  O   UNL A   1      42.515  22.844  25.474  1.00  0.00    -0.269 OA
BRANCH  27  30
ATOM     30  C   UNL A   1      41.002  23.987  26.860  1.00  0.00     0.039 A 
ATOM     31  C   UNL A   1      41.374  24.089  28.199  1.00  0.00     0.014 A 
ATOM     32  C   UNL A   1      40.451  25.069  26.184  1.00  0.00     0.014 A 
ATOM     33  C   UNL A   1      41.322  25.342  28.813  1.00  0.00     0.010 A 
ATOM     34  C   UNL A   1      40.586  26.324  26.736  1.00  0.00     0.010 A 
ATOM     35  C   UNL A   1      40.989  26.485  28.062  1.00  0.00    -0.014 A 
BRANCH  35  36
ATOM     36  C   UNL A   1      41.147  27.831  28.640  1.00  0.00     0.031 A 
ATOM     37  C   UNL A   1      42.398  28.585  28.297  1.00  0.00     0.074 A 
ATOM     38  C   UNL A   1      40.192  28.495  29.331  1.00  0.00     0.049 A 
ATOM     39  N   UNL A   1      43.378  28.892  29.086  1.00  0.00    -0.248 NA
ATOM     40  C   UNL A   1      42.616  28.998  26.902  1.00  0.00     0.031 C 
ATOM     41  C   UNL A   1      38.792  28.129  29.592  1.00  0.00     0.029 A 
ATOM     42  N   UNL A   1      40.284  29.728  29.903  1.00  0.00    -0.354 N 
ATOM     43  C   UNL A   1      44.259  29.682  28.347  1.00  0.00     0.074 A 
ATOM     44  C   UNL A   1      43.798  29.618  26.982  1.00  0.00     0.031 C 
ATOM     45  C   UNL A   1      38.115  29.203  30.049  1.00  0.00     0.029 A 
ATOM     46  C   UNL A   1      39.073  30.252  30.324  1.00  0.00     0.049 A 
ATOM     47  H   UNL A   1      41.138  30.206  30.008  1.00  0.00     0.167 HD
ATOM     48  C   UNL A   1      45.212  30.462  28.936  1.00  0.00     0.037 A 
ATOM     49  C   UNL A   1      38.850  31.450  30.907  1.00  0.00     0.037 A 
ATOM     50  C   UNL A   1      45.407  30.114  30.318  1.00  0.00     0.049 A 
ATOM     51  C   UNL A   1      40.125  31.866  31.540  1.00  0.00     0.074 A 
ATOM     52  C   UNL A   1      45.803  28.971  30.988  1.00  0.00     0.029 A 
ATOM     53  N   UNL A   1      44.836  30.917  31.275  1.00  0.00    -0.354 N 
ATOM     54  N   UNL A   1      40.680  31.235  32.540  1.00  0.00    -0.248 NA
ATOM     55  C   UNL A   1      41.005  32.749  30.794  1.00  0.00     0.031 C 
ATOM     56  C   UNL A   1      44.994  28.937  32.164  1.00  0.00     0.029 A 
ATOM     57  C   UNL A   1      44.195  30.083  32.158  1.00  0.00     0.049 A 
ATOM     58  H   UNL A   1      44.877  31.899  31.320  1.00  0.00     0.167 HD
ATOM     59  C   UNL A   1      42.043  31.317  32.301  1.00  0.00     0.074 A 
ATOM     60  C   UNL A   1      42.183  32.348  31.276  1.00  0.00     0.031 C 
ATOM     61  C   UNL A   1      42.911  30.368  32.764  1.00  0.00     0.037 A 
BRANCH  48  62
ATOM     62  C   UNL A   1      45.782  31.735  28.353  1.00  0.00     0.058 A 
ATOM     63  C   UNL A   1      44.929  32.812  28.030  1.00  0.00     0.135 A 
ATOM     64  C   UNL A   1      47.098  31.830  27.853  1.00  0.00     0.135 A 
ATOM     65  F   UNL A   1      43.651  32.820  28.441  1.00  0.00    -0.206 F 
ATOM     66  C   UNL A   1      45.336  33.875  27.219  1.00  0.00     0.059 A 
ATOM     67  C   UNL A   1      47.541  32.904  27.085  1.00  0.00     0.059 A 
ATOM     68  F   UNL A   1      47.982  30.835  28.005  1.00  0.00    -0.206 F 
ATOM     69  C   UNL A   1      46.641  33.901  26.736  1.00  0.00     0.060 A 
BRANCH  69  70
ATOM     70  S   UNL A   1      47.138  35.203  25.591  1.00  0.00     0.124 S 
ATOM     71  O   UNL A   1      46.794  36.401  26.349  1.00  0.00    -0.237 OA
ATOM     72  O   UNL A   1      48.562  34.939  25.424  1.00  0.00    -0.237 OA
ATOM     73  O   UNL A   1      46.316  34.944  24.413  1.00  0.00    -0.744 OA
ENDBRANCH  69  70
ENDBRANCH  48  62
BRANCH  49  74
ATOM     74  C   UNL A   1      37.712  32.359  30.644  1.00  0.00     0.058 A 
ATOM     75  C   UNL A   1      37.720  33.242  29.555  1.00  0.00     0.135 A 
ATOM     76  C   UNL A   1      36.477  32.183  31.304  1.00  0.00     0.135 A 
ATOM     77  F   UNL A   1      38.852  33.451  28.867  1.00  0.00    -0.206 F 
ATOM     78  C   UNL A   1      36.558  33.879  29.111  1.00  0.00     0.059 A 
ATOM     79  C   UNL A   1      35.307  32.811  30.884  1.00  0.00     0.059 A 
ATOM     80  F   UNL A   1      36.354  31.319  32.324  1.00  0.00    -0.206 F 
ATOM     81  C   UNL A   1      35.351  33.638  29.769  1.00  0.00     0.060 A 
BRANCH  81  82
ATOM     82  S   UNL A   1      33.820  34.310  29.081  1.00  0.00     0.124 S 
ATOM     83  O   UNL A   1      33.041  34.575  30.286  1.00  0.00    -0.237 OA
ATOM     84  O   UNL A   1      34.296  35.484  28.358  1.00  0.00    -0.237 OA
ATOM     85  O   UNL A   1      33.322  33.224  28.241  1.00  0.00    -0.744 OA
ENDBRANCH  81  82
ENDBRANCH  49  74
BRANCH  61  86
ATOM     86  C   UNL A   1      42.424  29.378  33.793  1.00  0.00     0.058 A 
ATOM     87  C   UNL A   1      41.805  28.153  33.480  1.00  0.00     0.135 A 
ATOM     88  C   UNL A   1      42.767  29.592  35.136  1.00  0.00     0.135 A 
ATOM     89  F   UNL A   1      41.529  27.825  32.212  1.00  0.00    -0.206 F 
ATOM     90  C   UNL A   1      41.523  27.200  34.461  1.00  0.00     0.059 A 
ATOM     91  C   UNL A   1      42.520  28.644  36.126  1.00  0.00     0.059 A 
ATOM     92  F   UNL A   1      43.414  30.716  35.492  1.00  0.00    -0.206 F 
ATOM     93  C   UNL A   1      41.891  27.450  35.782  1.00  0.00     0.060 A 
BRANCH  93  94
ATOM     94  S   UNL A   1      41.626  26.169  37.029  1.00  0.00     0.124 S 
ATOM     95  O   UNL A   1      41.548  24.960  36.215  1.00  0.00    -0.237 OA
ATOM     96  O   UNL A   1      42.814  26.290  37.870  1.00  0.00    -0.237 OA
ATOM     97  O   UNL A   1      40.377  26.570  37.671  1.00  0.00    -0.744 OA
ENDBRANCH  93  94
ENDBRANCH  61  86
ENDBRANCH  35  36
ENDBRANCH  27  30
ENDBRANCH  25  26
ENDBRANCH  24  25
ENDBRANCH   1  24
TORSDOF 20
ENDMDL
MODEL 3
REMARK VINA RESULT:     -11.0      1.738      2.526
REMARK SMILES O=C(CSc1nnnn1C1CC1)N[C@H](CO)C(=O)NCCCNC(=O)c1ccc(-c2c3nc(c(-c4c(F)cc(S(=O)(=O)[O-])cc4F)c4ccc([nH]4)c(-c4c(F)cc(S(=O)(=O)[O-])cc4F)c4nc(c(-c5c(F)cc(S(=O)(=O)[O-])cc5F)c5ccc2[nH]5)C=C4)C=C3)cc1
REMARK SMILES IDX 20 1 19 2 17 3 18 4 14 6 13 7 1 8 2 9 3 11 4 12 5 13 6 14
REMARK SMILES IDX 9 15 7 16 8 17 10 18 11 19 12 20 15 21 16 22 21 24 22 25
REMARK SMILES IDX 23 26 24 27 25 29 26 30 27 31 91 32 28 33 90 34 29 35 30 36
REMARK SMILES IDX 31 37 84 38 32 39 89 40 83 41 85 42 33 43 88 44 82 45 81 46
REMARK SMILES IDX 34 48 68 49 47 50 67 51 48 52 51 53 66 54 86 55 49 56 50 57
REMARK SMILES IDX 65 59 87 60 52 61 35 62 36 63 45 64 37 65 38 66 44 67 46 68
REMARK SMILES IDX 39 69 40 70 41 71 42 72 43 73 69 74 70 75 79 76 71 77 72 78
REMARK SMILES IDX 78 79 80 80 73 81 74 82 75 83 76 84 77 85 53 86 54 87 63 88
REMARK SMILES IDX 55 89 56 90 62 91 64 92 57 93 58 94 59 95 60 96 61 97
REMARK H PARENT 19 5 13 10 16 23 23 28 85 47 51 58
REMARK Flexibility Score: inf
ROOT
ATOM      1  C   UNL A   1      36.059  22.732  24.048  1.00  0.00     0.117 C 
ENDROOT
BRANCH   1   2
ATOM      2  N   UNL A   1      34.798  22.493  24.726  1.00  0.00    -0.354 N 
ATOM      3  C   UNL A   1      33.546  22.879  24.344  1.00  0.00     0.244 C 
ATOM      4  O   UNL A   1      32.588  22.371  24.939  1.00  0.00    -0.273 OA
ATOM      5  H   UNL A   1      34.853  21.989  25.570  1.00  0.00     0.163 HD
BRANCH   3   6
ATOM      6  C   UNL A   1      33.304  23.846  23.170  1.00  0.00     0.197 C 
BRANCH   6   7
ATOM      7  N   UNL A   1      32.349  24.936  23.480  1.00  0.00    -0.342 N 
ATOM      8  O   UNL A   1      30.351  23.876  23.111  1.00  0.00    -0.274 OA
ATOM      9  C   UNL A   1      30.976  24.872  23.463  1.00  0.00     0.231 C 
ATOM     10  H   UNL A   1      32.743  25.806  23.725  1.00  0.00     0.164 HD
BRANCH   9  11
ATOM     11  C   UNL A   1      30.237  26.159  23.800  1.00  0.00     0.178 C 
BRANCH  11  12
ATOM     12  S   UNL A   1      30.714  27.565  22.767  1.00  0.00    -0.075 SA
BRANCH  12  13
ATOM     13  C   UNL A   1      30.868  28.828  23.933  1.00  0.00     0.210 A 
ATOM     14  N   UNL A   1      31.791  28.870  24.868  1.00  0.00    -0.102 NA
ATOM     15  N   UNL A   1      30.130  29.989  23.990  1.00  0.00    -0.217 N 
ATOM     16  N   UNL A   1      31.638  30.080  25.497  1.00  0.00    -0.023 NA
ATOM     17  N   UNL A   1      30.665  30.784  24.940  1.00  0.00    -0.044 NA
BRANCH  15  18
ATOM     18  C   UNL A   1      29.085  30.501  23.128  1.00  0.00     0.112 C 
ATOM     19  C   UNL A   1      27.715  30.994  23.545  1.00  0.00     0.029 C 
ATOM     20  C   UNL A   1      28.724  31.967  23.038  1.00  0.00     0.029 C 
ENDBRANCH  15  18
ENDBRANCH  12  13
ENDBRANCH  11  12
ENDBRANCH   9  11
ENDBRANCH   6   7
BRANCH   6  21
ATOM     21  C   UNL A   1      33.159  23.096  21.833  1.00  0.00     0.191 C 
BRANCH  21  22
ATOM     22  O   UNL A   1      32.234  22.010  21.968  1.00  0.00    -0.394 OA
ATOM     23  H   UNL A   1      32.340  21.602  22.842  1.00  0.00     0.210 HD
ENDBRANCH  21  22
ENDBRANCH   6  21
ENDBRANCH   3   6
ENDBRANCH   1   2
BRANCH   1  24
ATOM     24  C   UNL A   1      37.240  21.906  24.536  1.00  0.00     0.042 C 
BRANCH  24  25
ATOM     25  C   UNL A   1      37.840  22.373  25.845  1.00  0.00     0.118 C 
BRANCH  25  26
ATOM     26  N   UNL A   1      39.211  21.946  26.118  1.00  0.00    -0.352 N 
ATOM     27  C   UNL A   1      40.269  22.789  26.459  1.00  0.00     0.251 C 
ATOM     28  H   UNL A   1      39.402  20.983  26.058  1.00  0.00     0.163 HD
ATOM     29  O   UNL A   1      41.426  22.422  26.458  1.00  0.00    -0.269 OA
BRANCH  27  30
ATOM     30  C   UNL A   1      39.908  24.180  26.810  1.00  0.00     0.039 A 
ATOM     31  C   UNL A   1      39.394  24.493  28.066  1.00  0.00     0.014 A 
ATOM     32  C   UNL A   1      40.354  25.176  25.949  1.00  0.00     0.014 A 
ATOM     33  C   UNL A   1      39.470  25.816  28.508  1.00  0.00     0.010 A 
ATOM     34  C   UNL A   1      40.598  26.429  26.466  1.00  0.00     0.010 A 
ATOM     35  C   UNL A   1      40.137  26.784  27.734  1.00  0.00    -0.014 A 
BRANCH  35  36
ATOM     36  C   UNL A   1      40.417  28.120  28.287  1.00  0.00     0.031 A 
ATOM     37  C   UNL A   1      41.661  28.814  27.816  1.00  0.00     0.074 A 
ATOM     38  C   UNL A   1      39.569  28.829  29.068  1.00  0.00     0.049 A 
ATOM     39  N   UNL A   1      42.730  29.072  28.501  1.00  0.00    -0.248 NA
ATOM     40  C   UNL A   1      41.756  29.216  26.405  1.00  0.00     0.031 C 
ATOM     41  C   UNL A   1      38.187  28.531  29.471  1.00  0.00     0.029 A 
ATOM     42  N   UNL A   1      39.777  30.056  29.623  1.00  0.00    -0.354 N 
ATOM     43  C   UNL A   1      43.568  29.820  27.673  1.00  0.00     0.074 A 
ATOM     44  C   UNL A   1      42.968  29.778  26.362  1.00  0.00     0.031 C 
ATOM     45  C   UNL A   1      37.612  29.636  29.990  1.00  0.00     0.029 A 
ATOM     46  C   UNL A   1      38.642  30.638  30.162  1.00  0.00     0.049 A 
ATOM     47  H   UNL A   1      40.660  30.493  29.638  1.00  0.00     0.167 HD
ATOM     48  C   UNL A   1      44.612  30.553  28.159  1.00  0.00     0.037 A 
ATOM     49  C   UNL A   1      38.537  31.844  30.759  1.00  0.00     0.037 A 
ATOM     50  C   UNL A   1      44.929  30.195  29.516  1.00  0.00     0.049 A 
ATOM     51  C   UNL A   1      39.888  32.199  31.257  1.00  0.00     0.074 A 
ATOM     52  C   UNL A   1      45.336  29.034  30.147  1.00  0.00     0.029 A 
ATOM     53  N   UNL A   1      44.497  31.024  30.522  1.00  0.00    -0.354 N 
ATOM     54  N   UNL A   1      40.510  31.542  32.199  1.00  0.00    -0.248 NA
ATOM     55  C   UNL A   1      40.729  33.038  30.423  1.00  0.00     0.031 C 
ATOM     56  C   UNL A   1      44.649  29.038  31.399  1.00  0.00     0.029 A 
ATOM     57  C   UNL A   1      43.910  30.221  31.468  1.00  0.00     0.049 A 
ATOM     58  H   UNL A   1      44.590  32.003  30.558  1.00  0.00     0.167 HD
ATOM     59  C   UNL A   1      41.845  31.557  31.823  1.00  0.00     0.074 A 
ATOM     60  C   UNL A   1      41.929  32.581  30.784  1.00  0.00     0.031 C 
ATOM     61  C   UNL A   1      42.708  30.568  32.200  1.00  0.00     0.037 A 
BRANCH  48  62
ATOM     62  C   UNL A   1      45.180  31.797  27.516  1.00  0.00     0.058 A 
ATOM     63  C   UNL A   1      46.461  31.768  26.922  1.00  0.00     0.135 A 
ATOM     64  C   UNL A   1      44.625  33.081  27.702  1.00  0.00     0.135 A 
ATOM     65  F   UNL A   1      47.091  30.602  26.712  1.00  0.00    -0.206 F 
ATOM     66  C   UNL A   1      47.162  32.932  26.594  1.00  0.00     0.059 A 
ATOM     67  C   UNL A   1      45.284  34.252  27.336  1.00  0.00     0.059 A 
ATOM     68  F   UNL A   1      43.460  33.257  28.338  1.00  0.00    -0.206 F 
ATOM     69  C   UNL A   1      46.570  34.171  26.823  1.00  0.00     0.060 A 
BRANCH  69  70
ATOM     70  S   UNL A   1      47.515  35.676  26.516  1.00  0.00     0.124 S 
ATOM     71  O   UNL A   1      47.949  36.024  27.865  1.00  0.00    -0.237 OA
ATOM     72  O   UNL A   1      48.558  35.206  25.611  1.00  0.00    -0.237 OA
ATOM     73  O   UNL A   1      46.531  36.573  25.918  1.00  0.00    -0.744 OA
ENDBRANCH  69  70
ENDBRANCH  48  62
BRANCH  49  74
ATOM     74  C   UNL A   1      37.423  32.807  30.608  1.00  0.00     0.058 A 
ATOM     75  C   UNL A   1      37.235  33.525  29.418  1.00  0.00     0.135 A 
ATOM     76  C   UNL A   1      36.361  32.838  31.538  1.00  0.00     0.135 A 
ATOM     77  F   UNL A   1      38.191  33.532  28.478  1.00  0.00    -0.206 F 
ATOM     78  C   UNL A   1      36.041  34.196  29.141  1.00  0.00     0.059 A 
ATOM     79  C   UNL A   1      35.165  33.505  31.287  1.00  0.00     0.059 A 
ATOM     80  F   UNL A   1      36.424  32.141  32.683  1.00  0.00    -0.206 F 
ATOM     81  C   UNL A   1      35.003  34.161  30.073  1.00  0.00     0.060 A 
BRANCH  81  82
ATOM     82  S   UNL A   1      33.396  34.866  29.635  1.00  0.00     0.124 S 
ATOM     83  O   UNL A   1      32.772  35.026  30.944  1.00  0.00    -0.237 OA
ATOM     84  O   UNL A   1      33.777  36.098  28.954  1.00  0.00    -0.237 OA
ATOM     85  O   UNL A   1      32.800  33.843  28.779  1.00  0.00    -0.744 OA
ENDBRANCH  81  82
ENDBRANCH  49  74
BRANCH  61  86
ATOM     86  C   UNL A   1      42.281  29.602  33.277  1.00  0.00     0.058 A 
ATOM     87  C   UNL A   1      41.604  28.393  33.032  1.00  0.00     0.135 A 
ATOM     88  C   UNL A   1      42.742  29.818  34.585  1.00  0.00     0.135 A 
ATOM     89  F   UNL A   1      41.214  28.062  31.795  1.00  0.00    -0.206 F 
ATOM     90  C   UNL A   1      41.378  27.457  34.044  1.00  0.00     0.059 A 
ATOM     91  C   UNL A   1      42.551  28.887  35.603  1.00  0.00     0.059 A 
ATOM     92  F   UNL A   1      43.447  30.926  34.873  1.00  0.00    -0.206 F 
ATOM     93  C   UNL A   1      41.862  27.708  35.326  1.00  0.00     0.060 A 
BRANCH  93  94
ATOM     94  S   UNL A   1      41.666  26.447  36.606  1.00  0.00     0.124 S 
ATOM     95  O   UNL A   1      40.627  27.027  37.452  1.00  0.00    -0.237 OA
ATOM     96  O   UNL A   1      41.271  25.269  35.837  1.00  0.00    -0.237 OA
ATOM     97  O   UNL A   1      42.992  26.367  37.213  1.00  0.00    -0.744 OA
ENDBRANCH  93  94
ENDBRANCH  61  86
ENDBRANCH  35  36
ENDBRANCH  27  30
ENDBRANCH  25  26
ENDBRANCH  24  25
ENDBRANCH   1  24
TORSDOF 20
ENDMDL
