MODEL 1
REMARK VINA RESULT:     -11.0      0.000      0.000
REMARK SMILES CN1C(=O)C[C@H](C(=O)Nc2ccc(C(=O)NCCCNC(=O)c3ccc(-c4c5nc(c(-c6c(F)cc(S(=O)(=O)[O-])cc6F)c6ccc([nH]6)c(-c6c(F)cc(S(=O)(=O)[O-])cc6F)c6nc(c(-c7c(F)cc(S(=O)(=O)[O-])cc7F)c7ccc4[nH]7)C=C6)C=C5)cc3)cc2)S/C1=[NH+]\c1cccc(C(F)(F)F)c1
REMARK SMILES IDX 17 1 16 2 14 3 15 4 13 6 10 7 11 8 90 9 12 10 89 11 9 12
REMARK SMILES IDX 7 13 8 14 6 16 1 17 2 18 3 19 92 20 4 21 5 22 91 23 93 24
REMARK SMILES IDX 94 26 95 27 103 28 96 29 98 30 97 31 99 32 100 33 101 34
REMARK SMILES IDX 102 35 18 36 19 37 20 38 21 39 22 41 23 42 24 43 88 44 25 45
REMARK SMILES IDX 87 46 26 47 27 48 28 49 81 50 29 51 86 52 80 53 82 54 30 55
REMARK SMILES IDX 85 56 79 57 78 58 31 60 65 61 44 62 64 63 45 64 48 65 63 66
REMARK SMILES IDX 83 67 46 68 47 69 62 71 84 72 49 73 32 74 33 75 42 76 34 77
REMARK SMILES IDX 35 78 41 79 43 80 36 81 37 82 38 83 39 84 40 85 66 86 67 87
REMARK SMILES IDX 76 88 68 89 69 90 75 91 77 92 70 93 71 94 72 95 73 96 74 97
REMARK SMILES IDX 50 98 51 99 60 100 52 101 53 102 59 103 61 104 54 105 55 106
REMARK SMILES IDX 56 107 57 108 58 109
REMARK H PARENT 16 5 9 15 93 25 20 40 82 59 48 70
REMARK Flexibility Score: inf
ROOT
ATOM      1  C   UNL A   1      34.408  35.508  28.596  1.00  0.00     0.118 C 
ENDROOT
BRANCH   1   2
ATOM      2  N   UNL A   1      33.403  36.115  29.454  1.00  0.00    -0.352 N 
ATOM      3  C   UNL A   1      33.196  36.070  30.809  1.00  0.00     0.251 C 
ATOM      4  O   UNL A   1      32.287  36.757  31.276  1.00  0.00    -0.269 OA
ATOM      5  H   UNL A   1      32.745  36.662  28.968  1.00  0.00     0.163 HD
BRANCH   3   6
ATOM      6  C   UNL A   1      34.066  35.301  31.739  1.00  0.00     0.039 A 
ATOM      7  C   UNL A   1      35.488  33.606  33.465  1.00  0.00     0.041 A 
ATOM      8  C   UNL A   1      35.259  33.215  32.148  1.00  0.00     0.027 A 
ATOM      9  C   UNL A   1      35.146  34.897  33.869  1.00  0.00     0.027 A 
ATOM     10  C   UNL A   1      34.525  34.049  31.300  1.00  0.00     0.016 A 
ATOM     11  C   UNL A   1      34.459  35.750  33.001  1.00  0.00     0.016 A 
BRANCH   7  12
ATOM     12  N   UNL A   1      36.039  32.673  34.351  1.00  0.00    -0.325 N 
ATOM     13  C   UNL A   1      37.368  32.484  34.657  1.00  0.00     0.238 C 
ATOM     14  O   UNL A   1      37.679  31.560  35.413  1.00  0.00    -0.273 OA
ATOM     15  H   UNL A   1      35.401  32.082  34.811  1.00  0.00     0.169 HD
BRANCH  13  16
ATOM     16  C   UNL A   1      38.402  33.504  34.177  1.00  0.00     0.160 C 
ATOM     17  C   UNL A   1      41.402  32.826  37.306  1.00  0.00     0.301 C 
ATOM     18  N   UNL A   1      40.499  33.053  36.183  1.00  0.00    -0.194 N 
ATOM     19  C   UNL A   1      39.659  34.153  36.333  1.00  0.00     0.311 C 
ATOM     20  C   UNL A   1      40.554  32.161  35.110  1.00  0.00     0.319 C 
ATOM     21  O   UNL A   1      39.690  34.874  37.338  1.00  0.00    -0.247 OA
ATOM     22  C   UNL A   1      38.710  34.539  35.229  1.00  0.00     0.153 C 
ATOM     23  S   UNL A   1      39.892  32.725  33.594  1.00  0.00    -0.024 SA
ATOM     24  N   UNL A   1      41.135  31.010  35.259  1.00  0.00    -0.235 N 
ATOM     25  H   UNL A   1      41.600  30.813  36.103  1.00  0.00     0.313 HD
BRANCH  24  26
ATOM     26  C   UNL A   1      41.117  30.044  34.246  1.00  0.00     0.126 A 
ATOM     27  C   UNL A   1      42.321  29.697  33.627  1.00  0.00     0.052 A 
ATOM     28  C   UNL A   1      39.933  29.432  33.829  1.00  0.00     0.064 A 
ATOM     29  C   UNL A   1      42.354  28.721  32.632  1.00  0.00     0.005 A 
ATOM     30  C   UNL A   1      39.954  28.418  32.858  1.00  0.00     0.060 A 
ATOM     31  C   UNL A   1      41.175  28.076  32.257  1.00  0.00     0.013 A 
BRANCH  30  32
ATOM     32  C   UNL A   1      38.690  27.690  32.476  1.00  0.00     0.416 C 
ATOM     33  F   UNL A   1      38.389  26.682  33.336  1.00  0.00    -0.166 F 
ATOM     34  F   UNL A   1      37.608  28.515  32.452  1.00  0.00    -0.166 F 
ATOM     35  F   UNL A   1      38.751  27.123  31.237  1.00  0.00    -0.166 F 
ENDBRANCH  30  32
ENDBRANCH  24  26
ENDBRANCH  13  16
ENDBRANCH   7  12
ENDBRANCH   3   6
ENDBRANCH   1   2
BRANCH   1  36
ATOM     36  C   UNL A   1      33.851  34.286  27.868  1.00  0.00     0.042 C 
BRANCH  36  37
ATOM     37  C   UNL A   1      34.684  33.024  28.070  1.00  0.00     0.118 C 
BRANCH  37  38
ATOM     38  N   UNL A   1      33.880  31.814  27.965  1.00  0.00    -0.352 N 
ATOM     39  C   UNL A   1      34.272  30.501  27.883  1.00  0.00     0.251 C 
ATOM     40  H   UNL A   1      32.906  31.961  27.949  1.00  0.00     0.163 HD
ATOM     41  O   UNL A   1      33.442  29.648  27.580  1.00  0.00    -0.269 OA
BRANCH  39  42
ATOM     42  C   UNL A   1      35.676  30.112  28.143  1.00  0.00     0.039 A 
ATOM     43  C   UNL A   1      36.576  30.084  27.074  1.00  0.00     0.014 A 
ATOM     44  C   UNL A   1      36.100  29.732  29.421  1.00  0.00     0.014 A 
ATOM     45  C   UNL A   1      37.910  29.729  27.295  1.00  0.00     0.010 A 
ATOM     46  C   UNL A   1      37.443  29.447  29.653  1.00  0.00     0.010 A 
ATOM     47  C   UNL A   1      38.361  29.435  28.592  1.00  0.00    -0.014 A 
BRANCH  47  48
ATOM     48  C   UNL A   1      39.788  29.113  28.858  1.00  0.00     0.031 A 
ATOM     49  C   UNL A   1      40.715  30.166  29.403  1.00  0.00     0.074 A 
ATOM     50  C   UNL A   1      40.260  27.888  28.553  1.00  0.00     0.049 A 
ATOM     51  N   UNL A   1      42.001  30.097  29.630  1.00  0.00    -0.248 NA
ATOM     52  C   UNL A   1      40.121  31.478  29.708  1.00  0.00     0.031 C 
ATOM     53  C   UNL A   1      39.469  26.794  27.983  1.00  0.00     0.029 A 
ATOM     54  N   UNL A   1      41.521  27.359  28.668  1.00  0.00    -0.354 N 
ATOM     55  C   UNL A   1      42.373  31.355  30.092  1.00  0.00     0.074 A 
ATOM     56  C   UNL A   1      41.186  32.182  30.063  1.00  0.00     0.031 C 
ATOM     57  C   UNL A   1      40.257  25.720  27.820  1.00  0.00     0.029 A 
ATOM     58  C   UNL A   1      41.616  26.057  28.234  1.00  0.00     0.049 A 
ATOM     59  H   UNL A   1      42.286  27.863  29.028  1.00  0.00     0.167 HD
ATOM     60  C   UNL A   1      43.588  31.776  30.522  1.00  0.00     0.037 A 
ATOM     61  C   UNL A   1      42.678  25.231  28.170  1.00  0.00     0.037 A 
ATOM     62  C   UNL A   1      44.759  30.940  30.567  1.00  0.00     0.049 A 
ATOM     63  C   UNL A   1      44.018  25.723  28.644  1.00  0.00     0.074 A 
ATOM     64  C   UNL A   1      46.025  31.256  31.031  1.00  0.00     0.029 A 
ATOM     65  N   UNL A   1      44.812  29.623  30.132  1.00  0.00    -0.354 N 
ATOM     66  N   UNL A   1      44.341  26.900  29.127  1.00  0.00    -0.248 NA
ATOM     67  C   UNL A   1      45.139  24.776  28.569  1.00  0.00     0.031 C 
ATOM     68  C   UNL A   1      46.852  30.144  30.838  1.00  0.00     0.029 A 
ATOM     69  C   UNL A   1      46.091  29.118  30.299  1.00  0.00     0.049 A 
ATOM     70  H   UNL A   1      44.051  29.121  29.760  1.00  0.00     0.167 HD
ATOM     71  C   UNL A   1      45.694  26.825  29.440  1.00  0.00     0.074 A 
ATOM     72  C   UNL A   1      46.126  25.484  29.100  1.00  0.00     0.031 C 
ATOM     73  C   UNL A   1      46.504  27.778  29.962  1.00  0.00     0.037 A 
BRANCH  60  74
ATOM     74  C   UNL A   1      43.707  33.204  30.982  1.00  0.00     0.058 A 
ATOM     75  C   UNL A   1      43.560  33.556  32.334  1.00  0.00     0.135 A 
ATOM     76  C   UNL A   1      43.995  34.231  30.068  1.00  0.00     0.135 A 
ATOM     77  F   UNL A   1      43.270  32.618  33.250  1.00  0.00    -0.206 F 
ATOM     78  C   UNL A   1      43.659  34.877  32.757  1.00  0.00     0.059 A 
ATOM     79  C   UNL A   1      44.127  35.555  30.474  1.00  0.00     0.059 A 
ATOM     80  F   UNL A   1      44.147  33.951  28.764  1.00  0.00    -0.206 F 
ATOM     81  C   UNL A   1      43.939  35.872  31.819  1.00  0.00     0.060 A 
BRANCH  81  82
ATOM     82  S   UNL A   1      44.056  37.582  32.383  1.00  0.00     0.124 S 
ATOM     83  O   UNL A   1      45.451  37.654  32.805  1.00  0.00    -0.237 OA
ATOM     84  O   UNL A   1      43.721  38.333  31.177  1.00  0.00    -0.237 OA
ATOM     85  O   UNL A   1      43.070  37.656  33.456  1.00  0.00    -0.744 OA
ENDBRANCH  81  82
ENDBRANCH  60  74
BRANCH  61  86
ATOM     86  C   UNL A   1      42.509  23.844  27.661  1.00  0.00     0.058 A 
ATOM     87  C   UNL A   1      42.480  23.582  26.283  1.00  0.00     0.135 A 
ATOM     88  C   UNL A   1      42.390  22.754  28.536  1.00  0.00     0.135 A 
ATOM     89  F   UNL A   1      42.585  24.593  25.407  1.00  0.00    -0.206 F 
ATOM     90  C   UNL A   1      42.325  22.291  25.789  1.00  0.00     0.059 A 
ATOM     91  C   UNL A   1      42.258  21.450  28.067  1.00  0.00     0.059 A 
ATOM     92  F   UNL A   1      42.427  22.949  29.864  1.00  0.00    -0.206 F 
ATOM     93  C   UNL A   1      42.217  21.230  26.691  1.00  0.00     0.060 A 
BRANCH  93  94
ATOM     94  S   UNL A   1      42.063  19.553  26.040  1.00  0.00     0.124 S 
ATOM     95  O   UNL A   1      43.011  19.581  24.931  1.00  0.00    -0.237 OA
ATOM     96  O   UNL A   1      42.448  18.740  27.189  1.00  0.00    -0.237 OA
ATOM     97  O   UNL A   1      40.655  19.468  25.663  1.00  0.00    -0.744 OA
ENDBRANCH  93  94
ENDBRANCH  61  86
BRANCH  73  98
ATOM     98  C   UNL A   1      47.933  27.399  30.234  1.00  0.00     0.058 A 
ATOM     99  C   UNL A   1      48.945  27.606  29.284  1.00  0.00     0.135 A 
ATOM    100  C   UNL A   1      48.301  26.867  31.480  1.00  0.00     0.135 A 
ATOM    101  F   UNL A   1      48.645  28.104  28.074  1.00  0.00    -0.206 F 
ATOM    102  C   UNL A   1      50.270  27.279  29.553  1.00  0.00     0.059 A 
ATOM    103  C   UNL A   1      49.624  26.559  31.780  1.00  0.00     0.059 A 
ATOM    104  F   UNL A   1      47.372  26.658  32.427  1.00  0.00    -0.206 F 
ATOM    105  C   UNL A   1      50.601  26.758  30.806  1.00  0.00     0.060 A 
BRANCH 105 106
ATOM    106  S   UNL A   1      52.329  26.372  31.155  1.00  0.00     0.124 S 
ATOM    107  O   UNL A   1      52.211  25.087  31.837  1.00  0.00    -0.237 OA
ATOM    108  O   UNL A   1      52.916  26.329  29.819  1.00  0.00    -0.237 OA
ATOM    109  O   UNL A   1      52.765  27.488  31.989  1.00  0.00    -0.744 OA
ENDBRANCH 105 106
ENDBRANCH  73  98
ENDBRANCH  47  48
ENDBRANCH  39  42
ENDBRANCH  37  38
ENDBRANCH  36  37
ENDBRANCH   1  36
TORSDOF 17
ENDMDL
MODEL 2
REMARK VINA RESULT:     -10.5      4.482      8.187
REMARK SMILES CN1C(=O)C[C@H](C(=O)Nc2ccc(C(=O)NCCCNC(=O)c3ccc(-c4c5nc(c(-c6c(F)cc(S(=O)(=O)[O-])cc6F)c6ccc([nH]6)c(-c6c(F)cc(S(=O)(=O)[O-])cc6F)c6nc(c(-c7c(F)cc(S(=O)(=O)[O-])cc7F)c7ccc4[nH]7)C=C6)C=C5)cc3)cc2)S/C1=[NH+]\c1cccc(C(F)(F)F)c1
REMARK SMILES IDX 17 1 16 2 14 3 15 4 13 6 10 7 11 8 90 9 12 10 89 11 9 12
REMARK SMILES IDX 7 13 8 14 6 16 1 17 2 18 3 19 92 20 4 21 5 22 91 23 93 24
REMARK SMILES IDX 94 26 95 27 103 28 96 29 98 30 97 31 99 32 100 33 101 34
REMARK SMILES IDX 102 35 18 36 19 37 20 38 21 39 22 41 23 42 24 43 88 44 25 45
REMARK SMILES IDX 87 46 26 47 27 48 28 49 81 50 29 51 86 52 80 53 82 54 30 55
REMARK SMILES IDX 85 56 79 57 78 58 31 60 65 61 44 62 64 63 45 64 48 65 63 66
REMARK SMILES IDX 83 67 46 68 47 69 62 71 84 72 49 73 32 74 33 75 42 76 34 77
REMARK SMILES IDX 35 78 41 79 43 80 36 81 37 82 38 83 39 84 40 85 66 86 67 87
REMARK SMILES IDX 76 88 68 89 69 90 75 91 77 92 70 93 71 94 72 95 73 96 74 97
REMARK SMILES IDX 50 98 51 99 60 100 52 101 53 102 59 103 61 104 54 105 55 106
REMARK SMILES IDX 56 107 57 108 58 109
REMARK H PARENT 16 5 9 15 93 25 20 40 82 59 48 70
REMARK Flexibility Score: inf
ROOT
ATOM      1  C   UNL A   1      33.754  29.477  26.284  1.00  0.00     0.118 C 
ENDROOT
BRANCH   1   2
ATOM      2  N   UNL A   1      32.652  29.191  27.187  1.00  0.00    -0.352 N 
ATOM      3  C   UNL A   1      31.811  28.115  27.309  1.00  0.00     0.251 C 
ATOM      4  O   UNL A   1      30.999  28.118  28.233  1.00  0.00    -0.269 OA
ATOM      5  H   UNL A   1      32.474  29.910  27.837  1.00  0.00     0.163 HD
BRANCH   3   6
ATOM      6  C   UNL A   1      31.895  26.916  26.431  1.00  0.00     0.039 A 
ATOM      7  C   UNL A   1      32.293  24.816  24.613  1.00  0.00     0.041 A 
ATOM      8  C   UNL A   1      33.340  25.224  25.435  1.00  0.00     0.027 A 
ATOM      9  C   UNL A   1      31.017  25.347  24.808  1.00  0.00     0.027 A 
ATOM     10  C   UNL A   1      33.147  26.290  26.318  1.00  0.00     0.016 A 
ATOM     11  C   UNL A   1      30.815  26.376  25.731  1.00  0.00     0.016 A 
BRANCH   7  12
ATOM     12  N   UNL A   1      32.564  23.893  23.596  1.00  0.00    -0.325 N 
ATOM     13  C   UNL A   1      32.747  22.534  23.717  1.00  0.00     0.238 C 
ATOM     14  O   UNL A   1      33.050  21.883  22.714  1.00  0.00    -0.273 OA
ATOM     15  H   UNL A   1      32.632  24.259  22.685  1.00  0.00     0.169 HD
BRANCH  13  16
ATOM     16  C   UNL A   1      32.426  21.849  25.047  1.00  0.00     0.160 C 
ATOM     17  C   UNL A   1      34.647  18.130  24.348  1.00  0.00     0.301 C 
ATOM     18  N   UNL A   1      33.957  19.367  24.697  1.00  0.00    -0.194 N 
ATOM     19  C   UNL A   1      32.580  19.336  24.486  1.00  0.00     0.311 C 
ATOM     20  C   UNL A   1      34.724  20.431  25.175  1.00  0.00     0.319 C 
ATOM     21  O   UNL A   1      32.003  18.335  24.046  1.00  0.00    -0.247 OA
ATOM     22  C   UNL A   1      31.731  20.526  24.852  1.00  0.00     0.153 C 
ATOM     23  S   UNL A   1      33.871  21.665  26.071  1.00  0.00    -0.024 SA
ATOM     24  N   UNL A   1      36.010  20.428  24.999  1.00  0.00    -0.235 N 
ATOM     25  H   UNL A   1      36.438  19.638  24.599  1.00  0.00     0.313 HD
BRANCH  24  26
ATOM     26  C   UNL A   1      36.801  21.523  25.364  1.00  0.00     0.126 A 
ATOM     27  C   UNL A   1      36.270  22.809  25.234  1.00  0.00     0.052 A 
ATOM     28  C   UNL A   1      38.106  21.367  25.837  1.00  0.00     0.064 A 
ATOM     29  C   UNL A   1      37.013  23.927  25.610  1.00  0.00     0.005 A 
ATOM     30  C   UNL A   1      38.852  22.479  26.260  1.00  0.00     0.060 A 
ATOM     31  C   UNL A   1      38.296  23.761  26.132  1.00  0.00     0.013 A 
BRANCH  30  32
ATOM     32  C   UNL A   1      40.224  22.303  26.861  1.00  0.00     0.416 C 
ATOM     33  F   UNL A   1      41.215  22.716  26.028  1.00  0.00    -0.166 F 
ATOM     34  F   UNL A   1      40.373  23.005  28.018  1.00  0.00    -0.166 F 
ATOM     35  F   UNL A   1      40.511  21.008  27.175  1.00  0.00    -0.166 F 
ENDBRANCH  30  32
ENDBRANCH  24  26
ENDBRANCH  13  16
ENDBRANCH   7  12
ENDBRANCH   3   6
ENDBRANCH   1   2
BRANCH   1  36
ATOM     36  C   UNL A   1      35.093  29.066  26.895  1.00  0.00     0.042 C 
BRANCH  36  37
ATOM     37  C   UNL A   1      35.788  30.193  27.653  1.00  0.00     0.118 C 
BRANCH  37  38
ATOM     38  N   UNL A   1      35.683  30.029  29.096  1.00  0.00    -0.352 N 
ATOM     39  C   UNL A   1      36.612  29.576  30.001  1.00  0.00     0.251 C 
ATOM     40  H   UNL A   1      34.812  30.279  29.482  1.00  0.00     0.163 HD
ATOM     41  O   UNL A   1      36.251  29.307  31.143  1.00  0.00    -0.269 OA
BRANCH  39  42
ATOM     42  C   UNL A   1      38.028  29.401  29.609  1.00  0.00     0.039 A 
ATOM     43  C   UNL A   1      38.974  29.135  30.603  1.00  0.00     0.014 A 
ATOM     44  C   UNL A   1      38.437  29.542  28.278  1.00  0.00     0.014 A 
ATOM     45  C   UNL A   1      40.317  28.956  30.258  1.00  0.00     0.010 A 
ATOM     46  C   UNL A   1      39.762  29.295  27.927  1.00  0.00     0.010 A 
ATOM     47  C   UNL A   1      40.717  29.006  28.913  1.00  0.00    -0.014 A 
BRANCH  47  48
ATOM     48  C   UNL A   1      42.130  28.761  28.519  1.00  0.00     0.031 A 
ATOM     49  C   UNL A   1      43.136  29.879  28.572  1.00  0.00     0.074 A 
ATOM     50  C   UNL A   1      42.490  27.548  28.057  1.00  0.00     0.049 A 
ATOM     51  N   UNL A   1      44.391  29.879  28.201  1.00  0.00    -0.248 NA
ATOM     52  C   UNL A   1      42.663  31.174  29.087  1.00  0.00     0.031 C 
ATOM     53  C   UNL A   1      41.595  26.395  27.921  1.00  0.00     0.029 A 
ATOM     54  N   UNL A   1      43.699  27.082  27.606  1.00  0.00    -0.354 N 
ATOM     55  C   UNL A   1      44.853  31.171  28.425  1.00  0.00     0.074 A 
ATOM     56  C   UNL A   1      43.730  31.941  28.915  1.00  0.00     0.031 C 
ATOM     57  C   UNL A   1      42.291  25.352  27.442  1.00  0.00     0.029 A 
ATOM     58  C   UNL A   1      43.669  25.768  27.199  1.00  0.00     0.049 A 
ATOM     59  H   UNL A   1      44.512  27.636  27.576  1.00  0.00     0.167 HD
ATOM     60  C   UNL A   1      46.104  31.665  28.259  1.00  0.00     0.037 A 
ATOM     61  C   UNL A   1      44.639  24.991  26.682  1.00  0.00     0.037 A 
ATOM     62  C   UNL A   1      47.221  30.887  27.791  1.00  0.00     0.049 A 
ATOM     63  C   UNL A   1      46.018  25.563  26.497  1.00  0.00     0.074 A 
ATOM     64  C   UNL A   1      48.540  31.281  27.633  1.00  0.00     0.029 A 
ATOM     65  N   UNL A   1      47.154  29.556  27.402  1.00  0.00    -0.354 N 
ATOM     66  N   UNL A   1      46.450  26.773  26.764  1.00  0.00    -0.248 NA
ATOM     67  C   UNL A   1      47.043  24.666  25.947  1.00  0.00     0.031 C 
ATOM     68  C   UNL A   1      49.260  30.200  27.111  1.00  0.00     0.029 A 
ATOM     69  C   UNL A   1      48.402  29.118  26.989  1.00  0.00     0.049 A 
ATOM     70  H   UNL A   1      46.339  29.004  27.419  1.00  0.00     0.167 HD
ATOM     71  C   UNL A   1      47.802  26.774  26.440  1.00  0.00     0.074 A 
ATOM     72  C   UNL A   1      48.118  25.441  25.968  1.00  0.00     0.031 C 
ATOM     73  C   UNL A   1      48.701  27.785  26.528  1.00  0.00     0.037 A 
BRANCH  60  74
ATOM     74  C   UNL A   1      46.329  33.116  28.592  1.00  0.00     0.058 A 
ATOM     75  C   UNL A   1      46.168  34.125  27.628  1.00  0.00     0.135 A 
ATOM     76  C   UNL A   1      46.687  33.507  29.892  1.00  0.00     0.135 A 
ATOM     77  F   UNL A   1      45.841  33.810  26.366  1.00  0.00    -0.206 F 
ATOM     78  C   UNL A   1      46.387  35.465  27.933  1.00  0.00     0.059 A 
ATOM     79  C   UNL A   1      46.882  34.843  30.227  1.00  0.00     0.059 A 
ATOM     80  F   UNL A   1      46.852  32.584  30.853  1.00  0.00    -0.206 F 
ATOM     81  C   UNL A   1      46.748  35.814  29.236  1.00  0.00     0.060 A 
BRANCH  81  82
ATOM     82  S   UNL A   1      47.037  37.555  29.613  1.00  0.00     0.124 S 
ATOM     83  O   UNL A   1      45.698  37.998  29.987  1.00  0.00    -0.237 OA
ATOM     84  O   UNL A   1      48.006  37.483  30.703  1.00  0.00    -0.237 OA
ATOM     85  O   UNL A   1      47.550  38.096  28.358  1.00  0.00    -0.744 OA
ENDBRANCH  81  82
ENDBRANCH  60  74
BRANCH  61  86
ATOM     86  C   UNL A   1      44.345  23.576  26.327  1.00  0.00     0.058 A 
ATOM     87  C   UNL A   1      44.257  23.174  24.987  1.00  0.00     0.135 A 
ATOM     88  C   UNL A   1      44.163  22.597  27.317  1.00  0.00     0.135 A 
ATOM     89  F   UNL A   1      44.418  24.075  24.006  1.00  0.00    -0.206 F 
ATOM     90  C   UNL A   1      43.985  21.856  24.637  1.00  0.00     0.059 A 
ATOM     91  C   UNL A   1      43.915  21.267  26.992  1.00  0.00     0.059 A 
ATOM     92  F   UNL A   1      44.254  22.927  28.615  1.00  0.00    -0.206 F 
ATOM     93  C   UNL A   1      43.817  20.908  25.649  1.00  0.00     0.060 A 
BRANCH  93  94
ATOM     94  S   UNL A   1      43.511  19.190  25.183  1.00  0.00     0.124 S 
ATOM     95  O   UNL A   1      44.087  19.142  23.844  1.00  0.00    -0.237 OA
ATOM     96  O   UNL A   1      44.236  18.458  26.217  1.00  0.00    -0.237 OA
ATOM     97  O   UNL A   1      42.057  19.080  25.249  1.00  0.00    -0.744 OA
ENDBRANCH  93  94
ENDBRANCH  61  86
BRANCH  73  98
ATOM     98  C   UNL A   1      50.122  27.484  26.139  1.00  0.00     0.058 A 
ATOM     99  C   UNL A   1      50.544  27.518  24.801  1.00  0.00     0.135 A 
ATOM    100  C   UNL A   1      51.083  27.206  27.123  1.00  0.00     0.135 A 
ATOM    101  F   UNL A   1      49.662  27.771  23.820  1.00  0.00    -0.206 F 
ATOM    102  C   UNL A   1      51.866  27.267  24.450  1.00  0.00     0.059 A 
ATOM    103  C   UNL A   1      52.416  26.979  26.798  1.00  0.00     0.059 A 
ATOM    104  F   UNL A   1      50.734  27.170  28.419  1.00  0.00    -0.206 F 
ATOM    105  C   UNL A   1      52.797  27.000  25.457  1.00  0.00     0.060 A 
BRANCH 105 106
ATOM    106  S   UNL A   1      54.516  26.711  24.992  1.00  0.00     0.124 S 
ATOM    107  O   UNL A   1      55.090  28.044  25.143  1.00  0.00    -0.237 OA
ATOM    108  O   UNL A   1      54.944  25.721  25.977  1.00  0.00    -0.237 OA
ATOM    109  O   UNL A   1      54.421  26.220  23.621  1.00  0.00    -0.744 OA
ENDBRANCH 105 106
ENDBRANCH  73  98
ENDBRANCH  47  48
ENDBRANCH  39  42
ENDBRANCH  37  38
ENDBRANCH  36  37
ENDBRANCH   1  36
TORSDOF 17
ENDMDL
MODEL 3
REMARK VINA RESULT:     -10.5      4.565     11.264
REMARK SMILES CN1C(=O)C[C@H](C(=O)Nc2ccc(C(=O)NCCCNC(=O)c3ccc(-c4c5nc(c(-c6c(F)cc(S(=O)(=O)[O-])cc6F)c6ccc([nH]6)c(-c6c(F)cc(S(=O)(=O)[O-])cc6F)c6nc(c(-c7c(F)cc(S(=O)(=O)[O-])cc7F)c7ccc4[nH]7)C=C6)C=C5)cc3)cc2)S/C1=[NH+]\c1cccc(C(F)(F)F)c1
REMARK SMILES IDX 17 1 16 2 14 3 15 4 13 6 10 7 11 8 90 9 12 10 89 11 9 12
REMARK SMILES IDX 7 13 8 14 6 16 1 17 2 18 3 19 92 20 4 21 5 22 91 23 93 24
REMARK SMILES IDX 94 26 95 27 103 28 96 29 98 30 97 31 99 32 100 33 101 34
REMARK SMILES IDX 102 35 18 36 19 37 20 38 21 39 22 41 23 42 24 43 88 44 25 45
REMARK SMILES IDX 87 46 26 47 27 48 28 49 81 50 29 51 86 52 80 53 82 54 30 55
REMARK SMILES IDX 85 56 79 57 78 58 31 60 65 61 44 62 64 63 45 64 48 65 63 66
REMARK SMILES IDX 83 67 46 68 47 69 62 71 84 72 49 73 32 74 33 75 42 76 34 77
REMARK SMILES IDX 35 78 41 79 43 80 36 81 37 82 38 83 39 84 40 85 66 86 67 87
REMARK SMILES IDX 76 88 68 89 69 90 75 91 77 92 70 93 71 94 72 95 73 96 74 97
REMARK SMILES IDX 50 98 51 99 60 100 52 101 53 102 59 103 61 104 54 105 55 106
REMARK SMILES IDX 56 107 57 108 58 109
REMARK H PARENT 16 5 9 15 93 25 20 40 82 59 48 70
REMARK Flexibility Score: inf
ROOT
ATOM      1  C   UNL A   1      33.812  29.161  26.239  1.00  0.00     0.118 C 
ENDROOT
BRANCH   1   2
ATOM      2  N   UNL A   1      32.698  28.943  27.148  1.00  0.00    -0.352 N 
ATOM      3  C   UNL A   1      31.804  27.912  27.284  1.00  0.00     0.251 C 
ATOM      4  O   UNL A   1      30.996  27.969  28.209  1.00  0.00    -0.269 OA
ATOM      5  H   UNL A   1      32.560  29.677  27.789  1.00  0.00     0.163 HD
BRANCH   3   6
ATOM      6  C   UNL A   1      31.824  26.701  26.419  1.00  0.00     0.039 A 
ATOM      7  C   UNL A   1      32.086  24.575  24.606  1.00  0.00     0.041 A 
ATOM      8  C   UNL A   1      33.195  25.003  25.332  1.00  0.00     0.027 A 
ATOM      9  C   UNL A   1      30.827  25.101  24.899  1.00  0.00     0.027 A 
ATOM     10  C   UNL A   1      33.067  26.081  26.212  1.00  0.00     0.016 A 
ATOM     11  C   UNL A   1      30.694  26.143  25.820  1.00  0.00     0.016 A 
BRANCH   7  12
ATOM     12  N   UNL A   1      32.279  23.639  23.584  1.00  0.00    -0.325 N 
ATOM     13  C   UNL A   1      32.474  22.282  23.710  1.00  0.00     0.238 C 
ATOM     14  O   UNL A   1      32.699  21.617  22.695  1.00  0.00    -0.273 OA
ATOM     15  H   UNL A   1      32.274  23.992  22.666  1.00  0.00     0.169 HD
BRANCH  13  16
ATOM     16  C   UNL A   1      32.261  21.615  25.070  1.00  0.00     0.160 C 
ATOM     17  C   UNL A   1      34.660  18.013  24.348  1.00  0.00     0.301 C 
ATOM     18  N   UNL A   1      33.916  19.217  24.701  1.00  0.00    -0.194 N 
ATOM     19  C   UNL A   1      32.535  19.102  24.562  1.00  0.00     0.311 C 
ATOM     20  C   UNL A   1      34.641  20.336  25.115  1.00  0.00     0.319 C 
ATOM     21  O   UNL A   1      31.996  18.057  24.176  1.00  0.00    -0.247 OA
ATOM     22  C   UNL A   1      31.636  20.249  24.942  1.00  0.00     0.153 C 
ATOM     23  S   UNL A   1      33.762  21.542  26.023  1.00  0.00    -0.024 SA
ATOM     24  N   UNL A   1      35.915  20.402  24.873  1.00  0.00    -0.235 N 
ATOM     25  H   UNL A   1      36.368  19.627  24.471  1.00  0.00     0.313 HD
BRANCH  24  26
ATOM     26  C   UNL A   1      36.658  21.550  25.171  1.00  0.00     0.126 A 
ATOM     27  C   UNL A   1      36.145  22.797  24.803  1.00  0.00     0.052 A 
ATOM     28  C   UNL A   1      37.898  21.484  25.809  1.00  0.00     0.064 A 
ATOM     29  C   UNL A   1      36.838  23.968  25.103  1.00  0.00     0.005 A 
ATOM     30  C   UNL A   1      38.590  22.655  26.156  1.00  0.00     0.060 A 
ATOM     31  C   UNL A   1      38.052  23.898  25.788  1.00  0.00     0.013 A 
BRANCH  30  32
ATOM     32  C   UNL A   1      39.882  22.588  26.931  1.00  0.00     0.416 C 
ATOM     33  F   UNL A   1      40.162  21.332  27.369  1.00  0.00    -0.166 F 
ATOM     34  F   UNL A   1      40.950  22.985  26.186  1.00  0.00    -0.166 F 
ATOM     35  F   UNL A   1      39.886  23.383  28.038  1.00  0.00    -0.166 F 
ENDBRANCH  30  32
ENDBRANCH  24  26
ENDBRANCH  13  16
ENDBRANCH   7  12
ENDBRANCH   3   6
ENDBRANCH   1   2
BRANCH   1  36
ATOM     36  C   UNL A   1      35.151  28.942  26.941  1.00  0.00     0.042 C 
BRANCH  36  37
ATOM     37  C   UNL A   1      35.678  30.186  27.650  1.00  0.00     0.118 C 
BRANCH  37  38
ATOM     38  N   UNL A   1      35.605  30.062  29.099  1.00  0.00    -0.352 N 
ATOM     39  C   UNL A   1      36.558  29.649  29.997  1.00  0.00     0.251 C 
ATOM     40  H   UNL A   1      34.739  30.312  29.496  1.00  0.00     0.163 HD
ATOM     41  O   UNL A   1      36.225  29.408  31.154  1.00  0.00    -0.269 OA
BRANCH  39  42
ATOM     42  C   UNL A   1      37.969  29.483  29.580  1.00  0.00     0.039 A 
ATOM     43  C   UNL A   1      38.931  29.211  30.557  1.00  0.00     0.014 A 
ATOM     44  C   UNL A   1      38.355  29.638  28.245  1.00  0.00     0.014 A 
ATOM     45  C   UNL A   1      40.269  29.040  30.188  1.00  0.00     0.010 A 
ATOM     46  C   UNL A   1      39.675  29.399  27.870  1.00  0.00     0.010 A 
ATOM     47  C   UNL A   1      40.647  29.105  28.838  1.00  0.00    -0.014 A 
BRANCH  47  48
ATOM     48  C   UNL A   1      42.054  28.868  28.418  1.00  0.00     0.031 A 
ATOM     49  C   UNL A   1      42.495  27.498  27.979  1.00  0.00     0.074 A 
ATOM     50  C   UNL A   1      42.947  29.875  28.490  1.00  0.00     0.049 A 
ATOM     51  N   UNL A   1      43.690  27.080  27.648  1.00  0.00    -0.248 NA
ATOM     52  C   UNL A   1      41.459  26.453  27.929  1.00  0.00     0.031 C 
ATOM     53  C   UNL A   1      42.650  31.238  28.938  1.00  0.00     0.029 A 
ATOM     54  N   UNL A   1      44.288  29.908  28.199  1.00  0.00    -0.354 N 
ATOM     55  C   UNL A   1      43.554  25.726  27.364  1.00  0.00     0.074 A 
ATOM     56  C   UNL A   1      42.170  25.380  27.612  1.00  0.00     0.031 C 
ATOM     57  C   UNL A   1      43.769  31.977  28.870  1.00  0.00     0.029 A 
ATOM     58  C   UNL A   1      44.870  31.135  28.414  1.00  0.00     0.049 A 
ATOM     59  H   UNL A   1      44.785  29.126  27.867  1.00  0.00     0.167 HD
ATOM     60  C   UNL A   1      44.491  24.855  26.916  1.00  0.00     0.037 A 
ATOM     61  C   UNL A   1      46.148  31.534  28.267  1.00  0.00     0.037 A 
ATOM     62  C   UNL A   1      45.861  25.212  26.652  1.00  0.00     0.049 A 
ATOM     63  C   UNL A   1      47.173  30.548  27.778  1.00  0.00     0.074 A 
ATOM     64  C   UNL A   1      46.877  24.416  26.151  1.00  0.00     0.029 A 
ATOM     65  N   UNL A   1      46.409  26.468  26.869  1.00  0.00    -0.354 N 
ATOM     66  N   UNL A   1      47.016  29.284  27.464  1.00  0.00    -0.248 NA
ATOM     67  C   UNL A   1      48.548  31.041  27.619  1.00  0.00     0.031 C 
ATOM     68  C   UNL A   1      48.048  25.179  26.104  1.00  0.00     0.029 A 
ATOM     69  C   UNL A   1      47.752  26.465  26.529  1.00  0.00     0.049 A 
ATOM     70  H   UNL A   1      45.915  27.248  27.213  1.00  0.00     0.167 HD
ATOM     71  C   UNL A   1      48.264  28.838  27.043  1.00  0.00     0.074 A 
ATOM     72  C   UNL A   1      49.163  29.971  27.134  1.00  0.00     0.031 C 
ATOM     73  C   UNL A   1      48.632  27.604  26.619  1.00  0.00     0.037 A 
BRANCH  60  74
ATOM     74  C   UNL A   1      44.061  23.432  26.679  1.00  0.00     0.058 A 
ATOM     75  C   UNL A   1      43.971  22.897  25.384  1.00  0.00     0.135 A 
ATOM     76  C   UNL A   1      43.760  22.584  27.758  1.00  0.00     0.135 A 
ATOM     77  F   UNL A   1      44.233  23.664  24.315  1.00  0.00    -0.206 F 
ATOM     78  C   UNL A   1      43.563  21.585  25.165  1.00  0.00     0.059 A 
ATOM     79  C   UNL A   1      43.379  21.260  27.564  1.00  0.00     0.059 A 
ATOM     80  F   UNL A   1      43.832  23.042  29.018  1.00  0.00    -0.206 F 
ATOM     81  C   UNL A   1      43.265  20.774  26.262  1.00  0.00     0.060 A 
BRANCH  81  82
ATOM     82  S   UNL A   1      42.730  19.077  25.960  1.00  0.00     0.124 S 
ATOM     83  O   UNL A   1      42.697  18.538  27.316  1.00  0.00    -0.237 OA
ATOM     84  O   UNL A   1      41.429  19.267  25.324  1.00  0.00    -0.237 OA
ATOM     85  O   UNL A   1      43.774  18.538  25.095  1.00  0.00    -0.744 OA
ENDBRANCH  81  82
ENDBRANCH  60  74
BRANCH  61  86
ATOM     86  C   UNL A   1      46.523  32.943  28.563  1.00  0.00     0.058 A 
ATOM     87  C   UNL A   1      46.492  33.922  27.558  1.00  0.00     0.135 A 
ATOM     88  C   UNL A   1      46.904  33.343  29.853  1.00  0.00     0.135 A 
ATOM     89  F   UNL A   1      46.140  33.587  26.308  1.00  0.00    -0.206 F 
ATOM     90  C   UNL A   1      46.838  35.244  27.817  1.00  0.00     0.059 A 
ATOM     91  C   UNL A   1      47.230  34.664  30.142  1.00  0.00     0.059 A 
ATOM     92  F   UNL A   1      46.934  32.448  30.854  1.00  0.00    -0.206 F 
ATOM     93  C   UNL A   1      47.204  35.606  29.115  1.00  0.00     0.060 A 
BRANCH  93  94
ATOM     94  S   UNL A   1      47.606  37.334  29.450  1.00  0.00     0.124 S 
ATOM     95  O   UNL A   1      48.571  37.621  28.395  1.00  0.00    -0.237 OA
ATOM     96  O   UNL A   1      46.305  37.983  29.321  1.00  0.00    -0.237 OA
ATOM     97  O   UNL A   1      48.147  37.295  30.806  1.00  0.00    -0.744 OA
ENDBRANCH  93  94
ENDBRANCH  61  86
BRANCH  73  98
ATOM     98  C   UNL A   1      50.059  27.419  26.184  1.00  0.00     0.058 A 
ATOM     99  C   UNL A   1      51.071  27.082  27.097  1.00  0.00     0.135 A 
ATOM    100  C   UNL A   1      50.409  27.533  24.829  1.00  0.00     0.135 A 
ATOM    101  F   UNL A   1      50.791  26.968  28.405  1.00  0.00    -0.206 F 
ATOM    102  C   UNL A   1      52.384  26.884  26.684  1.00  0.00     0.059 A 
ATOM    103  C   UNL A   1      51.711  27.313  24.390  1.00  0.00     0.059 A 
ATOM    104  F   UNL A   1      49.477  27.845  23.914  1.00  0.00    -0.206 F 
ATOM    105  C   UNL A   1      52.695  26.999  25.327  1.00  0.00     0.060 A 
BRANCH 105 106
ATOM    106  S   UNL A   1      54.395  26.704  24.799  1.00  0.00     0.124 S 
ATOM    107  O   UNL A   1      54.195  26.103  23.485  1.00  0.00    -0.237 OA
ATOM    108  O   UNL A   1      54.961  28.050  24.801  1.00  0.00    -0.237 OA
ATOM    109  O   UNL A   1      54.920  25.809  25.826  1.00  0.00    -0.744 OA
ENDBRANCH 105 106
ENDBRANCH  73  98
ENDBRANCH  47  48
ENDBRANCH  39  42
ENDBRANCH  37  38
ENDBRANCH  36  37
ENDBRANCH   1  36
TORSDOF 17
ENDMDL
