MODEL 1
REMARK VINA RESULT:     -12.7      0.000      0.000
REMARK SMILES Cc1ccc(C(=O)NCCCNC(=O)c2ccc(-c3c4nc(c(-c5c(F)cc(S(=O)(=O)[O-])cc5F)c5ccc([nH]5)c(-c5c(F)cc(S(=O)(=O)[O-])cc5F)c5nc(c(-c6c(F)cc(S(=O)(=O)[O-])cc6F)c6ccc3[nH]6)C=C5)C=C4)cc2)cc1CNC(=O)C[N@@H+]1CCC[C@]2(CCOC2)C1
REMARK SMILES IDX 9 1 8 2 6 3 7 4 5 6 1 7 2 8 3 9 82 10 4 11 81 12 83 13 84 14
REMARK SMILES IDX 85 15 86 17 87 18 88 19 89 20 97 21 90 23 92 24 91 25 93 26
REMARK SMILES IDX 96 27 94 28 95 29 10 30 11 31 12 32 13 33 14 35 15 36 16 37
REMARK SMILES IDX 80 38 17 39 79 40 18 41 19 42 20 43 73 44 21 45 78 46 72 47
REMARK SMILES IDX 74 48 22 49 77 50 71 51 70 52 23 54 57 55 36 56 56 57 37 58
REMARK SMILES IDX 40 59 55 60 75 61 38 62 39 63 54 65 76 66 41 67 24 68 25 69
REMARK SMILES IDX 34 70 26 71 27 72 33 73 35 74 28 75 29 76 30 77 31 78 32 79
REMARK SMILES IDX 58 80 59 81 68 82 60 83 61 84 67 85 69 86 62 87 63 88 64 89
REMARK SMILES IDX 65 90 66 91 42 92 43 93 52 94 44 95 45 96 51 97 53 98 46 99
REMARK SMILES IDX 47 100 48 101 49 102 50 103
REMARK H PARENT 8 5 84 16 88 22 12 34 74 53 40 64
REMARK Flexibility Score: inf
ROOT
ATOM      1  C   UNL A   1      37.405  23.842  26.135  1.00  0.00     0.118 C 
ENDROOT
BRANCH   1   2
ATOM      2  N   UNL A   1      37.341  23.610  24.684  1.00  0.00    -0.352 N 
ATOM      3  C   UNL A   1      36.597  22.761  23.888  1.00  0.00     0.251 C 
ATOM      4  O   UNL A   1      36.643  22.878  22.663  1.00  0.00    -0.269 OA
ATOM      5  H   UNL A   1      37.958  24.181  24.171  1.00  0.00     0.163 HD
BRANCH   3   6
ATOM      6  C   UNL A   1      35.645  21.775  24.462  1.00  0.00     0.040 A 
ATOM      7  C   UNL A   1      32.824  18.660  25.455  1.00  0.00     0.044 C 
ATOM      8  C   UNL A   1      33.754  19.802  25.146  1.00  0.00    -0.046 A 
ATOM      9  C   UNL A   1      35.113  19.471  24.963  1.00  0.00     0.004 A 
ATOM     10  C   UNL A   1      33.355  21.154  25.047  1.00  0.00    -0.025 A 
ATOM     11  C   UNL A   1      36.044  20.443  24.590  1.00  0.00     0.014 A 
ATOM     12  C   UNL A   1      34.344  22.126  24.810  1.00  0.00     0.019 A 
BRANCH  10  13
ATOM     13  C   UNL A   1      31.919  21.628  24.940  1.00  0.00     0.152 C 
BRANCH  13  14
ATOM     14  N   UNL A   1      31.356  22.101  26.184  1.00  0.00    -0.347 N 
ATOM     15  C   UNL A   1      30.619  23.231  26.403  1.00  0.00     0.275 C 
ATOM     16  H   UNL A   1      31.526  21.539  26.974  1.00  0.00     0.164 HD
ATOM     17  O   UNL A   1      29.966  23.300  27.450  1.00  0.00    -0.268 OA
BRANCH  15  18
ATOM     18  C   UNL A   1      30.598  24.396  25.384  1.00  0.00     0.363 C 
BRANCH  18  19
ATOM     19  N   UNL A   1      31.758  25.274  25.557  1.00  0.00    -0.327 N 
ATOM     20  C   UNL A   1      31.417  26.602  26.093  1.00  0.00     0.262 C 
ATOM     21  C   UNL A   1      32.720  25.337  24.450  1.00  0.00     0.272 C 
ATOM     22  H   UNL A   1      32.283  24.781  26.280  1.00  0.00     0.348 HD
ATOM     23  C   UNL A   1      31.058  27.673  25.098  1.00  0.00     0.062 C 
ATOM     24  C   UNL A   1      32.513  26.480  23.417  1.00  0.00     0.045 C 
ATOM     25  C   UNL A   1      32.206  27.810  24.106  1.00  0.00     0.021 C 
ATOM     26  C   UNL A   1      31.412  26.143  22.417  1.00  0.00     0.043 C 
ATOM     27  C   UNL A   1      33.761  26.619  22.540  1.00  0.00     0.173 C 
ATOM     28  C   UNL A   1      32.133  25.911  21.107  1.00  0.00     0.161 C 
ATOM     29  O   UNL A   1      33.523  25.779  21.408  1.00  0.00    -0.381 OA
ENDBRANCH  18  19
ENDBRANCH  15  18
ENDBRANCH  13  14
ENDBRANCH  10  13
ENDBRANCH   3   6
ENDBRANCH   1   2
BRANCH   1  30
ATOM     30  C   UNL A   1      38.857  24.020  26.732  1.00  0.00     0.042 C 
BRANCH  30  31
ATOM     31  C   UNL A   1      39.706  22.619  26.914  1.00  0.00     0.118 C 
BRANCH  31  32
ATOM     32  N   UNL A   1      40.942  21.723  26.285  1.00  0.00    -0.352 N 
ATOM     33  C   UNL A   1      42.356  21.572  25.815  1.00  0.00     0.251 C 
ATOM     34  H   UNL A   1      40.548  20.830  26.153  1.00  0.00     0.163 HD
ATOM     35  O   UNL A   1      42.754  20.416  26.090  1.00  0.00    -0.269 OA
BRANCH  33  36
ATOM     36  C   UNL A   1      43.612  22.487  25.230  1.00  0.00     0.039 A 
ATOM     37  C   UNL A   1      44.976  22.029  25.304  1.00  0.00     0.014 A 
ATOM     38  C   UNL A   1      43.578  23.794  24.772  1.00  0.00     0.014 A 
ATOM     39  C   UNL A   1      46.050  22.953  25.664  1.00  0.00     0.010 A 
ATOM     40  C   UNL A   1      44.658  24.697  25.032  1.00  0.00     0.010 A 
ATOM     41  C   UNL A   1      45.791  24.326  25.753  1.00  0.00    -0.014 A 
BRANCH  41  42
ATOM     42  C   UNL A   1      46.445  25.369  26.651  1.00  0.00     0.031 A 
ATOM     43  C   UNL A   1      47.773  25.191  27.248  1.00  0.00     0.074 A 
ATOM     44  C   UNL A   1      46.118  26.692  26.766  1.00  0.00     0.049 A 
ATOM     45  N   UNL A   1      48.049  25.175  28.516  1.00  0.00    -0.248 NA
ATOM     46  C   UNL A   1      48.928  25.278  26.363  1.00  0.00     0.031 C 
ATOM     47  C   UNL A   1      46.744  27.817  27.493  1.00  0.00     0.029 A 
ATOM     48  N   UNL A   1      45.042  27.355  26.229  1.00  0.00    -0.354 N 
ATOM     49  C   UNL A   1      49.393  25.513  28.590  1.00  0.00     0.074 A 
ATOM     50  C   UNL A   1      49.924  25.355  27.244  1.00  0.00     0.031 C 
ATOM     51  C   UNL A   1      45.824  28.788  27.695  1.00  0.00     0.029 A 
ATOM     52  C   UNL A   1      44.581  28.320  27.128  1.00  0.00     0.049 A 
ATOM     53  H   UNL A   1      44.653  27.177  25.342  1.00  0.00     0.167 HD
ATOM     54  C   UNL A   1      49.915  26.322  29.566  1.00  0.00     0.037 A 
ATOM     55  C   UNL A   1      43.360  28.143  27.725  1.00  0.00     0.037 A 
ATOM     56  C   UNL A   1      48.875  27.096  30.255  1.00  0.00     0.049 A 
ATOM     57  C   UNL A   1      43.452  27.863  29.185  1.00  0.00     0.074 A 
ATOM     58  C   UNL A   1      48.587  28.457  30.251  1.00  0.00     0.029 A 
ATOM     59  N   UNL A   1      47.776  26.480  30.840  1.00  0.00    -0.354 N 
ATOM     60  N   UNL A   1      44.596  27.807  29.784  1.00  0.00    -0.248 NA
ATOM     61  C   UNL A   1      42.339  27.551  30.077  1.00  0.00     0.031 C 
ATOM     62  C   UNL A   1      47.305  28.651  30.813  1.00  0.00     0.029 A 
ATOM     63  C   UNL A   1      46.805  27.411  31.166  1.00  0.00     0.049 A 
ATOM     64  H   UNL A   1      47.698  25.512  31.001  1.00  0.00     0.167 HD
ATOM     65  C   UNL A   1      44.436  27.327  31.043  1.00  0.00     0.074 A 
ATOM     66  C   UNL A   1      42.998  27.263  31.217  1.00  0.00     0.031 C 
ATOM     67  C   UNL A   1      45.541  27.000  31.767  1.00  0.00     0.037 A 
BRANCH  54  68
ATOM     68  C   UNL A   1      51.396  26.693  29.608  1.00  0.00     0.058 A 
ATOM     69  C   UNL A   1      51.957  27.698  28.791  1.00  0.00     0.135 A 
ATOM     70  C   UNL A   1      52.308  26.110  30.519  1.00  0.00     0.135 A 
ATOM     71  F   UNL A   1      51.204  28.459  27.987  1.00  0.00    -0.206 F 
ATOM     72  C   UNL A   1      53.319  28.011  28.793  1.00  0.00     0.059 A 
ATOM     73  C   UNL A   1      53.683  26.363  30.501  1.00  0.00     0.059 A 
ATOM     74  F   UNL A   1      51.885  25.297  31.500  1.00  0.00    -0.206 F 
ATOM     75  C   UNL A   1      54.180  27.325  29.636  1.00  0.00     0.060 A 
BRANCH  75  76
ATOM     76  S   UNL A   1      55.924  27.773  29.653  1.00  0.00     0.124 S 
ATOM     77  O   UNL A   1      56.404  27.123  30.868  1.00  0.00    -0.237 OA
ATOM     78  O   UNL A   1      56.394  27.197  28.397  1.00  0.00    -0.237 OA
ATOM     79  O   UNL A   1      55.901  29.233  29.699  1.00  0.00    -0.744 OA
ENDBRANCH  75  76
ENDBRANCH  54  68
BRANCH  55  80
ATOM     80  C   UNL A   1      42.279  27.576  26.847  1.00  0.00     0.058 A 
ATOM     81  C   UNL A   1      41.496  26.643  27.509  1.00  0.00     0.135 A 
ATOM     82  C   UNL A   1      41.502  28.501  26.185  1.00  0.00     0.135 A 
ATOM     83  F   UNL A   1      41.736  25.339  27.343  1.00  0.00    -0.206 F 
ATOM     84  C   UNL A   1      40.286  27.008  28.087  1.00  0.00     0.059 A 
ATOM     85  C   UNL A   1      40.245  28.823  26.709  1.00  0.00     0.059 A 
ATOM     86  F   UNL A   1      41.991  29.220  25.162  1.00  0.00    -0.206 F 
ATOM     87  C   UNL A   1      39.787  28.286  27.896  1.00  0.00     0.060 A 
BRANCH  87  88
ATOM     88  S   UNL A   1      38.609  29.138  29.309  1.00  0.00     0.124 S 
ATOM     89  O   UNL A   1      38.769  28.363  30.559  1.00  0.00    -0.237 OA
ATOM     90  O   UNL A   1      39.240  30.465  29.410  1.00  0.00    -0.237 OA
ATOM     91  O   UNL A   1      37.314  29.183  28.756  1.00  0.00    -0.744 OA
ENDBRANCH  87  88
ENDBRANCH  55  80
BRANCH  67  92
ATOM     92  C   UNL A   1      45.548  26.361  33.117  1.00  0.00     0.058 A 
ATOM     93  C   UNL A   1      45.819  27.033  34.317  1.00  0.00     0.135 A 
ATOM     94  C   UNL A   1      45.179  24.999  33.232  1.00  0.00     0.135 A 
ATOM     95  F   UNL A   1      46.061  28.350  34.347  1.00  0.00    -0.206 F 
ATOM     96  C   UNL A   1      45.818  26.374  35.544  1.00  0.00     0.059 A 
ATOM     97  C   UNL A   1      45.107  24.343  34.449  1.00  0.00     0.059 A 
ATOM     98  F   UNL A   1      44.877  24.256  32.157  1.00  0.00    -0.206 F 
ATOM     99  C   UNL A   1      45.470  25.027  35.597  1.00  0.00     0.060 A 
BRANCH  99 100
ATOM    100  S   UNL A   1      45.474  24.166  37.173  1.00  0.00     0.124 S 
ATOM    101  O   UNL A   1      45.310  22.781  36.743  1.00  0.00    -0.237 OA
ATOM    102  O   UNL A   1      46.785  24.506  37.720  1.00  0.00    -0.237 OA
ATOM    103  O   UNL A   1      44.338  24.750  37.879  1.00  0.00    -0.744 OA
ENDBRANCH  99 100
ENDBRANCH  67  92
ENDBRANCH  41  42
ENDBRANCH  33  36
ENDBRANCH  31  32
ENDBRANCH  30  31
ENDBRANCH   1  30
TORSDOF 17
ENDMDL
MODEL 2
REMARK VINA RESULT:     -12.5      3.835      7.385
REMARK SMILES Cc1ccc(C(=O)NCCCNC(=O)c2ccc(-c3c4nc(c(-c5c(F)cc(S(=O)(=O)[O-])cc5F)c5ccc([nH]5)c(-c5c(F)cc(S(=O)(=O)[O-])cc5F)c5nc(c(-c6c(F)cc(S(=O)(=O)[O-])cc6F)c6ccc3[nH]6)C=C5)C=C4)cc2)cc1CNC(=O)C[N@@H+]1CCC[C@]2(CCOC2)C1
REMARK SMILES IDX 9 1 8 2 6 3 7 4 5 6 1 7 2 8 3 9 82 10 4 11 81 12 83 13 84 14
REMARK SMILES IDX 85 15 86 17 87 18 88 19 89 20 97 21 90 23 92 24 91 25 93 26
REMARK SMILES IDX 96 27 94 28 95 29 10 30 11 31 12 32 13 33 14 35 15 36 16 37
REMARK SMILES IDX 80 38 17 39 79 40 18 41 19 42 20 43 73 44 21 45 78 46 72 47
REMARK SMILES IDX 74 48 22 49 77 50 71 51 70 52 23 54 57 55 36 56 56 57 37 58
REMARK SMILES IDX 40 59 55 60 75 61 38 62 39 63 54 65 76 66 41 67 24 68 25 69
REMARK SMILES IDX 34 70 26 71 27 72 33 73 35 74 28 75 29 76 30 77 31 78 32 79
REMARK SMILES IDX 58 80 59 81 68 82 60 83 61 84 67 85 69 86 62 87 63 88 64 89
REMARK SMILES IDX 65 90 66 91 42 92 43 93 52 94 44 95 45 96 51 97 53 98 46 99
REMARK SMILES IDX 47 100 48 101 49 102 50 103
REMARK H PARENT 8 5 84 16 88 22 12 34 74 53 40 64
REMARK Flexibility Score: inf
ROOT
ATOM      1  C   UNL A   1      38.158  22.866  26.151  1.00  0.00     0.118 C 
ENDROOT
BRANCH   1   2
ATOM      2  N   UNL A   1      37.720  23.163  24.778  1.00  0.00    -0.352 N 
ATOM      3  C   UNL A   1      36.634  22.768  24.019  1.00  0.00     0.251 C 
ATOM      4  O   UNL A   1      36.435  23.293  22.924  1.00  0.00    -0.269 OA
ATOM      5  H   UNL A   1      38.327  23.772  24.299  1.00  0.00     0.163 HD
BRANCH   3   6
ATOM      6  C   UNL A   1      35.624  21.806  24.530  1.00  0.00     0.040 A 
ATOM      7  C   UNL A   1      32.670  18.762  25.335  1.00  0.00     0.044 C 
ATOM      8  C   UNL A   1      33.645  19.880  25.088  1.00  0.00    -0.046 A 
ATOM      9  C   UNL A   1      35.004  19.515  24.988  1.00  0.00     0.004 A 
ATOM     10  C   UNL A   1      33.288  21.242  24.971  1.00  0.00    -0.025 A 
ATOM     11  C   UNL A   1      35.981  20.463  24.678  1.00  0.00     0.014 A 
ATOM     12  C   UNL A   1      34.314  22.189  24.799  1.00  0.00     0.019 A 
BRANCH  10  13
ATOM     13  C   UNL A   1      31.874  21.753  24.777  1.00  0.00     0.152 C 
BRANCH  13  14
ATOM     14  N   UNL A   1      31.131  21.924  26.004  1.00  0.00    -0.347 N 
ATOM     15  C   UNL A   1      30.909  23.076  26.706  1.00  0.00     0.275 C 
ATOM     16  H   UNL A   1      30.735  21.106  26.384  1.00  0.00     0.164 HD
ATOM     17  O   UNL A   1      29.999  23.077  27.542  1.00  0.00    -0.268 OA
BRANCH  15  18
ATOM     18  C   UNL A   1      31.766  24.344  26.474  1.00  0.00     0.363 C 
BRANCH  18  19
ATOM     19  N   UNL A   1      31.048  25.329  25.662  1.00  0.00    -0.327 N 
ATOM     20  C   UNL A   1      31.385  25.268  24.229  1.00  0.00     0.262 C 
ATOM     21  C   UNL A   1      30.987  26.702  26.174  1.00  0.00     0.272 C 
ATOM     22  H   UNL A   1      30.083  25.011  25.759  1.00  0.00     0.348 HD
ATOM     23  C   UNL A   1      32.553  26.094  23.764  1.00  0.00     0.062 C 
ATOM     24  C   UNL A   1      32.085  27.679  25.670  1.00  0.00     0.045 C 
ATOM     25  C   UNL A   1      32.306  27.543  24.163  1.00  0.00     0.021 C 
ATOM     26  C   UNL A   1      33.402  27.480  26.412  1.00  0.00     0.043 C 
ATOM     27  C   UNL A   1      31.696  29.120  26.014  1.00  0.00     0.173 C 
ATOM     28  C   UNL A   1      33.555  28.715  27.273  1.00  0.00     0.161 C 
ATOM     29  O   UNL A   1      32.289  29.377  27.289  1.00  0.00    -0.381 OA
ENDBRANCH  18  19
ENDBRANCH  15  18
ENDBRANCH  13  14
ENDBRANCH  10  13
ENDBRANCH   3   6
ENDBRANCH   1   2
BRANCH   1  30
ATOM     30  C   UNL A   1      39.610  23.365  26.525  1.00  0.00     0.042 C 
BRANCH  30  31
ATOM     31  C   UNL A   1      39.662  24.521  27.697  1.00  0.00     0.118 C 
BRANCH  31  32
ATOM     32  N   UNL A   1      39.255  26.085  28.041  1.00  0.00    -0.352 N 
ATOM     33  C   UNL A   1      39.499  27.560  27.957  1.00  0.00     0.251 C 
ATOM     34  H   UNL A   1      38.430  26.007  28.573  1.00  0.00     0.163 HD
ATOM     35  O   UNL A   1      38.395  28.151  27.907  1.00  0.00    -0.269 OA
BRANCH  33  36
ATOM     36  C   UNL A   1      40.738  28.639  27.717  1.00  0.00     0.039 A 
ATOM     37  C   UNL A   1      41.422  28.731  26.453  1.00  0.00     0.014 A 
ATOM     38  C   UNL A   1      41.373  29.436  28.655  1.00  0.00     0.014 A 
ATOM     39  C   UNL A   1      42.874  28.892  26.405  1.00  0.00     0.010 A 
ATOM     40  C   UNL A   1      42.781  29.685  28.582  1.00  0.00     0.010 A 
ATOM     41  C   UNL A   1      43.588  29.148  27.582  1.00  0.00    -0.014 A 
BRANCH  41  42
ATOM     42  C   UNL A   1      45.014  28.751  27.944  1.00  0.00     0.031 A 
ATOM     43  C   UNL A   1      46.087  29.727  28.161  1.00  0.00     0.074 A 
ATOM     44  C   UNL A   1      45.442  27.553  28.447  1.00  0.00     0.049 A 
ATOM     45  N   UNL A   1      47.194  29.813  27.491  1.00  0.00    -0.248 NA
ATOM     46  C   UNL A   1      46.036  30.525  29.380  1.00  0.00     0.031 C 
ATOM     47  C   UNL A   1      46.753  27.091  28.950  1.00  0.00     0.029 A 
ATOM     48  N   UNL A   1      44.731  26.388  28.599  1.00  0.00    -0.354 N 
ATOM     49  C   UNL A   1      48.072  30.471  28.340  1.00  0.00     0.074 A 
ATOM     50  C   UNL A   1      47.254  31.066  29.386  1.00  0.00     0.031 C 
ATOM     51  C   UNL A   1      46.808  25.742  28.887  1.00  0.00     0.029 A 
ATOM     52  C   UNL A   1      45.554  25.291  28.331  1.00  0.00     0.049 A 
ATOM     53  H   UNL A   1      43.783  26.333  28.858  1.00  0.00     0.167 HD
ATOM     54  C   UNL A   1      49.400  30.146  28.452  1.00  0.00     0.037 A 
ATOM     55  C   UNL A   1      45.315  24.539  27.209  1.00  0.00     0.037 A 
ATOM     56  C   UNL A   1      49.691  28.815  27.905  1.00  0.00     0.049 A 
ATOM     57  C   UNL A   1      46.374  24.676  26.171  1.00  0.00     0.074 A 
ATOM     58  C   UNL A   1      50.062  27.627  28.526  1.00  0.00     0.029 A 
ATOM     59  N   UNL A   1      49.337  28.468  26.607  1.00  0.00    -0.354 N 
ATOM     60  N   UNL A   1      47.401  25.438  26.359  1.00  0.00    -0.248 NA
ATOM     61  C   UNL A   1      46.365  24.069  24.842  1.00  0.00     0.031 C 
ATOM     62  C   UNL A   1      49.908  26.567  27.605  1.00  0.00     0.029 A 
ATOM     63  C   UNL A   1      49.445  27.102  26.417  1.00  0.00     0.049 A 
ATOM     64  H   UNL A   1      49.048  29.107  25.917  1.00  0.00     0.167 HD
ATOM     65  C   UNL A   1      48.099  25.568  25.203  1.00  0.00     0.074 A 
ATOM     66  C   UNL A   1      47.467  24.624  24.301  1.00  0.00     0.031 C 
ATOM     67  C   UNL A   1      49.097  26.491  25.138  1.00  0.00     0.037 A 
BRANCH  54  68
ATOM     68  C   UNL A   1      50.338  30.876  29.412  1.00  0.00     0.058 A 
ATOM     69  C   UNL A   1      50.509  30.486  30.758  1.00  0.00     0.135 A 
ATOM     70  C   UNL A   1      51.161  31.954  29.012  1.00  0.00     0.135 A 
ATOM     71  F   UNL A   1      49.927  29.388  31.257  1.00  0.00    -0.206 F 
ATOM     72  C   UNL A   1      51.330  31.176  31.654  1.00  0.00     0.059 A 
ATOM     73  C   UNL A   1      51.945  32.696  29.900  1.00  0.00     0.059 A 
ATOM     74  F   UNL A   1      51.269  32.302  27.719  1.00  0.00    -0.206 F 
ATOM     75  C   UNL A   1      52.029  32.293  31.223  1.00  0.00     0.060 A 
BRANCH  75  76
ATOM     76  S   UNL A   1      53.115  33.142  32.382  1.00  0.00     0.124 S 
ATOM     77  O   UNL A   1      54.131  32.131  32.660  1.00  0.00    -0.237 OA
ATOM     78  O   UNL A   1      53.558  34.287  31.593  1.00  0.00    -0.237 OA
ATOM     79  O   UNL A   1      52.235  33.461  33.503  1.00  0.00    -0.744 OA
ENDBRANCH  75  76
ENDBRANCH  54  68
BRANCH  55  80
ATOM     80  C   UNL A   1      43.868  24.299  26.880  1.00  0.00     0.058 A 
ATOM     81  C   UNL A   1      43.645  24.213  25.514  1.00  0.00     0.135 A 
ATOM     82  C   UNL A   1      43.268  23.255  27.551  1.00  0.00     0.135 A 
ATOM     83  F   UNL A   1      43.187  25.278  24.849  1.00  0.00    -0.206 F 
ATOM     84  C   UNL A   1      43.585  22.980  24.876  1.00  0.00     0.059 A 
ATOM     85  C   UNL A   1      43.127  22.027  26.895  1.00  0.00     0.059 A 
ATOM     86  F   UNL A   1      42.982  23.339  28.859  1.00  0.00    -0.206 F 
ATOM     87  C   UNL A   1      43.621  21.814  25.624  1.00  0.00     0.060 A 
BRANCH  87  88
ATOM     88  S   UNL A   1      44.395  20.119  24.825  1.00  0.00     0.124 S 
ATOM     89  O   UNL A   1      44.520  20.323  23.365  1.00  0.00    -0.237 OA
ATOM     90  O   UNL A   1      45.713  20.098  25.484  1.00  0.00    -0.237 OA
ATOM     91  O   UNL A   1      43.550  19.072  25.246  1.00  0.00    -0.744 OA
ENDBRANCH  87  88
ENDBRANCH  55  80
BRANCH  67  92
ATOM     92  C   UNL A   1      49.890  26.841  23.922  1.00  0.00     0.058 A 
ATOM     93  C   UNL A   1      49.355  27.400  22.753  1.00  0.00     0.135 A 
ATOM     94  C   UNL A   1      51.297  26.685  23.953  1.00  0.00     0.135 A 
ATOM     95  F   UNL A   1      48.055  27.708  22.652  1.00  0.00    -0.206 F 
ATOM     96  C   UNL A   1      50.150  27.695  21.650  1.00  0.00     0.059 A 
ATOM     97  C   UNL A   1      52.113  27.034  22.891  1.00  0.00     0.059 A 
ATOM     98  F   UNL A   1      51.928  26.179  25.023  1.00  0.00    -0.206 F 
ATOM     99  C   UNL A   1      51.527  27.500  21.726  1.00  0.00     0.060 A 
BRANCH  99 100
ATOM    100  S   UNL A   1      52.561  27.870  20.305  1.00  0.00     0.124 S 
ATOM    101  O   UNL A   1      53.501  28.828  20.877  1.00  0.00    -0.237 OA
ATOM    102  O   UNL A   1      53.119  26.564  19.966  1.00  0.00    -0.237 OA
ATOM    103  O   UNL A   1      51.617  28.412  19.333  1.00  0.00    -0.744 OA
ENDBRANCH  99 100
ENDBRANCH  67  92
ENDBRANCH  41  42
ENDBRANCH  33  36
ENDBRANCH  31  32
ENDBRANCH  30  31
ENDBRANCH   1  30
TORSDOF 17
ENDMDL
MODEL 3
REMARK VINA RESULT:     -12.5      1.866      2.726
REMARK SMILES Cc1ccc(C(=O)NCCCNC(=O)c2ccc(-c3c4nc(c(-c5c(F)cc(S(=O)(=O)[O-])cc5F)c5ccc([nH]5)c(-c5c(F)cc(S(=O)(=O)[O-])cc5F)c5nc(c(-c6c(F)cc(S(=O)(=O)[O-])cc6F)c6ccc3[nH]6)C=C5)C=C4)cc2)cc1CNC(=O)C[N@@H+]1CCC[C@]2(CCOC2)C1
REMARK SMILES IDX 9 1 8 2 6 3 7 4 5 6 1 7 2 8 3 9 82 10 4 11 81 12 83 13 84 14
REMARK SMILES IDX 85 15 86 17 87 18 88 19 89 20 97 21 90 23 92 24 91 25 93 26
REMARK SMILES IDX 96 27 94 28 95 29 10 30 11 31 12 32 13 33 14 35 15 36 16 37
REMARK SMILES IDX 80 38 17 39 79 40 18 41 19 42 20 43 73 44 21 45 78 46 72 47
REMARK SMILES IDX 74 48 22 49 77 50 71 51 70 52 23 54 57 55 36 56 56 57 37 58
REMARK SMILES IDX 40 59 55 60 75 61 38 62 39 63 54 65 76 66 41 67 24 68 25 69
REMARK SMILES IDX 34 70 26 71 27 72 33 73 35 74 28 75 29 76 30 77 31 78 32 79
REMARK SMILES IDX 58 80 59 81 68 82 60 83 61 84 67 85 69 86 62 87 63 88 64 89
REMARK SMILES IDX 65 90 66 91 42 92 43 93 52 94 44 95 45 96 51 97 53 98 46 99
REMARK SMILES IDX 47 100 48 101 49 102 50 103
REMARK H PARENT 8 5 84 16 88 22 12 34 74 53 40 64
REMARK Flexibility Score: inf
ROOT
ATOM      1  C   UNL A   1      37.106  23.683  25.949  1.00  0.00     0.118 C 
ENDROOT
BRANCH   1   2
ATOM      2  N   UNL A   1      37.251  23.231  24.556  1.00  0.00    -0.352 N 
ATOM      3  C   UNL A   1      36.364  23.086  23.506  1.00  0.00     0.251 C 
ATOM      4  O   UNL A   1      36.791  22.816  22.384  1.00  0.00    -0.269 OA
ATOM      5  H   UNL A   1      38.173  22.977  24.323  1.00  0.00     0.163 HD
BRANCH   3   6
ATOM      6  C   UNL A   1      34.912  23.358  23.658  1.00  0.00     0.040 A 
ATOM      7  C   UNL A   1      30.619  23.788  23.478  1.00  0.00     0.044 C 
ATOM      8  C   UNL A   1      32.120  23.723  23.548  1.00  0.00    -0.046 A 
ATOM      9  C   UNL A   1      32.676  22.503  23.985  1.00  0.00     0.004 A 
ATOM     10  C   UNL A   1      32.983  24.795  23.225  1.00  0.00    -0.025 A 
ATOM     11  C   UNL A   1      34.058  22.310  24.007  1.00  0.00     0.014 A 
ATOM     12  C   UNL A   1      34.368  24.612  23.394  1.00  0.00     0.019 A 
BRANCH  10  13
ATOM     13  C   UNL A   1      32.565  26.051  22.486  1.00  0.00     0.152 C 
BRANCH  13  14
ATOM     14  N   UNL A   1      33.267  27.244  22.900  1.00  0.00    -0.347 N 
ATOM     15  C   UNL A   1      32.762  28.499  23.094  1.00  0.00     0.275 C 
ATOM     16  H   UNL A   1      34.233  27.140  23.062  1.00  0.00     0.164 HD
ATOM     17  O   UNL A   1      33.441  29.300  23.745  1.00  0.00    -0.268 OA
BRANCH  15  18
ATOM     18  C   UNL A   1      31.388  28.918  22.518  1.00  0.00     0.363 C 
BRANCH  18  19
ATOM     19  N   UNL A   1      30.399  29.101  23.582  1.00  0.00    -0.327 N 
ATOM     20  C   UNL A   1      29.477  27.962  23.733  1.00  0.00     0.262 C 
ATOM     21  C   UNL A   1      29.715  30.398  23.644  1.00  0.00     0.272 C 
ATOM     22  H   UNL A   1      30.992  29.122  24.413  1.00  0.00     0.348 HD
ATOM     23  C   UNL A   1      28.226  27.977  22.898  1.00  0.00     0.062 C 
ATOM     24  C   UNL A   1      28.350  30.497  22.908  1.00  0.00     0.045 C 
ATOM     25  C   UNL A   1      27.476  29.272  23.181  1.00  0.00     0.021 C 
ATOM     26  C   UNL A   1      28.532  30.685  21.406  1.00  0.00     0.043 C 
ATOM     27  C   UNL A   1      27.618  31.771  23.342  1.00  0.00     0.173 C 
ATOM     28  C   UNL A   1      28.092  32.108  21.136  1.00  0.00     0.161 C 
ATOM     29  O   UNL A   1      28.010  32.771  22.398  1.00  0.00    -0.381 OA
ENDBRANCH  18  19
ENDBRANCH  15  18
ENDBRANCH  13  14
ENDBRANCH  10  13
ENDBRANCH   3   6
ENDBRANCH   1   2
BRANCH   1  30
ATOM     30  C   UNL A   1      38.425  24.227  26.628  1.00  0.00     0.042 C 
BRANCH  30  31
ATOM     31  C   UNL A   1      39.539  23.070  26.997  1.00  0.00     0.118 C 
BRANCH  31  32
ATOM     32  N   UNL A   1      40.668  22.055  26.345  1.00  0.00    -0.352 N 
ATOM     33  C   UNL A   1      42.060  21.757  25.877  1.00  0.00     0.251 C 
ATOM     34  H   UNL A   1      40.175  21.220  26.182  1.00  0.00     0.163 HD
ATOM     35  O   UNL A   1      42.318  20.554  26.117  1.00  0.00    -0.269 OA
BRANCH  33  36
ATOM     36  C   UNL A   1      43.418  22.537  25.328  1.00  0.00     0.039 A 
ATOM     37  C   UNL A   1      44.736  21.993  25.536  1.00  0.00     0.014 A 
ATOM     38  C   UNL A   1      43.513  23.806  24.781  1.00  0.00     0.014 A 
ATOM     39  C   UNL A   1      45.847  22.864  25.912  1.00  0.00     0.010 A 
ATOM     40  C   UNL A   1      44.637  24.649  25.060  1.00  0.00     0.010 A 
ATOM     41  C   UNL A   1      45.685  24.255  25.888  1.00  0.00    -0.014 A 
BRANCH  41  42
ATOM     42  C   UNL A   1      46.350  25.313  26.760  1.00  0.00     0.031 A 
ATOM     43  C   UNL A   1      47.674  25.135  27.365  1.00  0.00     0.074 A 
ATOM     44  C   UNL A   1      46.038  26.642  26.840  1.00  0.00     0.049 A 
ATOM     45  N   UNL A   1      47.948  25.148  28.632  1.00  0.00    -0.248 NA
ATOM     46  C   UNL A   1      48.832  25.185  26.479  1.00  0.00     0.031 C 
ATOM     47  C   UNL A   1      46.676  27.778  27.539  1.00  0.00     0.029 A 
ATOM     48  N   UNL A   1      44.971  27.304  26.283  1.00  0.00    -0.354 N 
ATOM     49  C   UNL A   1      49.296  25.472  28.700  1.00  0.00     0.074 A 
ATOM     50  C   UNL A   1      49.827  25.273  27.361  1.00  0.00     0.031 C 
ATOM     51  C   UNL A   1      45.767  28.764  27.713  1.00  0.00     0.029 A 
ATOM     52  C   UNL A   1      44.520  28.297  27.156  1.00  0.00     0.049 A 
ATOM     53  H   UNL A   1      44.581  27.107  25.401  1.00  0.00     0.167 HD
ATOM     54  C   UNL A   1      49.825  26.301  29.656  1.00  0.00     0.037 A 
ATOM     55  C   UNL A   1      43.296  28.150  27.755  1.00  0.00     0.037 A 
ATOM     56  C   UNL A   1      48.794  27.105  30.323  1.00  0.00     0.049 A 
ATOM     57  C   UNL A   1      43.382  27.906  29.222  1.00  0.00     0.074 A 
ATOM     58  C   UNL A   1      48.522  28.468  30.283  1.00  0.00     0.029 A 
ATOM     59  N   UNL A   1      47.686  26.516  30.922  1.00  0.00    -0.354 N 
ATOM     60  N   UNL A   1      44.524  27.853  29.825  1.00  0.00    -0.248 NA
ATOM     61  C   UNL A   1      42.263  27.631  30.120  1.00  0.00     0.031 C 
ATOM     62  C   UNL A   1      47.241  28.691  30.837  1.00  0.00     0.029 A 
ATOM     63  C   UNL A   1      46.726  27.467  31.221  1.00  0.00     0.049 A 
ATOM     64  H   UNL A   1      47.597  25.554  31.107  1.00  0.00     0.167 HD
ATOM     65  C   UNL A   1      44.356  27.408  31.096  1.00  0.00     0.074 A 
ATOM     66  C   UNL A   1      42.917  27.365  31.268  1.00  0.00     0.031 C 
ATOM     67  C   UNL A   1      45.456  27.087  31.830  1.00  0.00     0.037 A 
BRANCH  54  68
ATOM     68  C   UNL A   1      51.311  26.655  29.692  1.00  0.00     0.058 A 
ATOM     69  C   UNL A   1      51.876  27.667  28.886  1.00  0.00     0.135 A 
ATOM     70  C   UNL A   1      52.224  26.049  30.586  1.00  0.00     0.135 A 
ATOM     71  F   UNL A   1      51.125  28.448  28.100  1.00  0.00    -0.206 F 
ATOM     72  C   UNL A   1      53.241  27.965  28.880  1.00  0.00     0.059 A 
ATOM     73  C   UNL A   1      53.601  26.287  30.560  1.00  0.00     0.059 A 
ATOM     74  F   UNL A   1      51.800  25.225  31.558  1.00  0.00    -0.206 F 
ATOM     75  C   UNL A   1      54.102  27.257  29.706  1.00  0.00     0.060 A 
BRANCH  75  76
ATOM     76  S   UNL A   1      55.850  27.686  29.715  1.00  0.00     0.124 S 
ATOM     77  O   UNL A   1      56.144  27.779  31.142  1.00  0.00    -0.237 OA
ATOM     78  O   UNL A   1      56.442  26.549  29.019  1.00  0.00    -0.237 OA
ATOM     79  O   UNL A   1      55.895  28.953  28.990  1.00  0.00    -0.744 OA
ENDBRANCH  75  76
ENDBRANCH  54  68
BRANCH  55  80
ATOM     80  C   UNL A   1      42.210  27.572  26.890  1.00  0.00     0.058 A 
ATOM     81  C   UNL A   1      41.443  26.633  27.561  1.00  0.00     0.135 A 
ATOM     82  C   UNL A   1      41.416  28.491  26.237  1.00  0.00     0.135 A 
ATOM     83  F   UNL A   1      41.693  25.330  27.392  1.00  0.00    -0.206 F 
ATOM     84  C   UNL A   1      40.237  26.986  28.154  1.00  0.00     0.059 A 
ATOM     85  C   UNL A   1      40.162  28.801  26.776  1.00  0.00     0.059 A 
ATOM     86  F   UNL A   1      41.886  29.214  25.208  1.00  0.00    -0.206 F 
ATOM     87  C   UNL A   1      39.724  28.260  27.969  1.00  0.00     0.060 A 
BRANCH  87  88
ATOM     88  S   UNL A   1      38.555  29.100  29.396  1.00  0.00     0.124 S 
ATOM     89  O   UNL A   1      37.184  29.211  28.850  1.00  0.00    -0.237 OA
ATOM     90  O   UNL A   1      38.639  28.069  30.444  1.00  0.00    -0.237 OA
ATOM     91  O   UNL A   1      39.191  30.306  29.755  1.00  0.00    -0.744 OA
ENDBRANCH  87  88
ENDBRANCH  55  80
BRANCH  67  92
ATOM     92  C   UNL A   1      45.453  26.483  33.196  1.00  0.00     0.058 A 
ATOM     93  C   UNL A   1      45.573  27.208  34.390  1.00  0.00     0.135 A 
ATOM     94  C   UNL A   1      45.234  25.091  33.329  1.00  0.00     0.135 A 
ATOM     95  F   UNL A   1      45.662  28.545  34.395  1.00  0.00    -0.206 F 
ATOM     96  C   UNL A   1      45.572  26.581  35.633  1.00  0.00     0.059 A 
ATOM     97  C   UNL A   1      45.163  24.458  34.559  1.00  0.00     0.059 A 
ATOM     98  F   UNL A   1      45.085  24.294  32.261  1.00  0.00    -0.206 F 
ATOM     99  C   UNL A   1      45.376  25.205  35.705  1.00  0.00     0.060 A 
BRANCH  99 100
ATOM    100  S   UNL A   1      45.381  24.385  37.303  1.00  0.00     0.124 S 
ATOM    101  O   UNL A   1      44.208  24.982  37.935  1.00  0.00    -0.237 OA
ATOM    102  O   UNL A   1      45.255  22.977  36.941  1.00  0.00    -0.237 OA
ATOM    103  O   UNL A   1      46.670  24.766  37.873  1.00  0.00    -0.744 OA
ENDBRANCH  99 100
ENDBRANCH  67  92
ENDBRANCH  41  42
ENDBRANCH  33  36
ENDBRANCH  31  32
ENDBRANCH  30  31
ENDBRANCH   1  30
TORSDOF 17
ENDMDL
