MODEL 1
REMARK VINA RESULT:     -12.1      0.000      0.000
REMARK SMILES CC(=O)c1nnn(-c2ccc(C(=O)NCCCNC(=O)c3ccc(-c4c5nc(c(-c6c(F)cc(S(=O)(=O)[O-])cc6F)c6ccc([nH]6)c(-c6c(F)cc(S(=O)(=O)[O-])cc6F)c6nc(c(-c7c(F)cc(S(=O)(=O)[O-])cc7F)c7ccc4[nH]7)C=C6)C=C5)cc3)cc2)c1C
REMARK SMILES IDX 16 1 15 2 14 3 12 4 13 5 11 7 8 8 9 9 88 10 10 11 87 12 7 13
REMARK SMILES IDX 4 14 5 15 89 16 6 17 90 18 2 19 1 20 3 21 17 22 18 23 19 24
REMARK SMILES IDX 20 26 21 27 22 28 86 29 23 30 85 31 24 32 25 33 26 34 79 35
REMARK SMILES IDX 27 36 84 37 78 38 80 39 28 40 83 41 77 42 76 43 29 45 63 46
REMARK SMILES IDX 42 47 62 48 43 49 46 50 61 51 81 52 44 53 45 54 60 56 82 57
REMARK SMILES IDX 47 58 30 59 31 60 40 61 32 62 33 63 39 64 41 65 34 66 35 67
REMARK SMILES IDX 36 68 37 69 38 70 64 71 65 72 74 73 66 74 67 75 73 76 75 77
REMARK SMILES IDX 68 78 69 79 70 80 71 81 72 82 48 83 49 84 58 85 50 86 51 87
REMARK SMILES IDX 57 88 59 89 52 90 53 91 54 92 55 93 56 94
REMARK H PARENT 14 6 18 25 80 44 46 55
REMARK Flexibility Score: inf
ROOT
ATOM      1  C   UNL A   1      39.175  21.264  26.138  1.00  0.00     0.042 C 
ENDROOT
BRANCH   1   2
ATOM      2  C   UNL A   1      37.901  21.652  25.370  1.00  0.00     0.118 C 
BRANCH   2   3
ATOM      3  N   UNL A   1      37.072  20.495  25.061  1.00  0.00    -0.352 N 
ATOM      4  C   UNL A   1      35.709  20.318  25.021  1.00  0.00     0.251 C 
ATOM      5  O   UNL A   1      35.276  19.248  24.598  1.00  0.00    -0.269 OA
ATOM      6  H   UNL A   1      37.586  19.684  24.839  1.00  0.00     0.163 HD
BRANCH   4   7
ATOM      7  C   UNL A   1      34.743  21.389  25.394  1.00  0.00     0.039 A 
ATOM      8  C   UNL A   1      33.098  23.593  25.867  1.00  0.00     0.067 A 
ATOM      9  C   UNL A   1      32.951  22.885  24.676  1.00  0.00     0.029 A 
ATOM     10  C   UNL A   1      33.948  23.135  26.871  1.00  0.00     0.029 A 
ATOM     11  C   UNL A   1      33.803  21.801  24.432  1.00  0.00     0.016 A 
ATOM     12  C   UNL A   1      34.728  22.008  26.645  1.00  0.00     0.016 A 
BRANCH   8  13
ATOM     13  N   UNL A   1      32.440  24.819  26.054  1.00  0.00    -0.217 N 
ATOM     14  C   UNL A   1      31.950  26.930  26.209  1.00  0.00     0.151 A 
ATOM     15  N   UNL A   1      31.003  26.199  26.881  1.00  0.00    -0.126 NA
ATOM     16  C   UNL A   1      32.862  26.067  25.626  1.00  0.00     0.073 A 
ATOM     17  N   UNL A   1      31.256  24.911  26.687  1.00  0.00    -0.061 NA
ATOM     18  C   UNL A   1      33.991  26.276  24.685  1.00  0.00     0.069 C 
BRANCH  14  19
ATOM     19  C   UNL A   1      31.875  28.376  26.110  1.00  0.00     0.181 C 
ATOM     20  C   UNL A   1      32.456  29.176  27.249  1.00  0.00     0.095 C 
ATOM     21  O   UNL A   1      31.379  28.938  25.135  1.00  0.00    -0.293 OA
ENDBRANCH  14  19
ENDBRANCH   8  13
ENDBRANCH   4   7
ENDBRANCH   2   3
ENDBRANCH   1   2
BRANCH   1  22
ATOM     22  C   UNL A   1      40.102  22.447  26.327  1.00  0.00     0.118 C 
BRANCH  22  23
ATOM     23  N   UNL A   1      41.424  22.217  25.732  1.00  0.00    -0.352 N 
ATOM     24  C   UNL A   1      42.407  23.144  25.421  1.00  0.00     0.251 C 
ATOM     25  H   UNL A   1      41.642  21.280  25.528  1.00  0.00     0.163 HD
ATOM     26  O   UNL A   1      43.291  22.867  24.631  1.00  0.00    -0.269 OA
BRANCH  24  27
ATOM     27  C   UNL A   1      42.358  24.463  26.079  1.00  0.00     0.039 A 
ATOM     28  C   UNL A   1      41.681  25.557  25.529  1.00  0.00     0.014 A 
ATOM     29  C   UNL A   1      43.004  24.575  27.303  1.00  0.00     0.014 A 
ATOM     30  C   UNL A   1      41.621  26.743  26.262  1.00  0.00     0.010 A 
ATOM     31  C   UNL A   1      42.733  25.632  28.115  1.00  0.00     0.010 A 
ATOM     32  C   UNL A   1      42.150  26.761  27.560  1.00  0.00    -0.014 A 
BRANCH  32  33
ATOM     33  C   UNL A   1      42.050  27.908  28.448  1.00  0.00     0.031 A 
ATOM     34  C   UNL A   1      43.158  28.880  28.274  1.00  0.00     0.074 A 
ATOM     35  C   UNL A   1      40.885  28.188  29.080  1.00  0.00     0.049 A 
ATOM     36  N   UNL A   1      44.132  29.127  29.087  1.00  0.00    -0.248 NA
ATOM     37  C   UNL A   1      43.333  29.496  26.944  1.00  0.00     0.031 C 
ATOM     38  C   UNL A   1      39.611  27.454  29.000  1.00  0.00     0.029 A 
ATOM     39  N   UNL A   1      40.542  29.275  29.820  1.00  0.00    -0.354 N 
ATOM     40  C   UNL A   1      44.860  30.150  28.483  1.00  0.00     0.074 A 
ATOM     41  C   UNL A   1      44.509  30.109  27.091  1.00  0.00     0.031 C 
ATOM     42  C   UNL A   1      38.603  28.234  29.451  1.00  0.00     0.029 A 
ATOM     43  C   UNL A   1      39.168  29.448  30.003  1.00  0.00     0.049 A 
ATOM     44  H   UNL A   1      41.209  29.891  30.198  1.00  0.00     0.167 HD
ATOM     45  C   UNL A   1      45.418  31.148  29.227  1.00  0.00     0.037 A 
ATOM     46  C   UNL A   1      38.559  30.544  30.529  1.00  0.00     0.037 A 
ATOM     47  C   UNL A   1      45.421  30.787  30.628  1.00  0.00     0.049 A 
ATOM     48  C   UNL A   1      39.611  31.293  31.271  1.00  0.00     0.074 A 
ATOM     49  C   UNL A   1      45.937  29.739  31.365  1.00  0.00     0.029 A 
ATOM     50  N   UNL A   1      44.463  31.370  31.424  1.00  0.00    -0.354 N 
ATOM     51  N   UNL A   1      40.220  30.826  32.330  1.00  0.00    -0.248 NA
ATOM     52  C   UNL A   1      40.336  32.322  30.541  1.00  0.00     0.031 C 
ATOM     53  C   UNL A   1      44.943  29.451  32.346  1.00  0.00     0.029 A 
ATOM     54  C   UNL A   1      43.919  30.393  32.217  1.00  0.00     0.049 A 
ATOM     55  H   UNL A   1      44.211  32.322  31.425  1.00  0.00     0.167 HD
ATOM     56  C   UNL A   1      41.553  31.174  32.158  1.00  0.00     0.074 A 
ATOM     57  C   UNL A   1      41.551  32.152  31.071  1.00  0.00     0.031 C 
ATOM     58  C   UNL A   1      42.554  30.414  32.697  1.00  0.00     0.037 A 
BRANCH  45  59
ATOM     59  C   UNL A   1      45.554  32.594  28.784  1.00  0.00     0.058 A 
ATOM     60  C   UNL A   1      46.817  33.215  28.905  1.00  0.00     0.135 A 
ATOM     61  C   UNL A   1      44.477  33.473  28.528  1.00  0.00     0.135 A 
ATOM     62  F   UNL A   1      47.921  32.483  29.127  1.00  0.00    -0.206 F 
ATOM     63  C   UNL A   1      46.979  34.600  28.888  1.00  0.00     0.059 A 
ATOM     64  C   UNL A   1      44.625  34.853  28.454  1.00  0.00     0.059 A 
ATOM     65  F   UNL A   1      43.210  33.064  28.422  1.00  0.00    -0.206 F 
ATOM     66  C   UNL A   1      45.869  35.412  28.684  1.00  0.00     0.060 A 
BRANCH  66  67
ATOM     67  S   UNL A   1      46.051  37.199  28.769  1.00  0.00     0.124 S 
ATOM     68  O   UNL A   1      45.691  37.460  30.158  1.00  0.00    -0.237 OA
ATOM     69  O   UNL A   1      47.458  37.374  28.426  1.00  0.00    -0.237 OA
ATOM     70  O   UNL A   1      45.104  37.680  27.768  1.00  0.00    -0.744 OA
ENDBRANCH  66  67
ENDBRANCH  45  59
BRANCH  46  71
ATOM     71  C   UNL A   1      37.260  31.166  30.136  1.00  0.00     0.058 A 
ATOM     72  C   UNL A   1      36.412  31.760  31.091  1.00  0.00     0.135 A 
ATOM     73  C   UNL A   1      36.959  31.448  28.788  1.00  0.00     0.135 A 
ATOM     74  F   UNL A   1      36.630  31.564  32.401  1.00  0.00    -0.206 F 
ATOM     75  C   UNL A   1      35.363  32.619  30.733  1.00  0.00     0.059 A 
ATOM     76  C   UNL A   1      35.916  32.294  28.408  1.00  0.00     0.059 A 
ATOM     77  F   UNL A   1      37.732  30.979  27.797  1.00  0.00    -0.206 F 
ATOM     78  C   UNL A   1      35.137  32.899  29.386  1.00  0.00     0.060 A 
BRANCH  78  79
ATOM     79  S   UNL A   1      33.905  34.143  28.923  1.00  0.00     0.124 S 
ATOM     80  O   UNL A   1      34.735  35.187  28.333  1.00  0.00    -0.237 OA
ATOM     81  O   UNL A   1      33.054  33.406  27.996  1.00  0.00    -0.237 OA
ATOM     82  O   UNL A   1      33.278  34.489  30.197  1.00  0.00    -0.744 OA
ENDBRANCH  78  79
ENDBRANCH  46  71
BRANCH  58  83
ATOM     83  C   UNL A   1      42.193  29.376  33.729  1.00  0.00     0.058 A 
ATOM     84  C   UNL A   1      41.864  28.037  33.446  1.00  0.00     0.135 A 
ATOM     85  C   UNL A   1      42.355  29.719  35.079  1.00  0.00     0.135 A 
ATOM     86  F   UNL A   1      41.788  27.598  32.183  1.00  0.00    -0.206 F 
ATOM     87  C   UNL A   1      41.671  27.096  34.460  1.00  0.00     0.059 A 
ATOM     88  C   UNL A   1      42.199  28.793  36.104  1.00  0.00     0.059 A 
ATOM     89  F   UNL A   1      42.730  30.965  35.413  1.00  0.00    -0.206 F 
ATOM     90  C   UNL A   1      41.843  27.484  35.788  1.00  0.00     0.060 A 
BRANCH  90  91
ATOM     91  S   UNL A   1      41.660  26.256  37.101  1.00  0.00     0.124 S 
ATOM     92  O   UNL A   1      41.628  25.007  36.349  1.00  0.00    -0.237 OA
ATOM     93  O   UNL A   1      42.853  26.479  37.912  1.00  0.00    -0.237 OA
ATOM     94  O   UNL A   1      40.402  26.630  37.744  1.00  0.00    -0.744 OA
ENDBRANCH  90  91
ENDBRANCH  58  83
ENDBRANCH  32  33
ENDBRANCH  24  27
ENDBRANCH  22  23
ENDBRANCH   1  22
TORSDOF 15
ENDMDL
MODEL 2
REMARK VINA RESULT:     -12.1      2.008      2.769
REMARK SMILES CC(=O)c1nnn(-c2ccc(C(=O)NCCCNC(=O)c3ccc(-c4c5nc(c(-c6c(F)cc(S(=O)(=O)[O-])cc6F)c6ccc([nH]6)c(-c6c(F)cc(S(=O)(=O)[O-])cc6F)c6nc(c(-c7c(F)cc(S(=O)(=O)[O-])cc7F)c7ccc4[nH]7)C=C6)C=C5)cc3)cc2)c1C
REMARK SMILES IDX 16 1 15 2 14 3 12 4 13 5 11 7 8 8 9 9 88 10 10 11 87 12 7 13
REMARK SMILES IDX 4 14 5 15 89 16 6 17 90 18 2 19 1 20 3 21 17 22 18 23 19 24
REMARK SMILES IDX 20 26 21 27 22 28 86 29 23 30 85 31 24 32 25 33 26 34 79 35
REMARK SMILES IDX 27 36 84 37 78 38 80 39 28 40 83 41 77 42 76 43 29 45 63 46
REMARK SMILES IDX 42 47 62 48 43 49 46 50 61 51 81 52 44 53 45 54 60 56 82 57
REMARK SMILES IDX 47 58 30 59 31 60 40 61 32 62 33 63 39 64 41 65 34 66 35 67
REMARK SMILES IDX 36 68 37 69 38 70 64 71 65 72 74 73 66 74 67 75 73 76 75 77
REMARK SMILES IDX 68 78 69 79 70 80 71 81 72 82 48 83 49 84 58 85 50 86 51 87
REMARK SMILES IDX 57 88 59 89 52 90 53 91 54 92 55 93 56 94
REMARK H PARENT 14 6 18 25 80 44 46 55
REMARK Flexibility Score: inf
ROOT
ATOM      1  C   UNL A   1      36.821  22.760  24.136  1.00  0.00     0.042 C 
ENDROOT
BRANCH   1   2
ATOM      2  C   UNL A   1      35.301  22.554  24.236  1.00  0.00     0.118 C 
BRANCH   2   3
ATOM      3  N   UNL A   1      34.885  22.175  25.580  1.00  0.00    -0.352 N 
ATOM      4  C   UNL A   1      34.081  22.793  26.507  1.00  0.00     0.251 C 
ATOM      5  O   UNL A   1      33.794  22.174  27.530  1.00  0.00    -0.269 OA
ATOM      6  H   UNL A   1      35.250  21.311  25.881  1.00  0.00     0.163 HD
BRANCH   4   7
ATOM      7  C   UNL A   1      33.485  24.142  26.292  1.00  0.00     0.039 A 
ATOM      8  C   UNL A   1      32.205  26.529  25.622  1.00  0.00     0.067 A 
ATOM      9  C   UNL A   1      31.464  25.510  26.219  1.00  0.00     0.029 A 
ATOM     10  C   UNL A   1      33.587  26.422  25.486  1.00  0.00     0.029 A 
ATOM     11  C   UNL A   1      32.107  24.304  26.522  1.00  0.00     0.016 A 
ATOM     12  C   UNL A   1      34.223  25.248  25.867  1.00  0.00     0.016 A 
BRANCH   8  13
ATOM     13  N   UNL A   1      31.564  27.656  25.085  1.00  0.00    -0.217 N 
ATOM     14  C   UNL A   1      30.470  29.035  23.810  1.00  0.00     0.151 A 
ATOM     15  N   UNL A   1      31.189  29.752  24.734  1.00  0.00    -0.126 NA
ATOM     16  C   UNL A   1      30.654  27.682  24.040  1.00  0.00     0.073 A 
ATOM     17  N   UNL A   1      31.763  28.896  25.570  1.00  0.00    -0.061 NA
ATOM     18  C   UNL A   1      30.032  26.465  23.461  1.00  0.00     0.069 C 
BRANCH  14  19
ATOM     19  C   UNL A   1      29.613  29.682  22.834  1.00  0.00     0.181 C 
ATOM     20  C   UNL A   1      28.550  30.613  23.359  1.00  0.00     0.095 C 
ATOM     21  O   UNL A   1      29.749  29.501  21.625  1.00  0.00    -0.293 OA
ENDBRANCH  14  19
ENDBRANCH   8  13
ENDBRANCH   4   7
ENDBRANCH   2   3
ENDBRANCH   1   2
BRANCH   1  22
ATOM     22  C   UNL A   1      37.416  23.222  25.451  1.00  0.00     0.118 C 
BRANCH  22  23
ATOM     23  N   UNL A   1      38.356  22.243  26.008  1.00  0.00    -0.352 N 
ATOM     24  C   UNL A   1      39.583  22.468  26.615  1.00  0.00     0.251 C 
ATOM     25  H   UNL A   1      38.080  21.301  25.943  1.00  0.00     0.163 HD
ATOM     26  O   UNL A   1      40.399  21.570  26.714  1.00  0.00    -0.269 OA
BRANCH  24  27
ATOM     27  C   UNL A   1      39.864  23.816  27.144  1.00  0.00     0.039 A 
ATOM     28  C   UNL A   1      38.924  24.852  27.112  1.00  0.00     0.014 A 
ATOM     29  C   UNL A   1      41.117  24.017  27.708  1.00  0.00     0.014 A 
ATOM     30  C   UNL A   1      39.251  26.069  27.709  1.00  0.00     0.010 A 
ATOM     31  C   UNL A   1      41.335  25.102  28.499  1.00  0.00     0.010 A 
ATOM     32  C   UNL A   1      40.462  26.176  28.405  1.00  0.00    -0.014 A 
BRANCH  32  33
ATOM     33  C   UNL A   1      40.856  27.361  29.149  1.00  0.00     0.031 A 
ATOM     34  C   UNL A   1      41.921  28.147  28.476  1.00  0.00     0.074 A 
ATOM     35  C   UNL A   1      40.070  27.840  30.143  1.00  0.00     0.049 A 
ATOM     36  N   UNL A   1      43.156  28.279  28.833  1.00  0.00    -0.248 NA
ATOM     37  C   UNL A   1      41.641  28.673  27.125  1.00  0.00     0.031 C 
ATOM     38  C   UNL A   1      38.786  27.304  30.621  1.00  0.00     0.029 A 
ATOM     39  N   UNL A   1      40.177  28.997  30.848  1.00  0.00    -0.354 N 
ATOM     40  C   UNL A   1      43.713  29.154  27.903  1.00  0.00     0.074 A 
ATOM     41  C   UNL A   1      42.848  29.107  26.757  1.00  0.00     0.031 C 
ATOM     42  C   UNL A   1      38.135  28.245  31.341  1.00  0.00     0.029 A 
ATOM     43  C   UNL A   1      39.014  29.383  31.518  1.00  0.00     0.049 A 
ATOM     44  H   UNL A   1      41.009  29.521  30.885  1.00  0.00     0.167 HD
ATOM     45  C   UNL A   1      44.633  30.087  28.281  1.00  0.00     0.037 A 
ATOM     46  C   UNL A   1      38.796  30.580  32.127  1.00  0.00     0.037 A 
ATOM     47  C   UNL A   1      45.135  29.790  29.605  1.00  0.00     0.049 A 
ATOM     48  C   UNL A   1      40.137  31.192  32.340  1.00  0.00     0.074 A 
ATOM     49  C   UNL A   1      45.762  28.708  30.190  1.00  0.00     0.029 A 
ATOM     50  N   UNL A   1      44.638  30.543  30.643  1.00  0.00    -0.354 N 
ATOM     51  N   UNL A   1      41.045  30.684  33.131  1.00  0.00    -0.248 NA
ATOM     52  C   UNL A   1      40.642  32.069  31.294  1.00  0.00     0.031 C 
ATOM     53  C   UNL A   1      45.199  28.616  31.497  1.00  0.00     0.029 A 
ATOM     54  C   UNL A   1      44.329  29.695  31.673  1.00  0.00     0.049 A 
ATOM     55  H   UNL A   1      44.526  31.522  30.646  1.00  0.00     0.167 HD
ATOM     56  C   UNL A   1      42.240  30.820  32.436  1.00  0.00     0.074 A 
ATOM     57  C   UNL A   1      41.937  31.740  31.340  1.00  0.00     0.031 C 
ATOM     58  C   UNL A   1      43.270  29.942  32.628  1.00  0.00     0.037 A 
BRANCH  45  59
ATOM     59  C   UNL A   1      44.764  31.476  27.681  1.00  0.00     0.058 A 
ATOM     60  C   UNL A   1      45.935  31.784  26.955  1.00  0.00     0.135 A 
ATOM     61  C   UNL A   1      43.957  32.588  28.015  1.00  0.00     0.135 A 
ATOM     62  F   UNL A   1      46.772  30.811  26.561  1.00  0.00    -0.206 F 
ATOM     63  C   UNL A   1      46.331  33.095  26.687  1.00  0.00     0.059 A 
ATOM     64  C   UNL A   1      44.306  33.898  27.710  1.00  0.00     0.059 A 
ATOM     65  F   UNL A   1      42.834  32.486  28.731  1.00  0.00    -0.206 F 
ATOM     66  C   UNL A   1      45.517  34.147  27.090  1.00  0.00     0.060 A 
BRANCH  66  67
ATOM     67  S   UNL A   1      46.071  35.840  26.844  1.00  0.00     0.124 S 
ATOM     68  O   UNL A   1      44.803  36.562  26.848  1.00  0.00    -0.237 OA
ATOM     69  O   UNL A   1      46.931  36.046  28.003  1.00  0.00    -0.237 OA
ATOM     70  O   UNL A   1      46.762  35.782  25.559  1.00  0.00    -0.744 OA
ENDBRANCH  66  67
ENDBRANCH  45  59
BRANCH  46  71
ATOM     71  C   UNL A   1      37.533  31.372  32.194  1.00  0.00     0.058 A 
ATOM     72  C   UNL A   1      37.043  31.869  33.418  1.00  0.00     0.135 A 
ATOM     73  C   UNL A   1      36.937  31.905  31.033  1.00  0.00     0.135 A 
ATOM     74  F   UNL A   1      37.561  31.434  34.577  1.00  0.00    -0.206 F 
ATOM     75  C   UNL A   1      36.060  32.867  33.484  1.00  0.00     0.059 A 
ATOM     76  C   UNL A   1      35.953  32.894  31.074  1.00  0.00     0.059 A 
ATOM     77  F   UNL A   1      37.362  31.545  29.813  1.00  0.00    -0.206 F 
ATOM     78  C   UNL A   1      35.536  33.391  32.303  1.00  0.00     0.060 A 
BRANCH  78  79
ATOM     79  S   UNL A   1      34.401  34.800  32.373  1.00  0.00     0.124 S 
ATOM     80  O   UNL A   1      33.220  34.208  32.991  1.00  0.00    -0.237 OA
ATOM     81  O   UNL A   1      35.140  35.753  33.195  1.00  0.00    -0.237 OA
ATOM     82  O   UNL A   1      34.247  35.182  30.971  1.00  0.00    -0.744 OA
ENDBRANCH  78  79
ENDBRANCH  46  71
BRANCH  58  83
ATOM     83  C   UNL A   1      43.213  29.014  33.816  1.00  0.00     0.058 A 
ATOM     84  C   UNL A   1      43.574  29.365  35.131  1.00  0.00     0.135 A 
ATOM     85  C   UNL A   1      42.603  27.765  33.635  1.00  0.00     0.135 A 
ATOM     86  F   UNL A   1      44.069  30.577  35.411  1.00  0.00    -0.206 F 
ATOM     87  C   UNL A   1      43.369  28.496  36.206  1.00  0.00     0.059 A 
ATOM     88  C   UNL A   1      42.361  26.897  34.694  1.00  0.00     0.059 A 
ATOM     89  F   UNL A   1      42.178  27.397  32.415  1.00  0.00    -0.206 F 
ATOM     90  C   UNL A   1      42.759  27.263  35.977  1.00  0.00     0.060 A 
BRANCH  90  91
ATOM     91  S   UNL A   1      42.432  26.164  37.373  1.00  0.00     0.124 S 
ATOM     92  O   UNL A   1      41.004  26.363  37.591  1.00  0.00    -0.237 OA
ATOM     93  O   UNL A   1      42.819  24.859  36.846  1.00  0.00    -0.237 OA
ATOM     94  O   UNL A   1      43.302  26.683  38.427  1.00  0.00    -0.744 OA
ENDBRANCH  90  91
ENDBRANCH  58  83
ENDBRANCH  32  33
ENDBRANCH  24  27
ENDBRANCH  22  23
ENDBRANCH   1  22
TORSDOF 15
ENDMDL
MODEL 3
REMARK VINA RESULT:     -12.1      3.151      8.044
REMARK SMILES CC(=O)c1nnn(-c2ccc(C(=O)NCCCNC(=O)c3ccc(-c4c5nc(c(-c6c(F)cc(S(=O)(=O)[O-])cc6F)c6ccc([nH]6)c(-c6c(F)cc(S(=O)(=O)[O-])cc6F)c6nc(c(-c7c(F)cc(S(=O)(=O)[O-])cc7F)c7ccc4[nH]7)C=C6)C=C5)cc3)cc2)c1C
REMARK SMILES IDX 16 1 15 2 14 3 12 4 13 5 11 7 8 8 9 9 88 10 10 11 87 12 7 13
REMARK SMILES IDX 4 14 5 15 89 16 6 17 90 18 2 19 1 20 3 21 17 22 18 23 19 24
REMARK SMILES IDX 20 26 21 27 22 28 86 29 23 30 85 31 24 32 25 33 26 34 79 35
REMARK SMILES IDX 27 36 84 37 78 38 80 39 28 40 83 41 77 42 76 43 29 45 63 46
REMARK SMILES IDX 42 47 62 48 43 49 46 50 61 51 81 52 44 53 45 54 60 56 82 57
REMARK SMILES IDX 47 58 30 59 31 60 40 61 32 62 33 63 39 64 41 65 34 66 35 67
REMARK SMILES IDX 36 68 37 69 38 70 64 71 65 72 74 73 66 74 67 75 73 76 75 77
REMARK SMILES IDX 68 78 69 79 70 80 71 81 72 82 48 83 49 84 58 85 50 86 51 87
REMARK SMILES IDX 57 88 59 89 52 90 53 91 54 92 55 93 56 94
REMARK H PARENT 14 6 18 25 80 44 46 55
REMARK Flexibility Score: inf
ROOT
ATOM      1  C   UNL A   1      37.687  19.646  24.855  1.00  0.00     0.042 C 
ENDROOT
BRANCH   1   2
ATOM      2  C   UNL A   1      36.465  20.565  25.013  1.00  0.00     0.118 C 
BRANCH   2   3
ATOM      3  N   UNL A   1      35.217  19.815  25.071  1.00  0.00    -0.352 N 
ATOM      4  C   UNL A   1      33.903  20.195  24.932  1.00  0.00     0.251 C 
ATOM      5  O   UNL A   1      33.046  19.315  24.902  1.00  0.00    -0.269 OA
ATOM      6  H   UNL A   1      35.338  18.853  25.242  1.00  0.00     0.163 HD
BRANCH   4   7
ATOM      7  C   UNL A   1      33.486  21.614  24.742  1.00  0.00     0.039 A 
ATOM      8  C   UNL A   1      32.411  24.180  24.537  1.00  0.00     0.067 A 
ATOM      9  C   UNL A   1      32.831  23.722  25.785  1.00  0.00     0.029 A 
ATOM     10  C   UNL A   1      32.647  23.434  23.385  1.00  0.00     0.029 A 
ATOM     11  C   UNL A   1      33.339  22.421  25.885  1.00  0.00     0.016 A 
ATOM     12  C   UNL A   1      33.227  22.177  23.492  1.00  0.00     0.016 A 
BRANCH   8  13
ATOM     13  N   UNL A   1      31.681  25.373  24.424  1.00  0.00    -0.217 N 
ATOM     14  C   UNL A   1      31.063  27.456  24.401  1.00  0.00     0.151 A 
ATOM     15  N   UNL A   1      29.950  26.659  24.490  1.00  0.00    -0.126 NA
ATOM     16  C   UNL A   1      32.190  26.657  24.310  1.00  0.00     0.073 A 
ATOM     17  N   UNL A   1      30.335  25.393  24.395  1.00  0.00    -0.061 NA
ATOM     18  C   UNL A   1      33.622  26.955  24.056  1.00  0.00     0.069 C 
BRANCH  14  19
ATOM     19  C   UNL A   1      30.968  28.904  24.336  1.00  0.00     0.181 C 
ATOM     20  C   UNL A   1      30.120  29.490  23.236  1.00  0.00     0.095 C 
ATOM     21  O   UNL A   1      31.536  29.631  25.148  1.00  0.00    -0.293 OA
ENDBRANCH  14  19
ENDBRANCH   8  13
ENDBRANCH   4   7
ENDBRANCH   2   3
ENDBRANCH   1   2
BRANCH   1  22
ATOM     22  C   UNL A   1      38.902  20.193  25.575  1.00  0.00     0.118 C 
BRANCH  22  23
ATOM     23  N   UNL A   1      39.953  19.182  25.735  1.00  0.00    -0.352 N 
ATOM     24  C   UNL A   1      41.305  19.370  25.983  1.00  0.00     0.251 C 
ATOM     25  H   UNL A   1      39.660  18.246  25.656  1.00  0.00     0.163 HD
ATOM     26  O   UNL A   1      42.106  18.483  25.750  1.00  0.00    -0.269 OA
BRANCH  24  27
ATOM     27  C   UNL A   1      41.740  20.663  26.544  1.00  0.00     0.039 A 
ATOM     28  C   UNL A   1      42.409  21.629  25.784  1.00  0.00     0.014 A 
ATOM     29  C   UNL A   1      41.434  20.900  27.877  1.00  0.00     0.014 A 
ATOM     30  C   UNL A   1      42.710  22.855  26.378  1.00  0.00     0.010 A 
ATOM     31  C   UNL A   1      41.500  22.167  28.369  1.00  0.00     0.010 A 
ATOM     32  C   UNL A   1      42.242  23.109  27.674  1.00  0.00    -0.014 A 
BRANCH  32  33
ATOM     33  C   UNL A   1      42.408  24.387  28.348  1.00  0.00     0.031 A 
ATOM     34  C   UNL A   1      41.272  25.316  28.129  1.00  0.00     0.074 A 
ATOM     35  C   UNL A   1      43.328  24.529  29.333  1.00  0.00     0.049 A 
ATOM     36  N   UNL A   1      41.257  26.400  27.425  1.00  0.00    -0.248 NA
ATOM     37  C   UNL A   1      39.929  24.879  28.560  1.00  0.00     0.031 C 
ATOM     38  C   UNL A   1      44.252  23.514  29.863  1.00  0.00     0.029 A 
ATOM     39  N   UNL A   1      43.537  25.574  30.177  1.00  0.00    -0.354 N 
ATOM     40  C   UNL A   1      39.976  26.923  27.588  1.00  0.00     0.074 A 
ATOM     41  C   UNL A   1      39.158  25.824  28.021  1.00  0.00     0.031 C 
ATOM     42  C   UNL A   1      44.729  23.910  31.065  1.00  0.00     0.029 A 
ATOM     43  C   UNL A   1      44.284  25.265  31.316  1.00  0.00     0.049 A 
ATOM     44  H   UNL A   1      43.190  26.477  29.999  1.00  0.00     0.167 HD
ATOM     45  C   UNL A   1      39.775  28.268  27.683  1.00  0.00     0.037 A 
ATOM     46  C   UNL A   1      44.468  26.068  32.399  1.00  0.00     0.037 A 
ATOM     47  C   UNL A   1      40.960  28.985  27.265  1.00  0.00     0.049 A 
ATOM     48  C   UNL A   1      44.130  27.450  31.958  1.00  0.00     0.074 A 
ATOM     49  C   UNL A   1      41.721  29.024  26.113  1.00  0.00     0.029 A 
ATOM     50  N   UNL A   1      41.755  29.508  28.259  1.00  0.00    -0.354 N 
ATOM     51  N   UNL A   1      44.810  28.107  31.055  1.00  0.00    -0.248 NA
ATOM     52  C   UNL A   1      42.755  27.891  32.144  1.00  0.00     0.031 C 
ATOM     53  C   UNL A   1      43.071  29.112  26.565  1.00  0.00     0.029 A 
ATOM     54  C   UNL A   1      43.058  29.214  27.958  1.00  0.00     0.049 A 
ATOM     55  H   UNL A   1      41.442  30.008  29.047  1.00  0.00     0.167 HD
ATOM     56  C   UNL A   1      43.850  28.734  30.272  1.00  0.00     0.074 A 
ATOM     57  C   UNL A   1      42.606  28.618  31.033  1.00  0.00     0.031 C 
ATOM     58  C   UNL A   1      44.088  29.013  28.955  1.00  0.00     0.037 A 
BRANCH  45  59
ATOM     59  C   UNL A   1      38.713  28.933  28.543  1.00  0.00     0.058 A 
ATOM     60  C   UNL A   1      37.885  29.909  27.949  1.00  0.00     0.135 A 
ATOM     61  C   UNL A   1      38.657  28.879  29.955  1.00  0.00     0.135 A 
ATOM     62  F   UNL A   1      37.834  30.044  26.614  1.00  0.00    -0.206 F 
ATOM     63  C   UNL A   1      37.152  30.831  28.697  1.00  0.00     0.059 A 
ATOM     64  C   UNL A   1      37.891  29.753  30.717  1.00  0.00     0.059 A 
ATOM     65  F   UNL A   1      39.401  28.044  30.684  1.00  0.00    -0.206 F 
ATOM     66  C   UNL A   1      37.181  30.757  30.085  1.00  0.00     0.060 A 
BRANCH  66  67
ATOM     67  S   UNL A   1      36.326  32.005  31.057  1.00  0.00     0.124 S 
ATOM     68  O   UNL A   1      36.202  31.332  32.345  1.00  0.00    -0.237 OA
ATOM     69  O   UNL A   1      37.264  33.121  31.003  1.00  0.00    -0.237 OA
ATOM     70  O   UNL A   1      35.080  32.205  30.324  1.00  0.00    -0.744 OA
ENDBRANCH  66  67
ENDBRANCH  45  59
BRANCH  46  71
ATOM     71  C   UNL A   1      44.550  25.684  33.838  1.00  0.00     0.058 A 
ATOM     72  C   UNL A   1      45.788  25.596  34.505  1.00  0.00     0.135 A 
ATOM     73  C   UNL A   1      43.407  25.677  34.663  1.00  0.00     0.135 A 
ATOM     74  F   UNL A   1      46.932  25.612  33.805  1.00  0.00    -0.206 F 
ATOM     75  C   UNL A   1      45.887  25.555  35.903  1.00  0.00     0.059 A 
ATOM     76  C   UNL A   1      43.480  25.631  36.056  1.00  0.00     0.059 A 
ATOM     77  F   UNL A   1      42.179  25.810  34.140  1.00  0.00    -0.206 F 
ATOM     78  C   UNL A   1      44.725  25.597  36.673  1.00  0.00     0.060 A 
BRANCH  78  79
ATOM     79  S   UNL A   1      44.848  25.726  38.475  1.00  0.00     0.124 S 
ATOM     80  O   UNL A   1      44.847  24.324  38.880  1.00  0.00    -0.237 OA
ATOM     81  O   UNL A   1      46.110  26.437  38.650  1.00  0.00    -0.237 OA
ATOM     82  O   UNL A   1      43.654  26.482  38.844  1.00  0.00    -0.744 OA
ENDBRANCH  78  79
ENDBRANCH  46  71
BRANCH  58  83
ATOM     83  C   UNL A   1      45.503  28.913  28.443  1.00  0.00     0.058 A 
ATOM     84  C   UNL A   1      46.093  27.743  27.928  1.00  0.00     0.135 A 
ATOM     85  C   UNL A   1      46.233  30.103  28.315  1.00  0.00     0.135 A 
ATOM     86  F   UNL A   1      45.427  26.581  27.917  1.00  0.00    -0.206 F 
ATOM     87  C   UNL A   1      47.364  27.754  27.347  1.00  0.00     0.059 A 
ATOM     88  C   UNL A   1      47.485  30.144  27.713  1.00  0.00     0.059 A 
ATOM     89  F   UNL A   1      45.699  31.264  28.730  1.00  0.00    -0.206 F 
ATOM     90  C   UNL A   1      48.052  28.962  27.243  1.00  0.00     0.060 A 
BRANCH  90  91
ATOM     91  S   UNL A   1      49.667  28.995  26.433  1.00  0.00     0.124 S 
ATOM     92  O   UNL A   1      49.357  28.465  25.110  1.00  0.00    -0.237 OA
ATOM     93  O   UNL A   1      50.018  30.411  26.484  1.00  0.00    -0.237 OA
ATOM     94  O   UNL A   1      50.488  28.128  27.276  1.00  0.00    -0.744 OA
ENDBRANCH  90  91
ENDBRANCH  58  83
ENDBRANCH  32  33
ENDBRANCH  24  27
ENDBRANCH  22  23
ENDBRANCH   1  22
TORSDOF 15
ENDMDL
