MODEL 1
REMARK VINA RESULT:     -13.1      0.000      0.000
REMARK SMILES CC1=CC[C@@H]2C(=O)N(c3ccc(Cl)c(C(=O)NCCCNC(=O)c4ccc(-c5c6nc(c(-c7c(F)cc(S(=O)(=O)[O-])cc7F)c7ccc([nH]7)c(-c7c(F)cc(S(=O)(=O)[O-])cc7F)c7nc(c(-c8c(F)cc(S(=O)(=O)[O-])cc8F)c8ccc5[nH]8)C=C7)C=C6)cc4)c3)C(=O)[C@H]2C1
REMARK SMILES IDX 20 1 19 2 18 3 17 4 15 5 16 6 14 8 9 9 10 10 90 11 11 12
REMARK SMILES IDX 12 13 13 14 8 15 1 16 2 17 3 18 94 19 4 20 93 21 5 22 91 23
REMARK SMILES IDX 6 24 92 25 7 26 21 27 22 28 23 30 24 31 25 32 89 33 26 34
REMARK SMILES IDX 88 35 27 36 28 37 29 38 82 39 30 40 87 41 81 42 83 43 31 44
REMARK SMILES IDX 86 45 80 46 79 47 32 49 66 50 45 51 65 52 46 53 49 54 64 55
REMARK SMILES IDX 84 56 47 57 48 58 63 60 85 61 50 62 33 63 34 64 43 65 35 66
REMARK SMILES IDX 36 67 42 68 44 69 37 70 38 71 39 72 40 73 41 74 67 75 68 76
REMARK SMILES IDX 77 77 69 78 70 79 76 80 78 81 71 82 72 83 73 84 74 85 75 86
REMARK SMILES IDX 51 87 52 88 61 89 53 90 54 91 60 92 62 93 55 94 56 95 57 96
REMARK SMILES IDX 58 97 59 98
REMARK H PARENT 17 7 21 29 83 48 49 59
REMARK Flexibility Score: inf
ROOT
ATOM      1  C   UNL A   1      33.397  28.524  27.295  1.00  0.00     0.118 C 
ENDROOT
BRANCH   1   2
ATOM      2  C   UNL A   1      31.989  27.947  27.290  1.00  0.00     0.042 C 
BRANCH   2   3
ATOM      3  C   UNL A   1      31.802  26.722  26.413  1.00  0.00     0.118 C 
BRANCH   3   4
ATOM      4  N   UNL A   1      30.570  26.710  25.637  1.00  0.00    -0.352 N 
ATOM      5  C   UNL A   1      30.256  26.094  24.449  1.00  0.00     0.252 C 
ATOM      6  O   UNL A   1      29.103  26.198  24.026  1.00  0.00    -0.269 OA
ATOM      7  H   UNL A   1      29.837  27.234  26.031  1.00  0.00     0.163 HD
BRANCH   5   8
ATOM      8  C   UNL A   1      31.249  25.367  23.616  1.00  0.00     0.060 A 
ATOM      9  C   UNL A   1      32.180  23.183  23.045  1.00  0.00     0.053 A 
ATOM     10  C   UNL A   1      33.081  23.818  22.182  1.00  0.00     0.028 A 
ATOM     11  C   UNL A   1      31.197  23.951  23.678  1.00  0.00     0.042 A 
ATOM     12  C   UNL A   1      33.136  25.203  22.109  1.00  0.00     0.023 A 
ATOM     13  C   UNL A   1      32.301  25.974  22.917  1.00  0.00     0.053 A 
ATOM     14  Cl  UNL A   1      32.810  27.612  23.145  1.00  0.00    -0.083 Cl
BRANCH   9  15
ATOM     15  N   UNL A   1      32.401  21.823  23.357  1.00  0.00    -0.250 N 
ATOM     16  C   UNL A   1      32.941  16.287  25.791  1.00  0.00     0.039 C 
ATOM     17  C   UNL A   1      32.899  17.421  24.809  1.00  0.00    -0.076 C 
ATOM     18  C   UNL A   1      32.720  17.181  23.489  1.00  0.00    -0.027 C 
ATOM     19  C   UNL A   1      33.035  18.837  25.380  1.00  0.00     0.044 C 
ATOM     20  C   UNL A   1      32.532  18.272  22.460  1.00  0.00     0.041 C 
ATOM     21  C   UNL A   1      33.216  19.842  24.251  1.00  0.00     0.096 C 
ATOM     22  C   UNL A   1      32.166  19.542  23.195  1.00  0.00     0.096 C 
ATOM     23  C   UNL A   1      32.999  21.317  24.497  1.00  0.00     0.238 C 
ATOM     24  C   UNL A   1      32.105  20.822  22.437  1.00  0.00     0.238 C 
ATOM     25  O   UNL A   1      33.351  21.911  25.505  1.00  0.00    -0.274 OA
ATOM     26  O   UNL A   1      31.811  20.912  21.265  1.00  0.00    -0.274 OA
ENDBRANCH   9  15
ENDBRANCH   5   8
ENDBRANCH   3   4
ENDBRANCH   2   3
ENDBRANCH   1   2
BRANCH   1  27
ATOM     27  N   UNL A   1      33.461  29.927  27.698  1.00  0.00    -0.352 N 
ATOM     28  C   UNL A   1      34.478  30.672  28.249  1.00  0.00     0.251 C 
ATOM     29  H   UNL A   1      32.626  30.428  27.548  1.00  0.00     0.163 HD
ATOM     30  O   UNL A   1      34.247  31.818  28.629  1.00  0.00    -0.269 OA
BRANCH  28  31
ATOM     31  C   UNL A   1      35.832  30.100  28.428  1.00  0.00     0.039 A 
ATOM     32  C   UNL A   1      36.728  30.110  27.353  1.00  0.00     0.014 A 
ATOM     33  C   UNL A   1      36.226  29.549  29.646  1.00  0.00     0.014 A 
ATOM     34  C   UNL A   1      38.044  29.672  27.537  1.00  0.00     0.010 A 
ATOM     35  C   UNL A   1      37.561  29.224  29.860  1.00  0.00     0.010 A 
ATOM     36  C   UNL A   1      38.489  29.282  28.810  1.00  0.00    -0.014 A 
BRANCH  36  37
ATOM     37  C   UNL A   1      39.907  28.924  29.083  1.00  0.00     0.031 A 
ATOM     38  C   UNL A   1      40.855  29.969  29.610  1.00  0.00     0.074 A 
ATOM     39  C   UNL A   1      40.367  27.699  28.755  1.00  0.00     0.049 A 
ATOM     40  N   UNL A   1      42.153  29.910  29.757  1.00  0.00    -0.248 NA
ATOM     41  C   UNL A   1      40.269  31.267  29.983  1.00  0.00     0.031 C 
ATOM     42  C   UNL A   1      39.561  26.614  28.188  1.00  0.00     0.029 A 
ATOM     43  N   UNL A   1      41.630  27.165  28.828  1.00  0.00    -0.354 N 
ATOM     44  C   UNL A   1      42.541  31.168  30.208  1.00  0.00     0.074 A 
ATOM     45  C   UNL A   1      41.349  31.985  30.257  1.00  0.00     0.031 C 
ATOM     46  C   UNL A   1      40.345  25.541  27.985  1.00  0.00     0.029 A 
ATOM     47  C   UNL A   1      41.715  25.874  28.359  1.00  0.00     0.049 A 
ATOM     48  H   UNL A   1      42.403  27.660  29.184  1.00  0.00     0.167 HD
ATOM     49  C   UNL A   1      43.773  31.596  30.573  1.00  0.00     0.037 A 
ATOM     50  C   UNL A   1      42.778  25.057  28.226  1.00  0.00     0.037 A 
ATOM     51  C   UNL A   1      44.947  30.762  30.563  1.00  0.00     0.049 A 
ATOM     52  C   UNL A   1      44.136  25.550  28.647  1.00  0.00     0.074 A 
ATOM     53  C   UNL A   1      46.229  31.079  30.973  1.00  0.00     0.029 A 
ATOM     54  N   UNL A   1      44.980  29.447  30.121  1.00  0.00    -0.354 N 
ATOM     55  N   UNL A   1      44.475  26.725  29.123  1.00  0.00    -0.248 NA
ATOM     56  C   UNL A   1      45.258  24.608  28.520  1.00  0.00     0.031 C 
ATOM     57  C   UNL A   1      47.048  29.969  30.743  1.00  0.00     0.029 A 
ATOM     58  C   UNL A   1      46.265  28.943  30.237  1.00  0.00     0.049 A 
ATOM     59  H   UNL A   1      44.205  28.946  29.778  1.00  0.00     0.167 HD
ATOM     60  C   UNL A   1      45.839  26.652  29.384  1.00  0.00     0.074 A 
ATOM     61  C   UNL A   1      46.263  25.316  29.017  1.00  0.00     0.031 C 
ATOM     62  C   UNL A   1      46.665  27.603  29.887  1.00  0.00     0.037 A 
BRANCH  49  63
ATOM     63  C   UNL A   1      43.912  33.024  31.024  1.00  0.00     0.058 A 
ATOM     64  C   UNL A   1      43.740  33.394  32.368  1.00  0.00     0.135 A 
ATOM     65  C   UNL A   1      44.254  34.032  30.109  1.00  0.00     0.135 A 
ATOM     66  F   UNL A   1      43.399  32.474  33.285  1.00  0.00    -0.206 F 
ATOM     67  C   UNL A   1      43.867  34.715  32.782  1.00  0.00     0.059 A 
ATOM     68  C   UNL A   1      44.418  35.356  30.506  1.00  0.00     0.059 A 
ATOM     69  F   UNL A   1      44.431  33.736  28.811  1.00  0.00    -0.206 F 
ATOM     70  C   UNL A   1      44.206  35.690  31.843  1.00  0.00     0.060 A 
BRANCH  70  71
ATOM     71  S   UNL A   1      44.373  37.400  32.398  1.00  0.00     0.124 S 
ATOM     72  O   UNL A   1      43.865  38.131  31.241  1.00  0.00    -0.237 OA
ATOM     73  O   UNL A   1      43.525  37.427  33.585  1.00  0.00    -0.237 OA
ATOM     74  O   UNL A   1      45.803  37.539  32.649  1.00  0.00    -0.744 OA
ENDBRANCH  70  71
ENDBRANCH  49  63
BRANCH  50  75
ATOM     75  C   UNL A   1      42.597  23.679  27.692  1.00  0.00     0.058 A 
ATOM     76  C   UNL A   1      42.616  23.434  26.311  1.00  0.00     0.135 A 
ATOM     77  C   UNL A   1      42.419  22.580  28.547  1.00  0.00     0.135 A 
ATOM     78  F   UNL A   1      42.776  24.453  25.453  1.00  0.00    -0.206 F 
ATOM     79  C   UNL A   1      42.448  22.154  25.793  1.00  0.00     0.059 A 
ATOM     80  C   UNL A   1      42.275  21.286  28.055  1.00  0.00     0.059 A 
ATOM     81  F   UNL A   1      42.411  22.756  29.877  1.00  0.00    -0.206 F 
ATOM     82  C   UNL A   1      42.280  21.085  26.674  1.00  0.00     0.060 A 
BRANCH  82  83
ATOM     83  S   UNL A   1      42.112  19.421  25.993  1.00  0.00     0.124 S 
ATOM     84  O   UNL A   1      42.640  18.604  27.079  1.00  0.00    -0.237 OA
ATOM     85  O   UNL A   1      40.673  19.327  25.765  1.00  0.00    -0.237 OA
ATOM     86  O   UNL A   1      42.928  19.469  24.784  1.00  0.00    -0.744 OA
ENDBRANCH  82  83
ENDBRANCH  50  75
BRANCH  62  87
ATOM     87  C   UNL A   1      48.101  27.227  30.124  1.00  0.00     0.058 A 
ATOM     88  C   UNL A   1      49.091  27.440  29.155  1.00  0.00     0.135 A 
ATOM     89  C   UNL A   1      48.499  26.722  31.373  1.00  0.00     0.135 A 
ATOM     90  F   UNL A   1      48.762  27.914  27.943  1.00  0.00    -0.206 F 
ATOM     91  C   UNL A   1      50.429  27.154  29.411  1.00  0.00     0.059 A 
ATOM     92  C   UNL A   1      49.834  26.455  31.659  1.00  0.00     0.059 A 
ATOM     93  F   UNL A   1      47.590  26.508  32.337  1.00  0.00    -0.206 F 
ATOM     94  C   UNL A   1      50.790  26.668  30.669  1.00  0.00     0.060 A 
BRANCH  94  95
ATOM     95  S   UNL A   1      52.536  26.357  31.006  1.00  0.00     0.124 S 
ATOM     96  O   UNL A   1      53.086  26.274  29.657  1.00  0.00    -0.237 OA
ATOM     97  O   UNL A   1      52.921  27.534  31.777  1.00  0.00    -0.237 OA
ATOM     98  O   UNL A   1      52.520  25.103  31.754  1.00  0.00    -0.744 OA
ENDBRANCH  94  95
ENDBRANCH  62  87
ENDBRANCH  36  37
ENDBRANCH  28  31
ENDBRANCH   1  27
TORSDOF 14
ENDMDL
MODEL 2
REMARK VINA RESULT:     -12.7      3.317      9.684
REMARK SMILES CC1=CC[C@@H]2C(=O)N(c3ccc(Cl)c(C(=O)NCCCNC(=O)c4ccc(-c5c6nc(c(-c7c(F)cc(S(=O)(=O)[O-])cc7F)c7ccc([nH]7)c(-c7c(F)cc(S(=O)(=O)[O-])cc7F)c7nc(c(-c8c(F)cc(S(=O)(=O)[O-])cc8F)c8ccc5[nH]8)C=C7)C=C6)cc4)c3)C(=O)[C@H]2C1
REMARK SMILES IDX 20 1 19 2 18 3 17 4 15 5 16 6 14 8 9 9 10 10 90 11 11 12
REMARK SMILES IDX 12 13 13 14 8 15 1 16 2 17 3 18 94 19 4 20 93 21 5 22 91 23
REMARK SMILES IDX 6 24 92 25 7 26 21 27 22 28 23 30 24 31 25 32 89 33 26 34
REMARK SMILES IDX 88 35 27 36 28 37 29 38 82 39 30 40 87 41 81 42 83 43 31 44
REMARK SMILES IDX 86 45 80 46 79 47 32 49 66 50 45 51 65 52 46 53 49 54 64 55
REMARK SMILES IDX 84 56 47 57 48 58 63 60 85 61 50 62 33 63 34 64 43 65 35 66
REMARK SMILES IDX 36 67 42 68 44 69 37 70 38 71 39 72 40 73 41 74 67 75 68 76
REMARK SMILES IDX 77 77 69 78 70 79 76 80 78 81 71 82 72 83 73 84 74 85 75 86
REMARK SMILES IDX 51 87 52 88 61 89 53 90 54 91 60 92 62 93 55 94 56 95 57 96
REMARK SMILES IDX 58 97 59 98
REMARK H PARENT 17 7 21 29 83 48 49 59
REMARK Flexibility Score: inf
ROOT
ATOM      1  C   UNL A   1      37.039  23.574  25.043  1.00  0.00     0.118 C 
ENDROOT
BRANCH   1   2
ATOM      2  C   UNL A   1      36.451  23.308  23.665  1.00  0.00     0.042 C 
BRANCH   2   3
ATOM      3  C   UNL A   1      35.020  23.781  23.477  1.00  0.00     0.118 C 
BRANCH   3   4
ATOM      4  N   UNL A   1      34.073  22.734  23.124  1.00  0.00    -0.352 N 
ATOM      5  C   UNL A   1      32.744  22.574  23.435  1.00  0.00     0.252 C 
ATOM      6  O   UNL A   1      32.145  21.610  22.957  1.00  0.00    -0.269 OA
ATOM      7  H   UNL A   1      34.450  22.015  22.568  1.00  0.00     0.163 HD
BRANCH   5   8
ATOM      8  C   UNL A   1      32.010  23.465  24.372  1.00  0.00     0.060 A 
ATOM      9  C   UNL A   1      30.571  25.428  24.568  1.00  0.00     0.053 A 
ATOM     10  C   UNL A   1      30.606  25.287  25.960  1.00  0.00     0.028 A 
ATOM     11  C   UNL A   1      31.186  24.453  23.775  1.00  0.00     0.042 A 
ATOM     12  C   UNL A   1      31.404  24.319  26.555  1.00  0.00     0.023 A 
ATOM     13  C   UNL A   1      32.196  23.490  25.761  1.00  0.00     0.053 A 
ATOM     14  Cl  UNL A   1      33.512  22.725  26.585  1.00  0.00    -0.083 Cl
BRANCH   9  15
ATOM     15  N   UNL A   1      30.050  26.627  24.032  1.00  0.00    -0.250 N 
ATOM     16  C   UNL A   1      28.742  31.699  20.963  1.00  0.00     0.039 C 
ATOM     17  C   UNL A   1      28.654  30.530  21.900  1.00  0.00    -0.076 C 
ATOM     18  C   UNL A   1      27.456  30.117  22.373  1.00  0.00    -0.027 C 
ATOM     19  C   UNL A   1      29.969  29.828  22.257  1.00  0.00     0.044 C 
ATOM     20  C   UNL A   1      27.272  28.871  23.208  1.00  0.00     0.041 C 
ATOM     21  C   UNL A   1      29.743  28.835  23.388  1.00  0.00     0.096 C 
ATOM     22  C   UNL A   1      28.510  28.018  23.044  1.00  0.00     0.096 C 
ATOM     23  C   UNL A   1      30.763  27.758  23.675  1.00  0.00     0.238 C 
ATOM     24  C   UNL A   1      28.677  26.815  23.905  1.00  0.00     0.238 C 
ATOM     25  O   UNL A   1      31.973  27.920  23.638  1.00  0.00    -0.274 OA
ATOM     26  O   UNL A   1      27.762  26.152  24.343  1.00  0.00    -0.274 OA
ENDBRANCH   9  15
ENDBRANCH   5   8
ENDBRANCH   3   4
ENDBRANCH   2   3
ENDBRANCH   1   2
BRANCH   1  27
ATOM     27  N   UNL A   1      38.168  22.712  25.382  1.00  0.00    -0.352 N 
ATOM     28  C   UNL A   1      39.314  22.952  26.105  1.00  0.00     0.251 C 
ATOM     29  H   UNL A   1      38.096  21.795  25.030  1.00  0.00     0.163 HD
ATOM     30  O   UNL A   1      40.193  22.093  26.143  1.00  0.00    -0.269 OA
BRANCH  28  31
ATOM     31  C   UNL A   1      39.521  24.242  26.801  1.00  0.00     0.039 A 
ATOM     32  C   UNL A   1      38.985  24.424  28.081  1.00  0.00     0.014 A 
ATOM     33  C   UNL A   1      40.235  25.278  26.202  1.00  0.00     0.014 A 
ATOM     34  C   UNL A   1      39.262  25.595  28.794  1.00  0.00     0.010 A 
ATOM     35  C   UNL A   1      40.607  26.388  26.952  1.00  0.00     0.010 A 
ATOM     36  C   UNL A   1      40.127  26.562  28.258  1.00  0.00    -0.014 A 
BRANCH  36  37
ATOM     37  C   UNL A   1      40.549  27.766  29.025  1.00  0.00     0.031 A 
ATOM     38  C   UNL A   1      41.858  27.759  29.770  1.00  0.00     0.074 A 
ATOM     39  C   UNL A   1      39.711  28.816  29.143  1.00  0.00     0.049 A 
ATOM     40  N   UNL A   1      42.331  28.631  30.621  1.00  0.00    -0.248 NA
ATOM     41  C   UNL A   1      42.735  26.595  29.557  1.00  0.00     0.031 C 
ATOM     42  C   UNL A   1      38.392  28.924  28.513  1.00  0.00     0.029 A 
ATOM     43  N   UNL A   1      39.831  29.985  29.852  1.00  0.00    -0.354 N 
ATOM     44  C   UNL A   1      43.540  28.108  31.068  1.00  0.00     0.074 A 
ATOM     45  C   UNL A   1      43.701  26.817  30.436  1.00  0.00     0.031 C 
ATOM     46  C   UNL A   1      37.837  30.101  28.848  1.00  0.00     0.029 A 
ATOM     47  C   UNL A   1      38.735  30.810  29.754  1.00  0.00     0.049 A 
ATOM     48  H   UNL A   1      40.630  30.213  30.382  1.00  0.00     0.167 HD
ATOM     49  C   UNL A   1      44.446  28.663  31.909  1.00  0.00     0.037 A 
ATOM     50  C   UNL A   1      38.472  31.995  30.340  1.00  0.00     0.037 A 
ATOM     51  C   UNL A   1      44.297  29.967  32.500  1.00  0.00     0.049 A 
ATOM     52  C   UNL A   1      39.497  32.598  31.263  1.00  0.00     0.074 A 
ATOM     53  C   UNL A   1      45.185  30.647  33.313  1.00  0.00     0.029 A 
ATOM     54  N   UNL A   1      43.190  30.787  32.339  1.00  0.00    -0.354 N 
ATOM     55  N   UNL A   1      40.659  32.113  31.631  1.00  0.00    -0.248 NA
ATOM     56  C   UNL A   1      39.180  33.909  31.847  1.00  0.00     0.031 C 
ATOM     57  C   UNL A   1      44.598  31.864  33.678  1.00  0.00     0.029 A 
ATOM     58  C   UNL A   1      43.367  31.963  33.049  1.00  0.00     0.049 A 
ATOM     59  H   UNL A   1      42.397  30.567  31.799  1.00  0.00     0.167 HD
ATOM     60  C   UNL A   1      41.227  33.074  32.461  1.00  0.00     0.074 A 
ATOM     61  C   UNL A   1      40.283  34.170  32.538  1.00  0.00     0.031 C 
ATOM     62  C   UNL A   1      42.425  33.053  33.097  1.00  0.00     0.037 A 
BRANCH  49  63
ATOM     63  C   UNL A   1      45.681  27.867  32.230  1.00  0.00     0.058 A 
ATOM     64  C   UNL A   1      45.731  26.989  33.325  1.00  0.00     0.135 A 
ATOM     65  C   UNL A   1      46.820  27.956  31.414  1.00  0.00     0.135 A 
ATOM     66  F   UNL A   1      44.676  26.875  34.148  1.00  0.00    -0.206 F 
ATOM     67  C   UNL A   1      46.875  26.257  33.622  1.00  0.00     0.059 A 
ATOM     68  C   UNL A   1      47.966  27.208  31.672  1.00  0.00     0.059 A 
ATOM     69  F   UNL A   1      46.830  28.778  30.352  1.00  0.00    -0.206 F 
ATOM     70  C   UNL A   1      47.988  26.373  32.788  1.00  0.00     0.060 A 
BRANCH  70  71
ATOM     71  S   UNL A   1      49.463  25.410  33.183  1.00  0.00     0.124 S 
ATOM     72  O   UNL A   1      50.339  26.437  33.741  1.00  0.00    -0.237 OA
ATOM     73  O   UNL A   1      48.951  24.431  34.136  1.00  0.00    -0.237 OA
ATOM     74  O   UNL A   1      49.874  24.870  31.892  1.00  0.00    -0.744 OA
ENDBRANCH  70  71
ENDBRANCH  49  63
BRANCH  50  75
ATOM     75  C   UNL A   1      37.192  32.701  30.054  1.00  0.00     0.058 A 
ATOM     76  C   UNL A   1      37.114  33.665  29.038  1.00  0.00     0.135 A 
ATOM     77  C   UNL A   1      36.022  32.418  30.776  1.00  0.00     0.135 A 
ATOM     78  F   UNL A   1      38.207  33.975  28.325  1.00  0.00    -0.206 F 
ATOM     79  C   UNL A   1      35.928  34.335  28.757  1.00  0.00     0.059 A 
ATOM     80  C   UNL A   1      34.817  33.055  30.497  1.00  0.00     0.059 A 
ATOM     81  F   UNL A   1      36.039  31.491  31.747  1.00  0.00    -0.206 F 
ATOM     82  C   UNL A   1      34.783  34.021  29.491  1.00  0.00     0.060 A 
BRANCH  82  83
ATOM     83  S   UNL A   1      33.237  34.862  29.085  1.00  0.00     0.124 S 
ATOM     84  O   UNL A   1      32.671  33.969  28.081  1.00  0.00    -0.237 OA
ATOM     85  O   UNL A   1      32.554  34.887  30.375  1.00  0.00    -0.237 OA
ATOM     86  O   UNL A   1      33.682  36.164  28.595  1.00  0.00    -0.744 OA
ENDBRANCH  82  83
ENDBRANCH  50  75
BRANCH  62  87
ATOM     87  C   UNL A   1      42.815  34.268  33.891  1.00  0.00     0.058 A 
ATOM     88  C   UNL A   1      42.601  34.347  35.275  1.00  0.00     0.135 A 
ATOM     89  C   UNL A   1      43.486  35.332  33.267  1.00  0.00     0.135 A 
ATOM     90  F   UNL A   1      41.958  33.361  35.918  1.00  0.00    -0.206 F 
ATOM     91  C   UNL A   1      43.030  35.448  36.012  1.00  0.00     0.059 A 
ATOM     92  C   UNL A   1      43.947  36.428  33.988  1.00  0.00     0.059 A 
ATOM     93  F   UNL A   1      43.723  35.300  31.945  1.00  0.00    -0.206 F 
ATOM     94  C   UNL A   1      43.709  36.479  35.360  1.00  0.00     0.060 A 
BRANCH  94  95
ATOM     95  S   UNL A   1      44.310  37.872  36.338  1.00  0.00     0.124 S 
ATOM     96  O   UNL A   1      45.704  37.498  36.557  1.00  0.00    -0.237 OA
ATOM     97  O   UNL A   1      44.089  39.002  35.443  1.00  0.00    -0.237 OA
ATOM     98  O   UNL A   1      43.461  37.845  37.526  1.00  0.00    -0.744 OA
ENDBRANCH  94  95
ENDBRANCH  62  87
ENDBRANCH  36  37
ENDBRANCH  28  31
ENDBRANCH   1  27
TORSDOF 14
ENDMDL
MODEL 3
REMARK VINA RESULT:     -12.6      5.045     10.781
REMARK SMILES CC1=CC[C@@H]2C(=O)N(c3ccc(Cl)c(C(=O)NCCCNC(=O)c4ccc(-c5c6nc(c(-c7c(F)cc(S(=O)(=O)[O-])cc7F)c7ccc([nH]7)c(-c7c(F)cc(S(=O)(=O)[O-])cc7F)c7nc(c(-c8c(F)cc(S(=O)(=O)[O-])cc8F)c8ccc5[nH]8)C=C7)C=C6)cc4)c3)C(=O)[C@H]2C1
REMARK SMILES IDX 20 1 19 2 18 3 17 4 15 5 16 6 14 8 9 9 10 10 90 11 11 12
REMARK SMILES IDX 12 13 13 14 8 15 1 16 2 17 3 18 94 19 4 20 93 21 5 22 91 23
REMARK SMILES IDX 6 24 92 25 7 26 21 27 22 28 23 30 24 31 25 32 89 33 26 34
REMARK SMILES IDX 88 35 27 36 28 37 29 38 82 39 30 40 87 41 81 42 83 43 31 44
REMARK SMILES IDX 86 45 80 46 79 47 32 49 66 50 45 51 65 52 46 53 49 54 64 55
REMARK SMILES IDX 84 56 47 57 48 58 63 60 85 61 50 62 33 63 34 64 43 65 35 66
REMARK SMILES IDX 36 67 42 68 44 69 37 70 38 71 39 72 40 73 41 74 67 75 68 76
REMARK SMILES IDX 77 77 69 78 70 79 76 80 78 81 71 82 72 83 73 84 74 85 75 86
REMARK SMILES IDX 51 87 52 88 61 89 53 90 54 91 60 92 62 93 55 94 56 95 57 96
REMARK SMILES IDX 58 97 59 98
REMARK H PARENT 17 7 21 29 83 48 49 59
REMARK Flexibility Score: inf
ROOT
ATOM      1  C   UNL A   1      38.157  24.082  26.235  1.00  0.00     0.118 C 
ENDROOT
BRANCH   1   2
ATOM      2  C   UNL A   1      37.308  22.900  25.790  1.00  0.00     0.042 C 
BRANCH   2   3
ATOM      3  C   UNL A   1      36.184  23.244  24.829  1.00  0.00     0.118 C 
BRANCH   3   4
ATOM      4  N   UNL A   1      35.462  22.097  24.300  1.00  0.00    -0.352 N 
ATOM      5  C   UNL A   1      34.137  21.742  24.391  1.00  0.00     0.252 C 
ATOM      6  O   UNL A   1      33.762  20.731  23.795  1.00  0.00    -0.269 OA
ATOM      7  H   UNL A   1      36.018  21.466  23.790  1.00  0.00     0.163 HD
BRANCH   5   8
ATOM      8  C   UNL A   1      33.149  22.475  25.225  1.00  0.00     0.060 A 
ATOM      9  C   UNL A   1      31.588  24.351  25.310  1.00  0.00     0.053 A 
ATOM     10  C   UNL A   1      31.300  24.022  26.639  1.00  0.00     0.028 A 
ATOM     11  C   UNL A   1      32.432  23.512  24.574  1.00  0.00     0.042 A 
ATOM     12  C   UNL A   1      31.991  23.005  27.283  1.00  0.00     0.023 A 
ATOM     13  C   UNL A   1      32.997  22.315  26.609  1.00  0.00     0.053 A 
ATOM     14  Cl  UNL A   1      34.123  21.482  27.626  1.00  0.00    -0.083 Cl
BRANCH   9  15
ATOM     15  N   UNL A   1      31.138  25.597  24.818  1.00  0.00    -0.250 N 
ATOM     16  C   UNL A   1      28.114  30.432  22.737  1.00  0.00     0.039 C 
ATOM     17  C   UNL A   1      29.198  29.543  23.272  1.00  0.00    -0.076 C 
ATOM     18  C   UNL A   1      30.286  30.075  23.876  1.00  0.00    -0.027 C 
ATOM     19  C   UNL A   1      28.990  28.033  23.126  1.00  0.00     0.044 C 
ATOM     20  C   UNL A   1      31.351  29.247  24.557  1.00  0.00     0.041 C 
ATOM     21  C   UNL A   1      30.268  27.290  23.490  1.00  0.00     0.096 C 
ATOM     22  C   UNL A   1      30.779  27.868  24.799  1.00  0.00     0.096 C 
ATOM     23  C   UNL A   1      30.233  25.810  23.794  1.00  0.00     0.238 C 
ATOM     24  C   UNL A   1      31.679  26.789  25.291  1.00  0.00     0.238 C 
ATOM     25  O   UNL A   1      29.559  24.993  23.186  1.00  0.00    -0.274 OA
ATOM     26  O   UNL A   1      32.651  26.972  25.992  1.00  0.00    -0.274 OA
ENDBRANCH   9  15
ENDBRANCH   5   8
ENDBRANCH   3   4
ENDBRANCH   2   3
ENDBRANCH   1   2
BRANCH   1  27
ATOM     27  N   UNL A   1      39.596  23.849  26.132  1.00  0.00    -0.352 N 
ATOM     28  C   UNL A   1      40.670  24.531  26.656  1.00  0.00     0.251 C 
ATOM     29  H   UNL A   1      39.840  23.062  25.591  1.00  0.00     0.163 HD
ATOM     30  O   UNL A   1      41.808  24.215  26.317  1.00  0.00    -0.269 OA
BRANCH  28  31
ATOM     31  C   UNL A   1      40.472  25.665  27.588  1.00  0.00     0.039 A 
ATOM     32  C   UNL A   1      39.487  25.575  28.578  1.00  0.00     0.014 A 
ATOM     33  C   UNL A   1      41.246  26.820  27.492  1.00  0.00     0.014 A 
ATOM     34  C   UNL A   1      39.361  26.591  29.532  1.00  0.00     0.010 A 
ATOM     35  C   UNL A   1      41.200  27.772  28.505  1.00  0.00     0.010 A 
ATOM     36  C   UNL A   1      40.258  27.670  29.539  1.00  0.00    -0.014 A 
BRANCH  36  37
ATOM     37  C   UNL A   1      40.242  28.711  30.601  1.00  0.00     0.031 A 
ATOM     38  C   UNL A   1      41.137  28.568  31.805  1.00  0.00     0.074 A 
ATOM     39  C   UNL A   1      39.349  29.721  30.541  1.00  0.00     0.049 A 
ATOM     40  N   UNL A   1      41.159  29.268  32.909  1.00  0.00    -0.248 NA
ATOM     41  C   UNL A   1      42.112  27.464  31.777  1.00  0.00     0.031 C 
ATOM     42  C   UNL A   1      38.391  29.943  29.455  1.00  0.00     0.029 A 
ATOM     43  N   UNL A   1      39.084  30.739  31.423  1.00  0.00    -0.354 N 
ATOM     44  C   UNL A   1      42.122  28.672  33.717  1.00  0.00     0.074 A 
ATOM     45  C   UNL A   1      42.623  27.521  32.998  1.00  0.00     0.031 C 
ATOM     46  C   UNL A   1      37.660  31.037  29.726  1.00  0.00     0.029 A 
ATOM     47  C   UNL A   1      38.060  31.567  31.025  1.00  0.00     0.049 A 
ATOM     48  H   UNL A   1      39.582  30.865  32.264  1.00  0.00     0.167 HD
ATOM     49  C   UNL A   1      42.568  29.063  34.935  1.00  0.00     0.037 A 
ATOM     50  C   UNL A   1      37.494  32.622  31.643  1.00  0.00     0.037 A 
ATOM     51  C   UNL A   1      42.094  30.235  35.623  1.00  0.00     0.049 A 
ATOM     52  C   UNL A   1      38.011  33.044  32.991  1.00  0.00     0.074 A 
ATOM     53  C   UNL A   1      42.525  30.754  36.831  1.00  0.00     0.029 A 
ATOM     54  N   UNL A   1      41.086  31.070  35.164  1.00  0.00    -0.354 N 
ATOM     55  N   UNL A   1      38.960  32.501  33.716  1.00  0.00    -0.248 NA
ATOM     56  C   UNL A   1      37.387  34.225  33.607  1.00  0.00     0.031 C 
ATOM     57  C   UNL A   1      41.750  31.881  37.122  1.00  0.00     0.029 A 
ATOM     58  C   UNL A   1      40.871  32.094  36.071  1.00  0.00     0.049 A 
ATOM     59  H   UNL A   1      40.597  30.953  34.317  1.00  0.00     0.167 HD
ATOM     60  C   UNL A   1      39.071  33.292  34.854  1.00  0.00     0.074 A 
ATOM     61  C   UNL A   1      38.095  34.354  34.721  1.00  0.00     0.031 C 
ATOM     62  C   UNL A   1      39.909  33.156  35.912  1.00  0.00     0.037 A 
BRANCH  49  63
ATOM     63  C   UNL A   1      43.627  28.222  35.595  1.00  0.00     0.058 A 
ATOM     64  C   UNL A   1      43.299  27.176  36.473  1.00  0.00     0.135 A 
ATOM     65  C   UNL A   1      44.986  28.442  35.321  1.00  0.00     0.135 A 
ATOM     66  F   UNL A   1      42.016  26.930  36.782  1.00  0.00    -0.206 F 
ATOM     67  C   UNL A   1      44.280  26.403  37.083  1.00  0.00     0.059 A 
ATOM     68  C   UNL A   1      45.984  27.659  35.896  1.00  0.00     0.059 A 
ATOM     69  F   UNL A   1      45.358  29.428  34.489  1.00  0.00    -0.206 F 
ATOM     70  C   UNL A   1      45.620  26.653  36.788  1.00  0.00     0.060 A 
BRANCH  70  71
ATOM     71  S   UNL A   1      46.881  25.635  37.585  1.00  0.00     0.124 S 
ATOM     72  O   UNL A   1      46.065  24.789  38.452  1.00  0.00    -0.237 OA
ATOM     73  O   UNL A   1      47.503  24.962  36.449  1.00  0.00    -0.237 OA
ATOM     74  O   UNL A   1      47.723  26.609  38.271  1.00  0.00    -0.744 OA
ENDBRANCH  70  71
ENDBRANCH  49  63
BRANCH  50  75
ATOM     75  C   UNL A   1      36.387  33.367  30.981  1.00  0.00     0.058 A 
ATOM     76  C   UNL A   1      36.633  34.177  29.863  1.00  0.00     0.135 A 
ATOM     77  C   UNL A   1      35.064  33.275  31.441  1.00  0.00     0.135 A 
ATOM     78  F   UNL A   1      37.882  34.303  29.389  1.00  0.00    -0.206 F 
ATOM     79  C   UNL A   1      35.613  34.881  29.232  1.00  0.00     0.059 A 
ATOM     80  C   UNL A   1      34.022  33.949  30.812  1.00  0.00     0.059 A 
ATOM     81  F   UNL A   1      34.772  32.500  32.498  1.00  0.00    -0.206 F 
ATOM     82  C   UNL A   1      34.309  34.759  29.713  1.00  0.00     0.060 A 
BRANCH  82  83
ATOM     83  S   UNL A   1      32.984  35.639  28.857  1.00  0.00     0.124 S 
ATOM     84  O   UNL A   1      32.153  36.076  29.973  1.00  0.00    -0.237 OA
ATOM     85  O   UNL A   1      33.717  36.689  28.156  1.00  0.00    -0.237 OA
ATOM     86  O   UNL A   1      32.399  34.613  27.998  1.00  0.00    -0.744 OA
ENDBRANCH  82  83
ENDBRANCH  50  75
BRANCH  62  87
ATOM     87  C   UNL A   1      39.852  34.203  36.989  1.00  0.00     0.058 A 
ATOM     88  C   UNL A   1      40.513  35.432  36.861  1.00  0.00     0.135 A 
ATOM     89  C   UNL A   1      39.055  33.998  38.127  1.00  0.00     0.135 A 
ATOM     90  F   UNL A   1      41.292  35.675  35.796  1.00  0.00    -0.206 F 
ATOM     91  C   UNL A   1      40.396  36.422  37.833  1.00  0.00     0.059 A 
ATOM     92  C   UNL A   1      38.902  34.983  39.097  1.00  0.00     0.059 A 
ATOM     93  F   UNL A   1      38.395  32.841  38.292  1.00  0.00    -0.206 F 
ATOM     94  C   UNL A   1      39.581  36.190  38.944  1.00  0.00     0.060 A 
BRANCH  94  95
ATOM     95  S   UNL A   1      39.392  37.504  40.167  1.00  0.00     0.124 S 
ATOM     96  O   UNL A   1      39.041  36.745  41.363  1.00  0.00    -0.237 OA
ATOM     97  O   UNL A   1      40.715  38.120  40.171  1.00  0.00    -0.237 OA
ATOM     98  O   UNL A   1      38.324  38.332  39.614  1.00  0.00    -0.744 OA
ENDBRANCH  94  95
ENDBRANCH  62  87
ENDBRANCH  36  37
ENDBRANCH  28  31
ENDBRANCH   1  27
TORSDOF 14
ENDMDL
