MODEL 1
REMARK VINA RESULT:     -12.7      0.000      0.000
REMARK SMILES Cc1nc(-c2ccccn2)cc(N2CCC[C@H](C(=O)NCCCNC(=O)c3ccc(-c4c5nc(c(-c6c(F)cc(S(=O)(=O)[O-])cc6F)c6ccc([nH]6)c(-c6c(F)cc(S(=O)(=O)[O-])cc6F)c6nc(c(-c7c(F)cc(S(=O)(=O)[O-])cc7F)c7ccc4[nH]7)C=C6)C=C5)cc3)C2)n1
REMARK SMILES IDX 22 1 21 2 20 3 18 4 19 5 17 7 13 8 14 9 93 10 15 11 16 12
REMARK SMILES IDX 12 13 1 14 2 15 3 16 94 17 4 18 11 19 5 20 6 21 10 22 7 23
REMARK SMILES IDX 9 24 8 25 23 26 24 27 25 28 26 30 27 31 28 32 92 33 29 34
REMARK SMILES IDX 91 35 30 36 31 37 32 38 85 39 33 40 90 41 84 42 86 43 34 44
REMARK SMILES IDX 89 45 83 46 82 47 35 49 69 50 48 51 68 52 49 53 52 54 67 55
REMARK SMILES IDX 87 56 50 57 51 58 66 60 88 61 53 62 36 63 37 64 46 65 38 66
REMARK SMILES IDX 39 67 45 68 47 69 40 70 41 71 42 72 43 73 44 74 70 75 71 76
REMARK SMILES IDX 80 77 72 78 73 79 79 80 81 81 74 82 75 83 76 84 77 85 78 86
REMARK SMILES IDX 54 87 55 88 64 89 56 90 57 91 63 92 65 93 58 94 59 95 60 96
REMARK SMILES IDX 61 97 62 98
REMARK H PARENT 20 6 24 29 86 48 52 59
REMARK Flexibility Score: inf
ROOT
ATOM      1  C   UNL A   1      31.803  28.739  26.946  1.00  0.00     0.042 C 
ENDROOT
BRANCH   1   2
ATOM      2  C   UNL A   1      31.657  28.649  25.447  1.00  0.00     0.117 C 
BRANCH   2   3
ATOM      3  N   UNL A   1      32.737  28.004  24.749  1.00  0.00    -0.356 N 
ATOM      4  C   UNL A   1      32.824  26.693  24.392  1.00  0.00     0.224 C 
ATOM      5  O   UNL A   1      33.708  26.390  23.582  1.00  0.00    -0.275 OA
ATOM      6  H   UNL A   1      33.500  28.576  24.500  1.00  0.00     0.163 HD
BRANCH   4   7
ATOM      7  C   UNL A   1      31.859  25.616  24.904  1.00  0.00     0.098 C 
ATOM      8  N   UNL A   1      32.732  23.400  24.332  1.00  0.00    -0.356 N 
ATOM      9  C   UNL A   1      31.466  22.849  23.847  1.00  0.00     0.118 C 
ATOM     10  C   UNL A   1      32.606  24.383  25.401  1.00  0.00     0.131 C 
ATOM     11  C   UNL A   1      30.548  23.962  23.321  1.00  0.00     0.022 C 
ATOM     12  C   UNL A   1      30.622  25.324  24.036  1.00  0.00     0.017 C 
BRANCH   8  13
ATOM     13  C   UNL A   1      33.772  22.478  24.512  1.00  0.00     0.132 A 
ATOM     14  C   UNL A   1      37.294  22.345  25.470  1.00  0.00     0.090 C 
ATOM     15  C   UNL A   1      35.900  21.917  25.139  1.00  0.00     0.128 A 
ATOM     16  N   UNL A   1      35.677  20.594  25.071  1.00  0.00    -0.231 NA
ATOM     17  N   UNL A   1      34.983  22.882  24.916  1.00  0.00    -0.216 NA
ATOM     18  C   UNL A   1      34.447  20.204  24.692  1.00  0.00     0.094 A 
ATOM     19  C   UNL A   1      33.502  21.138  24.312  1.00  0.00     0.077 A 
BRANCH  18  20
ATOM     20  C   UNL A   1      34.089  18.770  24.825  1.00  0.00     0.089 A 
ATOM     21  C   UNL A   1      34.860  17.745  24.260  1.00  0.00     0.030 A 
ATOM     22  N   UNL A   1      32.877  18.510  25.382  1.00  0.00    -0.255 NA
ATOM     23  C   UNL A   1      34.351  16.447  24.208  1.00  0.00     0.004 A 
ATOM     24  C   UNL A   1      32.395  17.249  25.289  1.00  0.00     0.112 A 
ATOM     25  C   UNL A   1      33.084  16.196  24.715  1.00  0.00     0.020 A 
ENDBRANCH  18  20
ENDBRANCH   8  13
ENDBRANCH   4   7
ENDBRANCH   2   3
ENDBRANCH   1   2
BRANCH   1  26
ATOM     26  C   UNL A   1      33.247  28.950  27.373  1.00  0.00     0.118 C 
BRANCH  26  27
ATOM     27  N   UNL A   1      33.513  30.321  27.817  1.00  0.00    -0.352 N 
ATOM     28  C   UNL A   1      34.571  30.883  28.487  1.00  0.00     0.251 C 
ATOM     29  H   UNL A   1      32.799  30.960  27.590  1.00  0.00     0.163 HD
ATOM     30  O   UNL A   1      34.423  31.962  29.047  1.00  0.00    -0.269 OA
BRANCH  28  31
ATOM     31  C   UNL A   1      35.871  30.204  28.573  1.00  0.00     0.039 A 
ATOM     32  C   UNL A   1      36.704  30.186  27.450  1.00  0.00     0.014 A 
ATOM     33  C   UNL A   1      36.279  29.599  29.755  1.00  0.00     0.014 A 
ATOM     34  C   UNL A   1      37.996  29.686  27.566  1.00  0.00     0.010 A 
ATOM     35  C   UNL A   1      37.608  29.272  29.920  1.00  0.00     0.010 A 
ATOM     36  C   UNL A   1      38.481  29.312  28.826  1.00  0.00    -0.014 A 
BRANCH  36  37
ATOM     37  C   UNL A   1      39.902  28.976  29.051  1.00  0.00     0.031 A 
ATOM     38  C   UNL A   1      40.828  30.020  29.605  1.00  0.00     0.074 A 
ATOM     39  C   UNL A   1      40.358  27.780  28.633  1.00  0.00     0.049 A 
ATOM     40  N   UNL A   1      42.126  29.990  29.726  1.00  0.00    -0.248 NA
ATOM     41  C   UNL A   1      40.216  31.296  30.020  1.00  0.00     0.031 C 
ATOM     42  C   UNL A   1      39.545  26.730  28.010  1.00  0.00     0.029 A 
ATOM     43  N   UNL A   1      41.617  27.244  28.662  1.00  0.00    -0.354 N 
ATOM     44  C   UNL A   1      42.487  31.249  30.191  1.00  0.00     0.074 A 
ATOM     45  C   UNL A   1      41.282  32.044  30.250  1.00  0.00     0.031 C 
ATOM     46  C   UNL A   1      40.313  25.655  27.775  1.00  0.00     0.029 A 
ATOM     47  C   UNL A   1      41.679  25.959  28.177  1.00  0.00     0.049 A 
ATOM     48  H   UNL A   1      42.403  27.731  28.998  1.00  0.00     0.167 HD
ATOM     49  C   UNL A   1      43.710  31.687  30.573  1.00  0.00     0.037 A 
ATOM     50  C   UNL A   1      42.728  25.124  28.073  1.00  0.00     0.037 A 
ATOM     51  C   UNL A   1      44.881  30.855  30.544  1.00  0.00     0.049 A 
ATOM     52  C   UNL A   1      44.070  25.616  28.532  1.00  0.00     0.074 A 
ATOM     53  C   UNL A   1      46.165  31.154  30.957  1.00  0.00     0.029 A 
ATOM     54  N   UNL A   1      44.901  29.544  30.081  1.00  0.00    -0.354 N 
ATOM     55  N   UNL A   1      44.392  26.793  29.019  1.00  0.00    -0.248 NA
ATOM     56  C   UNL A   1      45.190  24.675  28.431  1.00  0.00     0.031 C 
ATOM     57  C   UNL A   1      46.969  30.034  30.713  1.00  0.00     0.029 A 
ATOM     58  C   UNL A   1      46.177  29.022  30.188  1.00  0.00     0.049 A 
ATOM     59  H   UNL A   1      44.120  29.059  29.729  1.00  0.00     0.167 HD
ATOM     60  C   UNL A   1      45.748  26.728  29.305  1.00  0.00     0.074 A 
ATOM     61  C   UNL A   1      46.181  25.390  28.945  1.00  0.00     0.031 C 
ATOM     62  C   UNL A   1      46.564  27.682  29.819  1.00  0.00     0.037 A 
BRANCH  49  63
ATOM     63  C   UNL A   1      43.811  33.113  31.047  1.00  0.00     0.058 A 
ATOM     64  C   UNL A   1      44.126  34.163  30.166  1.00  0.00     0.135 A 
ATOM     65  C   UNL A   1      43.647  33.430  32.404  1.00  0.00     0.135 A 
ATOM     66  F   UNL A   1      44.313  33.916  28.859  1.00  0.00    -0.206 F 
ATOM     67  C   UNL A   1      44.340  35.459  30.622  1.00  0.00     0.059 A 
ATOM     68  C   UNL A   1      43.821  34.729  32.878  1.00  0.00     0.059 A 
ATOM     69  F   UNL A   1      43.343  32.471  33.292  1.00  0.00    -0.206 F 
ATOM     70  C   UNL A   1      44.198  35.730  31.983  1.00  0.00     0.060 A 
BRANCH  70  71
ATOM     71  S   UNL A   1      44.536  37.403  32.570  1.00  0.00     0.124 S 
ATOM     72  O   UNL A   1      43.416  37.621  33.481  1.00  0.00    -0.237 OA
ATOM     73  O   UNL A   1      45.844  37.257  33.199  1.00  0.00    -0.237 OA
ATOM     74  O   UNL A   1      44.516  38.201  31.347  1.00  0.00    -0.744 OA
ENDBRANCH  70  71
ENDBRANCH  49  63
BRANCH  50  75
ATOM     75  C   UNL A   1      42.521  23.736  27.586  1.00  0.00     0.058 A 
ATOM     76  C   UNL A   1      42.535  23.457  26.211  1.00  0.00     0.135 A 
ATOM     77  C   UNL A   1      42.376  22.654  28.469  1.00  0.00     0.135 A 
ATOM     78  F   UNL A   1      42.672  24.456  25.327  1.00  0.00    -0.206 F 
ATOM     79  C   UNL A   1      42.407  22.159  25.728  1.00  0.00     0.059 A 
ATOM     80  C   UNL A   1      42.270  21.344  28.011  1.00  0.00     0.059 A 
ATOM     81  F   UNL A   1      42.382  22.864  29.796  1.00  0.00    -0.206 F 
ATOM     82  C   UNL A   1      42.282  21.107  26.637  1.00  0.00     0.060 A 
BRANCH  82  83
ATOM     83  S   UNL A   1      42.190  19.419  25.997  1.00  0.00     0.124 S 
ATOM     84  O   UNL A   1      40.760  19.276  25.750  1.00  0.00    -0.237 OA
ATOM     85  O   UNL A   1      43.038  19.496  24.812  1.00  0.00    -0.237 OA
ATOM     86  O   UNL A   1      42.726  18.616  27.092  1.00  0.00    -0.744 OA
ENDBRANCH  82  83
ENDBRANCH  50  75
BRANCH  62  87
ATOM     87  C   UNL A   1      47.998  27.298  30.043  1.00  0.00     0.058 A 
ATOM     88  C   UNL A   1      48.992  27.590  29.098  1.00  0.00     0.135 A 
ATOM     89  C   UNL A   1      48.384  26.681  31.242  1.00  0.00     0.135 A 
ATOM     90  F   UNL A   1      48.667  28.171  27.931  1.00  0.00    -0.206 F 
ATOM     91  C   UNL A   1      50.323  27.265  29.327  1.00  0.00     0.059 A 
ATOM     92  C   UNL A   1      49.713  26.372  31.505  1.00  0.00     0.059 A 
ATOM     93  F   UNL A   1      47.468  26.391  32.181  1.00  0.00    -0.206 F 
ATOM     94  C   UNL A   1      50.673  26.659  30.536  1.00  0.00     0.060 A 
BRANCH  94  95
ATOM     95  S   UNL A   1      52.412  26.283  30.840  1.00  0.00     0.124 S 
ATOM     96  O   UNL A   1      52.856  27.488  31.531  1.00  0.00    -0.237 OA
ATOM     97  O   UNL A   1      52.331  25.076  31.658  1.00  0.00    -0.237 OA
ATOM     98  O   UNL A   1      52.956  26.087  29.500  1.00  0.00    -0.744 OA
ENDBRANCH  94  95
ENDBRANCH  62  87
ENDBRANCH  36  37
ENDBRANCH  28  31
ENDBRANCH  26  27
ENDBRANCH   1  26
TORSDOF 15
ENDMDL
MODEL 2
REMARK VINA RESULT:     -12.6      2.675      8.883
REMARK SMILES Cc1nc(-c2ccccn2)cc(N2CCC[C@H](C(=O)NCCCNC(=O)c3ccc(-c4c5nc(c(-c6c(F)cc(S(=O)(=O)[O-])cc6F)c6ccc([nH]6)c(-c6c(F)cc(S(=O)(=O)[O-])cc6F)c6nc(c(-c7c(F)cc(S(=O)(=O)[O-])cc7F)c7ccc4[nH]7)C=C6)C=C5)cc3)C2)n1
REMARK SMILES IDX 22 1 21 2 20 3 18 4 19 5 17 7 13 8 14 9 93 10 15 11 16 12
REMARK SMILES IDX 12 13 1 14 2 15 3 16 94 17 4 18 11 19 5 20 6 21 10 22 7 23
REMARK SMILES IDX 9 24 8 25 23 26 24 27 25 28 26 30 27 31 28 32 92 33 29 34
REMARK SMILES IDX 91 35 30 36 31 37 32 38 85 39 33 40 90 41 84 42 86 43 34 44
REMARK SMILES IDX 89 45 83 46 82 47 35 49 69 50 48 51 68 52 49 53 52 54 67 55
REMARK SMILES IDX 87 56 50 57 51 58 66 60 88 61 53 62 36 63 37 64 46 65 38 66
REMARK SMILES IDX 39 67 45 68 47 69 40 70 41 71 42 72 43 73 44 74 70 75 71 76
REMARK SMILES IDX 80 77 72 78 73 79 79 80 81 81 74 82 75 83 76 84 77 85 78 86
REMARK SMILES IDX 54 87 55 88 64 89 56 90 57 91 63 92 65 93 58 94 59 95 60 96
REMARK SMILES IDX 61 97 62 98
REMARK H PARENT 20 6 24 29 86 48 52 59
REMARK Flexibility Score: inf
ROOT
ATOM      1  C   UNL A   1      34.281  28.678  26.975  1.00  0.00     0.042 C 
ENDROOT
BRANCH   1   2
ATOM      2  C   UNL A   1      33.695  29.230  25.699  1.00  0.00     0.117 C 
BRANCH   2   3
ATOM      3  N   UNL A   1      34.016  28.506  24.497  1.00  0.00    -0.356 N 
ATOM      4  C   UNL A   1      33.320  27.475  23.944  1.00  0.00     0.224 C 
ATOM      5  O   UNL A   1      33.614  27.157  22.786  1.00  0.00    -0.275 OA
ATOM      6  H   UNL A   1      34.830  28.789  24.020  1.00  0.00     0.163 HD
BRANCH   4   7
ATOM      7  C   UNL A   1      32.180  26.746  24.668  1.00  0.00     0.098 C 
ATOM      8  N   UNL A   1      32.482  24.326  24.434  1.00  0.00    -0.356 N 
ATOM      9  C   UNL A   1      31.091  24.022  24.100  1.00  0.00     0.118 C 
ATOM     10  C   UNL A   1      32.667  25.461  25.329  1.00  0.00     0.131 C 
ATOM     11  C   UNL A   1      30.409  25.227  23.436  1.00  0.00     0.022 C 
ATOM     12  C   UNL A   1      30.844  26.625  23.913  1.00  0.00     0.017 C 
BRANCH   8  13
ATOM     13  C   UNL A   1      33.298  23.223  24.719  1.00  0.00     0.132 A 
ATOM     14  C   UNL A   1      33.329  19.582  24.430  1.00  0.00     0.090 C 
ATOM     15  C   UNL A   1      33.787  20.989  24.648  1.00  0.00     0.128 A 
ATOM     16  N   UNL A   1      35.047  21.149  25.087  1.00  0.00    -0.231 NA
ATOM     17  N   UNL A   1      32.904  21.982  24.410  1.00  0.00    -0.216 NA
ATOM     18  C   UNL A   1      35.438  22.406  25.365  1.00  0.00     0.094 A 
ATOM     19  C   UNL A   1      34.541  23.453  25.279  1.00  0.00     0.077 A 
BRANCH  18  20
ATOM     20  C   UNL A   1      36.877  22.655  25.628  1.00  0.00     0.089 A 
ATOM     21  C   UNL A   1      37.840  21.639  25.577  1.00  0.00     0.030 A 
ATOM     22  N   UNL A   1      37.189  23.895  26.089  1.00  0.00    -0.255 NA
ATOM     23  C   UNL A   1      39.124  21.879  26.068  1.00  0.00     0.004 A 
ATOM     24  C   UNL A   1      38.431  24.091  26.586  1.00  0.00     0.112 A 
ATOM     25  C   UNL A   1      39.422  23.125  26.601  1.00  0.00     0.020 A 
ENDBRANCH  18  20
ENDBRANCH   8  13
ENDBRANCH   4   7
ENDBRANCH   2   3
ENDBRANCH   1   2
BRANCH   1  26
ATOM     26  C   UNL A   1      35.468  29.492  27.464  1.00  0.00     0.118 C 
BRANCH  26  27
ATOM     27  N   UNL A   1      35.479  29.662  28.920  1.00  0.00    -0.352 N 
ATOM     28  C   UNL A   1      36.485  29.569  29.849  1.00  0.00     0.251 C 
ATOM     29  H   UNL A   1      34.600  29.886  29.302  1.00  0.00     0.163 HD
ATOM     30  O   UNL A   1      36.199  29.413  31.030  1.00  0.00    -0.269 OA
BRANCH  28  31
ATOM     31  C   UNL A   1      37.899  29.624  29.457  1.00  0.00     0.039 A 
ATOM     32  C   UNL A   1      38.883  29.532  30.446  1.00  0.00     0.014 A 
ATOM     33  C   UNL A   1      38.262  29.751  28.121  1.00  0.00     0.014 A 
ATOM     34  C   UNL A   1      40.218  29.425  30.074  1.00  0.00     0.010 A 
ATOM     35  C   UNL A   1      39.557  29.466  27.745  1.00  0.00     0.010 A 
ATOM     36  C   UNL A   1      40.549  29.300  28.718  1.00  0.00    -0.014 A 
BRANCH  36  37
ATOM     37  C   UNL A   1      41.919  28.972  28.272  1.00  0.00     0.031 A 
ATOM     38  C   UNL A   1      42.243  27.566  27.857  1.00  0.00     0.074 A 
ATOM     39  C   UNL A   1      42.875  29.916  28.372  1.00  0.00     0.049 A 
ATOM     40  N   UNL A   1      43.403  27.031  27.592  1.00  0.00    -0.248 NA
ATOM     41  C   UNL A   1      41.116  26.617  27.795  1.00  0.00     0.031 C 
ATOM     42  C   UNL A   1      42.668  31.290  28.840  1.00  0.00     0.029 A 
ATOM     43  N   UNL A   1      44.213  29.864  28.091  1.00  0.00    -0.354 N 
ATOM     44  C   UNL A   1      43.150  25.682  27.370  1.00  0.00     0.074 A 
ATOM     45  C   UNL A   1      41.743  25.466  27.616  1.00  0.00     0.031 C 
ATOM     46  C   UNL A   1      43.823  31.967  28.753  1.00  0.00     0.029 A 
ATOM     47  C   UNL A   1      44.861  31.062  28.280  1.00  0.00     0.049 A 
ATOM     48  H   UNL A   1      44.669  29.048  27.783  1.00  0.00     0.167 HD
ATOM     49  C   UNL A   1      44.010  24.721  26.960  1.00  0.00     0.037 A 
ATOM     50  C   UNL A   1      46.152  31.387  28.086  1.00  0.00     0.037 A 
ATOM     51  C   UNL A   1      45.396  24.980  26.681  1.00  0.00     0.049 A 
ATOM     52  C   UNL A   1      47.084  30.315  27.600  1.00  0.00     0.074 A 
ATOM     53  C   UNL A   1      46.359  24.113  26.204  1.00  0.00     0.029 A 
ATOM     54  N   UNL A   1      46.011  26.216  26.848  1.00  0.00    -0.354 N 
ATOM     55  N   UNL A   1      46.824  29.053  27.345  1.00  0.00    -0.248 NA
ATOM     56  C   UNL A   1      48.479  30.705  27.374  1.00  0.00     0.031 C 
ATOM     57  C   UNL A   1      47.566  24.817  26.113  1.00  0.00     0.029 A 
ATOM     58  C   UNL A   1      47.345  26.133  26.493  1.00  0.00     0.049 A 
ATOM     59  H   UNL A   1      45.563  27.030  27.171  1.00  0.00     0.167 HD
ATOM     60  C   UNL A   1      48.019  28.501  26.904  1.00  0.00     0.074 A 
ATOM     61  C   UNL A   1      48.998  29.572  26.919  1.00  0.00     0.031 C 
ATOM     62  C   UNL A   1      48.286  27.227  26.521  1.00  0.00     0.037 A 
BRANCH  49  63
ATOM     63  C   UNL A   1      43.456  23.330  26.795  1.00  0.00     0.058 A 
ATOM     64  C   UNL A   1      43.165  22.516  27.903  1.00  0.00     0.135 A 
ATOM     65  C   UNL A   1      43.266  22.782  25.517  1.00  0.00     0.135 A 
ATOM     66  F   UNL A   1      43.345  22.980  29.150  1.00  0.00    -0.206 F 
ATOM     67  C   UNL A   1      42.771  21.190  27.752  1.00  0.00     0.059 A 
ATOM     68  C   UNL A   1      42.837  21.467  25.342  1.00  0.00     0.059 A 
ATOM     69  F   UNL A   1      43.525  23.511  24.421  1.00  0.00    -0.206 F 
ATOM     70  C   UNL A   1      42.623  20.671  26.466  1.00  0.00     0.060 A 
BRANCH  70  71
ATOM     71  S   UNL A   1      42.167  18.934  26.284  1.00  0.00     0.124 S 
ATOM     72  O   UNL A   1      42.308  18.453  27.655  1.00  0.00    -0.237 OA
ATOM     73  O   UNL A   1      40.800  19.019  25.781  1.00  0.00    -0.237 OA
ATOM     74  O   UNL A   1      43.151  18.423  25.334  1.00  0.00    -0.744 OA
ENDBRANCH  70  71
ENDBRANCH  49  63
BRANCH  50  75
ATOM     75  C   UNL A   1      46.598  32.790  28.284  1.00  0.00     0.058 A 
ATOM     76  C   UNL A   1      46.482  33.725  27.244  1.00  0.00     0.135 A 
ATOM     77  C   UNL A   1      47.080  33.247  29.521  1.00  0.00     0.135 A 
ATOM     78  F   UNL A   1      46.025  33.337  26.044  1.00  0.00    -0.206 F 
ATOM     79  C   UNL A   1      46.831  35.059  27.420  1.00  0.00     0.059 A 
ATOM     80  C   UNL A   1      47.415  34.582  29.727  1.00  0.00     0.059 A 
ATOM     81  F   UNL A   1      47.187  32.399  30.557  1.00  0.00    -0.206 F 
ATOM     82  C   UNL A   1      47.291  35.481  28.668  1.00  0.00     0.060 A 
BRANCH  82  83
ATOM     83  S   UNL A   1      47.673  37.231  28.902  1.00  0.00     0.124 S 
ATOM     84  O   UNL A   1      48.843  37.394  28.046  1.00  0.00    -0.237 OA
ATOM     85  O   UNL A   1      46.448  37.875  28.438  1.00  0.00    -0.237 OA
ATOM     86  O   UNL A   1      47.920  37.332  30.337  1.00  0.00    -0.744 OA
ENDBRANCH  82  83
ENDBRANCH  50  75
BRANCH  62  87
ATOM     87  C   UNL A   1      49.686  26.937  26.064  1.00  0.00     0.058 A 
ATOM     88  C   UNL A   1      50.654  26.430  26.943  1.00  0.00     0.135 A 
ATOM     89  C   UNL A   1      50.042  27.118  24.719  1.00  0.00     0.135 A 
ATOM     90  F   UNL A   1      50.362  26.250  28.241  1.00  0.00    -0.206 F 
ATOM     91  C   UNL A   1      51.939  26.129  26.506  1.00  0.00     0.059 A 
ATOM     92  C   UNL A   1      51.311  26.798  24.254  1.00  0.00     0.059 A 
ATOM     93  F   UNL A   1      49.144  27.592  23.839  1.00  0.00    -0.206 F 
ATOM     94  C   UNL A   1      52.255  26.313  25.158  1.00  0.00     0.060 A 
BRANCH  94  95
ATOM     95  S   UNL A   1      53.913  25.877  24.594  1.00  0.00     0.124 S 
ATOM     96  O   UNL A   1      54.746  26.659  25.501  1.00  0.00    -0.237 OA
ATOM     97  O   UNL A   1      53.940  24.431  24.796  1.00  0.00    -0.237 OA
ATOM     98  O   UNL A   1      53.921  26.309  23.200  1.00  0.00    -0.744 OA
ENDBRANCH  94  95
ENDBRANCH  62  87
ENDBRANCH  36  37
ENDBRANCH  28  31
ENDBRANCH  26  27
ENDBRANCH   1  26
TORSDOF 15
ENDMDL
MODEL 3
REMARK VINA RESULT:     -12.6      2.551      3.782
REMARK SMILES Cc1nc(-c2ccccn2)cc(N2CCC[C@H](C(=O)NCCCNC(=O)c3ccc(-c4c5nc(c(-c6c(F)cc(S(=O)(=O)[O-])cc6F)c6ccc([nH]6)c(-c6c(F)cc(S(=O)(=O)[O-])cc6F)c6nc(c(-c7c(F)cc(S(=O)(=O)[O-])cc7F)c7ccc4[nH]7)C=C6)C=C5)cc3)C2)n1
REMARK SMILES IDX 22 1 21 2 20 3 18 4 19 5 17 7 13 8 14 9 93 10 15 11 16 12
REMARK SMILES IDX 12 13 1 14 2 15 3 16 94 17 4 18 11 19 5 20 6 21 10 22 7 23
REMARK SMILES IDX 9 24 8 25 23 26 24 27 25 28 26 30 27 31 28 32 92 33 29 34
REMARK SMILES IDX 91 35 30 36 31 37 32 38 85 39 33 40 90 41 84 42 86 43 34 44
REMARK SMILES IDX 89 45 83 46 82 47 35 49 69 50 48 51 68 52 49 53 52 54 67 55
REMARK SMILES IDX 87 56 50 57 51 58 66 60 88 61 53 62 36 63 37 64 46 65 38 66
REMARK SMILES IDX 39 67 45 68 47 69 40 70 41 71 42 72 43 73 44 74 70 75 71 76
REMARK SMILES IDX 80 77 72 78 73 79 79 80 81 81 74 82 75 83 76 84 77 85 78 86
REMARK SMILES IDX 54 87 55 88 64 89 56 90 57 91 63 92 65 93 58 94 59 95 60 96
REMARK SMILES IDX 61 97 62 98
REMARK H PARENT 20 6 24 29 86 48 52 59
REMARK Flexibility Score: inf
ROOT
ATOM      1  C   UNL A   1      34.706  28.998  27.247  1.00  0.00     0.042 C 
ENDROOT
BRANCH   1   2
ATOM      2  C   UNL A   1      33.768  29.415  26.141  1.00  0.00     0.117 C 
BRANCH   2   3
ATOM      3  N   UNL A   1      33.934  28.730  24.886  1.00  0.00    -0.356 N 
ATOM      4  C   UNL A   1      33.155  27.735  24.380  1.00  0.00     0.224 C 
ATOM      5  O   UNL A   1      33.309  27.455  23.186  1.00  0.00    -0.275 OA
ATOM      6  H   UNL A   1      34.695  29.014  24.330  1.00  0.00     0.163 HD
BRANCH   4   7
ATOM      7  C   UNL A   1      32.086  27.003  25.202  1.00  0.00     0.098 C 
ATOM      8  N   UNL A   1      32.263  24.592  24.805  1.00  0.00    -0.356 N 
ATOM      9  C   UNL A   1      30.830  24.352  24.634  1.00  0.00     0.118 C 
ATOM     10  C   UNL A   1      32.601  25.667  25.729  1.00  0.00     0.131 C 
ATOM     11  C   UNL A   1      30.118  25.614  24.126  1.00  0.00     0.022 C 
ATOM     12  C   UNL A   1      30.664  26.968  24.617  1.00  0.00     0.017 C 
BRANCH   8  13
ATOM     13  C   UNL A   1      33.064  23.448  24.927  1.00  0.00     0.132 A 
ATOM     14  C   UNL A   1      32.987  19.860  24.252  1.00  0.00     0.090 C 
ATOM     15  C   UNL A   1      33.491  21.226  24.593  1.00  0.00     0.128 A 
ATOM     16  N   UNL A   1      34.776  21.313  24.976  1.00  0.00    -0.231 NA
ATOM     17  N   UNL A   1      32.623  22.256  24.510  1.00  0.00    -0.216 NA
ATOM     18  C   UNL A   1      35.213  22.525  25.364  1.00  0.00     0.094 A 
ATOM     19  C   UNL A   1      34.340  23.593  25.439  1.00  0.00     0.077 A 
BRANCH  18  20
ATOM     20  C   UNL A   1      36.670  22.716  25.573  1.00  0.00     0.089 A 
ATOM     21  C   UNL A   1      37.594  21.670  25.448  1.00  0.00     0.030 A 
ATOM     22  N   UNL A   1      37.045  23.929  26.060  1.00  0.00    -0.255 NA
ATOM     23  C   UNL A   1      38.904  21.850  25.890  1.00  0.00     0.004 A 
ATOM     24  C   UNL A   1      38.313  24.065  26.510  1.00  0.00     0.112 A 
ATOM     25  C   UNL A   1      39.269  23.066  26.451  1.00  0.00     0.020 A 
ENDBRANCH  18  20
ENDBRANCH   8  13
ENDBRANCH   4   7
ENDBRANCH   2   3
ENDBRANCH   1   2
BRANCH   1  26
ATOM     26  C   UNL A   1      35.503  30.168  27.800  1.00  0.00     0.118 C 
BRANCH  26  27
ATOM     27  N   UNL A   1      35.491  30.221  29.264  1.00  0.00    -0.352 N 
ATOM     28  C   UNL A   1      36.457  29.954  30.202  1.00  0.00     0.251 C 
ATOM     29  H   UNL A   1      34.629  30.502  29.647  1.00  0.00     0.163 HD
ATOM     30  O   UNL A   1      36.125  29.736  31.361  1.00  0.00    -0.269 OA
BRANCH  28  31
ATOM     31  C   UNL A   1      37.880  29.895  29.842  1.00  0.00     0.039 A 
ATOM     32  C   UNL A   1      38.831  29.725  30.854  1.00  0.00     0.014 A 
ATOM     33  C   UNL A   1      38.282  29.992  28.516  1.00  0.00     0.014 A 
ATOM     34  C   UNL A   1      40.161  29.511  30.512  1.00  0.00     0.010 A 
ATOM     35  C   UNL A   1      39.559  29.604  28.169  1.00  0.00     0.010 A 
ATOM     36  C   UNL A   1      40.512  29.359  29.164  1.00  0.00    -0.014 A 
BRANCH  36  37
ATOM     37  C   UNL A   1      41.861  28.923  28.750  1.00  0.00     0.031 A 
ATOM     38  C   UNL A   1      42.979  29.925  28.706  1.00  0.00     0.074 A 
ATOM     39  C   UNL A   1      42.024  27.665  28.298  1.00  0.00     0.049 A 
ATOM     40  N   UNL A   1      44.183  29.795  28.223  1.00  0.00    -0.248 NA
ATOM     41  C   UNL A   1      42.679  31.274  29.217  1.00  0.00     0.031 C 
ATOM     42  C   UNL A   1      40.974  26.643  28.230  1.00  0.00     0.029 A 
ATOM     43  N   UNL A   1      43.131  27.029  27.805  1.00  0.00    -0.354 N 
ATOM     44  C   UNL A   1      44.769  31.051  28.337  1.00  0.00     0.074 A 
ATOM     45  C   UNL A   1      43.760  31.946  28.855  1.00  0.00     0.031 C 
ATOM     46  C   UNL A   1      41.503  25.492  27.785  1.00  0.00     0.029 A 
ATOM     47  C   UNL A   1      42.911  25.711  27.484  1.00  0.00     0.049 A 
ATOM     48  H   UNL A   1      44.002  27.473  27.692  1.00  0.00     0.167 HD
ATOM     49  C   UNL A   1      46.045  31.412  28.069  1.00  0.00     0.037 A 
ATOM     50  C   UNL A   1      43.759  24.785  27.001  1.00  0.00     0.037 A 
ATOM     51  C   UNL A   1      47.036  30.485  27.597  1.00  0.00     0.049 A 
ATOM     52  C   UNL A   1      45.179  25.196  26.742  1.00  0.00     0.074 A 
ATOM     53  C   UNL A   1      48.377  30.706  27.344  1.00  0.00     0.029 A 
ATOM     54  N   UNL A   1      46.787  29.146  27.317  1.00  0.00    -0.354 N 
ATOM     55  N   UNL A   1      45.736  26.375  26.901  1.00  0.00    -0.248 NA
ATOM     56  C   UNL A   1      46.087  24.160  26.240  1.00  0.00     0.031 C 
ATOM     57  C   UNL A   1      48.931  29.507  26.879  1.00  0.00     0.029 A 
ATOM     58  C   UNL A   1      47.946  28.529  26.884  1.00  0.00     0.049 A 
ATOM     59  H   UNL A   1      45.914  28.703  27.413  1.00  0.00     0.167 HD
ATOM     60  C   UNL A   1      47.068  26.218  26.541  1.00  0.00     0.074 A 
ATOM     61  C   UNL A   1      47.232  24.825  26.167  1.00  0.00     0.031 C 
ATOM     62  C   UNL A   1      48.066  27.137  26.522  1.00  0.00     0.037 A 
BRANCH  49  63
ATOM     63  C   UNL A   1      46.410  32.856  28.291  1.00  0.00     0.058 A 
ATOM     64  C   UNL A   1      46.805  33.332  29.554  1.00  0.00     0.135 A 
ATOM     65  C   UNL A   1      46.311  33.790  27.247  1.00  0.00     0.135 A 
ATOM     66  F   UNL A   1      46.899  32.488  30.596  1.00  0.00    -0.206 F 
ATOM     67  C   UNL A   1      47.023  34.685  29.790  1.00  0.00     0.059 A 
ATOM     68  C   UNL A   1      46.561  35.145  27.452  1.00  0.00     0.059 A 
ATOM     69  F   UNL A   1      45.941  33.395  26.019  1.00  0.00    -0.206 F 
ATOM     70  C   UNL A   1      46.886  35.586  28.734  1.00  0.00     0.060 A 
BRANCH  70  71
ATOM     71  S   UNL A   1      47.115  37.346  29.066  1.00  0.00     0.124 S 
ATOM     72  O   UNL A   1      48.549  37.498  28.837  1.00  0.00    -0.237 OA
ATOM     73  O   UNL A   1      46.247  37.968  28.073  1.00  0.00    -0.237 OA
ATOM     74  O   UNL A   1      46.682  37.488  30.453  1.00  0.00    -0.744 OA
ENDBRANCH  70  71
ENDBRANCH  49  63
BRANCH  50  75
ATOM     75  C   UNL A   1      43.295  23.386  26.812  1.00  0.00     0.058 A 
ATOM     76  C   UNL A   1      43.141  22.858  25.521  1.00  0.00     0.135 A 
ATOM     77  C   UNL A   1      43.064  22.529  27.899  1.00  0.00     0.135 A 
ATOM     78  F   UNL A   1      43.352  23.638  24.450  1.00  0.00    -0.206 F 
ATOM     79  C   UNL A   1      42.770  21.534  25.313  1.00  0.00     0.059 A 
ATOM     80  C   UNL A   1      42.714  21.194  27.716  1.00  0.00     0.059 A 
ATOM     81  F   UNL A   1      43.222  22.977  29.155  1.00  0.00    -0.206 F 
ATOM     82  C   UNL A   1      42.565  20.706  26.418  1.00  0.00     0.060 A 
BRANCH  82  83
ATOM     83  S   UNL A   1      42.154  18.970  26.132  1.00  0.00     0.124 S 
ATOM     84  O   UNL A   1      40.731  19.052  25.826  1.00  0.00    -0.237 OA
ATOM     85  O   UNL A   1      43.029  18.630  25.014  1.00  0.00    -0.237 OA
ATOM     86  O   UNL A   1      42.493  18.332  27.400  1.00  0.00    -0.744 OA
ENDBRANCH  82  83
ENDBRANCH  50  75
BRANCH  62  87
ATOM     87  C   UNL A   1      49.424  26.652  26.106  1.00  0.00     0.058 A 
ATOM     88  C   UNL A   1      49.868  26.763  24.780  1.00  0.00     0.135 A 
ATOM     89  C   UNL A   1      50.307  26.123  27.059  1.00  0.00     0.135 A 
ATOM     90  F   UNL A   1      49.054  27.254  23.832  1.00  0.00    -0.206 F 
ATOM     91  C   UNL A   1      51.140  26.345  24.408  1.00  0.00     0.059 A 
ATOM     92  C   UNL A   1      51.593  25.725  26.715  1.00  0.00     0.059 A 
ATOM     93  F   UNL A   1      49.929  26.007  28.342  1.00  0.00    -0.206 F 
ATOM     94  C   UNL A   1      51.996  25.832  25.385  1.00  0.00     0.060 A 
BRANCH  94  95
ATOM     95  S   UNL A   1      53.661  25.335  24.897  1.00  0.00     0.124 S 
ATOM     96  O   UNL A   1      53.546  23.881  24.902  1.00  0.00    -0.237 OA
ATOM     97  O   UNL A   1      53.800  25.956  23.583  1.00  0.00    -0.237 OA
ATOM     98  O   UNL A   1      54.505  25.904  25.944  1.00  0.00    -0.744 OA
ENDBRANCH  94  95
ENDBRANCH  62  87
ENDBRANCH  36  37
ENDBRANCH  28  31
ENDBRANCH  26  27
ENDBRANCH   1  26
TORSDOF 15
ENDMDL
