MODEL 1
REMARK VINA RESULT:     -10.1      0.000      0.000
REMARK SMILES CS(=O)(=O)c1ccc(/C=C(/C(=O)NCCCNC(=O)c2ccc(-c3c4nc(c(-c5c(F)cc(S(=O)(=O)[O-])cc5F)c5ccc([nH]5)c(-c5c(F)cc(S(=O)(=O)[O-])cc5F)c5nc(c(-c6c(F)cc(S(=O)(=O)[O-])cc6F)c6ccc3[nH]6)C=C5)C=C4)cc2)c2ccc(-c3ccc(F)cc3F)cc2)cc1
REMARK SMILES IDX 15 1 14 2 13 3 11 4 12 5 10 7 9 8 8 9 5 10 6 11 101 12 7 13
REMARK SMILES IDX 100 14 2 15 1 16 3 17 4 18 86 19 87 20 99 21 88 22 98 23
REMARK SMILES IDX 89 24 90 25 91 26 96 27 92 28 95 29 97 30 93 31 94 32 16 33
REMARK SMILES IDX 17 34 18 35 19 37 20 38 21 39 85 40 22 41 84 42 23 43 24 44
REMARK SMILES IDX 25 45 78 46 26 47 83 48 77 49 79 50 27 51 82 52 76 53 75 54
REMARK SMILES IDX 28 56 62 57 41 58 61 59 42 60 45 61 60 62 80 63 43 64 44 65
REMARK SMILES IDX 59 67 81 68 46 69 29 70 30 71 39 72 31 73 32 74 38 75 40 76
REMARK SMILES IDX 33 77 34 78 35 79 36 80 37 81 63 82 64 83 73 84 65 85 66 86
REMARK SMILES IDX 72 87 74 88 67 89 68 90 69 91 70 92 71 93 47 94 48 95 57 96
REMARK SMILES IDX 49 97 50 98 56 99 58 100 51 101 52 102 53 103 54 104 55 105
REMARK H PARENT 13 6 17 36 79 55 45 66
REMARK Flexibility Score: inf
ROOT
ATOM      1  C   UNL A   1      34.853  32.644  30.784  1.00  0.00     0.042 C 
ENDROOT
BRANCH   1   2
ATOM      2  C   UNL A   1      35.513  33.907  31.339  1.00  0.00     0.118 C 
BRANCH   2   3
ATOM      3  N   UNL A   1      36.848  34.055  30.796  1.00  0.00    -0.352 N 
ATOM      4  C   UNL A   1      38.090  34.079  31.344  1.00  0.00     0.251 C 
ATOM      5  O   UNL A   1      39.016  34.290  30.556  1.00  0.00    -0.269 OA
ATOM      6  H   UNL A   1      36.857  34.160  29.817  1.00  0.00     0.163 HD
BRANCH   4   7
ATOM      7  C   UNL A   1      38.367  33.768  32.797  1.00  0.00     0.047 C 
ATOM      8  C   UNL A   1      38.124  34.660  33.787  1.00  0.00     0.022 C 
BRANCH   8   9
ATOM      9  C   UNL A   1      38.216  34.476  35.254  1.00  0.00    -0.025 A 
ATOM     10  C   UNL A   1      38.427  33.801  37.977  1.00  0.00     0.067 A 
ATOM     11  C   UNL A   1      39.331  34.699  37.405  1.00  0.00     0.021 A 
ATOM     12  C   UNL A   1      37.372  33.293  37.222  1.00  0.00     0.021 A 
ATOM     13  C   UNL A   1      39.204  35.055  36.058  1.00  0.00     0.009 A 
ATOM     14  C   UNL A   1      37.272  33.633  35.867  1.00  0.00     0.009 A 
BRANCH  10  15
ATOM     15  S   UNL A   1      38.678  33.310  39.665  1.00  0.00     0.175 S 
ATOM     16  C   UNL A   1      37.331  32.243  40.090  1.00  0.00     0.163 C 
ATOM     17  O   UNL A   1      38.542  34.506  40.480  1.00  0.00    -0.224 OA
ATOM     18  O   UNL A   1      39.897  32.527  39.691  1.00  0.00    -0.224 OA
ENDBRANCH  10  15
ENDBRANCH   8   9
BRANCH   7  19
ATOM     19  C   UNL A   1      39.092  32.501  33.070  1.00  0.00    -0.013 A 
ATOM     20  C   UNL A   1      40.385  32.580  33.605  1.00  0.00     0.009 A 
ATOM     21  C   UNL A   1      38.516  31.239  32.899  1.00  0.00     0.009 A 
ATOM     22  C   UNL A   1      41.074  31.432  33.992  1.00  0.00     0.009 A 
ATOM     23  C   UNL A   1      39.198  30.089  33.324  1.00  0.00     0.009 A 
ATOM     24  C   UNL A   1      40.485  30.163  33.889  1.00  0.00    -0.015 A 
BRANCH  24  25
ATOM     25  C   UNL A   1      41.207  28.967  34.372  1.00  0.00     0.018 A 
ATOM     26  C   UNL A   1      41.469  28.794  35.748  1.00  0.00     0.015 A 
ATOM     27  C   UNL A   1      41.684  27.973  33.500  1.00  0.00     0.133 A 
ATOM     28  C   UNL A   1      42.196  27.697  36.218  1.00  0.00     0.040 A 
ATOM     29  C   UNL A   1      42.402  26.872  33.959  1.00  0.00     0.079 A 
ATOM     30  F   UNL A   1      41.474  28.070  32.178  1.00  0.00    -0.206 F 
ATOM     31  C   UNL A   1      42.659  26.749  35.315  1.00  0.00     0.126 A 
ATOM     32  F   UNL A   1      43.366  25.703  35.763  1.00  0.00    -0.207 F 
ENDBRANCH  24  25
ENDBRANCH   7  19
ENDBRANCH   4   7
ENDBRANCH   2   3
ENDBRANCH   1   2
BRANCH   1  33
ATOM     33  C   UNL A   1      34.966  32.522  29.264  1.00  0.00     0.118 C 
BRANCH  33  34
ATOM     34  N   UNL A   1      34.263  31.350  28.758  1.00  0.00    -0.352 N 
ATOM     35  C   UNL A   1      34.760  30.177  28.249  1.00  0.00     0.251 C 
ATOM     36  H   UNL A   1      33.281  31.409  28.788  1.00  0.00     0.163 HD
ATOM     37  O   UNL A   1      34.011  29.422  27.635  1.00  0.00    -0.269 OA
BRANCH  35  38
ATOM     38  C   UNL A   1      36.186  29.825  28.430  1.00  0.00     0.039 A 
ATOM     39  C   UNL A   1      37.054  29.946  27.343  1.00  0.00     0.014 A 
ATOM     40  C   UNL A   1      36.657  29.338  29.653  1.00  0.00     0.014 A 
ATOM     41  C   UNL A   1      38.407  29.632  27.500  1.00  0.00     0.010 A 
ATOM     42  C   UNL A   1      38.018  29.101  29.828  1.00  0.00     0.010 A 
ATOM     43  C   UNL A   1      38.906  29.240  28.752  1.00  0.00    -0.014 A 
BRANCH  43  44
ATOM     44  C   UNL A   1      40.354  28.970  28.953  1.00  0.00     0.031 A 
ATOM     45  C   UNL A   1      40.927  27.619  28.619  1.00  0.00     0.074 A 
ATOM     46  C   UNL A   1      41.138  29.926  29.491  1.00  0.00     0.049 A 
ATOM     47  N   UNL A   1      42.142  27.170  28.802  1.00  0.00    -0.248 NA
ATOM     48  C   UNL A   1      40.008  26.633  28.026  1.00  0.00     0.031 C 
ATOM     49  C   UNL A   1      40.688  31.259  29.901  1.00  0.00     0.029 A 
ATOM     50  N   UNL A   1      42.475  29.922  29.801  1.00  0.00    -0.354 N 
ATOM     51  C   UNL A   1      42.134  25.855  28.350  1.00  0.00     0.074 A 
ATOM     52  C   UNL A   1      40.777  25.558  27.944  1.00  0.00     0.031 C 
ATOM     53  C   UNL A   1      41.730  31.946  30.393  1.00  0.00     0.029 A 
ATOM     54  C   UNL A   1      42.914  31.092  30.377  1.00  0.00     0.049 A 
ATOM     55  H   UNL A   1      43.066  29.154  29.627  1.00  0.00     0.167 HD
ATOM     56  C   UNL A   1      43.167  24.986  28.254  1.00  0.00     0.037 A 
ATOM     57  C   UNL A   1      44.127  31.433  30.854  1.00  0.00     0.037 A 
ATOM     58  C   UNL A   1      44.517  25.294  28.648  1.00  0.00     0.049 A 
ATOM     59  C   UNL A   1      45.256  30.442  30.752  1.00  0.00     0.074 A 
ATOM     60  C   UNL A   1      45.644  24.494  28.561  1.00  0.00     0.029 A 
ATOM     61  N   UNL A   1      44.926  26.499  29.201  1.00  0.00    -0.354 N 
ATOM     62  N   UNL A   1      45.240  29.221  30.271  1.00  0.00    -0.248 NA
ATOM     63  C   UNL A   1      46.569  30.876  31.248  1.00  0.00     0.031 C 
ATOM     64  C   UNL A   1      46.723  25.198  29.102  1.00  0.00     0.029 A 
ATOM     65  C   UNL A   1      46.284  26.458  29.474  1.00  0.00     0.049 A 
ATOM     66  H   UNL A   1      44.339  27.270  29.374  1.00  0.00     0.167 HD
ATOM     67  C   UNL A   1      46.545  28.753  30.380  1.00  0.00     0.074 A 
ATOM     68  C   UNL A   1      47.326  29.827  30.957  1.00  0.00     0.031 C 
ATOM     69  C   UNL A   1      47.050  27.542  30.037  1.00  0.00     0.037 A 
BRANCH  56  70
ATOM     70  C   UNL A   1      42.886  23.620  27.685  1.00  0.00     0.058 A 
ATOM     71  C   UNL A   1      42.952  23.373  26.304  1.00  0.00     0.135 A 
ATOM     72  C   UNL A   1      42.604  22.534  28.529  1.00  0.00     0.135 A 
ATOM     73  F   UNL A   1      43.201  24.378  25.449  1.00  0.00    -0.206 F 
ATOM     74  C   UNL A   1      42.729  22.105  25.779  1.00  0.00     0.059 A 
ATOM     75  C   UNL A   1      42.408  21.249  28.028  1.00  0.00     0.059 A 
ATOM     76  F   UNL A   1      42.527  22.711  29.858  1.00  0.00    -0.206 F 
ATOM     77  C   UNL A   1      42.462  21.048  26.650  1.00  0.00     0.060 A 
BRANCH  77  78
ATOM     78  S   UNL A   1      42.203  19.404  25.950  1.00  0.00     0.124 S 
ATOM     79  O   UNL A   1      43.058  19.453  24.767  1.00  0.00    -0.237 OA
ATOM     80  O   UNL A   1      42.661  18.533  27.026  1.00  0.00    -0.237 OA
ATOM     81  O   UNL A   1      40.769  19.369  25.683  1.00  0.00    -0.744 OA
ENDBRANCH  77  78
ENDBRANCH  56  70
BRANCH  57  82
ATOM     82  C   UNL A   1      44.337  32.771  31.473  1.00  0.00     0.058 A 
ATOM     83  C   UNL A   1      44.312  32.942  32.865  1.00  0.00     0.135 A 
ATOM     84  C   UNL A   1      44.560  33.909  30.681  1.00  0.00     0.135 A 
ATOM     85  F   UNL A   1      44.099  31.888  33.666  1.00  0.00    -0.206 F 
ATOM     86  C   UNL A   1      44.469  34.195  33.449  1.00  0.00     0.059 A 
ATOM     87  C   UNL A   1      44.750  35.167  31.243  1.00  0.00     0.059 A 
ATOM     88  F   UNL A   1      44.615  33.798  29.344  1.00  0.00    -0.206 F 
ATOM     89  C   UNL A   1      44.688  35.302  32.628  1.00  0.00     0.060 A 
BRANCH  89  90
ATOM     90  S   UNL A   1      44.917  36.921  33.396  1.00  0.00     0.124 S 
ATOM     91  O   UNL A   1      46.202  36.749  34.063  1.00  0.00    -0.237 OA
ATOM     92  O   UNL A   1      44.911  37.811  32.238  1.00  0.00    -0.237 OA
ATOM     93  O   UNL A   1      43.758  37.042  34.275  1.00  0.00    -0.744 OA
ENDBRANCH  89  90
ENDBRANCH  57  82
BRANCH  69  94
ATOM     94  C   UNL A   1      48.527  27.327  30.232  1.00  0.00     0.058 A 
ATOM     95  C   UNL A   1      49.057  26.906  31.462  1.00  0.00     0.135 A 
ATOM     96  C   UNL A   1      49.415  27.491  29.157  1.00  0.00     0.135 A 
ATOM     97  F   UNL A   1      48.253  26.740  32.524  1.00  0.00    -0.206 F 
ATOM     98  C   UNL A   1      50.420  26.683  31.625  1.00  0.00     0.059 A 
ATOM     99  C   UNL A   1      50.777  27.243  29.289  1.00  0.00     0.059 A 
ATOM    100  F   UNL A   1      48.958  27.881  27.956  1.00  0.00    -0.206 F 
ATOM    101  C   UNL A   1      51.272  26.850  30.532  1.00  0.00     0.060 A 
BRANCH 101 102
ATOM    102  S   UNL A   1      53.033  26.523  30.750  1.00  0.00     0.124 S 
ATOM    103  O   UNL A   1      53.486  27.758  31.380  1.00  0.00    -0.237 OA
ATOM    104  O   UNL A   1      53.027  25.339  31.605  1.00  0.00    -0.237 OA
ATOM    105  O   UNL A   1      53.511  26.302  29.387  1.00  0.00    -0.744 OA
ENDBRANCH 101 102
ENDBRANCH  69  94
ENDBRANCH  43  44
ENDBRANCH  35  38
ENDBRANCH  33  34
ENDBRANCH   1  33
TORSDOF 17
ENDMDL
MODEL 2
REMARK VINA RESULT:     -10.0      0.511      7.927
REMARK SMILES CS(=O)(=O)c1ccc(/C=C(/C(=O)NCCCNC(=O)c2ccc(-c3c4nc(c(-c5c(F)cc(S(=O)(=O)[O-])cc5F)c5ccc([nH]5)c(-c5c(F)cc(S(=O)(=O)[O-])cc5F)c5nc(c(-c6c(F)cc(S(=O)(=O)[O-])cc6F)c6ccc3[nH]6)C=C5)C=C4)cc2)c2ccc(-c3ccc(F)cc3F)cc2)cc1
REMARK SMILES IDX 15 1 14 2 13 3 11 4 12 5 10 7 9 8 8 9 5 10 6 11 101 12 7 13
REMARK SMILES IDX 100 14 2 15 1 16 3 17 4 18 86 19 87 20 99 21 88 22 98 23
REMARK SMILES IDX 89 24 90 25 91 26 96 27 92 28 95 29 97 30 93 31 94 32 16 33
REMARK SMILES IDX 17 34 18 35 19 37 20 38 21 39 85 40 22 41 84 42 23 43 24 44
REMARK SMILES IDX 25 45 78 46 26 47 83 48 77 49 79 50 27 51 82 52 76 53 75 54
REMARK SMILES IDX 28 56 62 57 41 58 61 59 42 60 45 61 60 62 80 63 43 64 44 65
REMARK SMILES IDX 59 67 81 68 46 69 29 70 30 71 39 72 31 73 32 74 38 75 40 76
REMARK SMILES IDX 33 77 34 78 35 79 36 80 37 81 63 82 64 83 73 84 65 85 66 86
REMARK SMILES IDX 72 87 74 88 67 89 68 90 69 91 70 92 71 93 47 94 48 95 57 96
REMARK SMILES IDX 49 97 50 98 56 99 58 100 51 101 52 102 53 103 54 104 55 105
REMARK H PARENT 13 6 17 36 79 55 45 66
REMARK Flexibility Score: inf
ROOT
ATOM      1  C   UNL A   1      34.874  32.477  30.685  1.00  0.00     0.042 C 
ENDROOT
BRANCH   1   2
ATOM      2  C   UNL A   1      35.462  33.773  31.246  1.00  0.00     0.118 C 
BRANCH   2   3
ATOM      3  N   UNL A   1      36.801  33.979  30.734  1.00  0.00    -0.352 N 
ATOM      4  C   UNL A   1      38.029  34.049  31.308  1.00  0.00     0.251 C 
ATOM      5  O   UNL A   1      38.962  34.304  30.542  1.00  0.00    -0.269 OA
ATOM      6  H   UNL A   1      36.827  34.092  29.756  1.00  0.00     0.163 HD
BRANCH   4   7
ATOM      7  C   UNL A   1      38.287  33.739  32.765  1.00  0.00     0.047 C 
ATOM      8  C   UNL A   1      38.010  34.623  33.753  1.00  0.00     0.022 C 
BRANCH   8   9
ATOM      9  C   UNL A   1      38.081  34.436  35.222  1.00  0.00    -0.025 A 
ATOM     10  C   UNL A   1      38.226  33.753  37.946  1.00  0.00     0.067 A 
ATOM     11  C   UNL A   1      39.202  34.573  37.376  1.00  0.00     0.021 A 
ATOM     12  C   UNL A   1      37.137  33.329  37.188  1.00  0.00     0.021 A 
ATOM     13  C   UNL A   1      39.109  34.935  36.028  1.00  0.00     0.009 A 
ATOM     14  C   UNL A   1      37.070  33.673  35.832  1.00  0.00     0.009 A 
BRANCH  10  15
ATOM     15  S   UNL A   1      38.429  33.247  39.637  1.00  0.00     0.175 S 
ATOM     16  C   UNL A   1      38.682  34.722  40.583  1.00  0.00     0.163 C 
ATOM     17  O   UNL A   1      39.665  32.484  39.706  1.00  0.00    -0.224 OA
ATOM     18  O   UNL A   1      37.169  32.660  40.046  1.00  0.00    -0.224 OA
ENDBRANCH  10  15
ENDBRANCH   8   9
BRANCH   7  19
ATOM     19  C   UNL A   1      39.031  32.485  33.046  1.00  0.00    -0.013 A 
ATOM     20  C   UNL A   1      40.349  32.587  33.514  1.00  0.00     0.009 A 
ATOM     21  C   UNL A   1      38.454  31.216  32.950  1.00  0.00     0.009 A 
ATOM     22  C   UNL A   1      41.062  31.456  33.906  1.00  0.00     0.009 A 
ATOM     23  C   UNL A   1      39.162  30.084  33.381  1.00  0.00     0.009 A 
ATOM     24  C   UNL A   1      40.475  30.182  33.877  1.00  0.00    -0.015 A 
BRANCH  24  25
ATOM     25  C   UNL A   1      41.226  29.007  34.367  1.00  0.00     0.018 A 
ATOM     26  C   UNL A   1      41.452  28.823  35.748  1.00  0.00     0.015 A 
ATOM     27  C   UNL A   1      41.766  28.044  33.496  1.00  0.00     0.133 A 
ATOM     28  C   UNL A   1      42.206  27.747  36.224  1.00  0.00     0.040 A 
ATOM     29  C   UNL A   1      42.510  26.964  33.962  1.00  0.00     0.079 A 
ATOM     30  F   UNL A   1      41.593  28.152  32.170  1.00  0.00    -0.206 F 
ATOM     31  C   UNL A   1      42.731  26.830  35.323  1.00  0.00     0.126 A 
ATOM     32  F   UNL A   1      43.462  25.805  35.778  1.00  0.00    -0.207 F 
ENDBRANCH  24  25
ENDBRANCH   7  19
ENDBRANCH   4   7
ENDBRANCH   2   3
ENDBRANCH   1   2
BRANCH   1  33
ATOM     33  C   UNL A   1      34.762  32.476  29.160  1.00  0.00     0.118 C 
BRANCH  33  34
ATOM     34  N   UNL A   1      34.164  31.245  28.660  1.00  0.00    -0.352 N 
ATOM     35  C   UNL A   1      34.763  30.101  28.196  1.00  0.00     0.251 C 
ATOM     36  H   UNL A   1      33.180  31.232  28.655  1.00  0.00     0.163 HD
ATOM     37  O   UNL A   1      34.092  29.280  27.575  1.00  0.00    -0.269 OA
BRANCH  35  38
ATOM     38  C   UNL A   1      36.202  29.858  28.433  1.00  0.00     0.039 A 
ATOM     39  C   UNL A   1      36.615  29.427  29.696  1.00  0.00     0.014 A 
ATOM     40  C   UNL A   1      37.147  30.093  27.430  1.00  0.00     0.014 A 
ATOM     41  C   UNL A   1      37.968  29.179  29.935  1.00  0.00     0.010 A 
ATOM     42  C   UNL A   1      38.484  29.770  27.646  1.00  0.00     0.010 A 
ATOM     43  C   UNL A   1      38.910  29.315  28.902  1.00  0.00    -0.014 A 
BRANCH  43  44
ATOM     44  C   UNL A   1      40.344  28.986  29.119  1.00  0.00     0.031 A 
ATOM     45  C   UNL A   1      41.291  30.036  29.637  1.00  0.00     0.074 A 
ATOM     46  C   UNL A   1      40.800  27.761  28.793  1.00  0.00     0.049 A 
ATOM     47  N   UNL A   1      42.586  29.964  29.813  1.00  0.00    -0.248 NA
ATOM     48  C   UNL A   1      40.713  31.346  29.980  1.00  0.00     0.031 C 
ATOM     49  C   UNL A   1      39.988  26.676  28.237  1.00  0.00     0.029 A 
ATOM     50  N   UNL A   1      42.060  27.222  28.868  1.00  0.00    -0.354 N 
ATOM     51  C   UNL A   1      42.976  31.213  30.282  1.00  0.00     0.074 A 
ATOM     52  C   UNL A   1      41.792  32.044  30.303  1.00  0.00     0.031 C 
ATOM     53  C   UNL A   1      40.765  25.601  28.034  1.00  0.00     0.029 A 
ATOM     54  C   UNL A   1      42.138  25.930  28.403  1.00  0.00     0.049 A 
ATOM     55  H   UNL A   1      42.836  27.714  29.221  1.00  0.00     0.167 HD
ATOM     56  C   UNL A   1      44.202  31.620  30.686  1.00  0.00     0.037 A 
ATOM     57  C   UNL A   1      43.198  25.108  28.272  1.00  0.00     0.037 A 
ATOM     58  C   UNL A   1      45.373  30.782  30.675  1.00  0.00     0.049 A 
ATOM     59  C   UNL A   1      44.555  25.591  28.712  1.00  0.00     0.074 A 
ATOM     60  C   UNL A   1      46.656  31.090  31.094  1.00  0.00     0.029 A 
ATOM     61  N   UNL A   1      45.405  29.471  30.223  1.00  0.00    -0.354 N 
ATOM     62  N   UNL A   1      44.893  26.759  29.205  1.00  0.00    -0.248 NA
ATOM     63  C   UNL A   1      45.671  24.644  28.589  1.00  0.00     0.031 C 
ATOM     64  C   UNL A   1      47.472  29.981  30.854  1.00  0.00     0.029 A 
ATOM     65  C   UNL A   1      46.688  28.962  30.339  1.00  0.00     0.049 A 
ATOM     66  H   UNL A   1      44.630  28.975  29.872  1.00  0.00     0.167 HD
ATOM     67  C   UNL A   1      46.255  26.677  29.476  1.00  0.00     0.074 A 
ATOM     68  C   UNL A   1      46.673  25.340  29.109  1.00  0.00     0.031 C 
ATOM     69  C   UNL A   1      47.085  27.622  29.981  1.00  0.00     0.037 A 
BRANCH  56  70
ATOM     70  C   UNL A   1      44.341  33.031  31.193  1.00  0.00     0.058 A 
ATOM     71  C   UNL A   1      44.536  34.110  30.316  1.00  0.00     0.135 A 
ATOM     72  C   UNL A   1      44.220  33.318  32.563  1.00  0.00     0.135 A 
ATOM     73  F   UNL A   1      44.675  33.894  28.998  1.00  0.00    -0.206 F 
ATOM     74  C   UNL A   1      44.628  35.419  30.778  1.00  0.00     0.059 A 
ATOM     75  C   UNL A   1      44.278  34.623  33.045  1.00  0.00     0.059 A 
ATOM     76  F   UNL A   1      44.034  32.326  33.448  1.00  0.00    -0.206 F 
ATOM     77  C   UNL A   1      44.493  35.666  32.145  1.00  0.00     0.060 A 
BRANCH  77  78
ATOM     78  S   UNL A   1      44.587  37.374  32.722  1.00  0.00     0.124 S 
ATOM     79  O   UNL A   1      43.645  38.036  31.824  1.00  0.00    -0.237 OA
ATOM     80  O   UNL A   1      44.161  37.256  34.112  1.00  0.00    -0.237 OA
ATOM     81  O   UNL A   1      45.990  37.723  32.525  1.00  0.00    -0.744 OA
ENDBRANCH  77  78
ENDBRANCH  56  70
BRANCH  57  82
ATOM     82  C   UNL A   1      43.021  23.745  27.699  1.00  0.00     0.058 A 
ATOM     83  C   UNL A   1      43.138  23.514  26.320  1.00  0.00     0.135 A 
ATOM     84  C   UNL A   1      42.721  22.647  28.520  1.00  0.00     0.135 A 
ATOM     85  F   UNL A   1      43.420  24.531  25.491  1.00  0.00    -0.206 F 
ATOM     86  C   UNL A   1      42.935  22.252  25.772  1.00  0.00     0.059 A 
ATOM     87  C   UNL A   1      42.544  21.368  27.999  1.00  0.00     0.059 A 
ATOM     88  F   UNL A   1      42.618  22.807  29.849  1.00  0.00    -0.206 F 
ATOM     89  C   UNL A   1      42.639  21.184  26.621  1.00  0.00     0.060 A 
BRANCH  89  90
ATOM     90  S   UNL A   1      42.404  19.543  25.904  1.00  0.00     0.124 S 
ATOM     91  O   UNL A   1      42.592  18.685  27.068  1.00  0.00    -0.237 OA
ATOM     92  O   UNL A   1      41.041  19.629  25.386  1.00  0.00    -0.237 OA
ATOM     93  O   UNL A   1      43.449  19.469  24.887  1.00  0.00    -0.744 OA
ENDBRANCH  89  90
ENDBRANCH  57  82
BRANCH  69  94
ATOM     94  C   UNL A   1      48.521  27.234  30.210  1.00  0.00     0.058 A 
ATOM     95  C   UNL A   1      49.545  27.639  29.340  1.00  0.00     0.135 A 
ATOM     96  C   UNL A   1      48.881  26.493  31.346  1.00  0.00     0.135 A 
ATOM     97  F   UNL A   1      49.255  28.344  28.235  1.00  0.00    -0.206 F 
ATOM     98  C   UNL A   1      50.873  27.298  29.574  1.00  0.00     0.059 A 
ATOM     99  C   UNL A   1      50.206  26.168  31.618  1.00  0.00     0.059 A 
ATOM    100  F   UNL A   1      47.942  26.089  32.218  1.00  0.00    -0.206 F 
ATOM    101  C   UNL A   1      51.195  26.566  30.719  1.00  0.00     0.060 A 
BRANCH 101 102
ATOM    102  S   UNL A   1      52.926  26.161  31.028  1.00  0.00     0.124 S 
ATOM    103  O   UNL A   1      53.432  25.977  29.672  1.00  0.00    -0.237 OA
ATOM    104  O   UNL A   1      53.403  27.350  31.728  1.00  0.00    -0.237 OA
ATOM    105  O   UNL A   1      52.853  24.950  31.841  1.00  0.00    -0.744 OA
ENDBRANCH 101 102
ENDBRANCH  69  94
ENDBRANCH  43  44
ENDBRANCH  35  38
ENDBRANCH  33  34
ENDBRANCH   1  33
TORSDOF 17
ENDMDL
MODEL 3
REMARK VINA RESULT:      -9.4      4.752     11.331
REMARK SMILES CS(=O)(=O)c1ccc(/C=C(/C(=O)NCCCNC(=O)c2ccc(-c3c4nc(c(-c5c(F)cc(S(=O)(=O)[O-])cc5F)c5ccc([nH]5)c(-c5c(F)cc(S(=O)(=O)[O-])cc5F)c5nc(c(-c6c(F)cc(S(=O)(=O)[O-])cc6F)c6ccc3[nH]6)C=C5)C=C4)cc2)c2ccc(-c3ccc(F)cc3F)cc2)cc1
REMARK SMILES IDX 15 1 14 2 13 3 11 4 12 5 10 7 9 8 8 9 5 10 6 11 101 12 7 13
REMARK SMILES IDX 100 14 2 15 1 16 3 17 4 18 86 19 87 20 99 21 88 22 98 23
REMARK SMILES IDX 89 24 90 25 91 26 96 27 92 28 95 29 97 30 93 31 94 32 16 33
REMARK SMILES IDX 17 34 18 35 19 37 20 38 21 39 85 40 22 41 84 42 23 43 24 44
REMARK SMILES IDX 25 45 78 46 26 47 83 48 77 49 79 50 27 51 82 52 76 53 75 54
REMARK SMILES IDX 28 56 62 57 41 58 61 59 42 60 45 61 60 62 80 63 43 64 44 65
REMARK SMILES IDX 59 67 81 68 46 69 29 70 30 71 39 72 31 73 32 74 38 75 40 76
REMARK SMILES IDX 33 77 34 78 35 79 36 80 37 81 63 82 64 83 73 84 65 85 66 86
REMARK SMILES IDX 72 87 74 88 67 89 68 90 69 91 70 92 71 93 47 94 48 95 57 96
REMARK SMILES IDX 49 97 50 98 56 99 58 100 51 101 52 102 53 103 54 104 55 105
REMARK H PARENT 13 6 17 36 79 55 45 66
REMARK Flexibility Score: inf
ROOT
ATOM      1  C   UNL A   1      35.592  33.509  28.134  1.00  0.00     0.042 C 
ENDROOT
BRANCH   1   2
ATOM      2  C   UNL A   1      34.601  32.346  28.067  1.00  0.00     0.118 C 
BRANCH   2   3
ATOM      3  N   UNL A   1      35.309  31.092  27.914  1.00  0.00    -0.352 N 
ATOM      4  C   UNL A   1      35.003  29.901  27.341  1.00  0.00     0.251 C 
ATOM      5  O   UNL A   1      35.855  29.016  27.460  1.00  0.00    -0.269 OA
ATOM      6  H   UNL A   1      36.210  31.107  28.313  1.00  0.00     0.163 HD
BRANCH   4   7
ATOM      7  C   UNL A   1      33.759  29.669  26.514  1.00  0.00     0.047 C 
ATOM      8  C   UNL A   1      32.742  30.563  26.470  1.00  0.00     0.022 C 
BRANCH   8   9
ATOM      9  C   UNL A   1      31.525  30.553  25.624  1.00  0.00    -0.025 A 
ATOM     10  C   UNL A   1      29.344  30.801  23.865  1.00  0.00     0.067 A 
ATOM     11  C   UNL A   1      30.089  29.620  23.896  1.00  0.00     0.021 A 
ATOM     12  C   UNL A   1      29.631  31.834  24.756  1.00  0.00     0.021 A 
ATOM     13  C   UNL A   1      31.153  29.490  24.794  1.00  0.00     0.009 A 
ATOM     14  C   UNL A   1      30.718  31.704  25.629  1.00  0.00     0.009 A 
BRANCH  10  15
ATOM     15  S   UNL A   1      28.058  30.958  22.650  1.00  0.00     0.175 S 
ATOM     16  C   UNL A   1      28.790  30.585  21.082  1.00  0.00     0.163 C 
ATOM     17  O   UNL A   1      27.676  32.360  22.615  1.00  0.00    -0.224 OA
ATOM     18  O   UNL A   1      27.082  29.928  22.947  1.00  0.00    -0.224 OA
ENDBRANCH  10  15
ENDBRANCH   8   9
BRANCH   7  19
ATOM     19  C   UNL A   1      33.624  28.326  25.895  1.00  0.00    -0.013 A 
ATOM     20  C   UNL A   1      33.035  27.303  26.652  1.00  0.00     0.009 A 
ATOM     21  C   UNL A   1      33.977  28.058  24.569  1.00  0.00     0.009 A 
ATOM     22  C   UNL A   1      32.774  26.055  26.092  1.00  0.00     0.009 A 
ATOM     23  C   UNL A   1      33.678  26.811  23.999  1.00  0.00     0.009 A 
ATOM     24  C   UNL A   1      33.062  25.789  24.744  1.00  0.00    -0.015 A 
BRANCH  24  25
ATOM     25  C   UNL A   1      32.709  24.481  24.153  1.00  0.00     0.018 A 
ATOM     26  C   UNL A   1      33.681  23.464  24.027  1.00  0.00     0.015 A 
ATOM     27  C   UNL A   1      31.419  24.197  23.671  1.00  0.00     0.133 A 
ATOM     28  C   UNL A   1      33.379  22.242  23.422  1.00  0.00     0.040 A 
ATOM     29  C   UNL A   1      31.107  22.978  23.075  1.00  0.00     0.079 A 
ATOM     30  F   UNL A   1      30.444  25.114  23.755  1.00  0.00    -0.206 F 
ATOM     31  C   UNL A   1      32.094  22.013  22.948  1.00  0.00     0.126 A 
ATOM     32  F   UNL A   1      31.807  20.845  22.358  1.00  0.00    -0.207 F 
ENDBRANCH  24  25
ENDBRANCH   7  19
ENDBRANCH   4   7
ENDBRANCH   2   3
ENDBRANCH   1   2
BRANCH   1  33
ATOM     33  C   UNL A   1      36.820  33.207  28.993  1.00  0.00     0.118 C 
BRANCH  33  34
ATOM     34  N   UNL A   1      36.458  32.600  30.266  1.00  0.00    -0.352 N 
ATOM     35  C   UNL A   1      36.988  31.506  30.902  1.00  0.00     0.251 C 
ATOM     36  H   UNL A   1      35.720  33.044  30.744  1.00  0.00     0.163 HD
ATOM     37  O   UNL A   1      36.374  30.997  31.837  1.00  0.00    -0.269 OA
BRANCH  35  38
ATOM     38  C   UNL A   1      38.282  30.938  30.465  1.00  0.00     0.039 A 
ATOM     39  C   UNL A   1      38.445  30.585  29.123  1.00  0.00     0.014 A 
ATOM     40  C   UNL A   1      39.316  30.715  31.379  1.00  0.00     0.014 A 
ATOM     41  C   UNL A   1      39.665  30.061  28.689  1.00  0.00     0.010 A 
ATOM     42  C   UNL A   1      40.555  30.266  30.930  1.00  0.00     0.010 A 
ATOM     43  C   UNL A   1      40.742  29.929  29.582  1.00  0.00    -0.014 A 
BRANCH  43  44
ATOM     44  C   UNL A   1      42.068  29.440  29.122  1.00  0.00     0.031 A 
ATOM     45  C   UNL A   1      43.225  30.394  28.998  1.00  0.00     0.074 A 
ATOM     46  C   UNL A   1      42.210  28.149  28.761  1.00  0.00     0.049 A 
ATOM     47  N   UNL A   1      44.431  30.174  28.539  1.00  0.00    -0.248 NA
ATOM     48  C   UNL A   1      42.992  31.785  29.422  1.00  0.00     0.031 C 
ATOM     49  C   UNL A   1      41.148  27.140  28.791  1.00  0.00     0.029 A 
ATOM     50  N   UNL A   1      43.300  27.464  28.284  1.00  0.00    -0.354 N 
ATOM     51  C   UNL A   1      45.096  31.392  28.616  1.00  0.00     0.074 A 
ATOM     52  C   UNL A   1      44.142  32.363  29.106  1.00  0.00     0.031 C 
ATOM     53  C   UNL A   1      41.641  25.967  28.366  1.00  0.00     0.029 A 
ATOM     54  C   UNL A   1      43.040  26.146  27.991  1.00  0.00     0.049 A 
ATOM     55  H   UNL A   1      44.185  27.878  28.163  1.00  0.00     0.167 HD
ATOM     56  C   UNL A   1      46.390  31.669  28.333  1.00  0.00     0.037 A 
ATOM     57  C   UNL A   1      43.833  25.192  27.464  1.00  0.00     0.037 A 
ATOM     58  C   UNL A   1      47.337  30.694  27.858  1.00  0.00     0.049 A 
ATOM     59  C   UNL A   1      45.264  25.530  27.141  1.00  0.00     0.074 A 
ATOM     60  C   UNL A   1      48.681  30.867  27.573  1.00  0.00     0.029 A 
ATOM     61  N   UNL A   1      47.043  29.363  27.601  1.00  0.00    -0.354 N 
ATOM     62  N   UNL A   1      45.890  26.676  27.272  1.00  0.00    -0.248 NA
ATOM     63  C   UNL A   1      46.100  24.447  26.608  1.00  0.00     0.031 C 
ATOM     64  C   UNL A   1      49.187  29.652  27.101  1.00  0.00     0.029 A 
ATOM     65  C   UNL A   1      48.175  28.707  27.146  1.00  0.00     0.049 A 
ATOM     66  H   UNL A   1      46.159  28.945  27.724  1.00  0.00     0.167 HD
ATOM     67  C   UNL A   1      47.199  26.443  26.865  1.00  0.00     0.074 A 
ATOM     68  C   UNL A   1      47.279  25.044  26.500  1.00  0.00     0.031 C 
ATOM     69  C   UNL A   1      48.241  27.309  26.798  1.00  0.00     0.037 A 
BRANCH  56  70
ATOM     70  C   UNL A   1      46.869  33.081  28.545  1.00  0.00     0.058 A 
ATOM     71  C   UNL A   1      46.792  34.043  27.525  1.00  0.00     0.135 A 
ATOM     72  C   UNL A   1      47.354  33.495  29.796  1.00  0.00     0.135 A 
ATOM     73  F   UNL A   1      46.351  33.700  26.304  1.00  0.00    -0.206 F 
ATOM     74  C   UNL A   1      47.198  35.358  27.729  1.00  0.00     0.059 A 
ATOM     75  C   UNL A   1      47.738  34.813  30.033  1.00  0.00     0.059 A 
ATOM     76  F   UNL A   1      47.451  32.619  30.809  1.00  0.00    -0.206 F 
ATOM     77  C   UNL A   1      47.666  35.734  28.989  1.00  0.00     0.060 A 
BRANCH  77  78
ATOM     78  S   UNL A   1      48.162  37.451  29.241  1.00  0.00     0.124 S 
ATOM     79  O   UNL A   1      47.645  38.084  28.032  1.00  0.00    -0.237 OA
ATOM     80  O   UNL A   1      47.472  37.795  30.480  1.00  0.00    -0.237 OA
ATOM     81  O   UNL A   1      49.617  37.376  29.335  1.00  0.00    -0.744 OA
ENDBRANCH  77  78
ENDBRANCH  56  70
BRANCH  57  82
ATOM     82  C   UNL A   1      43.293  23.829  27.207  1.00  0.00     0.058 A 
ATOM     83  C   UNL A   1      42.927  23.422  25.915  1.00  0.00     0.135 A 
ATOM     84  C   UNL A   1      43.124  22.907  28.252  1.00  0.00     0.135 A 
ATOM     85  F   UNL A   1      43.066  24.266  24.882  1.00  0.00    -0.206 F 
ATOM     86  C   UNL A   1      42.385  22.164  25.673  1.00  0.00     0.059 A 
ATOM     87  C   UNL A   1      42.613  21.632  28.030  1.00  0.00     0.059 A 
ATOM     88  F   UNL A   1      43.477  23.237  29.505  1.00  0.00    -0.206 F 
ATOM     89  C   UNL A   1      42.232  21.275  26.738  1.00  0.00     0.060 A 
BRANCH  89  90
ATOM     90  S   UNL A   1      41.553  19.634  26.410  1.00  0.00     0.124 S 
ATOM     91  O   UNL A   1      42.255  19.265  25.186  1.00  0.00    -0.237 OA
ATOM     92  O   UNL A   1      41.936  18.900  27.613  1.00  0.00    -0.237 OA
ATOM     93  O   UNL A   1      40.122  19.886  26.268  1.00  0.00    -0.744 OA
ENDBRANCH  89  90
ENDBRANCH  57  82
BRANCH  69  94
ATOM     94  C   UNL A   1      49.570  26.761  26.354  1.00  0.00     0.058 A 
ATOM     95  C   UNL A   1      50.029  26.909  25.036  1.00  0.00     0.135 A 
ATOM     96  C   UNL A   1      50.419  26.128  27.276  1.00  0.00     0.135 A 
ATOM     97  F   UNL A   1      49.255  27.501  24.112  1.00  0.00    -0.206 F 
ATOM     98  C   UNL A   1      51.271  26.423  24.641  1.00  0.00     0.059 A 
ATOM     99  C   UNL A   1      51.678  25.663  26.912  1.00  0.00     0.059 A 
ATOM    100  F   UNL A   1      50.034  25.971  28.553  1.00  0.00    -0.206 F 
ATOM    101  C   UNL A   1      52.091  25.805  25.587  1.00  0.00     0.060 A 
BRANCH 101 102
ATOM    102  S   UNL A   1      53.714  25.212  25.069  1.00  0.00     0.124 S 
ATOM    103  O   UNL A   1      53.576  23.772  25.261  1.00  0.00    -0.237 OA
ATOM    104  O   UNL A   1      53.782  25.664  23.682  1.00  0.00    -0.237 OA
ATOM    105  O   UNL A   1      54.632  25.882  25.986  1.00  0.00    -0.744 OA
ENDBRANCH 101 102
ENDBRANCH  69  94
ENDBRANCH  43  44
ENDBRANCH  35  38
ENDBRANCH  33  34
ENDBRANCH   1  33
TORSDOF 17
ENDMDL
