MODEL 1
REMARK VINA RESULT:     -12.7      0.000      0.000
REMARK SMILES C[C@@H]1[C@@H](C(=O)NCCCNC(=O)c2ccc(-c3c4nc(c(-c5c(F)cc(S(=O)(=O)[O-])cc5F)c5ccc([nH]5)c(-c5c(F)cc(S(=O)(=O)[O-])cc5F)c5nc(c(-c6c(F)cc(S(=O)(=O)[O-])cc6F)c6ccc3[nH]6)C=C5)C=C4)cc2)CCN1C(=O)c1cc(Cl)ccc1O
REMARK SMILES IDX 8 1 7 2 6 3 4 4 5 5 3 7 1 8 2 9 81 10 79 11 80 12 82 13
REMARK SMILES IDX 83 14 84 15 85 16 90 17 86 18 89 19 87 20 88 21 91 22 9 24
REMARK SMILES IDX 10 25 11 26 12 28 13 29 14 30 78 31 15 32 77 33 16 34 17 35
REMARK SMILES IDX 18 36 71 37 19 38 76 39 70 40 72 41 20 42 75 43 69 44 68 45
REMARK SMILES IDX 21 47 55 48 34 49 54 50 35 51 38 52 53 53 73 54 36 55 37 56
REMARK SMILES IDX 52 58 74 59 39 60 22 61 23 62 32 63 24 64 25 65 31 66 33 67
REMARK SMILES IDX 26 68 27 69 28 70 29 71 30 72 56 73 57 74 66 75 58 76 59 77
REMARK SMILES IDX 65 78 67 79 60 80 61 81 62 82 63 83 64 84 40 85 41 86 50 87
REMARK SMILES IDX 42 88 43 89 49 90 51 91 44 92 45 93 46 94 47 95 48 96
REMARK H PARENT 6 6 91 23 10 27 72 46 38 57
REMARK Flexibility Score: inf
ROOT
ATOM      1  C   UNL A   1      34.744  32.138  27.801  1.00  0.00     0.042 C 
ENDROOT
BRANCH   1   2
ATOM      2  C   UNL A   1      34.210  30.758  27.474  1.00  0.00     0.117 C 
BRANCH   2   3
ATOM      3  N   UNL A   1      32.923  30.775  26.802  1.00  0.00    -0.356 N 
ATOM      4  C   UNL A   1      32.466  29.994  25.785  1.00  0.00     0.225 C 
ATOM      5  O   UNL A   1      31.304  30.166  25.416  1.00  0.00    -0.275 OA
ATOM      6  H   UNL A   1      32.289  31.452  27.129  1.00  0.00     0.163 HD
BRANCH   4   7
ATOM      7  C   UNL A   1      33.414  29.021  25.096  1.00  0.00     0.102 C 
ATOM      8  C   UNL A   1      34.410  28.709  22.813  1.00  0.00     0.032 C 
ATOM      9  C   UNL A   1      33.102  28.922  23.580  1.00  0.00     0.094 C 
ATOM     10  N   UNL A   1      32.171  27.770  23.491  1.00  0.00    -0.335 N 
ATOM     11  C   UNL A   1      33.282  27.563  25.550  1.00  0.00     0.037 C 
ATOM     12  C   UNL A   1      32.107  27.056  24.749  1.00  0.00     0.121 C 
BRANCH  10  13
ATOM     13  C   UNL A   1      31.137  27.543  22.597  1.00  0.00     0.257 C 
ATOM     14  O   UNL A   1      31.210  26.726  21.682  1.00  0.00    -0.269 OA
BRANCH  13  15
ATOM     15  C   UNL A   1      29.910  28.340  22.682  1.00  0.00     0.083 A 
ATOM     16  C   UNL A   1      28.797  27.764  23.305  1.00  0.00     0.038 A 
ATOM     17  C   UNL A   1      29.788  29.555  22.002  1.00  0.00     0.128 A 
ATOM     18  C   UNL A   1      27.583  28.445  23.289  1.00  0.00     0.042 A 
ATOM     19  C   UNL A   1      28.581  30.247  22.026  1.00  0.00     0.048 A 
ATOM     20  Cl  UNL A   1      26.192  27.729  24.006  1.00  0.00    -0.084 Cl
ATOM     21  C   UNL A   1      27.475  29.691  22.671  1.00  0.00     0.024 A 
BRANCH  17  22
ATOM     22  O   UNL A   1      30.789  30.105  21.250  1.00  0.00    -0.507 OA
ATOM     23  H   UNL A   1      30.602  30.818  20.672  1.00  0.00     0.293 HD
ENDBRANCH  17  22
ENDBRANCH  13  15
ENDBRANCH  10  13
ENDBRANCH   4   7
ENDBRANCH   2   3
ENDBRANCH   1   2
BRANCH   1  24
ATOM     24  C   UNL A   1      35.881  32.159  28.809  1.00  0.00     0.118 C 
BRANCH  24  25
ATOM     25  N   UNL A   1      35.638  31.325  29.977  1.00  0.00    -0.352 N 
ATOM     26  C   UNL A   1      36.441  30.384  30.586  1.00  0.00     0.251 C 
ATOM     27  H   UNL A   1      34.759  31.454  30.402  1.00  0.00     0.163 HD
ATOM     28  O   UNL A   1      35.984  29.688  31.482  1.00  0.00    -0.269 OA
BRANCH  26  29
ATOM     29  C   UNL A   1      37.835  30.185  30.124  1.00  0.00     0.039 A 
ATOM     30  C   UNL A   1      38.872  30.229  31.060  1.00  0.00     0.014 A 
ATOM     31  C   UNL A   1      38.122  29.939  28.782  1.00  0.00     0.014 A 
ATOM     32  C   UNL A   1      40.177  29.927  30.661  1.00  0.00     0.010 A 
ATOM     33  C   UNL A   1      39.395  29.521  28.411  1.00  0.00     0.010 A 
ATOM     34  C   UNL A   1      40.441  29.516  29.344  1.00  0.00    -0.014 A 
BRANCH  34  35
ATOM     35  C   UNL A   1      41.799  29.087  28.915  1.00  0.00     0.031 A 
ATOM     36  C   UNL A   1      42.920  30.092  28.852  1.00  0.00     0.074 A 
ATOM     37  C   UNL A   1      42.006  27.818  28.509  1.00  0.00     0.049 A 
ATOM     38  N   UNL A   1      44.143  29.939  28.415  1.00  0.00    -0.248 NA
ATOM     39  C   UNL A   1      42.616  31.460  29.307  1.00  0.00     0.031 C 
ATOM     40  C   UNL A   1      40.989  26.763  28.468  1.00  0.00     0.029 A 
ATOM     41  N   UNL A   1      43.139  27.199  28.042  1.00  0.00    -0.354 N 
ATOM     42  C   UNL A   1      44.745  31.188  28.525  1.00  0.00     0.074 A 
ATOM     43  C   UNL A   1      43.734  32.102  29.006  1.00  0.00     0.031 C 
ATOM     44  C   UNL A   1      41.552  25.624  28.035  1.00  0.00     0.029 A 
ATOM     45  C   UNL A   1      42.955  25.873  27.722  1.00  0.00     0.049 A 
ATOM     46  H   UNL A   1      44.003  27.660  27.946  1.00  0.00     0.167 HD
ATOM     47  C   UNL A   1      46.030  31.535  28.277  1.00  0.00     0.037 A 
ATOM     48  C   UNL A   1      43.817  24.964  27.226  1.00  0.00     0.037 A 
ATOM     49  C   UNL A   1      47.040  30.613  27.832  1.00  0.00     0.049 A 
ATOM     50  C   UNL A   1      45.240  25.374  26.960  1.00  0.00     0.074 A 
ATOM     51  C   UNL A   1      48.385  30.852  27.610  1.00  0.00     0.029 A 
ATOM     52  N   UNL A   1      46.819  29.274  27.543  1.00  0.00    -0.354 N 
ATOM     53  N   UNL A   1      45.805  26.545  27.128  1.00  0.00    -0.248 NA
ATOM     54  C   UNL A   1      46.145  24.337  26.443  1.00  0.00     0.031 C 
ATOM     55  C   UNL A   1      48.967  29.670  27.143  1.00  0.00     0.029 A 
ATOM     56  C   UNL A   1      47.998  28.679  27.126  1.00  0.00     0.049 A 
ATOM     57  H   UNL A   1      45.951  28.815  27.623  1.00  0.00     0.167 HD
ATOM     58  C   UNL A   1      47.138  26.380  26.767  1.00  0.00     0.074 A 
ATOM     59  C   UNL A   1      47.295  24.992  26.382  1.00  0.00     0.031 C 
ATOM     60  C   UNL A   1      48.141  27.293  26.756  1.00  0.00     0.037 A 
BRANCH  47  61
ATOM     61  C   UNL A   1      46.417  32.974  28.495  1.00  0.00     0.058 A 
ATOM     62  C   UNL A   1      46.921  33.423  29.728  1.00  0.00     0.135 A 
ATOM     63  C   UNL A   1      46.316  33.908  27.453  1.00  0.00     0.135 A 
ATOM     64  F   UNL A   1      47.023  32.576  30.766  1.00  0.00    -0.206 F 
ATOM     65  C   UNL A   1      47.277  34.752  29.928  1.00  0.00     0.059 A 
ATOM     66  C   UNL A   1      46.698  35.237  27.621  1.00  0.00     0.059 A 
ATOM     67  F   UNL A   1      45.842  33.535  26.254  1.00  0.00    -0.206 F 
ATOM     68  C   UNL A   1      47.164  35.652  28.867  1.00  0.00     0.060 A 
BRANCH  68  69
ATOM     69  S   UNL A   1      47.638  37.371  29.144  1.00  0.00     0.124 S 
ATOM     70  O   UNL A   1      48.299  37.696  27.884  1.00  0.00    -0.237 OA
ATOM     71  O   UNL A   1      46.349  38.018  29.368  1.00  0.00    -0.237 OA
ATOM     72  O   UNL A   1      48.512  37.299  30.310  1.00  0.00    -0.744 OA
ENDBRANCH  68  69
ENDBRANCH  47  61
BRANCH  48  73
ATOM     73  C   UNL A   1      43.364  23.569  26.973  1.00  0.00     0.058 A 
ATOM     74  C   UNL A   1      43.149  23.107  25.665  1.00  0.00     0.135 A 
ATOM     75  C   UNL A   1      43.145  22.668  28.027  1.00  0.00     0.135 A 
ATOM     76  F   UNL A   1      43.339  23.931  24.624  1.00  0.00    -0.206 F 
ATOM     77  C   UNL A   1      42.718  21.809  25.411  1.00  0.00     0.059 A 
ATOM     78  C   UNL A   1      42.740  21.357  27.797  1.00  0.00     0.059 A 
ATOM     79  F   UNL A   1      43.352  23.054  29.295  1.00  0.00    -0.206 F 
ATOM     80  C   UNL A   1      42.518  20.939  26.485  1.00  0.00     0.060 A 
BRANCH  80  81
ATOM     81  S   UNL A   1      42.005  19.242  26.141  1.00  0.00     0.124 S 
ATOM     82  O   UNL A   1      40.564  19.398  25.983  1.00  0.00    -0.237 OA
ATOM     83  O   UNL A   1      42.753  18.937  24.926  1.00  0.00    -0.237 OA
ATOM     84  O   UNL A   1      42.437  18.514  27.332  1.00  0.00    -0.744 OA
ENDBRANCH  80  81
ENDBRANCH  48  73
BRANCH  60  85
ATOM     85  C   UNL A   1      49.508  26.817  26.354  1.00  0.00     0.058 A 
ATOM     86  C   UNL A   1      50.354  26.151  27.255  1.00  0.00     0.135 A 
ATOM     87  C   UNL A   1      49.955  26.977  25.032  1.00  0.00     0.135 A 
ATOM     88  F   UNL A   1      49.978  25.977  28.531  1.00  0.00    -0.206 F 
ATOM     89  C   UNL A   1      51.605  25.684  26.866  1.00  0.00     0.059 A 
ATOM     90  C   UNL A   1      51.190  26.491  24.613  1.00  0.00     0.059 A 
ATOM     91  F   UNL A   1      49.180  27.596  24.127  1.00  0.00    -0.206 F 
ATOM     92  C   UNL A   1      52.012  25.856  25.542  1.00  0.00     0.060 A 
BRANCH  92  93
ATOM     93  S   UNL A   1      53.623  25.211  25.041  1.00  0.00     0.124 S 
ATOM     94  O   UNL A   1      53.443  23.779  25.249  1.00  0.00    -0.237 OA
ATOM     95  O   UNL A   1      53.713  25.644  23.650  1.00  0.00    -0.237 OA
ATOM     96  O   UNL A   1      54.551  25.867  25.957  1.00  0.00    -0.744 OA
ENDBRANCH  92  93
ENDBRANCH  60  85
ENDBRANCH  34  35
ENDBRANCH  26  29
ENDBRANCH  24  25
ENDBRANCH   1  24
TORSDOF 16
ENDMDL
MODEL 2
REMARK VINA RESULT:     -12.6      7.330     12.650
REMARK SMILES C[C@@H]1[C@@H](C(=O)NCCCNC(=O)c2ccc(-c3c4nc(c(-c5c(F)cc(S(=O)(=O)[O-])cc5F)c5ccc([nH]5)c(-c5c(F)cc(S(=O)(=O)[O-])cc5F)c5nc(c(-c6c(F)cc(S(=O)(=O)[O-])cc6F)c6ccc3[nH]6)C=C5)C=C4)cc2)CCN1C(=O)c1cc(Cl)ccc1O
REMARK SMILES IDX 8 1 7 2 6 3 4 4 5 5 3 7 1 8 2 9 81 10 79 11 80 12 82 13
REMARK SMILES IDX 83 14 84 15 85 16 90 17 86 18 89 19 87 20 88 21 91 22 9 24
REMARK SMILES IDX 10 25 11 26 12 28 13 29 14 30 78 31 15 32 77 33 16 34 17 35
REMARK SMILES IDX 18 36 71 37 19 38 76 39 70 40 72 41 20 42 75 43 69 44 68 45
REMARK SMILES IDX 21 47 55 48 34 49 54 50 35 51 38 52 53 53 73 54 36 55 37 56
REMARK SMILES IDX 52 58 74 59 39 60 22 61 23 62 32 63 24 64 25 65 31 66 33 67
REMARK SMILES IDX 26 68 27 69 28 70 29 71 30 72 56 73 57 74 66 75 58 76 59 77
REMARK SMILES IDX 65 78 67 79 60 80 61 81 62 82 63 83 64 84 40 85 41 86 50 87
REMARK SMILES IDX 42 88 43 89 49 90 51 91 44 92 45 93 46 94 47 95 48 96
REMARK H PARENT 6 6 91 23 10 27 72 46 38 57
REMARK Flexibility Score: inf
ROOT
ATOM      1  C   UNL A   1      40.035  21.842  26.856  1.00  0.00     0.042 C 
ENDROOT
BRANCH   1   2
ATOM      2  C   UNL A   1      38.895  22.239  25.939  1.00  0.00     0.117 C 
BRANCH   2   3
ATOM      3  N   UNL A   1      38.086  21.118  25.495  1.00  0.00    -0.356 N 
ATOM      4  C   UNL A   1      36.736  21.032  25.337  1.00  0.00     0.225 C 
ATOM      5  O   UNL A   1      36.284  19.977  24.892  1.00  0.00    -0.275 OA
ATOM      6  H   UNL A   1      38.587  20.300  25.278  1.00  0.00     0.163 HD
BRANCH   4   7
ATOM      7  C   UNL A   1      35.849  22.183  25.791  1.00  0.00     0.102 C 
ATOM      8  C   UNL A   1      34.103  22.594  27.548  1.00  0.00     0.032 C 
ATOM      9  C   UNL A   1      34.531  21.654  26.417  1.00  0.00     0.094 C 
ATOM     10  N   UNL A   1      33.586  21.637  25.273  1.00  0.00    -0.335 N 
ATOM     11  C   UNL A   1      35.333  23.083  24.663  1.00  0.00     0.037 C 
ATOM     12  C   UNL A   1      34.147  22.320  24.126  1.00  0.00     0.121 C 
BRANCH  10  13
ATOM     13  C   UNL A   1      32.520  20.787  25.028  1.00  0.00     0.257 C 
ATOM     14  O   UNL A   1      31.369  21.038  25.377  1.00  0.00    -0.269 OA
BRANCH  13  15
ATOM     15  C   UNL A   1      32.752  19.494  24.379  1.00  0.00     0.083 A 
ATOM     16  C   UNL A   1      33.513  18.542  25.068  1.00  0.00     0.038 A 
ATOM     17  C   UNL A   1      32.395  19.279  23.045  1.00  0.00     0.128 A 
ATOM     18  C   UNL A   1      33.858  17.355  24.428  1.00  0.00     0.042 A 
ATOM     19  C   UNL A   1      32.709  18.073  22.426  1.00  0.00     0.048 A 
ATOM     20  Cl  UNL A   1      34.835  16.196  25.243  1.00  0.00    -0.084 Cl
ATOM     21  C   UNL A   1      33.443  17.108  23.119  1.00  0.00     0.024 A 
BRANCH  17  22
ATOM     22  O   UNL A   1      31.783  20.220  22.265  1.00  0.00    -0.507 OA
ATOM     23  H   UNL A   1      30.878  20.423  22.399  1.00  0.00     0.293 HD
ENDBRANCH  17  22
ENDBRANCH  13  15
ENDBRANCH  10  13
ENDBRANCH   4   7
ENDBRANCH   2   3
ENDBRANCH   1   2
BRANCH   1  24
ATOM     24  C   UNL A   1      40.972  22.977  27.236  1.00  0.00     0.118 C 
BRANCH  24  25
ATOM     25  N   UNL A   1      41.297  23.860  26.126  1.00  0.00    -0.352 N 
ATOM     26  C   UNL A   1      41.419  25.232  26.081  1.00  0.00     0.251 C 
ATOM     27  H   UNL A   1      41.457  23.403  25.268  1.00  0.00     0.163 HD
ATOM     28  O   UNL A   1      41.562  25.791  25.002  1.00  0.00    -0.269 OA
BRANCH  26  29
ATOM     29  C   UNL A   1      41.330  26.028  27.328  1.00  0.00     0.039 A 
ATOM     30  C   UNL A   1      42.384  26.881  27.664  1.00  0.00     0.014 A 
ATOM     31  C   UNL A   1      40.208  25.950  28.154  1.00  0.00     0.014 A 
ATOM     32  C   UNL A   1      42.264  27.725  28.772  1.00  0.00     0.010 A 
ATOM     33  C   UNL A   1      40.040  26.873  29.180  1.00  0.00     0.010 A 
ATOM     34  C   UNL A   1      41.068  27.768  29.508  1.00  0.00    -0.014 A 
BRANCH  34  35
ATOM     35  C   UNL A   1      40.870  28.728  30.626  1.00  0.00     0.031 A 
ATOM     36  C   UNL A   1      41.694  28.600  31.881  1.00  0.00     0.074 A 
ATOM     37  C   UNL A   1      39.900  29.662  30.546  1.00  0.00     0.049 A 
ATOM     38  N   UNL A   1      41.607  29.274  32.999  1.00  0.00    -0.248 NA
ATOM     39  C   UNL A   1      42.730  27.553  31.896  1.00  0.00     0.031 C 
ATOM     40  C   UNL A   1      38.997  29.852  29.408  1.00  0.00     0.029 A 
ATOM     41  N   UNL A   1      39.505  30.622  31.443  1.00  0.00    -0.354 N 
ATOM     42  C   UNL A   1      42.558  28.723  33.850  1.00  0.00     0.074 A 
ATOM     43  C   UNL A   1      43.164  27.616  33.145  1.00  0.00     0.031 C 
ATOM     44  C   UNL A   1      38.177  30.885  29.663  1.00  0.00     0.029 A 
ATOM     45  C   UNL A   1      38.462  31.402  30.998  1.00  0.00     0.049 A 
ATOM     46  H   UNL A   1      39.927  30.743  32.324  1.00  0.00     0.167 HD
ATOM     47  C   UNL A   1      42.916  29.120  35.094  1.00  0.00     0.037 A 
ATOM     48  C   UNL A   1      37.805  32.414  31.598  1.00  0.00     0.037 A 
ATOM     49  C   UNL A   1      42.333  30.244  35.777  1.00  0.00     0.049 A 
ATOM     50  C   UNL A   1      38.222  32.839  32.980  1.00  0.00     0.074 A 
ATOM     51  C   UNL A   1      42.667  30.765  37.014  1.00  0.00     0.029 A 
ATOM     52  N   UNL A   1      41.297  31.022  35.281  1.00  0.00    -0.354 N 
ATOM     53  N   UNL A   1      39.166  32.343  33.745  1.00  0.00    -0.248 NA
ATOM     54  C   UNL A   1      37.491  33.964  33.579  1.00  0.00     0.031 C 
ATOM     55  C   UNL A   1      41.803  31.830  37.287  1.00  0.00     0.029 A 
ATOM     56  C   UNL A   1      40.966  32.008  36.196  1.00  0.00     0.049 A 
ATOM     57  H   UNL A   1      40.862  30.893  34.407  1.00  0.00     0.167 HD
ATOM     58  C   UNL A   1      39.161  33.114  34.902  1.00  0.00     0.074 A 
ATOM     59  C   UNL A   1      38.128  34.116  34.731  1.00  0.00     0.031 C 
ATOM     60  C   UNL A   1      39.942  33.005  36.006  1.00  0.00     0.037 A 
BRANCH  47  61
ATOM     61  C   UNL A   1      43.998  28.339  35.791  1.00  0.00     0.058 A 
ATOM     62  C   UNL A   1      43.698  27.264  36.644  1.00  0.00     0.135 A 
ATOM     63  C   UNL A   1      45.351  28.647  35.579  1.00  0.00     0.135 A 
ATOM     64  F   UNL A   1      42.420  26.936  36.896  1.00  0.00    -0.206 F 
ATOM     65  C   UNL A   1      44.699  26.544  37.288  1.00  0.00     0.059 A 
ATOM     66  C   UNL A   1      46.371  27.919  36.188  1.00  0.00     0.059 A 
ATOM     67  F   UNL A   1      45.697  29.664  34.775  1.00  0.00    -0.206 F 
ATOM     68  C   UNL A   1      46.033  26.879  37.052  1.00  0.00     0.060 A 
BRANCH  68  69
ATOM     69  S   UNL A   1      47.319  25.929  37.891  1.00  0.00     0.124 S 
ATOM     70  O   UNL A   1      46.524  24.942  38.616  1.00  0.00    -0.237 OA
ATOM     71  O   UNL A   1      48.104  25.413  36.774  1.00  0.00    -0.237 OA
ATOM     72  O   UNL A   1      47.991  26.924  38.720  1.00  0.00    -0.744 OA
ENDBRANCH  68  69
ENDBRANCH  47  61
BRANCH  48  73
ATOM     73  C   UNL A   1      36.702  33.113  30.884  1.00  0.00     0.058 A 
ATOM     74  C   UNL A   1      35.360  32.826  31.177  1.00  0.00     0.135 A 
ATOM     75  C   UNL A   1      36.963  34.086  29.906  1.00  0.00     0.135 A 
ATOM     76  F   UNL A   1      35.057  31.901  32.099  1.00  0.00    -0.206 F 
ATOM     77  C   UNL A   1      34.316  33.464  30.513  1.00  0.00     0.059 A 
ATOM     78  C   UNL A   1      35.937  34.757  29.249  1.00  0.00     0.059 A 
ATOM     79  F   UNL A   1      38.229  34.410  29.601  1.00  0.00    -0.206 F 
ATOM     80  C   UNL A   1      34.615  34.431  29.552  1.00  0.00     0.060 A 
BRANCH  80  81
ATOM     81  S   UNL A   1      33.253  35.288  28.732  1.00  0.00     0.124 S 
ATOM     82  O   UNL A   1      32.524  35.836  29.869  1.00  0.00    -0.237 OA
ATOM     83  O   UNL A   1      33.959  36.255  27.897  1.00  0.00    -0.237 OA
ATOM     84  O   UNL A   1      32.577  34.219  28.002  1.00  0.00    -0.744 OA
ENDBRANCH  80  81
ENDBRANCH  48  73
BRANCH  60  85
ATOM     85  C   UNL A   1      39.742  34.015  37.101  1.00  0.00     0.058 A 
ATOM     86  C   UNL A   1      38.944  33.741  38.223  1.00  0.00     0.135 A 
ATOM     87  C   UNL A   1      40.405  35.252  37.053  1.00  0.00     0.135 A 
ATOM     88  F   UNL A   1      38.284  32.577  38.315  1.00  0.00    -0.206 F 
ATOM     89  C   UNL A   1      38.791  34.669  39.248  1.00  0.00     0.059 A 
ATOM     90  C   UNL A   1      40.291  36.183  38.081  1.00  0.00     0.059 A 
ATOM     91  F   UNL A   1      41.189  35.559  36.008  1.00  0.00    -0.206 F 
ATOM     92  C   UNL A   1      39.472  35.886  39.169  1.00  0.00     0.060 A 
BRANCH  92  93
ATOM     93  S   UNL A   1      39.294  37.066  40.524  1.00  0.00     0.124 S 
ATOM     94  O   UNL A   1      38.540  36.284  41.497  1.00  0.00    -0.237 OA
ATOM     95  O   UNL A   1      40.682  37.348  40.876  1.00  0.00    -0.237 OA
ATOM     96  O   UNL A   1      38.569  38.177  39.915  1.00  0.00    -0.744 OA
ENDBRANCH  92  93
ENDBRANCH  60  85
ENDBRANCH  34  35
ENDBRANCH  26  29
ENDBRANCH  24  25
ENDBRANCH   1  24
TORSDOF 16
ENDMDL
MODEL 3
REMARK VINA RESULT:     -12.4      2.157      3.119
REMARK SMILES C[C@@H]1[C@@H](C(=O)NCCCNC(=O)c2ccc(-c3c4nc(c(-c5c(F)cc(S(=O)(=O)[O-])cc5F)c5ccc([nH]5)c(-c5c(F)cc(S(=O)(=O)[O-])cc5F)c5nc(c(-c6c(F)cc(S(=O)(=O)[O-])cc6F)c6ccc3[nH]6)C=C5)C=C4)cc2)CCN1C(=O)c1cc(Cl)ccc1O
REMARK SMILES IDX 8 1 7 2 6 3 4 4 5 5 3 7 1 8 2 9 81 10 79 11 80 12 82 13
REMARK SMILES IDX 83 14 84 15 85 16 90 17 86 18 89 19 87 20 88 21 91 22 9 24
REMARK SMILES IDX 10 25 11 26 12 28 13 29 14 30 78 31 15 32 77 33 16 34 17 35
REMARK SMILES IDX 18 36 71 37 19 38 76 39 70 40 72 41 20 42 75 43 69 44 68 45
REMARK SMILES IDX 21 47 55 48 34 49 54 50 35 51 38 52 53 53 73 54 36 55 37 56
REMARK SMILES IDX 52 58 74 59 39 60 22 61 23 62 32 63 24 64 25 65 31 66 33 67
REMARK SMILES IDX 26 68 27 69 28 70 29 71 30 72 56 73 57 74 66 75 58 76 59 77
REMARK SMILES IDX 65 78 67 79 60 80 61 81 62 82 63 83 64 84 40 85 41 86 50 87
REMARK SMILES IDX 42 88 43 89 49 90 51 91 44 92 45 93 46 94 47 95 48 96
REMARK H PARENT 6 6 91 23 10 27 72 46 38 57
REMARK Flexibility Score: inf
ROOT
ATOM      1  C   UNL A   1      34.914  29.954  27.419  1.00  0.00     0.042 C 
ENDROOT
BRANCH   1   2
ATOM      2  C   UNL A   1      33.501  30.216  26.934  1.00  0.00     0.117 C 
BRANCH   2   3
ATOM      3  N   UNL A   1      32.492  29.444  27.634  1.00  0.00    -0.356 N 
ATOM      4  C   UNL A   1      31.797  28.347  27.222  1.00  0.00     0.225 C 
ATOM      5  O   UNL A   1      31.022  27.831  28.026  1.00  0.00    -0.275 OA
ATOM      6  H   UNL A   1      32.276  29.760  28.540  1.00  0.00     0.163 HD
BRANCH   4   7
ATOM      7  C   UNL A   1      31.935  27.865  25.784  1.00  0.00     0.102 C 
ATOM      8  C   UNL A   1      30.473  26.807  24.038  1.00  0.00     0.032 C 
ATOM      9  C   UNL A   1      30.946  26.706  25.491  1.00  0.00     0.094 C 
ATOM     10  N   UNL A   1      31.748  25.488  25.767  1.00  0.00    -0.335 N 
ATOM     11  C   UNL A   1      33.288  27.230  25.443  1.00  0.00     0.037 C 
ATOM     12  C   UNL A   1      33.145  25.817  25.952  1.00  0.00     0.121 C 
BRANCH  10  13
ATOM     13  C   UNL A   1      31.334  24.254  26.241  1.00  0.00     0.257 C 
ATOM     14  O   UNL A   1      30.495  24.124  27.130  1.00  0.00    -0.269 OA
BRANCH  13  15
ATOM     15  C   UNL A   1      31.950  23.029  25.724  1.00  0.00     0.083 A 
ATOM     16  C   UNL A   1      31.792  22.740  24.364  1.00  0.00     0.038 A 
ATOM     17  C   UNL A   1      32.512  22.082  26.584  1.00  0.00     0.128 A 
ATOM     18  C   UNL A   1      32.256  21.525  23.868  1.00  0.00     0.042 A 
ATOM     19  C   UNL A   1      33.008  20.886  26.075  1.00  0.00     0.048 A 
ATOM     20  Cl  UNL A   1      32.025  21.133  22.209  1.00  0.00    -0.084 Cl
ATOM     21  C   UNL A   1      32.880  20.606  24.713  1.00  0.00     0.024 A 
BRANCH  17  22
ATOM     22  O   UNL A   1      32.565  22.231  27.943  1.00  0.00    -0.507 OA
ATOM     23  H   UNL A   1      32.407  21.496  28.501  1.00  0.00     0.293 HD
ENDBRANCH  17  22
ENDBRANCH  13  15
ENDBRANCH  10  13
ENDBRANCH   4   7
ENDBRANCH   2   3
ENDBRANCH   1   2
BRANCH   1  24
ATOM     24  C   UNL A   1      35.601  31.150  28.056  1.00  0.00     0.118 C 
BRANCH  24  25
ATOM     25  N   UNL A   1      35.547  31.146  29.511  1.00  0.00    -0.352 N 
ATOM     26  C   UNL A   1      36.415  30.607  30.436  1.00  0.00     0.251 C 
ATOM     27  H   UNL A   1      34.764  31.602  29.897  1.00  0.00     0.163 HD
ATOM     28  O   UNL A   1      36.106  30.594  31.619  1.00  0.00    -0.269 OA
BRANCH  26  29
ATOM     29  C   UNL A   1      37.696  30.007  29.993  1.00  0.00     0.039 A 
ATOM     30  C   UNL A   1      38.056  30.097  28.647  1.00  0.00     0.014 A 
ATOM     31  C   UNL A   1      38.547  29.374  30.900  1.00  0.00     0.014 A 
ATOM     32  C   UNL A   1      39.312  29.641  28.235  1.00  0.00     0.010 A 
ATOM     33  C   UNL A   1      39.838  29.034  30.514  1.00  0.00     0.010 A 
ATOM     34  C   UNL A   1      40.237  29.156  29.175  1.00  0.00    -0.014 A 
BRANCH  34  35
ATOM     35  C   UNL A   1      41.616  28.762  28.786  1.00  0.00     0.031 A 
ATOM     36  C   UNL A   1      42.709  29.800  28.733  1.00  0.00     0.074 A 
ATOM     37  C   UNL A   1      41.870  27.494  28.406  1.00  0.00     0.049 A 
ATOM     38  N   UNL A   1      43.946  29.676  28.328  1.00  0.00    -0.248 NA
ATOM     39  C   UNL A   1      42.353  31.164  29.158  1.00  0.00     0.031 C 
ATOM     40  C   UNL A   1      40.887  26.408  28.358  1.00  0.00     0.029 A 
ATOM     41  N   UNL A   1      43.032  26.902  27.976  1.00  0.00    -0.354 N 
ATOM     42  C   UNL A   1      44.507  30.944  28.432  1.00  0.00     0.074 A 
ATOM     43  C   UNL A   1      43.458  31.835  28.873  1.00  0.00     0.031 C 
ATOM     44  C   UNL A   1      41.493  25.280  27.956  1.00  0.00     0.029 A 
ATOM     45  C   UNL A   1      42.896  25.566  27.673  1.00  0.00     0.049 A 
ATOM     46  H   UNL A   1      43.885  27.387  27.893  1.00  0.00     0.167 HD
ATOM     47  C   UNL A   1      45.787  31.326  28.209  1.00  0.00     0.037 A 
ATOM     48  C   UNL A   1      43.796  24.675  27.213  1.00  0.00     0.037 A 
ATOM     49  C   UNL A   1      46.835  30.428  27.803  1.00  0.00     0.049 A 
ATOM     50  C   UNL A   1      45.213  25.124  26.975  1.00  0.00     0.074 A 
ATOM     51  C   UNL A   1      48.177  30.704  27.609  1.00  0.00     0.029 A 
ATOM     52  N   UNL A   1      46.660  29.079  27.531  1.00  0.00    -0.354 N 
ATOM     53  N   UNL A   1      45.739  26.314  27.137  1.00  0.00    -0.248 NA
ATOM     54  C   UNL A   1      46.160  24.107  26.496  1.00  0.00     0.031 C 
ATOM     55  C   UNL A   1      48.805  29.533  27.176  1.00  0.00     0.029 A 
ATOM     56  C   UNL A   1      47.866  28.513  27.152  1.00  0.00     0.049 A 
ATOM     57  H   UNL A   1      45.805  28.595  27.598  1.00  0.00     0.167 HD
ATOM     58  C   UNL A   1      47.084  26.183  26.810  1.00  0.00     0.074 A 
ATOM     59  C   UNL A   1      47.292  24.795  26.452  1.00  0.00     0.031 C 
ATOM     60  C   UNL A   1      48.059  27.126  26.808  1.00  0.00     0.037 A 
BRANCH  47  61
ATOM     61  C   UNL A   1      46.126  32.779  28.413  1.00  0.00     0.058 A 
ATOM     62  C   UNL A   1      46.552  33.269  29.659  1.00  0.00     0.135 A 
ATOM     63  C   UNL A   1      46.057  33.687  27.344  1.00  0.00     0.135 A 
ATOM     64  F   UNL A   1      46.620  32.449  30.721  1.00  0.00    -0.206 F 
ATOM     65  C   UNL A   1      46.864  34.611  29.846  1.00  0.00     0.059 A 
ATOM     66  C   UNL A   1      46.396  35.028  27.500  1.00  0.00     0.059 A 
ATOM     67  F   UNL A   1      45.657  33.274  26.131  1.00  0.00    -0.206 F 
ATOM     68  C   UNL A   1      46.784  35.483  28.759  1.00  0.00     0.060 A 
BRANCH  68  69
ATOM     69  S   UNL A   1      47.200  37.220  29.019  1.00  0.00     0.124 S 
ATOM     70  O   UNL A   1      45.875  37.827  29.105  1.00  0.00    -0.237 OA
ATOM     71  O   UNL A   1      47.958  37.176  30.266  1.00  0.00    -0.237 OA
ATOM     72  O   UNL A   1      47.972  37.566  27.831  1.00  0.00    -0.744 OA
ENDBRANCH  68  69
ENDBRANCH  47  61
BRANCH  48  73
ATOM     73  C   UNL A   1      43.391  23.264  26.973  1.00  0.00     0.058 A 
ATOM     74  C   UNL A   1      43.254  22.766  25.667  1.00  0.00     0.135 A 
ATOM     75  C   UNL A   1      43.143  22.382  28.036  1.00  0.00     0.135 A 
ATOM     76  F   UNL A   1      43.474  23.571  24.616  1.00  0.00    -0.206 F 
ATOM     77  C   UNL A   1      42.868  21.452  25.424  1.00  0.00     0.059 A 
ATOM     78  C   UNL A   1      42.783  21.056  27.818  1.00  0.00     0.059 A 
ATOM     79  F   UNL A   1      43.276  22.802  29.303  1.00  0.00    -0.206 F 
ATOM     80  C   UNL A   1      42.637  20.603  26.508  1.00  0.00     0.060 A 
BRANCH  80  81
ATOM     81  S   UNL A   1      42.183  18.885  26.181  1.00  0.00     0.124 S 
ATOM     82  O   UNL A   1      42.412  18.268  27.481  1.00  0.00    -0.237 OA
ATOM     83  O   UNL A   1      40.789  19.011  25.769  1.00  0.00    -0.237 OA
ATOM     84  O   UNL A   1      43.108  18.491  25.121  1.00  0.00    -0.744 OA
ENDBRANCH  80  81
ENDBRANCH  48  73
BRANCH  60  85
ATOM     85  C   UNL A   1      49.450  26.685  26.447  1.00  0.00     0.058 A 
ATOM     86  C   UNL A   1      50.298  26.073  27.383  1.00  0.00     0.135 A 
ATOM     87  C   UNL A   1      49.919  26.825  25.130  1.00  0.00     0.135 A 
ATOM     88  F   UNL A   1      49.901  25.920  28.655  1.00  0.00    -0.206 F 
ATOM     89  C   UNL A   1      51.572  25.637  27.032  1.00  0.00     0.059 A 
ATOM     90  C   UNL A   1      51.177  26.369  24.750  1.00  0.00     0.059 A 
ATOM     91  F   UNL A   1      49.143  27.393  24.193  1.00  0.00    -0.206 F 
ATOM     92  C   UNL A   1      52.000  25.787  25.711  1.00  0.00     0.060 A 
BRANCH  92  93
ATOM     93  S   UNL A   1      53.641  25.183  25.261  1.00  0.00     0.124 S 
ATOM     94  O   UNL A   1      54.473  25.801  26.288  1.00  0.00    -0.237 OA
ATOM     95  O   UNL A   1      53.480  23.736  25.361  1.00  0.00    -0.237 OA
ATOM     96  O   UNL A   1      53.832  25.694  23.907  1.00  0.00    -0.744 OA
ENDBRANCH  92  93
ENDBRANCH  60  85
ENDBRANCH  34  35
ENDBRANCH  26  29
ENDBRANCH  24  25
ENDBRANCH   1  24
TORSDOF 16
ENDMDL
