MODEL 1
REMARK VINA RESULT:     -12.4      0.000      0.000
REMARK SMILES Cc1n[nH]c(C)c1CC(=O)N1CC[C@H](C(=O)NCCCNC(=O)c2ccc(-c3c4nc(c(-c5c(F)cc(S(=O)(=O)[O-])cc5F)c5ccc([nH]5)c(-c5c(F)cc(S(=O)(=O)[O-])cc5F)c5nc(c(-c6c(F)cc(S(=O)(=O)[O-])cc6F)c6ccc3[nH]6)C=C5)C=C4)cc2)[C@H]1C
REMARK SMILES IDX 19 1 18 2 17 3 15 4 16 5 14 7 11 8 12 9 90 10 13 11 91 12
REMARK SMILES IDX 9 13 10 14 8 15 7 16 1 17 2 18 3 19 4 20 5 21 6 23 20 24
REMARK SMILES IDX 21 25 22 26 23 28 24 29 25 30 89 31 26 32 88 33 27 34 28 35
REMARK SMILES IDX 29 36 82 37 30 38 87 39 81 40 83 41 31 42 86 43 80 44 79 45
REMARK SMILES IDX 32 47 66 48 45 49 65 50 46 51 49 52 64 53 84 54 47 55 48 56
REMARK SMILES IDX 63 58 85 59 50 60 33 61 34 62 43 63 35 64 36 65 42 66 44 67
REMARK SMILES IDX 37 68 38 69 39 70 40 71 41 72 67 73 68 74 77 75 69 76 70 77
REMARK SMILES IDX 76 78 78 79 71 80 72 81 73 82 74 83 75 84 51 85 52 86 61 87
REMARK SMILES IDX 53 88 54 89 60 90 62 91 55 92 56 93 57 94 58 95 59 96
REMARK H PARENT 17 6 4 22 21 27 83 46 49 57
REMARK Flexibility Score: inf
ROOT
ATOM      1  C   UNL A   1      37.126  23.356  25.535  1.00  0.00     0.042 C 
ENDROOT
BRANCH   1   2
ATOM      2  C   UNL A   1      35.703  23.169  26.048  1.00  0.00     0.117 C 
BRANCH   2   3
ATOM      3  N   UNL A   1      35.116  21.965  25.498  1.00  0.00    -0.356 N 
ATOM      4  C   UNL A   1      34.175  21.790  24.536  1.00  0.00     0.225 C 
ATOM      5  O   UNL A   1      33.780  20.633  24.371  1.00  0.00    -0.275 OA
ATOM      6  H   UNL A   1      35.458  21.129  25.889  1.00  0.00     0.163 HD
BRANCH   4   7
ATOM      7  C   UNL A   1      33.750  22.929  23.607  1.00  0.00     0.102 C 
ATOM      8  N   UNL A   1      32.064  24.264  24.636  1.00  0.00    -0.339 N 
ATOM      9  C   UNL A   1      31.419  23.085  24.075  1.00  0.00     0.120 C 
ATOM     10  C   UNL A   1      33.475  24.311  24.243  1.00  0.00     0.094 C 
ATOM     11  C   UNL A   1      32.376  22.603  22.994  1.00  0.00     0.037 C 
ATOM     12  C   UNL A   1      33.745  25.401  23.204  1.00  0.00     0.032 C 
BRANCH   8  13
ATOM     13  C   UNL A   1      31.431  24.968  25.646  1.00  0.00     0.227 C 
ATOM     14  O   UNL A   1      31.423  24.509  26.795  1.00  0.00    -0.275 OA
BRANCH  13  15
ATOM     15  C   UNL A   1      30.549  26.177  25.338  1.00  0.00     0.139 C 
BRANCH  15  16
ATOM     16  C   UNL A   1      31.184  27.500  25.080  1.00  0.00     0.005 A 
ATOM     17  C   UNL A   1      31.800  28.307  27.500  1.00  0.00     0.069 C 
ATOM     18  C   UNL A   1      31.749  28.410  26.018  1.00  0.00     0.063 A 
ATOM     19  N   UNL A   1      32.253  29.493  25.414  1.00  0.00    -0.181 NA
ATOM     20  N   UNL A   1      31.845  29.381  24.147  1.00  0.00    -0.282 N 
ATOM     21  C   UNL A   1      31.175  28.220  23.890  1.00  0.00     0.036 A 
ATOM     22  H   UNL A   1      32.011  30.070  23.464  1.00  0.00     0.190 HD
ATOM     23  C   UNL A   1      30.529  27.980  22.575  1.00  0.00     0.066 C 
ENDBRANCH  15  16
ENDBRANCH  13  15
ENDBRANCH   8  13
ENDBRANCH   4   7
ENDBRANCH   2   3
ENDBRANCH   1   2
BRANCH   1  24
ATOM     24  C   UNL A   1      38.044  24.138  26.467  1.00  0.00     0.118 C 
BRANCH  24  25
ATOM     25  N   UNL A   1      39.449  23.831  26.251  1.00  0.00    -0.352 N 
ATOM     26  C   UNL A   1      40.562  24.531  26.650  1.00  0.00     0.251 C 
ATOM     27  H   UNL A   1      39.628  23.003  25.748  1.00  0.00     0.163 HD
ATOM     28  O   UNL A   1      41.664  24.225  26.196  1.00  0.00    -0.269 OA
BRANCH  26  29
ATOM     29  C   UNL A   1      40.438  25.654  27.606  1.00  0.00     0.039 A 
ATOM     30  C   UNL A   1      39.477  25.581  28.618  1.00  0.00     0.014 A 
ATOM     31  C   UNL A   1      41.258  26.781  27.503  1.00  0.00     0.014 A 
ATOM     32  C   UNL A   1      39.385  26.605  29.566  1.00  0.00     0.010 A 
ATOM     33  C   UNL A   1      41.218  27.762  28.491  1.00  0.00     0.010 A 
ATOM     34  C   UNL A   1      40.283  27.685  29.534  1.00  0.00    -0.014 A 
BRANCH  34  35
ATOM     35  C   UNL A   1      40.277  28.737  30.585  1.00  0.00     0.031 A 
ATOM     36  C   UNL A   1      41.155  28.600  31.799  1.00  0.00     0.074 A 
ATOM     37  C   UNL A   1      39.406  29.762  30.498  1.00  0.00     0.049 A 
ATOM     38  N   UNL A   1      41.198  29.339  32.878  1.00  0.00    -0.248 NA
ATOM     39  C   UNL A   1      42.087  27.462  31.813  1.00  0.00     0.031 C 
ATOM     40  C   UNL A   1      38.464  29.979  29.396  1.00  0.00     0.029 A 
ATOM     41  N   UNL A   1      39.148  30.798  31.363  1.00  0.00    -0.354 N 
ATOM     42  C   UNL A   1      42.133  28.738  33.713  1.00  0.00     0.074 A 
ATOM     43  C   UNL A   1      42.605  27.553  33.030  1.00  0.00     0.031 C 
ATOM     44  C   UNL A   1      37.736  31.077  29.651  1.00  0.00     0.029 A 
ATOM     45  C   UNL A   1      38.122  31.616  30.953  1.00  0.00     0.049 A 
ATOM     46  H   UNL A   1      39.651  30.941  32.197  1.00  0.00     0.167 HD
ATOM     47  C   UNL A   1      42.567  29.144  34.931  1.00  0.00     0.037 A 
ATOM     48  C   UNL A   1      37.533  32.663  31.564  1.00  0.00     0.037 A 
ATOM     49  C   UNL A   1      42.104  30.337  35.593  1.00  0.00     0.049 A 
ATOM     50  C   UNL A   1      38.036  33.107  32.910  1.00  0.00     0.074 A 
ATOM     51  C   UNL A   1      42.537  30.878  36.791  1.00  0.00     0.029 A 
ATOM     52  N   UNL A   1      41.093  31.165  35.124  1.00  0.00    -0.354 N 
ATOM     53  N   UNL A   1      38.977  32.574  33.654  1.00  0.00    -0.248 NA
ATOM     54  C   UNL A   1      37.406  34.295  33.500  1.00  0.00     0.031 C 
ATOM     55  C   UNL A   1      41.748  31.997  37.076  1.00  0.00     0.029 A 
ATOM     56  C   UNL A   1      40.868  32.195  36.023  1.00  0.00     0.049 A 
ATOM     57  H   UNL A   1      40.609  31.039  34.277  1.00  0.00     0.167 HD
ATOM     58  C   UNL A   1      39.070  33.376  34.786  1.00  0.00     0.074 A 
ATOM     59  C   UNL A   1      38.095  34.435  34.626  1.00  0.00     0.031 C 
ATOM     60  C   UNL A   1      39.895  33.247  35.855  1.00  0.00     0.037 A 
BRANCH  47  61
ATOM     61  C   UNL A   1      43.577  28.277  35.637  1.00  0.00     0.058 A 
ATOM     62  C   UNL A   1      43.197  27.282  36.553  1.00  0.00     0.135 A 
ATOM     63  C   UNL A   1      44.950  28.438  35.383  1.00  0.00     0.135 A 
ATOM     64  F   UNL A   1      41.901  27.088  36.842  1.00  0.00    -0.206 F 
ATOM     65  C   UNL A   1      44.141  26.513  37.227  1.00  0.00     0.059 A 
ATOM     66  C   UNL A   1      45.910  27.656  36.020  1.00  0.00     0.059 A 
ATOM     67  F   UNL A   1      45.374  29.368  34.513  1.00  0.00    -0.206 F 
ATOM     68  C   UNL A   1      45.496  26.711  36.959  1.00  0.00     0.060 A 
BRANCH  68  69
ATOM     69  S   UNL A   1      46.708  25.722  37.859  1.00  0.00     0.124 S 
ATOM     70  O   UNL A   1      46.859  24.572  36.973  1.00  0.00    -0.237 OA
ATOM     71  O   UNL A   1      47.855  26.621  37.930  1.00  0.00    -0.237 OA
ATOM     72  O   UNL A   1      46.048  25.450  39.133  1.00  0.00    -0.744 OA
ENDBRANCH  68  69
ENDBRANCH  47  61
BRANCH  48  73
ATOM     73  C   UNL A   1      36.407  33.362  30.889  1.00  0.00     0.058 A 
ATOM     74  C   UNL A   1      35.104  33.307  31.405  1.00  0.00     0.135 A 
ATOM     75  C   UNL A   1      36.623  34.152  29.748  1.00  0.00     0.135 A 
ATOM     76  F   UNL A   1      34.843  32.558  32.488  1.00  0.00    -0.206 F 
ATOM     77  C   UNL A   1      34.057  34.011  30.820  1.00  0.00     0.059 A 
ATOM     78  C   UNL A   1      35.599  34.888  29.160  1.00  0.00     0.059 A 
ATOM     79  F   UNL A   1      37.855  34.250  29.223  1.00  0.00    -0.206 F 
ATOM     80  C   UNL A   1      34.317  34.810  29.704  1.00  0.00     0.060 A 
BRANCH  80  81
ATOM     81  S   UNL A   1      32.970  35.794  29.011  1.00  0.00     0.124 S 
ATOM     82  O   UNL A   1      33.697  36.896  28.393  1.00  0.00    -0.237 OA
ATOM     83  O   UNL A   1      32.342  34.849  28.093  1.00  0.00    -0.237 OA
ATOM     84  O   UNL A   1      32.170  36.142  30.182  1.00  0.00    -0.744 OA
ENDBRANCH  80  81
ENDBRANCH  48  73
BRANCH  60  85
ATOM     85  C   UNL A   1      39.816  34.299  36.930  1.00  0.00     0.058 A 
ATOM     86  C   UNL A   1      40.461  35.539  36.807  1.00  0.00     0.135 A 
ATOM     87  C   UNL A   1      39.021  34.086  38.069  1.00  0.00     0.135 A 
ATOM     88  F   UNL A   1      41.241  35.794  35.744  1.00  0.00    -0.206 F 
ATOM     89  C   UNL A   1      40.336  36.525  37.782  1.00  0.00     0.059 A 
ATOM     90  C   UNL A   1      38.855  35.067  39.041  1.00  0.00     0.059 A 
ATOM     91  F   UNL A   1      38.373  32.921  38.234  1.00  0.00    -0.206 F 
ATOM     92  C   UNL A   1      39.525  36.281  38.894  1.00  0.00     0.060 A 
BRANCH  92  93
ATOM     93  S   UNL A   1      39.331  37.585  40.128  1.00  0.00     0.124 S 
ATOM     94  O   UNL A   1      38.945  36.818  41.308  1.00  0.00    -0.237 OA
ATOM     95  O   UNL A   1      40.664  38.179  40.166  1.00  0.00    -0.237 OA
ATOM     96  O   UNL A   1      38.287  38.436  39.565  1.00  0.00    -0.744 OA
ENDBRANCH  92  93
ENDBRANCH  60  85
ENDBRANCH  34  35
ENDBRANCH  26  29
ENDBRANCH  24  25
ENDBRANCH   1  24
TORSDOF 16
ENDMDL
MODEL 2
REMARK VINA RESULT:     -12.3      1.252      2.605
REMARK SMILES Cc1n[nH]c(C)c1CC(=O)N1CC[C@H](C(=O)NCCCNC(=O)c2ccc(-c3c4nc(c(-c5c(F)cc(S(=O)(=O)[O-])cc5F)c5ccc([nH]5)c(-c5c(F)cc(S(=O)(=O)[O-])cc5F)c5nc(c(-c6c(F)cc(S(=O)(=O)[O-])cc6F)c6ccc3[nH]6)C=C5)C=C4)cc2)[C@H]1C
REMARK SMILES IDX 19 1 18 2 17 3 15 4 16 5 14 7 11 8 12 9 90 10 13 11 91 12
REMARK SMILES IDX 9 13 10 14 8 15 7 16 1 17 2 18 3 19 4 20 5 21 6 23 20 24
REMARK SMILES IDX 21 25 22 26 23 28 24 29 25 30 89 31 26 32 88 33 27 34 28 35
REMARK SMILES IDX 29 36 82 37 30 38 87 39 81 40 83 41 31 42 86 43 80 44 79 45
REMARK SMILES IDX 32 47 66 48 45 49 65 50 46 51 49 52 64 53 84 54 47 55 48 56
REMARK SMILES IDX 63 58 85 59 50 60 33 61 34 62 43 63 35 64 36 65 42 66 44 67
REMARK SMILES IDX 37 68 38 69 39 70 40 71 41 72 67 73 68 74 77 75 69 76 70 77
REMARK SMILES IDX 76 78 78 79 71 80 72 81 73 82 74 83 75 84 51 85 52 86 61 87
REMARK SMILES IDX 53 88 54 89 60 90 62 91 55 92 56 93 57 94 58 95 59 96
REMARK H PARENT 17 6 4 22 21 27 83 46 49 57
REMARK Flexibility Score: inf
ROOT
ATOM      1  C   UNL A   1      37.540  23.320  25.927  1.00  0.00     0.042 C 
ENDROOT
BRANCH   1   2
ATOM      2  C   UNL A   1      36.261  24.085  25.608  1.00  0.00     0.117 C 
BRANCH   2   3
ATOM      3  N   UNL A   1      35.773  23.737  24.290  1.00  0.00    -0.356 N 
ATOM      4  C   UNL A   1      34.664  24.131  23.616  1.00  0.00     0.225 C 
ATOM      5  O   UNL A   1      34.449  23.556  22.546  1.00  0.00    -0.275 OA
ATOM      6  H   UNL A   1      36.345  23.105  23.798  1.00  0.00     0.163 HD
BRANCH   4   7
ATOM      7  C   UNL A   1      33.822  25.323  24.075  1.00  0.00     0.102 C 
ATOM      8  N   UNL A   1      31.786  24.579  25.067  1.00  0.00    -0.339 N 
ATOM      9  C   UNL A   1      31.613  24.555  23.621  1.00  0.00     0.120 C 
ATOM     10  C   UNL A   1      33.068  25.196  25.418  1.00  0.00     0.094 C 
ATOM     11  C   UNL A   1      32.654  25.532  23.094  1.00  0.00     0.037 C 
ATOM     12  C   UNL A   1      32.886  26.589  26.023  1.00  0.00     0.032 C 
BRANCH   8  13
ATOM     13  C   UNL A   1      30.961  23.801  25.862  1.00  0.00     0.227 C 
ATOM     14  O   UNL A   1      30.267  24.344  26.732  1.00  0.00    -0.275 OA
BRANCH  13  15
ATOM     15  C   UNL A   1      31.057  22.276  25.851  1.00  0.00     0.139 C 
BRANCH  15  16
ATOM     16  C   UNL A   1      32.371  21.628  25.577  1.00  0.00     0.005 A 
ATOM     17  C   UNL A   1      33.783  22.312  27.681  1.00  0.00     0.069 C 
ATOM     18  C   UNL A   1      33.543  21.623  26.385  1.00  0.00     0.063 A 
ATOM     19  N   UNL A   1      34.527  20.911  25.824  1.00  0.00    -0.181 NA
ATOM     20  N   UNL A   1      34.074  20.634  24.599  1.00  0.00    -0.282 N 
ATOM     21  C   UNL A   1      32.795  21.062  24.381  1.00  0.00     0.036 A 
ATOM     22  H   UNL A   1      34.610  20.167  23.918  1.00  0.00     0.190 HD
ATOM     23  C   UNL A   1      32.172  20.964  23.037  1.00  0.00     0.066 C 
ENDBRANCH  15  16
ENDBRANCH  13  15
ENDBRANCH   8  13
ENDBRANCH   4   7
ENDBRANCH   2   3
ENDBRANCH   1   2
BRANCH   1  24
ATOM     24  C   UNL A   1      38.565  24.100  26.742  1.00  0.00     0.118 C 
BRANCH  24  25
ATOM     25  N   UNL A   1      39.906  24.008  26.185  1.00  0.00    -0.352 N 
ATOM     26  C   UNL A   1      41.013  24.775  26.456  1.00  0.00     0.251 C 
ATOM     27  H   UNL A   1      40.039  23.293  25.521  1.00  0.00     0.163 HD
ATOM     28  O   UNL A   1      42.005  24.681  25.734  1.00  0.00    -0.269 OA
BRANCH  26  29
ATOM     29  C   UNL A   1      41.010  25.719  27.596  1.00  0.00     0.039 A 
ATOM     30  C   UNL A   1      42.094  26.587  27.761  1.00  0.00     0.014 A 
ATOM     31  C   UNL A   1      39.950  25.746  28.505  1.00  0.00     0.014 A 
ATOM     32  C   UNL A   1      42.082  27.525  28.798  1.00  0.00     0.010 A 
ATOM     33  C   UNL A   1      39.903  26.731  29.489  1.00  0.00     0.010 A 
ATOM     34  C   UNL A   1      40.968  27.633  29.646  1.00  0.00    -0.014 A 
BRANCH  34  35
ATOM     35  C   UNL A   1      40.880  28.686  30.692  1.00  0.00     0.031 A 
ATOM     36  C   UNL A   1      41.732  28.598  31.929  1.00  0.00     0.074 A 
ATOM     37  C   UNL A   1      39.960  29.664  30.578  1.00  0.00     0.049 A 
ATOM     38  N   UNL A   1      41.709  29.341  33.006  1.00  0.00    -0.248 NA
ATOM     39  C   UNL A   1      42.722  27.509  31.972  1.00  0.00     0.031 C 
ATOM     40  C   UNL A   1      39.037  29.828  29.452  1.00  0.00     0.029 A 
ATOM     41  N   UNL A   1      39.627  30.687  31.433  1.00  0.00    -0.354 N 
ATOM     42  C   UNL A   1      42.653  28.792  33.866  1.00  0.00     0.074 A 
ATOM     43  C   UNL A   1      43.203  27.630  33.201  1.00  0.00     0.031 C 
ATOM     44  C   UNL A   1      38.246  30.888  29.684  1.00  0.00     0.029 A 
ATOM     45  C   UNL A   1      38.570  31.449  30.993  1.00  0.00     0.049 A 
ATOM     46  H   UNL A   1      40.100  30.858  32.279  1.00  0.00     0.167 HD
ATOM     47  C   UNL A   1      43.033  29.222  35.094  1.00  0.00     0.037 A 
ATOM     48  C   UNL A   1      37.913  32.467  31.585  1.00  0.00     0.037 A 
ATOM     49  C   UNL A   1      42.492  30.391  35.739  1.00  0.00     0.049 A 
ATOM     50  C   UNL A   1      38.357  32.939  32.942  1.00  0.00     0.074 A 
ATOM     51  C   UNL A   1      42.865  30.957  36.946  1.00  0.00     0.029 A 
ATOM     52  N   UNL A   1      41.452  31.164  35.241  1.00  0.00    -0.354 N 
ATOM     53  N   UNL A   1      39.305  32.458  33.711  1.00  0.00    -0.248 NA
ATOM     54  C   UNL A   1      37.651  34.094  33.511  1.00  0.00     0.031 C 
ATOM     55  C   UNL A   1      42.013  32.034  37.206  1.00  0.00     0.029 A 
ATOM     56  C   UNL A   1      41.151  32.184  36.130  1.00  0.00     0.049 A 
ATOM     57  H   UNL A   1      40.997  31.011  34.382  1.00  0.00     0.167 HD
ATOM     58  C   UNL A   1      39.327  33.267  34.842  1.00  0.00     0.074 A 
ATOM     59  C   UNL A   1      38.302  34.273  34.653  1.00  0.00     0.031 C 
ATOM     60  C   UNL A   1      40.129  33.184  35.933  1.00  0.00     0.037 A 
BRANCH  47  61
ATOM     61  C   UNL A   1      44.069  28.411  35.829  1.00  0.00     0.058 A 
ATOM     62  C   UNL A   1      45.446  28.641  35.674  1.00  0.00     0.135 A 
ATOM     63  C   UNL A   1      43.674  27.391  36.712  1.00  0.00     0.135 A 
ATOM     64  F   UNL A   1      45.883  29.596  34.838  1.00  0.00    -0.206 F 
ATOM     65  C   UNL A   1      46.393  27.859  36.330  1.00  0.00     0.059 A 
ATOM     66  C   UNL A   1      44.604  26.620  37.404  1.00  0.00     0.059 A 
ATOM     67  F   UNL A   1      42.372  27.129  36.905  1.00  0.00    -0.206 F 
ATOM     68  C   UNL A   1      45.963  26.848  37.188  1.00  0.00     0.060 A 
BRANCH  68  69
ATOM     69  S   UNL A   1      47.204  25.828  38.011  1.00  0.00     0.124 S 
ATOM     70  O   UNL A   1      47.321  26.499  39.302  1.00  0.00    -0.237 OA
ATOM     71  O   UNL A   1      46.566  24.517  38.036  1.00  0.00    -0.237 OA
ATOM     72  O   UNL A   1      48.370  25.939  37.139  1.00  0.00    -0.744 OA
ENDBRANCH  68  69
ENDBRANCH  47  61
BRANCH  48  73
ATOM     73  C   UNL A   1      36.769  33.104  30.879  1.00  0.00     0.058 A 
ATOM     74  C   UNL A   1      35.445  32.849  31.263  1.00  0.00     0.135 A 
ATOM     75  C   UNL A   1      36.982  34.032  29.845  1.00  0.00     0.135 A 
ATOM     76  F   UNL A   1      35.188  31.964  32.237  1.00  0.00    -0.206 F 
ATOM     77  C   UNL A   1      34.372  33.491  30.653  1.00  0.00     0.059 A 
ATOM     78  C   UNL A   1      35.928  34.708  29.238  1.00  0.00     0.059 A 
ATOM     79  F   UNL A   1      38.231  34.322  29.450  1.00  0.00    -0.206 F 
ATOM     80  C   UNL A   1      34.624  34.430  29.649  1.00  0.00     0.060 A 
BRANCH  80  81
ATOM     81  S   UNL A   1      33.230  35.326  28.932  1.00  0.00     0.124 S 
ATOM     82  O   UNL A   1      33.905  36.416  28.239  1.00  0.00    -0.237 OA
ATOM     83  O   UNL A   1      32.617  34.311  28.082  1.00  0.00    -0.237 OA
ATOM     84  O   UNL A   1      32.441  35.713  30.099  1.00  0.00    -0.744 OA
ENDBRANCH  80  81
ENDBRANCH  48  73
BRANCH  60  85
ATOM     85  C   UNL A   1      39.968  34.233  37.001  1.00  0.00     0.058 A 
ATOM     86  C   UNL A   1      40.605  35.480  36.922  1.00  0.00     0.135 A 
ATOM     87  C   UNL A   1      39.103  34.009  38.086  1.00  0.00     0.135 A 
ATOM     88  F   UNL A   1      41.449  35.746  35.911  1.00  0.00    -0.206 F 
ATOM     89  C   UNL A   1      40.405  36.463  37.887  1.00  0.00     0.059 A 
ATOM     90  C   UNL A   1      38.863  34.986  39.046  1.00  0.00     0.059 A 
ATOM     91  F   UNL A   1      38.461  32.836  38.208  1.00  0.00    -0.206 F 
ATOM     92  C   UNL A   1      39.526  36.208  38.943  1.00  0.00     0.060 A 
BRANCH  92  93
ATOM     93  S   UNL A   1      39.237  37.507  40.164  1.00  0.00     0.124 S 
ATOM     94  O   UNL A   1      38.218  38.313  39.499  1.00  0.00    -0.237 OA
ATOM     95  O   UNL A   1      38.787  36.749  41.327  1.00  0.00    -0.237 OA
ATOM     96  O   UNL A   1      40.545  38.141  40.303  1.00  0.00    -0.744 OA
ENDBRANCH  92  93
ENDBRANCH  60  85
ENDBRANCH  34  35
ENDBRANCH  26  29
ENDBRANCH  24  25
ENDBRANCH   1  24
TORSDOF 16
ENDMDL
MODEL 3
REMARK VINA RESULT:     -12.2      6.653     12.096
REMARK SMILES Cc1n[nH]c(C)c1CC(=O)N1CC[C@H](C(=O)NCCCNC(=O)c2ccc(-c3c4nc(c(-c5c(F)cc(S(=O)(=O)[O-])cc5F)c5ccc([nH]5)c(-c5c(F)cc(S(=O)(=O)[O-])cc5F)c5nc(c(-c6c(F)cc(S(=O)(=O)[O-])cc6F)c6ccc3[nH]6)C=C5)C=C4)cc2)[C@H]1C
REMARK SMILES IDX 19 1 18 2 17 3 15 4 16 5 14 7 11 8 12 9 90 10 13 11 91 12
REMARK SMILES IDX 9 13 10 14 8 15 7 16 1 17 2 18 3 19 4 20 5 21 6 23 20 24
REMARK SMILES IDX 21 25 22 26 23 28 24 29 25 30 89 31 26 32 88 33 27 34 28 35
REMARK SMILES IDX 29 36 82 37 30 38 87 39 81 40 83 41 31 42 86 43 80 44 79 45
REMARK SMILES IDX 32 47 66 48 45 49 65 50 46 51 49 52 64 53 84 54 47 55 48 56
REMARK SMILES IDX 63 58 85 59 50 60 33 61 34 62 43 63 35 64 36 65 42 66 44 67
REMARK SMILES IDX 37 68 38 69 39 70 40 71 41 72 67 73 68 74 77 75 69 76 70 77
REMARK SMILES IDX 76 78 78 79 71 80 72 81 73 82 74 83 75 84 51 85 52 86 61 87
REMARK SMILES IDX 53 88 54 89 60 90 62 91 55 92 56 93 57 94 58 95 59 96
REMARK H PARENT 17 6 4 22 21 27 83 46 49 57
REMARK Flexibility Score: inf
ROOT
ATOM      1  C   UNL A   1      35.009  29.862  27.362  1.00  0.00     0.042 C 
ENDROOT
BRANCH   1   2
ATOM      2  C   UNL A   1      33.574  30.089  26.898  1.00  0.00     0.117 C 
BRANCH   2   3
ATOM      3  N   UNL A   1      32.665  29.212  27.605  1.00  0.00    -0.356 N 
ATOM      4  C   UNL A   1      31.854  28.220  27.158  1.00  0.00     0.225 C 
ATOM      5  O   UNL A   1      31.090  27.729  27.994  1.00  0.00    -0.275 OA
ATOM      6  H   UNL A   1      32.627  29.361  28.577  1.00  0.00     0.163 HD
BRANCH   4   7
ATOM      7  C   UNL A   1      31.993  27.637  25.751  1.00  0.00     0.102 C 
ATOM      8  N   UNL A   1      31.852  25.257  25.813  1.00  0.00    -0.339 N 
ATOM      9  C   UNL A   1      33.211  25.634  26.179  1.00  0.00     0.120 C 
ATOM     10  C   UNL A   1      31.095  26.434  25.380  1.00  0.00     0.094 C 
ATOM     11  C   UNL A   1      33.396  27.024  25.587  1.00  0.00     0.037 C 
ATOM     12  C   UNL A   1      30.855  26.437  23.869  1.00  0.00     0.032 C 
BRANCH   8  13
ATOM     13  C   UNL A   1      31.369  24.015  26.187  1.00  0.00     0.227 C 
ATOM     14  O   UNL A   1      30.861  23.872  27.306  1.00  0.00    -0.275 OA
BRANCH  13  15
ATOM     15  C   UNL A   1      31.653  22.769  25.349  1.00  0.00     0.139 C 
BRANCH  15  16
ATOM     16  C   UNL A   1      33.064  22.389  25.056  1.00  0.00     0.005 A 
ATOM     17  C   UNL A   1      33.915  21.551  27.393  1.00  0.00     0.069 C 
ATOM     18  C   UNL A   1      34.035  21.837  25.939  1.00  0.00     0.063 A 
ATOM     19  N   UNL A   1      35.194  21.600  25.314  1.00  0.00    -0.181 NA
ATOM     20  N   UNL A   1      35.041  22.170  24.115  1.00  0.00    -0.282 N 
ATOM     21  C   UNL A   1      33.794  22.685  23.911  1.00  0.00     0.036 A 
ATOM     22  H   UNL A   1      35.760  22.215  23.444  1.00  0.00     0.190 HD
ATOM     23  C   UNL A   1      33.479  23.475  22.694  1.00  0.00     0.066 C 
ENDBRANCH  15  16
ENDBRANCH  13  15
ENDBRANCH   8  13
ENDBRANCH   4   7
ENDBRANCH   2   3
ENDBRANCH   1   2
BRANCH   1  24
ATOM     24  C   UNL A   1      35.636  31.041  28.098  1.00  0.00     0.118 C 
BRANCH  24  25
ATOM     25  N   UNL A   1      35.460  30.955  29.539  1.00  0.00    -0.352 N 
ATOM     26  C   UNL A   1      36.335  30.496  30.495  1.00  0.00     0.251 C 
ATOM     27  H   UNL A   1      34.592  31.271  29.878  1.00  0.00     0.163 HD
ATOM     28  O   UNL A   1      35.932  30.307  31.642  1.00  0.00    -0.269 OA
BRANCH  26  29
ATOM     29  C   UNL A   1      37.746  30.217  30.147  1.00  0.00     0.039 A 
ATOM     30  C   UNL A   1      38.668  30.000  31.175  1.00  0.00     0.014 A 
ATOM     31  C   UNL A   1      38.165  30.178  28.815  1.00  0.00     0.014 A 
ATOM     32  C   UNL A   1      39.992  29.677  30.865  1.00  0.00     0.010 A 
ATOM     33  C   UNL A   1      39.464  29.781  28.506  1.00  0.00     0.010 A 
ATOM     34  C   UNL A   1      40.392  29.524  29.527  1.00  0.00    -0.014 A 
BRANCH  34  35
ATOM     35  C   UNL A   1      41.766  29.083  29.167  1.00  0.00     0.031 A 
ATOM     36  C   UNL A   1      42.889  30.082  29.102  1.00  0.00     0.074 A 
ATOM     37  C   UNL A   1      41.980  27.805  28.796  1.00  0.00     0.049 A 
ATOM     38  N   UNL A   1      44.120  29.919  28.686  1.00  0.00    -0.248 NA
ATOM     39  C   UNL A   1      42.579  31.453  29.535  1.00  0.00     0.031 C 
ATOM     40  C   UNL A   1      40.961  26.753  28.765  1.00  0.00     0.029 A 
ATOM     41  N   UNL A   1      43.117  27.180  28.345  1.00  0.00    -0.354 N 
ATOM     42  C   UNL A   1      44.719  31.170  28.774  1.00  0.00     0.074 A 
ATOM     43  C   UNL A   1      43.706  32.089  29.246  1.00  0.00     0.031 C 
ATOM     44  C   UNL A   1      41.519  25.615  28.322  1.00  0.00     0.029 A 
ATOM     45  C   UNL A   1      42.919  25.865  27.992  1.00  0.00     0.049 A 
ATOM     46  H   UNL A   1      43.990  27.629  28.282  1.00  0.00     0.167 HD
ATOM     47  C   UNL A   1      45.999  31.518  28.497  1.00  0.00     0.037 A 
ATOM     48  C   UNL A   1      43.757  24.967  27.437  1.00  0.00     0.037 A 
ATOM     49  C   UNL A   1      47.005  30.591  28.044  1.00  0.00     0.049 A 
ATOM     50  C   UNL A   1      45.178  25.368  27.147  1.00  0.00     0.074 A 
ATOM     51  C   UNL A   1      48.349  30.827  27.811  1.00  0.00     0.029 A 
ATOM     52  N   UNL A   1      46.776  29.256  27.740  1.00  0.00    -0.354 N 
ATOM     53  N   UNL A   1      45.753  26.537  27.310  1.00  0.00    -0.248 NA
ATOM     54  C   UNL A   1      46.067  24.332  26.607  1.00  0.00     0.031 C 
ATOM     55  C   UNL A   1      48.918  29.652  27.310  1.00  0.00     0.029 A 
ATOM     56  C   UNL A   1      47.946  28.664  27.294  1.00  0.00     0.049 A 
ATOM     57  H   UNL A   1      45.910  28.798  27.830  1.00  0.00     0.167 HD
ATOM     58  C   UNL A   1      47.076  26.370  26.917  1.00  0.00     0.074 A 
ATOM     59  C   UNL A   1      47.219  24.986  26.516  1.00  0.00     0.031 C 
ATOM     60  C   UNL A   1      48.080  27.282  26.897  1.00  0.00     0.037 A 
BRANCH  47  61
ATOM     61  C   UNL A   1      46.377  32.969  28.652  1.00  0.00     0.058 A 
ATOM     62  C   UNL A   1      46.281  33.884  27.591  1.00  0.00     0.135 A 
ATOM     63  C   UNL A   1      46.835  33.453  29.889  1.00  0.00     0.135 A 
ATOM     64  F   UNL A   1      45.857  33.477  26.383  1.00  0.00    -0.206 F 
ATOM     65  C   UNL A   1      46.669  35.213  27.736  1.00  0.00     0.059 A 
ATOM     66  C   UNL A   1      47.196  34.786  30.066  1.00  0.00     0.059 A 
ATOM     67  F   UNL A   1      46.943  32.628  30.942  1.00  0.00    -0.206 F 
ATOM     68  C   UNL A   1      47.130  35.654  28.976  1.00  0.00     0.060 A 
BRANCH  68  69
ATOM     69  S   UNL A   1      47.653  37.373  29.141  1.00  0.00     0.124 S 
ATOM     70  O   UNL A   1      47.503  37.585  30.578  1.00  0.00    -0.237 OA
ATOM     71  O   UNL A   1      49.025  37.332  28.647  1.00  0.00    -0.237 OA
ATOM     72  O   UNL A   1      46.707  38.100  28.298  1.00  0.00    -0.744 OA
ENDBRANCH  68  69
ENDBRANCH  47  61
BRANCH  48  73
ATOM     73  C   UNL A   1      43.261  23.599  27.132  1.00  0.00     0.058 A 
ATOM     74  C   UNL A   1      42.955  23.213  25.819  1.00  0.00     0.135 A 
ATOM     75  C   UNL A   1      43.145  22.628  28.142  1.00  0.00     0.135 A 
ATOM     76  F   UNL A   1      43.040  24.105  24.821  1.00  0.00    -0.206 F 
ATOM     77  C   UNL A   1      42.554  21.916  25.515  1.00  0.00     0.059 A 
ATOM     78  C   UNL A   1      42.773  21.318  27.859  1.00  0.00     0.059 A 
ATOM     79  F   UNL A   1      43.440  22.943  29.413  1.00  0.00    -0.206 F 
ATOM     80  C   UNL A   1      42.478  20.971  26.541  1.00  0.00     0.060 A 
BRANCH  80  81
ATOM     81  S   UNL A   1      42.051  19.268  26.118  1.00  0.00     0.124 S 
ATOM     82  O   UNL A   1      42.496  18.548  27.306  1.00  0.00    -0.237 OA
ATOM     83  O   UNL A   1      40.607  19.353  25.928  1.00  0.00    -0.237 OA
ATOM     84  O   UNL A   1      42.820  19.018  24.903  1.00  0.00    -0.744 OA
ENDBRANCH  80  81
ENDBRANCH  48  73
BRANCH  60  85
ATOM     85  C   UNL A   1      49.444  26.812  26.466  1.00  0.00     0.058 A 
ATOM     86  C   UNL A   1      50.324  26.169  27.350  1.00  0.00     0.135 A 
ATOM     87  C   UNL A   1      49.846  26.945  25.126  1.00  0.00     0.135 A 
ATOM     88  F   UNL A   1      49.995  26.021  28.644  1.00  0.00    -0.206 F 
ATOM     89  C   UNL A   1      51.560  25.689  26.927  1.00  0.00     0.059 A 
ATOM     90  C   UNL A   1      51.063  26.446  24.673  1.00  0.00     0.059 A 
ATOM     91  F   UNL A   1      49.040  27.545  24.235  1.00  0.00    -0.206 F 
ATOM     92  C   UNL A   1      51.918  25.827  25.583  1.00  0.00     0.060 A 
BRANCH  92  93
ATOM     93  S   UNL A   1      53.503  25.158  25.035  1.00  0.00     0.124 S 
ATOM     94  O   UNL A   1      53.552  25.615  23.650  1.00  0.00    -0.237 OA
ATOM     95  O   UNL A   1      54.445  25.799  25.948  1.00  0.00    -0.237 OA
ATOM     96  O   UNL A   1      53.346  23.718  25.215  1.00  0.00    -0.744 OA
ENDBRANCH  92  93
ENDBRANCH  60  85
ENDBRANCH  34  35
ENDBRANCH  26  29
ENDBRANCH  24  25
ENDBRANCH   1  24
TORSDOF 16
ENDMDL
