MODEL 1
REMARK VINA RESULT:     -12.8      0.000      0.000
REMARK SMILES NS(=O)(=O)c1ccc(/N=C/c2ccc(O)c(C(=O)NCCCNC(=O)c3ccc(-c4c5nc(c(-c6c(F)cc(S(=O)(=O)[O-])cc6F)c6ccc([nH]6)c(-c6c(F)cc(S(=O)(=O)[O-])cc6F)c6nc(c(-c7c(F)cc(S(=O)(=O)[O-])cc7F)c7ccc4[nH]7)C=C6)C=C5)cc3)c2)cc1
REMARK SMILES IDX 20 1 19 2 17 3 18 4 16 6 11 7 12 8 92 9 13 10 14 11 10 12
REMARK SMILES IDX 9 13 8 14 5 15 6 16 94 17 7 18 93 19 2 20 3 21 4 22 1 23
REMARK SMILES IDX 15 26 21 28 22 29 23 30 24 31 25 33 26 34 27 35 91 36 28 37
REMARK SMILES IDX 90 38 29 39 30 40 31 41 84 42 32 43 89 44 83 45 85 46 33 47
REMARK SMILES IDX 88 48 82 49 81 50 34 52 68 53 47 54 67 55 48 56 51 57 66 58
REMARK SMILES IDX 86 59 49 60 50 61 65 63 87 64 52 65 35 66 36 67 45 68 37 69
REMARK SMILES IDX 38 70 44 71 46 72 39 73 40 74 41 75 42 76 43 77 69 78 70 79
REMARK SMILES IDX 79 80 71 81 72 82 78 83 80 84 73 85 74 86 75 87 76 88 77 89
REMARK SMILES IDX 53 90 54 91 63 92 55 93 56 94 62 95 64 96 57 97 58 98 59 99
REMARK SMILES IDX 60 100 61 101
REMARK H PARENT 19 5 1 24 1 25 15 27 23 32 85 51 51 62
REMARK Flexibility Score: inf
ROOT
ATOM      1  C   UNL A   1      33.239  29.851  26.089  1.00  0.00     0.118 C 
ENDROOT
BRANCH   1   2
ATOM      2  N   UNL A   1      33.642  29.602  24.706  1.00  0.00    -0.352 N 
ATOM      3  C   UNL A   1      33.091  28.871  23.678  1.00  0.00     0.255 C 
ATOM      4  O   UNL A   1      33.713  28.800  22.615  1.00  0.00    -0.269 OA
ATOM      5  H   UNL A   1      34.482  30.051  24.458  1.00  0.00     0.163 HD
BRANCH   3   6
ATOM      6  C   UNL A   1      31.826  28.099  23.788  1.00  0.00     0.082 A 
ATOM      7  C   UNL A   1      30.627  25.995  23.844  1.00  0.00    -0.006 A 
ATOM      8  C   UNL A   1      29.408  26.648  23.675  1.00  0.00     0.013 A 
ATOM      9  C   UNL A   1      31.808  26.726  24.003  1.00  0.00     0.027 A 
ATOM     10  C   UNL A   1      29.391  28.042  23.625  1.00  0.00     0.047 A 
ATOM     11  C   UNL A   1      30.592  28.760  23.659  1.00  0.00     0.128 A 
BRANCH   7  12
ATOM     12  C   UNL A   1      30.722  24.525  23.700  1.00  0.00     0.119 C 
ATOM     13  N   UNL A   1      31.703  23.899  24.264  1.00  0.00    -0.256 NA
BRANCH  13  14
ATOM     14  C   UNL A   1      31.906  22.530  24.059  1.00  0.00     0.063 A 
ATOM     15  C   UNL A   1      32.534  19.811  23.777  1.00  0.00     0.082 A 
ATOM     16  C   UNL A   1      32.574  20.406  25.039  1.00  0.00     0.024 A 
ATOM     17  C   UNL A   1      32.202  20.566  22.650  1.00  0.00     0.024 A 
ATOM     18  C   UNL A   1      32.263  21.760  25.171  1.00  0.00     0.030 A 
ATOM     19  C   UNL A   1      31.899  21.925  22.796  1.00  0.00     0.030 A 
BRANCH  15  20
ATOM     20  S   UNL A   1      32.933  18.092  23.664  1.00  0.00     0.238 S 
ATOM     21  O   UNL A   1      34.226  17.900  24.286  1.00  0.00    -0.207 OA
ATOM     22  O   UNL A   1      32.638  17.642  22.328  1.00  0.00    -0.207 OA
BRANCH  20  23
ATOM     23  N   UNL A   1      31.833  17.323  24.673  1.00  0.00    -0.225 NA
ATOM     24  H   UNL A   1      30.919  17.764  24.578  1.00  0.00     0.137 HD
ATOM     25  H   UNL A   1      32.148  17.399  25.641  1.00  0.00     0.137 HD
ENDBRANCH  20  23
ENDBRANCH  15  20
ENDBRANCH  13  14
ENDBRANCH   7  12
BRANCH  11  26
ATOM     26  O   UNL A   1      30.480  30.122  23.556  1.00  0.00    -0.507 OA
ATOM     27  H   UNL A   1      29.830  30.497  22.996  1.00  0.00     0.293 HD
ENDBRANCH  11  26
ENDBRANCH   3   6
ENDBRANCH   1   2
BRANCH   1  28
ATOM     28  C   UNL A   1      33.732  28.809  27.081  1.00  0.00     0.042 C 
BRANCH  28  29
ATOM     29  C   UNL A   1      35.129  29.048  27.628  1.00  0.00     0.118 C 
BRANCH  29  30
ATOM     30  N   UNL A   1      35.149  29.945  28.776  1.00  0.00    -0.352 N 
ATOM     31  C   UNL A   1      36.171  30.337  29.608  1.00  0.00     0.251 C 
ATOM     32  H   UNL A   1      34.274  30.339  28.997  1.00  0.00     0.163 HD
ATOM     33  O   UNL A   1      35.896  30.965  30.629  1.00  0.00    -0.269 OA
BRANCH  31  34
ATOM     34  C   UNL A   1      37.584  30.005  29.310  1.00  0.00     0.039 A 
ATOM     35  C   UNL A   1      38.455  29.736  30.371  1.00  0.00     0.014 A 
ATOM     36  C   UNL A   1      38.073  30.000  28.003  1.00  0.00     0.014 A 
ATOM     37  C   UNL A   1      39.787  29.390  30.115  1.00  0.00     0.010 A 
ATOM     38  C   UNL A   1      39.367  29.558  27.743  1.00  0.00     0.010 A 
ATOM     39  C   UNL A   1      40.244  29.257  28.794  1.00  0.00    -0.014 A 
BRANCH  39  40
ATOM     40  C   UNL A   1      41.629  28.817  28.484  1.00  0.00     0.031 A 
ATOM     41  C   UNL A   1      42.746  29.825  28.410  1.00  0.00     0.074 A 
ATOM     42  C   UNL A   1      41.865  27.528  28.168  1.00  0.00     0.049 A 
ATOM     43  N   UNL A   1      43.991  29.658  28.044  1.00  0.00    -0.248 NA
ATOM     44  C   UNL A   1      42.406  31.214  28.757  1.00  0.00     0.031 C 
ATOM     45  C   UNL A   1      40.856  26.467  28.132  1.00  0.00     0.029 A 
ATOM     46  N   UNL A   1      43.024  26.894  27.792  1.00  0.00    -0.354 N 
ATOM     47  C   UNL A   1      44.570  30.921  28.079  1.00  0.00     0.074 A 
ATOM     48  C   UNL A   1      43.528  31.851  28.456  1.00  0.00     0.031 C 
ATOM     49  C   UNL A   1      41.441  25.315  27.769  1.00  0.00     0.029 A 
ATOM     50  C   UNL A   1      42.857  25.560  27.510  1.00  0.00     0.049 A 
ATOM     51  H   UNL A   1      43.893  27.353  27.732  1.00  0.00     0.167 HD
ATOM     52  C   UNL A   1      45.857  31.272  27.841  1.00  0.00     0.037 A 
ATOM     53  C   UNL A   1      43.738  24.636  27.080  1.00  0.00     0.037 A 
ATOM     54  C   UNL A   1      46.897  30.334  27.508  1.00  0.00     0.049 A 
ATOM     55  C   UNL A   1      45.172  25.032  26.871  1.00  0.00     0.074 A 
ATOM     56  C   UNL A   1      48.250  30.570  27.341  1.00  0.00     0.029 A 
ATOM     57  N   UNL A   1      46.699  28.977  27.291  1.00  0.00    -0.354 N 
ATOM     58  N   UNL A   1      45.722  26.218  26.990  1.00  0.00    -0.248 NA
ATOM     59  C   UNL A   1      46.107  23.969  26.483  1.00  0.00     0.031 C 
ATOM     60  C   UNL A   1      48.863  29.365  26.981  1.00  0.00     0.029 A 
ATOM     61  C   UNL A   1      47.901  28.368  26.969  1.00  0.00     0.049 A 
ATOM     62  H   UNL A   1      45.832  28.516  27.356  1.00  0.00     0.167 HD
ATOM     63  C   UNL A   1      47.072  26.041  26.706  1.00  0.00     0.074 A 
ATOM     64  C   UNL A   1      47.256  24.631  26.423  1.00  0.00     0.031 C 
ATOM     65  C   UNL A   1      48.067  26.963  26.685  1.00  0.00     0.037 A 
BRANCH  52  66
ATOM     66  C   UNL A   1      46.202  32.735  27.926  1.00  0.00     0.058 A 
ATOM     67  C   UNL A   1      45.988  33.613  26.849  1.00  0.00     0.135 A 
ATOM     68  C   UNL A   1      46.764  33.267  29.098  1.00  0.00     0.135 A 
ATOM     69  F   UNL A   1      45.463  33.157  25.701  1.00  0.00    -0.206 F 
ATOM     70  C   UNL A   1      46.368  34.949  26.912  1.00  0.00     0.059 A 
ATOM     71  C   UNL A   1      47.124  34.610  29.194  1.00  0.00     0.059 A 
ATOM     72  F   UNL A   1      46.986  32.478  30.161  1.00  0.00    -0.206 F 
ATOM     73  C   UNL A   1      46.944  35.436  28.086  1.00  0.00     0.060 A 
BRANCH  73  74
ATOM     74  S   UNL A   1      47.470  37.163  28.140  1.00  0.00     0.124 S 
ATOM     75  O   UNL A   1      48.881  37.025  28.491  1.00  0.00    -0.237 OA
ATOM     76  O   UNL A   1      47.198  37.617  26.780  1.00  0.00    -0.237 OA
ATOM     77  O   UNL A   1      46.620  37.744  29.173  1.00  0.00    -0.744 OA
ENDBRANCH  73  74
ENDBRANCH  52  66
BRANCH  53  78
ATOM     78  C   UNL A   1      43.277  23.241  26.852  1.00  0.00     0.058 A 
ATOM     79  C   UNL A   1      43.190  22.712  25.557  1.00  0.00     0.135 A 
ATOM     80  C   UNL A   1      42.989  22.386  27.928  1.00  0.00     0.135 A 
ATOM     81  F   UNL A   1      43.449  23.493  24.496  1.00  0.00    -0.206 F 
ATOM     82  C   UNL A   1      42.842  21.383  25.332  1.00  0.00     0.059 A 
ATOM     83  C   UNL A   1      42.659  21.049  27.731  1.00  0.00     0.059 A 
ATOM     84  F   UNL A   1      43.075  22.840  29.188  1.00  0.00    -0.206 F 
ATOM     85  C   UNL A   1      42.590  20.556  26.429  1.00  0.00     0.060 A 
BRANCH  85  86
ATOM     86  S   UNL A   1      42.239  18.808  26.135  1.00  0.00     0.124 S 
ATOM     87  O   UNL A   1      43.161  18.500  25.048  1.00  0.00    -0.237 OA
ATOM     88  O   UNL A   1      42.554  18.208  27.428  1.00  0.00    -0.237 OA
ATOM     89  O   UNL A   1      40.822  18.804  25.783  1.00  0.00    -0.744 OA
ENDBRANCH  85  86
ENDBRANCH  53  78
BRANCH  65  90
ATOM     90  C   UNL A   1      49.453  26.477  26.362  1.00  0.00     0.058 A 
ATOM     91  C   UNL A   1      50.013  26.644  25.086  1.00  0.00     0.135 A 
ATOM     92  C   UNL A   1      50.251  25.890  27.358  1.00  0.00     0.135 A 
ATOM     93  F   UNL A   1      49.290  27.194  24.098  1.00  0.00    -0.206 F 
ATOM     94  C   UNL A   1      51.310  26.229  24.803  1.00  0.00     0.059 A 
ATOM     95  C   UNL A   1      51.558  25.490  27.104  1.00  0.00     0.059 A 
ATOM     96  F   UNL A   1      49.765  25.717  28.598  1.00  0.00    -0.206 F 
ATOM     97  C   UNL A   1      52.076  25.654  25.820  1.00  0.00     0.060 A 
BRANCH  97  98
ATOM     98  S   UNL A   1      53.771  25.153  25.450  1.00  0.00     0.124 S 
ATOM     99  O   UNL A   1      54.512  25.818  26.518  1.00  0.00    -0.237 OA
ATOM    100  O   UNL A   1      53.695  23.699  25.541  1.00  0.00    -0.237 OA
ATOM    101  O   UNL A   1      53.995  25.680  24.108  1.00  0.00    -0.744 OA
ENDBRANCH  97  98
ENDBRANCH  65  90
ENDBRANCH  39  40
ENDBRANCH  31  34
ENDBRANCH  29  30
ENDBRANCH  28  29
ENDBRANCH   1  28
TORSDOF 18
ENDMDL
MODEL 2
REMARK VINA RESULT:     -12.5      6.785     12.397
REMARK SMILES NS(=O)(=O)c1ccc(/N=C/c2ccc(O)c(C(=O)NCCCNC(=O)c3ccc(-c4c5nc(c(-c6c(F)cc(S(=O)(=O)[O-])cc6F)c6ccc([nH]6)c(-c6c(F)cc(S(=O)(=O)[O-])cc6F)c6nc(c(-c7c(F)cc(S(=O)(=O)[O-])cc7F)c7ccc4[nH]7)C=C6)C=C5)cc3)c2)cc1
REMARK SMILES IDX 20 1 19 2 17 3 18 4 16 6 11 7 12 8 92 9 13 10 14 11 10 12
REMARK SMILES IDX 9 13 8 14 5 15 6 16 94 17 7 18 93 19 2 20 3 21 4 22 1 23
REMARK SMILES IDX 15 26 21 28 22 29 23 30 24 31 25 33 26 34 27 35 91 36 28 37
REMARK SMILES IDX 90 38 29 39 30 40 31 41 84 42 32 43 89 44 83 45 85 46 33 47
REMARK SMILES IDX 88 48 82 49 81 50 34 52 68 53 47 54 67 55 48 56 51 57 66 58
REMARK SMILES IDX 86 59 49 60 50 61 65 63 87 64 52 65 35 66 36 67 45 68 37 69
REMARK SMILES IDX 38 70 44 71 46 72 39 73 40 74 41 75 42 76 43 77 69 78 70 79
REMARK SMILES IDX 79 80 71 81 72 82 78 83 80 84 73 85 74 86 75 87 76 88 77 89
REMARK SMILES IDX 53 90 54 91 63 92 55 93 56 94 62 95 64 96 57 97 58 98 59 99
REMARK SMILES IDX 60 100 61 101
REMARK H PARENT 19 5 1 24 1 25 15 27 23 32 85 51 51 62
REMARK Flexibility Score: inf
ROOT
ATOM      1  C   UNL A   1      36.841  23.195  26.101  1.00  0.00     0.118 C 
ENDROOT
BRANCH   1   2
ATOM      2  N   UNL A   1      37.062  21.808  25.696  1.00  0.00    -0.352 N 
ATOM      3  C   UNL A   1      36.259  20.854  25.114  1.00  0.00     0.255 C 
ATOM      4  O   UNL A   1      36.725  19.724  24.947  1.00  0.00    -0.269 OA
ATOM      5  H   UNL A   1      37.975  21.489  25.879  1.00  0.00     0.163 HD
BRANCH   3   6
ATOM      6  C   UNL A   1      34.839  21.076  24.737  1.00  0.00     0.082 A 
ATOM      7  C   UNL A   1      33.014  22.549  24.131  1.00  0.00    -0.006 A 
ATOM      8  C   UNL A   1      32.083  21.533  24.335  1.00  0.00     0.013 A 
ATOM      9  C   UNL A   1      34.384  22.288  24.231  1.00  0.00     0.027 A 
ATOM     10  C   UNL A   1      32.539  20.261  24.683  1.00  0.00     0.047 A 
ATOM     11  C   UNL A   1      33.903  20.041  24.902  1.00  0.00     0.128 A 
BRANCH   7  12
ATOM     12  C   UNL A   1      32.575  23.952  23.963  1.00  0.00     0.119 C 
ATOM     13  N   UNL A   1      31.314  24.206  23.822  1.00  0.00    -0.256 NA
BRANCH  13  14
ATOM     14  C   UNL A   1      30.859  25.498  23.539  1.00  0.00     0.063 A 
ATOM     15  C   UNL A   1      29.728  27.982  22.891  1.00  0.00     0.082 A 
ATOM     16  C   UNL A   1      29.020  27.084  23.692  1.00  0.00     0.024 A 
ATOM     17  C   UNL A   1      30.988  27.644  22.394  1.00  0.00     0.024 A 
ATOM     18  C   UNL A   1      29.589  25.848  24.007  1.00  0.00     0.030 A 
ATOM     19  C   UNL A   1      31.544  26.398  22.713  1.00  0.00     0.030 A 
BRANCH  15  20
ATOM     20  S   UNL A   1      28.965  29.534  22.523  1.00  0.00     0.238 S 
ATOM     21  O   UNL A   1      27.583  29.456  22.950  1.00  0.00    -0.207 OA
ATOM     22  O   UNL A   1      29.347  29.925  21.191  1.00  0.00    -0.207 OA
BRANCH  20  23
ATOM     23  N   UNL A   1      29.692  30.633  23.563  1.00  0.00    -0.225 NA
ATOM     24  H   UNL A   1      30.497  31.055  23.103  1.00  0.00     0.137 HD
ATOM     25  H   UNL A   1      29.999  30.151  24.409  1.00  0.00     0.137 HD
ENDBRANCH  20  23
ENDBRANCH  15  20
ENDBRANCH  13  14
ENDBRANCH   7  12
BRANCH  11  26
ATOM     26  O   UNL A   1      34.251  18.772  25.286  1.00  0.00    -0.507 OA
ATOM     27  H   UNL A   1      34.629  18.624  26.130  1.00  0.00     0.293 HD
ENDBRANCH  11  26
ENDBRANCH   3   6
ENDBRANCH   1   2
BRANCH   1  28
ATOM     28  C   UNL A   1      38.097  24.052  26.109  1.00  0.00     0.042 C 
BRANCH  28  29
ATOM     29  C   UNL A   1      39.267  23.475  26.888  1.00  0.00     0.118 C 
BRANCH  29  30
ATOM     30  N   UNL A   1      40.558  23.745  26.268  1.00  0.00    -0.352 N 
ATOM     31  C   UNL A   1      41.422  24.807  26.389  1.00  0.00     0.251 C 
ATOM     32  H   UNL A   1      40.866  23.040  25.653  1.00  0.00     0.163 HD
ATOM     33  O   UNL A   1      42.372  24.889  25.613  1.00  0.00    -0.269 OA
BRANCH  31  34
ATOM     34  C   UNL A   1      41.220  25.858  27.414  1.00  0.00     0.039 A 
ATOM     35  C   UNL A   1      40.228  25.678  28.384  1.00  0.00     0.014 A 
ATOM     36  C   UNL A   1      41.965  27.038  27.407  1.00  0.00     0.014 A 
ATOM     37  C   UNL A   1      40.038  26.641  29.380  1.00  0.00     0.010 A 
ATOM     38  C   UNL A   1      41.847  27.945  28.456  1.00  0.00     0.010 A 
ATOM     39  C   UNL A   1      40.876  27.765  29.450  1.00  0.00    -0.014 A 
BRANCH  39  40
ATOM     40  C   UNL A   1      40.754  28.768  30.540  1.00  0.00     0.031 A 
ATOM     41  C   UNL A   1      41.608  28.652  31.775  1.00  0.00     0.074 A 
ATOM     42  C   UNL A   1      39.806  29.723  30.465  1.00  0.00     0.049 A 
ATOM     43  N   UNL A   1      41.570  29.356  32.878  1.00  0.00    -0.248 NA
ATOM     44  C   UNL A   1      42.611  27.576  31.787  1.00  0.00     0.031 C 
ATOM     45  C   UNL A   1      38.868  29.899  29.355  1.00  0.00     0.029 A 
ATOM     46  N   UNL A   1      39.458  30.713  31.352  1.00  0.00    -0.354 N 
ATOM     47  C   UNL A   1      42.513  28.785  33.725  1.00  0.00     0.074 A 
ATOM     48  C   UNL A   1      43.072  27.647  33.027  1.00  0.00     0.031 C 
ATOM     49  C   UNL A   1      38.061  30.939  29.620  1.00  0.00     0.029 A 
ATOM     50  C   UNL A   1      38.399  31.481  30.933  1.00  0.00     0.049 A 
ATOM     51  H   UNL A   1      39.924  30.858  32.207  1.00  0.00     0.167 HD
ATOM     52  C   UNL A   1      42.895  29.183  34.963  1.00  0.00     0.037 A 
ATOM     53  C   UNL A   1      37.759  32.501  31.539  1.00  0.00     0.037 A 
ATOM     54  C   UNL A   1      42.363  30.341  35.633  1.00  0.00     0.049 A 
ATOM     55  C   UNL A   1      38.230  32.962  32.889  1.00  0.00     0.074 A 
ATOM     56  C   UNL A   1      42.748  30.887  36.845  1.00  0.00     0.029 A 
ATOM     57  N   UNL A   1      41.331  31.132  35.148  1.00  0.00    -0.354 N 
ATOM     58  N   UNL A   1      39.181  32.462  33.643  1.00  0.00    -0.248 NA
ATOM     59  C   UNL A   1      37.553  34.129  33.468  1.00  0.00     0.031 C 
ATOM     60  C   UNL A   1      41.919  31.983  37.113  1.00  0.00     0.029 A 
ATOM     61  C   UNL A   1      41.050  32.148  36.047  1.00  0.00     0.049 A 
ATOM     62  H   UNL A   1      40.867  30.991  34.291  1.00  0.00     0.167 HD
ATOM     63  C   UNL A   1      39.229  33.263  34.778  1.00  0.00     0.074 A 
ATOM     64  C   UNL A   1      38.219  34.289  34.605  1.00  0.00     0.031 C 
ATOM     65  C   UNL A   1      40.037  33.159  35.862  1.00  0.00     0.037 A 
BRANCH  52  66
ATOM     66  C   UNL A   1      43.932  28.350  35.668  1.00  0.00     0.058 A 
ATOM     67  C   UNL A   1      43.579  27.286  36.516  1.00  0.00     0.135 A 
ATOM     68  C   UNL A   1      45.299  28.625  35.503  1.00  0.00     0.135 A 
ATOM     69  F   UNL A   1      42.287  26.985  36.720  1.00  0.00    -0.206 F 
ATOM     70  C   UNL A   1      44.539  26.562  37.216  1.00  0.00     0.059 A 
ATOM     71  C   UNL A   1      46.279  27.892  36.169  1.00  0.00     0.059 A 
ATOM     72  F   UNL A   1      45.696  29.625  34.701  1.00  0.00    -0.206 F 
ATOM     73  C   UNL A   1      45.887  26.879  37.042  1.00  0.00     0.060 A 
BRANCH  73  74
ATOM     74  S   UNL A   1      47.121  25.958  37.986  1.00  0.00     0.124 S 
ATOM     75  O   UNL A   1      46.287  24.980  38.677  1.00  0.00    -0.237 OA
ATOM     76  O   UNL A   1      47.984  25.425  36.936  1.00  0.00    -0.237 OA
ATOM     77  O   UNL A   1      47.728  26.978  38.835  1.00  0.00    -0.744 OA
ENDBRANCH  73  74
ENDBRANCH  52  66
BRANCH  53  78
ATOM     78  C   UNL A   1      36.625  33.164  30.844  1.00  0.00     0.058 A 
ATOM     79  C   UNL A   1      35.301  32.939  31.248  1.00  0.00     0.135 A 
ATOM     80  C   UNL A   1      36.846  34.094  29.816  1.00  0.00     0.135 A 
ATOM     81  F   UNL A   1      35.039  32.054  32.221  1.00  0.00    -0.206 F 
ATOM     82  C   UNL A   1      34.235  33.617  30.663  1.00  0.00     0.059 A 
ATOM     83  C   UNL A   1      35.799  34.799  29.230  1.00  0.00     0.059 A 
ATOM     84  F   UNL A   1      38.097  34.357  29.406  1.00  0.00    -0.206 F 
ATOM     85  C   UNL A   1      34.497  34.554  29.662  1.00  0.00     0.060 A 
BRANCH  85  86
ATOM     86  S   UNL A   1      33.118  35.504  28.980  1.00  0.00     0.124 S 
ATOM     87  O   UNL A   1      32.432  34.495  28.181  1.00  0.00    -0.237 OA
ATOM     88  O   UNL A   1      32.421  35.946  30.185  1.00  0.00    -0.237 OA
ATOM     89  O   UNL A   1      33.780  36.565  28.227  1.00  0.00    -0.744 OA
ENDBRANCH  85  86
ENDBRANCH  53  78
BRANCH  65  90
ATOM     90  C   UNL A   1      39.879  34.191  36.944  1.00  0.00     0.058 A 
ATOM     91  C   UNL A   1      40.516  35.439  36.869  1.00  0.00     0.135 A 
ATOM     92  C   UNL A   1      39.035  33.950  38.040  1.00  0.00     0.135 A 
ATOM     93  F   UNL A   1      41.339  35.717  35.846  1.00  0.00    -0.206 F 
ATOM     94  C   UNL A   1      40.336  36.406  37.853  1.00  0.00     0.059 A 
ATOM     95  C   UNL A   1      38.821  34.911  39.022  1.00  0.00     0.059 A 
ATOM     96  F   UNL A   1      38.394  32.775  38.153  1.00  0.00    -0.206 F 
ATOM     97  C   UNL A   1      39.484  36.133  38.925  1.00  0.00     0.060 A 
BRANCH  97  98
ATOM     98  S   UNL A   1      39.229  37.410  40.176  1.00  0.00     0.124 S 
ATOM     99  O   UNL A   1      38.303  38.307  39.494  1.00  0.00    -0.237 OA
ATOM    100  O   UNL A   1      38.670  36.650  41.291  1.00  0.00    -0.237 OA
ATOM    101  O   UNL A   1      40.570  37.940  40.398  1.00  0.00    -0.744 OA
ENDBRANCH  97  98
ENDBRANCH  65  90
ENDBRANCH  39  40
ENDBRANCH  31  34
ENDBRANCH  29  30
ENDBRANCH  28  29
ENDBRANCH   1  28
TORSDOF 18
ENDMDL
MODEL 3
REMARK VINA RESULT:     -12.2      6.932     11.983
REMARK SMILES NS(=O)(=O)c1ccc(/N=C/c2ccc(O)c(C(=O)NCCCNC(=O)c3ccc(-c4c5nc(c(-c6c(F)cc(S(=O)(=O)[O-])cc6F)c6ccc([nH]6)c(-c6c(F)cc(S(=O)(=O)[O-])cc6F)c6nc(c(-c7c(F)cc(S(=O)(=O)[O-])cc7F)c7ccc4[nH]7)C=C6)C=C5)cc3)c2)cc1
REMARK SMILES IDX 20 1 19 2 17 3 18 4 16 6 11 7 12 8 92 9 13 10 14 11 10 12
REMARK SMILES IDX 9 13 8 14 5 15 6 16 94 17 7 18 93 19 2 20 3 21 4 22 1 23
REMARK SMILES IDX 15 26 21 28 22 29 23 30 24 31 25 33 26 34 27 35 91 36 28 37
REMARK SMILES IDX 90 38 29 39 30 40 31 41 84 42 32 43 89 44 83 45 85 46 33 47
REMARK SMILES IDX 88 48 82 49 81 50 34 52 68 53 47 54 67 55 48 56 51 57 66 58
REMARK SMILES IDX 86 59 49 60 50 61 65 63 87 64 52 65 35 66 36 67 45 68 37 69
REMARK SMILES IDX 38 70 44 71 46 72 39 73 40 74 41 75 42 76 43 77 69 78 70 79
REMARK SMILES IDX 79 80 71 81 72 82 78 83 80 84 73 85 74 86 75 87 76 88 77 89
REMARK SMILES IDX 53 90 54 91 63 92 55 93 56 94 62 95 64 96 57 97 58 98 59 99
REMARK SMILES IDX 60 100 61 101
REMARK H PARENT 19 5 1 24 1 25 15 27 23 32 85 51 51 62
REMARK Flexibility Score: inf
ROOT
ATOM      1  C   UNL A   1      37.698  23.163  25.728  1.00  0.00     0.118 C 
ENDROOT
BRANCH   1   2
ATOM      2  N   UNL A   1      36.501  23.184  26.566  1.00  0.00    -0.352 N 
ATOM      3  C   UNL A   1      35.160  23.338  26.297  1.00  0.00     0.255 C 
ATOM      4  O   UNL A   1      34.375  23.374  27.247  1.00  0.00    -0.269 OA
ATOM      5  H   UNL A   1      36.694  23.064  27.524  1.00  0.00     0.163 HD
BRANCH   3   6
ATOM      6  C   UNL A   1      34.601  23.535  24.934  1.00  0.00     0.082 A 
ATOM      7  C   UNL A   1      33.382  24.865  23.317  1.00  0.00    -0.006 A 
ATOM      8  C   UNL A   1      33.268  23.774  22.458  1.00  0.00     0.013 A 
ATOM      9  C   UNL A   1      34.133  24.767  24.493  1.00  0.00     0.027 A 
ATOM     10  C   UNL A   1      33.877  22.570  22.812  1.00  0.00     0.047 A 
ATOM     11  C   UNL A   1      34.519  22.446  24.049  1.00  0.00     0.128 A 
BRANCH   7  12
ATOM     12  C   UNL A   1      32.589  26.093  23.087  1.00  0.00     0.119 C 
ATOM     13  N   UNL A   1      31.332  26.097  23.390  1.00  0.00    -0.256 NA
BRANCH  13  14
ATOM     14  C   UNL A   1      30.512  27.188  23.081  1.00  0.00     0.063 A 
ATOM     15  C   UNL A   1      29.045  29.524  22.575  1.00  0.00     0.082 A 
ATOM     16  C   UNL A   1      30.395  29.462  22.224  1.00  0.00     0.024 A 
ATOM     17  C   UNL A   1      28.425  28.437  23.194  1.00  0.00     0.024 A 
ATOM     18  C   UNL A   1      31.119  28.297  22.482  1.00  0.00     0.030 A 
ATOM     19  C   UNL A   1      29.165  27.277  23.453  1.00  0.00     0.030 A 
BRANCH  15  20
ATOM     20  S   UNL A   1      28.171  31.022  22.224  1.00  0.00     0.238 S 
ATOM     21  O   UNL A   1      27.334  31.320  23.366  1.00  0.00    -0.207 OA
ATOM     22  O   UNL A   1      27.657  30.946  20.881  1.00  0.00    -0.207 OA
BRANCH  20  23
ATOM     23  N   UNL A   1      29.349  32.218  22.209  1.00  0.00    -0.225 NA
ATOM     24  H   UNL A   1      28.967  33.067  21.794  1.00  0.00     0.137 HD
ATOM     25  H   UNL A   1      30.149  31.901  21.660  1.00  0.00     0.137 HD
ENDBRANCH  20  23
ENDBRANCH  15  20
ENDBRANCH  13  14
ENDBRANCH   7  12
BRANCH  11  26
ATOM     26  O   UNL A   1      35.048  21.213  24.329  1.00  0.00    -0.507 OA
ATOM     27  H   UNL A   1      34.753  20.736  25.079  1.00  0.00     0.293 HD
ENDBRANCH  11  26
ENDBRANCH   3   6
ENDBRANCH   1   2
BRANCH   1  28
ATOM     28  C   UNL A   1      38.895  22.474  26.363  1.00  0.00     0.042 C 
BRANCH  28  29
ATOM     29  C   UNL A   1      39.894  23.402  27.033  1.00  0.00     0.118 C 
BRANCH  29  30
ATOM     30  N   UNL A   1      40.694  24.165  26.084  1.00  0.00    -0.352 N 
ATOM     31  C   UNL A   1      41.076  25.485  26.069  1.00  0.00     0.251 C 
ATOM     32  H   UNL A   1      41.018  23.640  25.316  1.00  0.00     0.163 HD
ATOM     33  O   UNL A   1      41.602  25.938  25.054  1.00  0.00    -0.269 OA
BRANCH  31  34
ATOM     34  C   UNL A   1      40.851  26.371  27.235  1.00  0.00     0.039 A 
ATOM     35  C   UNL A   1      39.904  26.000  28.196  1.00  0.00     0.014 A 
ATOM     36  C   UNL A   1      41.527  27.584  27.372  1.00  0.00     0.014 A 
ATOM     37  C   UNL A   1      39.695  26.804  29.321  1.00  0.00     0.010 A 
ATOM     38  C   UNL A   1      41.394  28.331  28.539  1.00  0.00     0.010 A 
ATOM     39  C   UNL A   1      40.469  27.957  29.524  1.00  0.00    -0.014 A 
BRANCH  39  40
ATOM     40  C   UNL A   1      40.328  28.792  30.745  1.00  0.00     0.031 A 
ATOM     41  C   UNL A   1      39.284  29.876  30.805  1.00  0.00     0.074 A 
ATOM     42  C   UNL A   1      41.204  28.646  31.759  1.00  0.00     0.049 A 
ATOM     43  N   UNL A   1      39.080  30.781  31.728  1.00  0.00    -0.248 NA
ATOM     44  C   UNL A   1      38.374  29.982  29.654  1.00  0.00     0.031 C 
ATOM     45  C   UNL A   1      42.304  27.681  31.794  1.00  0.00     0.029 A 
ATOM     46  N   UNL A   1      41.321  29.323  32.948  1.00  0.00    -0.354 N 
ATOM     47  C   UNL A   1      38.048  31.583  31.254  1.00  0.00     0.074 A 
ATOM     48  C   UNL A   1      37.702  31.087  29.939  1.00  0.00     0.031 C 
ATOM     49  C   UNL A   1      42.976  27.819  32.947  1.00  0.00     0.029 A 
ATOM     50  C   UNL A   1      42.379  28.906  33.719  1.00  0.00     0.049 A 
ATOM     51  H   UNL A   1      40.705  30.041  33.222  1.00  0.00     0.167 HD
ATOM     52  C   UNL A   1      37.431  32.623  31.864  1.00  0.00     0.037 A 
ATOM     53  C   UNL A   1      42.829  29.351  34.908  1.00  0.00     0.037 A 
ATOM     54  C   UNL A   1      37.754  33.082  33.190  1.00  0.00     0.049 A 
ATOM     55  C   UNL A   1      42.100  30.472  35.595  1.00  0.00     0.074 A 
ATOM     56  C   UNL A   1      37.128  34.063  33.938  1.00  0.00     0.029 A 
ATOM     57  N   UNL A   1      38.795  32.591  33.966  1.00  0.00    -0.354 N 
ATOM     58  N   UNL A   1      41.072  31.166  35.167  1.00  0.00    -0.248 NA
ATOM     59  C   UNL A   1      42.581  30.862  36.925  1.00  0.00     0.031 C 
ATOM     60  C   UNL A   1      37.817  34.195  35.150  1.00  0.00     0.029 A 
ATOM     61  C   UNL A   1      38.844  33.265  35.176  1.00  0.00     0.049 A 
ATOM     62  H   UNL A   1      39.409  31.871  33.696  1.00  0.00     0.167 HD
ATOM     63  C   UNL A   1      40.771  32.066  36.184  1.00  0.00     0.074 A 
ATOM     64  C   UNL A   1      41.720  31.818  37.252  1.00  0.00     0.031 C 
ATOM     65  C   UNL A   1      39.798  33.009  36.228  1.00  0.00     0.037 A 
BRANCH  52  66
ATOM     66  C   UNL A   1      36.350  33.335  31.095  1.00  0.00     0.058 A 
ATOM     67  C   UNL A   1      36.643  34.164  29.998  1.00  0.00     0.135 A 
ATOM     68  C   UNL A   1      35.003  33.194  31.464  1.00  0.00     0.135 A 
ATOM     69  F   UNL A   1      37.914  34.343  29.607  1.00  0.00    -0.206 F 
ATOM     70  C   UNL A   1      35.646  34.869  29.332  1.00  0.00     0.059 A 
ATOM     71  C   UNL A   1      33.985  33.866  30.791  1.00  0.00     0.059 A 
ATOM     72  F   UNL A   1      34.663  32.410  32.500  1.00  0.00    -0.206 F 
ATOM     73  C   UNL A   1      34.320  34.721  29.742  1.00  0.00     0.060 A 
BRANCH  73  74
ATOM     74  S   UNL A   1      33.040  35.673  28.895  1.00  0.00     0.124 S 
ATOM     75  O   UNL A   1      32.444  34.655  28.035  1.00  0.00    -0.237 OA
ATOM     76  O   UNL A   1      32.207  36.132  30.002  1.00  0.00    -0.237 OA
ATOM     77  O   UNL A   1      33.793  36.715  28.207  1.00  0.00    -0.744 OA
ENDBRANCH  73  74
ENDBRANCH  52  66
BRANCH  53  78
ATOM     78  C   UNL A   1      44.016  28.704  35.526  1.00  0.00     0.058 A 
ATOM     79  C   UNL A   1      43.872  27.622  36.406  1.00  0.00     0.135 A 
ATOM     80  C   UNL A   1      45.320  29.103  35.188  1.00  0.00     0.135 A 
ATOM     81  F   UNL A   1      42.646  27.209  36.764  1.00  0.00    -0.206 F 
ATOM     82  C   UNL A   1      44.975  26.952  36.926  1.00  0.00     0.059 A 
ATOM     83  C   UNL A   1      46.438  28.436  35.678  1.00  0.00     0.059 A 
ATOM     84  F   UNL A   1      45.511  30.121  34.336  1.00  0.00    -0.206 F 
ATOM     85  C   UNL A   1      46.255  27.360  36.546  1.00  0.00     0.060 A 
BRANCH  85  86
ATOM     86  S   UNL A   1      47.679  26.421  37.144  1.00  0.00     0.124 S 
ATOM     87  O   UNL A   1      47.894  27.016  38.457  1.00  0.00    -0.237 OA
ATOM     88  O   UNL A   1      47.171  25.052  37.138  1.00  0.00    -0.237 OA
ATOM     89  O   UNL A   1      48.709  26.699  36.147  1.00  0.00    -0.744 OA
ENDBRANCH  85  86
ENDBRANCH  53  78
BRANCH  65  90
ATOM     90  C   UNL A   1      39.692  33.836  37.479  1.00  0.00     0.058 A 
ATOM     91  C   UNL A   1      40.378  35.052  37.618  1.00  0.00     0.135 A 
ATOM     92  C   UNL A   1      38.848  33.435  38.527  1.00  0.00     0.135 A 
ATOM     93  F   UNL A   1      41.203  35.477  36.648  1.00  0.00    -0.206 F 
ATOM     94  C   UNL A   1      40.246  35.833  38.762  1.00  0.00     0.059 A 
ATOM     95  C   UNL A   1      38.682  34.212  39.669  1.00  0.00     0.059 A 
ATOM     96  F   UNL A   1      38.161  32.284  38.439  1.00  0.00    -0.206 F 
ATOM     97  C   UNL A   1      39.394  35.405  39.781  1.00  0.00     0.060 A 
BRANCH  97  98
ATOM     98  S   UNL A   1      39.201  36.446  41.244  1.00  0.00     0.124 S 
ATOM     99  O   UNL A   1      40.526  36.350  41.848  1.00  0.00    -0.237 OA
ATOM    100  O   UNL A   1      38.861  37.742  40.665  1.00  0.00    -0.237 OA
ATOM    101  O   UNL A   1      38.124  35.795  41.984  1.00  0.00    -0.744 OA
ENDBRANCH  97  98
ENDBRANCH  65  90
ENDBRANCH  39  40
ENDBRANCH  31  34
ENDBRANCH  29  30
ENDBRANCH  28  29
ENDBRANCH   1  28
TORSDOF 18
ENDMDL
