MODEL 1
REMARK VINA RESULT:     -12.0      0.000      0.000
REMARK SMILES CC[C@](C)(NC(=O)NC[C@H]1COCCO1)C(=O)NCCCNC(=O)c1ccc(-c2c3nc(c(-c4c(F)cc(S(=O)(=O)[O-])cc4F)c4ccc([nH]4)c(-c4c(F)cc(S(=O)(=O)[O-])cc4F)c4nc(c(-c5c(F)cc(S(=O)(=O)[O-])cc5F)c5ccc2[nH]5)C=C4)C=C3)cc1
REMARK SMILES IDX 20 1 19 2 18 3 16 4 17 5 3 7 4 8 2 9 1 10 5 11 6 12 7 14
REMARK SMILES IDX 8 15 9 17 10 18 11 19 15 20 12 21 14 22 13 23 21 24 22 25
REMARK SMILES IDX 23 26 24 28 25 29 26 30 90 31 27 32 89 33 28 34 29 35 30 36
REMARK SMILES IDX 83 37 31 38 88 39 82 40 84 41 32 42 87 43 81 44 80 45 33 47
REMARK SMILES IDX 67 48 46 49 66 50 47 51 50 52 65 53 85 54 48 55 49 56 64 58
REMARK SMILES IDX 86 59 51 60 34 61 35 62 44 63 36 64 37 65 43 66 45 67 38 68
REMARK SMILES IDX 39 69 40 70 41 71 42 72 68 73 69 74 78 75 70 76 71 77 77 78
REMARK SMILES IDX 79 79 72 80 73 81 74 82 75 83 76 84 52 85 53 86 62 87 54 88
REMARK SMILES IDX 55 89 61 90 63 91 56 92 57 93 58 94 59 95 60 96
REMARK H PARENT 18 6 5 13 8 16 22 27 84 46 50 57
REMARK Flexibility Score: inf
ROOT
ATOM      1  C   UNL A   1      40.868  21.864  26.467  1.00  0.00     0.042 C 
ENDROOT
BRANCH   1   2
ATOM      2  C   UNL A   1      39.349  21.771  26.279  1.00  0.00     0.117 C 
BRANCH   2   3
ATOM      3  N   UNL A   1      38.618  22.964  25.878  1.00  0.00    -0.354 N 
ATOM      4  C   UNL A   1      37.287  23.244  25.638  1.00  0.00     0.245 C 
ATOM      5  O   UNL A   1      36.854  24.393  25.763  1.00  0.00    -0.272 OA
ATOM      6  H   UNL A   1      39.203  23.745  25.749  1.00  0.00     0.163 HD
BRANCH   4   7
ATOM      7  C   UNL A   1      36.314  22.113  25.345  1.00  0.00     0.117 C 
ATOM      8  C   UNL A   1      36.937  20.744  25.034  1.00  0.00     0.045 C 
BRANCH   7   9
ATOM      9  C   UNL A   1      35.660  22.683  24.044  1.00  0.00     0.035 C 
ATOM     10  C   UNL A   1      36.488  22.883  22.798  1.00  0.00     0.007 C 
ENDBRANCH   7   9
BRANCH   7  11
ATOM     11  N   UNL A   1      35.507  21.975  26.556  1.00  0.00    -0.324 N 
ATOM     12  C   UNL A   1      34.342  21.333  26.795  1.00  0.00     0.315 C 
ATOM     13  H   UNL A   1      35.880  22.434  27.343  1.00  0.00     0.166 HD
ATOM     14  O   UNL A   1      33.811  21.557  27.889  1.00  0.00    -0.249 OA
ATOM     15  N   UNL A   1      33.752  20.391  26.030  1.00  0.00    -0.335 N 
ATOM     16  H   UNL A   1      33.187  19.817  26.595  1.00  0.00     0.165 HD
BRANCH  15  17
ATOM     17  C   UNL A   1      33.672  19.929  24.609  1.00  0.00     0.152 C 
BRANCH  17  18
ATOM     18  C   UNL A   1      32.696  18.724  24.246  1.00  0.00     0.163 C 
ATOM     19  C   UNL A   1      33.333  17.789  23.212  1.00  0.00     0.194 C 
ATOM     20  O   UNL A   1      32.156  17.942  25.333  1.00  0.00    -0.372 OA
ATOM     21  O   UNL A   1      34.398  17.064  23.819  1.00  0.00    -0.376 OA
ATOM     22  C   UNL A   1      32.761  16.672  25.646  1.00  0.00     0.189 C 
ATOM     23  C   UNL A   1      33.868  16.124  24.749  1.00  0.00     0.188 C 
ENDBRANCH  17  18
ENDBRANCH  15  17
ENDBRANCH   7  11
ENDBRANCH   4   7
ENDBRANCH   2   3
ENDBRANCH   1   2
BRANCH   1  24
ATOM     24  C   UNL A   1      41.520  23.169  26.911  1.00  0.00     0.118 C 
BRANCH  24  25
ATOM     25  N   UNL A   1      41.895  24.066  25.837  1.00  0.00    -0.352 N 
ATOM     26  C   UNL A   1      41.958  25.439  25.807  1.00  0.00     0.251 C 
ATOM     27  H   UNL A   1      42.145  23.622  24.994  1.00  0.00     0.163 HD
ATOM     28  O   UNL A   1      42.252  26.004  24.756  1.00  0.00    -0.269 OA
BRANCH  26  29
ATOM     29  C   UNL A   1      41.664  26.253  27.014  1.00  0.00     0.039 A 
ATOM     30  C   UNL A   1      42.485  27.351  27.291  1.00  0.00     0.014 A 
ATOM     31  C   UNL A   1      40.645  25.915  27.910  1.00  0.00     0.014 A 
ATOM     32  C   UNL A   1      42.258  28.131  28.432  1.00  0.00     0.010 A 
ATOM     33  C   UNL A   1      40.385  26.728  29.022  1.00  0.00     0.010 A 
ATOM     34  C   UNL A   1      41.191  27.843  29.301  1.00  0.00    -0.014 A 
BRANCH  34  35
ATOM     35  C   UNL A   1      40.932  28.706  30.491  1.00  0.00     0.031 A 
ATOM     36  C   UNL A   1      41.761  28.571  31.745  1.00  0.00     0.074 A 
ATOM     37  C   UNL A   1      39.936  29.615  30.455  1.00  0.00     0.049 A 
ATOM     38  N   UNL A   1      41.697  29.260  32.857  1.00  0.00    -0.248 NA
ATOM     39  C   UNL A   1      42.780  27.512  31.758  1.00  0.00     0.031 C 
ATOM     40  C   UNL A   1      39.022  29.821  29.330  1.00  0.00     0.029 A 
ATOM     41  N   UNL A   1      39.524  30.539  31.386  1.00  0.00    -0.354 N 
ATOM     42  C   UNL A   1      42.663  28.720  33.700  1.00  0.00     0.074 A 
ATOM     43  C   UNL A   1      43.259  27.608  32.990  1.00  0.00     0.031 C 
ATOM     44  C   UNL A   1      38.179  30.824  29.623  1.00  0.00     0.029 A 
ATOM     45  C   UNL A   1      38.470  31.318  30.967  1.00  0.00     0.049 A 
ATOM     46  H   UNL A   1      39.945  30.635  32.271  1.00  0.00     0.167 HD
ATOM     47  C   UNL A   1      43.038  29.124  34.940  1.00  0.00     0.037 A 
ATOM     48  C   UNL A   1      37.812  32.318  31.586  1.00  0.00     0.037 A 
ATOM     49  C   UNL A   1      42.452  30.238  35.645  1.00  0.00     0.049 A 
ATOM     50  C   UNL A   1      38.252  32.756  32.958  1.00  0.00     0.074 A 
ATOM     51  C   UNL A   1      42.797  30.749  36.886  1.00  0.00     0.029 A 
ATOM     52  N   UNL A   1      41.400  31.012  35.177  1.00  0.00    -0.354 N 
ATOM     53  N   UNL A   1      39.213  32.275  33.711  1.00  0.00    -0.248 NA
ATOM     54  C   UNL A   1      37.529  33.887  33.559  1.00  0.00     0.031 C 
ATOM     55  C   UNL A   1      41.924  31.800  37.188  1.00  0.00     0.029 A 
ATOM     56  C   UNL A   1      41.074  31.985  36.109  1.00  0.00     0.049 A 
ATOM     57  H   UNL A   1      40.951  30.888  34.310  1.00  0.00     0.167 HD
ATOM     58  C   UNL A   1      39.236  33.069  34.853  1.00  0.00     0.074 A 
ATOM     59  C   UNL A   1      38.199  34.067  34.688  1.00  0.00     0.031 C 
ATOM     60  C   UNL A   1      40.047  32.983  35.937  1.00  0.00     0.037 A 
BRANCH  47  61
ATOM     61  C   UNL A   1      44.142  28.356  35.621  1.00  0.00     0.058 A 
ATOM     62  C   UNL A   1      43.872  27.274  36.474  1.00  0.00     0.135 A 
ATOM     63  C   UNL A   1      45.490  28.677  35.385  1.00  0.00     0.135 A 
ATOM     64  F   UNL A   1      42.603  26.927  36.744  1.00  0.00    -0.206 F 
ATOM     65  C   UNL A   1      44.893  26.563  37.097  1.00  0.00     0.059 A 
ATOM     66  C   UNL A   1      46.528  27.960  35.972  1.00  0.00     0.059 A 
ATOM     67  F   UNL A   1      45.810  29.698  34.574  1.00  0.00    -0.206 F 
ATOM     68  C   UNL A   1      46.219  26.914  36.841  1.00  0.00     0.060 A 
BRANCH  68  69
ATOM     69  S   UNL A   1      47.529  25.981  37.660  1.00  0.00     0.124 S 
ATOM     70  O   UNL A   1      47.220  26.218  39.067  1.00  0.00    -0.237 OA
ATOM     71  O   UNL A   1      47.297  24.625  37.178  1.00  0.00    -0.237 OA
ATOM     72  O   UNL A   1      48.754  26.615  37.174  1.00  0.00    -0.744 OA
ENDBRANCH  68  69
ENDBRANCH  47  61
BRANCH  48  73
ATOM     73  C   UNL A   1      36.685  33.007  30.898  1.00  0.00     0.058 A 
ATOM     74  C   UNL A   1      36.918  33.892  29.833  1.00  0.00     0.135 A 
ATOM     75  C   UNL A   1      35.355  32.796  31.291  1.00  0.00     0.135 A 
ATOM     76  F   UNL A   1      38.173  34.135  29.425  1.00  0.00    -0.206 F 
ATOM     77  C   UNL A   1      35.875  34.560  29.197  1.00  0.00     0.059 A 
ATOM     78  C   UNL A   1      34.293  33.429  30.650  1.00  0.00     0.059 A 
ATOM     79  F   UNL A   1      35.076  31.948  32.293  1.00  0.00    -0.206 F 
ATOM     80  C   UNL A   1      34.565  34.319  29.612  1.00  0.00     0.060 A 
BRANCH  80  81
ATOM     81  S   UNL A   1      33.216  35.155  28.750  1.00  0.00     0.124 S 
ATOM     82  O   UNL A   1      32.427  35.666  29.864  1.00  0.00    -0.237 OA
ATOM     83  O   UNL A   1      33.930  36.153  27.960  1.00  0.00    -0.237 OA
ATOM     84  O   UNL A   1      32.596  34.083  27.977  1.00  0.00    -0.744 OA
ENDBRANCH  80  81
ENDBRANCH  48  73
BRANCH  60  85
ATOM     85  C   UNL A   1      39.890  34.033  37.008  1.00  0.00     0.058 A 
ATOM     86  C   UNL A   1      39.105  33.821  38.153  1.00  0.00     0.135 A 
ATOM     87  C   UNL A   1      40.549  35.267  36.890  1.00  0.00     0.135 A 
ATOM     88  F   UNL A   1      38.451  32.660  38.319  1.00  0.00    -0.206 F 
ATOM     89  C   UNL A   1      38.942  34.812  39.117  1.00  0.00     0.059 A 
ATOM     90  C   UNL A   1      40.427  36.260  37.856  1.00  0.00     0.059 A 
ATOM     91  F   UNL A   1      41.326  35.520  35.824  1.00  0.00    -0.206 F 
ATOM     92  C   UNL A   1      39.603  36.031  38.957  1.00  0.00     0.060 A 
BRANCH  92  93
ATOM     93  S   UNL A   1      39.378  37.312  40.210  1.00  0.00     0.124 S 
ATOM     94  O   UNL A   1      38.547  38.277  39.497  1.00  0.00    -0.237 OA
ATOM     95  O   UNL A   1      38.721  36.583  41.289  1.00  0.00    -0.237 OA
ATOM     96  O   UNL A   1      40.742  37.749  40.497  1.00  0.00    -0.744 OA
ENDBRANCH  92  93
ENDBRANCH  60  85
ENDBRANCH  34  35
ENDBRANCH  26  29
ENDBRANCH  24  25
ENDBRANCH   1  24
TORSDOF 17
ENDMDL
MODEL 2
REMARK VINA RESULT:     -10.9      3.366      9.212
REMARK SMILES CC[C@](C)(NC(=O)NC[C@H]1COCCO1)C(=O)NCCCNC(=O)c1ccc(-c2c3nc(c(-c4c(F)cc(S(=O)(=O)[O-])cc4F)c4ccc([nH]4)c(-c4c(F)cc(S(=O)(=O)[O-])cc4F)c4nc(c(-c5c(F)cc(S(=O)(=O)[O-])cc5F)c5ccc2[nH]5)C=C4)C=C3)cc1
REMARK SMILES IDX 20 1 19 2 18 3 16 4 17 5 3 7 4 8 2 9 1 10 5 11 6 12 7 14
REMARK SMILES IDX 8 15 9 17 10 18 11 19 15 20 12 21 14 22 13 23 21 24 22 25
REMARK SMILES IDX 23 26 24 28 25 29 26 30 90 31 27 32 89 33 28 34 29 35 30 36
REMARK SMILES IDX 83 37 31 38 88 39 82 40 84 41 32 42 87 43 81 44 80 45 33 47
REMARK SMILES IDX 67 48 46 49 66 50 47 51 50 52 65 53 85 54 48 55 49 56 64 58
REMARK SMILES IDX 86 59 51 60 34 61 35 62 44 63 36 64 37 65 43 66 45 67 38 68
REMARK SMILES IDX 39 69 40 70 41 71 42 72 68 73 69 74 78 75 70 76 71 77 77 78
REMARK SMILES IDX 79 79 72 80 73 81 74 82 75 83 76 84 52 85 53 86 62 87 54 88
REMARK SMILES IDX 55 89 61 90 63 91 56 92 57 93 58 94 59 95 60 96
REMARK H PARENT 18 6 5 13 8 16 22 27 84 46 50 57
REMARK Flexibility Score: inf
ROOT
ATOM      1  C   UNL A   1      33.394  28.212  24.659  1.00  0.00     0.042 C 
ENDROOT
BRANCH   1   2
ATOM      2  C   UNL A   1      33.183  26.709  24.441  1.00  0.00     0.117 C 
BRANCH   2   3
ATOM      3  N   UNL A   1      33.482  26.142  23.134  1.00  0.00    -0.354 N 
ATOM      4  C   UNL A   1      33.220  24.930  22.526  1.00  0.00     0.245 C 
ATOM      5  O   UNL A   1      33.157  24.844  21.296  1.00  0.00    -0.272 OA
ATOM      6  H   UNL A   1      33.983  26.761  22.554  1.00  0.00     0.163 HD
BRANCH   4   7
ATOM      7  C   UNL A   1      32.874  23.715  23.372  1.00  0.00     0.117 C 
ATOM      8  C   UNL A   1      31.832  23.933  24.480  1.00  0.00     0.045 C 
BRANCH   7   9
ATOM      9  C   UNL A   1      34.271  23.467  24.029  1.00  0.00     0.035 C 
ATOM     10  C   UNL A   1      35.447  23.039  23.185  1.00  0.00     0.007 C 
ENDBRANCH   7   9
BRANCH   7  11
ATOM     11  N   UNL A   1      32.334  22.732  22.434  1.00  0.00    -0.324 N 
ATOM     12  C   UNL A   1      32.243  21.386  22.493  1.00  0.00     0.315 C 
ATOM     13  H   UNL A   1      31.969  23.123  21.607  1.00  0.00     0.166 HD
ATOM     14  O   UNL A   1      31.899  20.817  21.450  1.00  0.00    -0.249 OA
ATOM     15  N   UNL A   1      32.372  20.601  23.583  1.00  0.00    -0.335 N 
ATOM     16  H   UNL A   1      31.869  19.766  23.447  1.00  0.00     0.165 HD
BRANCH  15  17
ATOM     17  C   UNL A   1      33.024  20.577  24.929  1.00  0.00     0.152 C 
BRANCH  17  18
ATOM     18  C   UNL A   1      33.654  19.213  25.456  1.00  0.00     0.163 C 
ATOM     19  C   UNL A   1      32.564  18.175  25.745  1.00  0.00     0.194 C 
ATOM     20  O   UNL A   1      34.700  18.604  24.667  1.00  0.00    -0.372 OA
ATOM     21  O   UNL A   1      31.999  17.724  24.517  1.00  0.00    -0.376 OA
ATOM     22  C   UNL A   1      34.365  17.507  23.793  1.00  0.00     0.189 C 
ATOM     23  C   UNL A   1      32.952  16.932  23.815  1.00  0.00     0.188 C 
ENDBRANCH  17  18
ENDBRANCH  15  17
ENDBRANCH   7  11
ENDBRANCH   4   7
ENDBRANCH   2   3
ENDBRANCH   1   2
BRANCH   1  24
ATOM     24  C   UNL A   1      34.112  28.726  25.903  1.00  0.00     0.118 C 
BRANCH  24  25
ATOM     25  N   UNL A   1      33.648  30.006  26.397  1.00  0.00    -0.352 N 
ATOM     26  C   UNL A   1      34.194  30.846  27.338  1.00  0.00     0.251 C 
ATOM     27  H   UNL A   1      32.808  30.325  25.995  1.00  0.00     0.163 HD
ATOM     28  O   UNL A   1      33.593  31.871  27.649  1.00  0.00    -0.269 OA
BRANCH  26  29
ATOM     29  C   UNL A   1      35.488  30.532  27.998  1.00  0.00     0.039 A 
ATOM     30  C   UNL A   1      35.503  29.554  28.998  1.00  0.00     0.014 A 
ATOM     31  C   UNL A   1      36.664  31.227  27.700  1.00  0.00     0.014 A 
ATOM     32  C   UNL A   1      36.696  29.245  29.663  1.00  0.00     0.010 A 
ATOM     33  C   UNL A   1      37.868  30.879  28.328  1.00  0.00     0.010 A 
ATOM     34  C   UNL A   1      37.899  29.887  29.321  1.00  0.00    -0.014 A 
BRANCH  34  35
ATOM     35  C   UNL A   1      39.173  29.519  30.006  1.00  0.00     0.031 A 
ATOM     36  C   UNL A   1      39.599  30.207  31.279  1.00  0.00     0.074 A 
ATOM     37  C   UNL A   1      39.967  28.565  29.476  1.00  0.00     0.049 A 
ATOM     38  N   UNL A   1      40.654  29.990  32.026  1.00  0.00    -0.248 NA
ATOM     39  C   UNL A   1      38.737  31.294  31.769  1.00  0.00     0.031 C 
ATOM     40  C   UNL A   1      39.708  27.851  28.225  1.00  0.00     0.029 A 
ATOM     41  N   UNL A   1      41.150  28.026  29.923  1.00  0.00    -0.354 N 
ATOM     42  C   UNL A   1      40.584  30.909  33.067  1.00  0.00     0.074 A 
ATOM     43  C   UNL A   1      39.412  31.724  32.825  1.00  0.00     0.031 C 
ATOM     44  C   UNL A   1      40.683  26.952  28.019  1.00  0.00     0.029 A 
ATOM     45  C   UNL A   1      41.655  27.040  29.107  1.00  0.00     0.049 A 
ATOM     46  H   UNL A   1      41.596  28.319  30.751  1.00  0.00     0.167 HD
ATOM     47  C   UNL A   1      41.403  31.049  34.140  1.00  0.00     0.037 A 
ATOM     48  C   UNL A   1      42.767  26.287  29.219  1.00  0.00     0.037 A 
ATOM     49  C   UNL A   1      42.566  30.232  34.389  1.00  0.00     0.049 A 
ATOM     50  C   UNL A   1      43.656  26.453  30.423  1.00  0.00     0.074 A 
ATOM     51  C   UNL A   1      43.430  30.270  35.471  1.00  0.00     0.029 A 
ATOM     52  N   UNL A   1      43.030  29.232  33.547  1.00  0.00    -0.354 N 
ATOM     53  N   UNL A   1      43.535  27.282  31.432  1.00  0.00    -0.248 NA
ATOM     54  C   UNL A   1      44.825  25.566  30.512  1.00  0.00     0.031 C 
ATOM     55  C   UNL A   1      44.442  29.327  35.261  1.00  0.00     0.029 A 
ATOM     56  C   UNL A   1      44.175  28.657  34.078  1.00  0.00     0.049 A 
ATOM     57  H   UNL A   1      42.608  28.969  32.698  1.00  0.00     0.167 HD
ATOM     58  C   UNL A   1      44.587  26.989  32.294  1.00  0.00     0.074 A 
ATOM     59  C   UNL A   1      45.328  25.900  31.692  1.00  0.00     0.031 C 
ATOM     60  C   UNL A   1      44.905  27.566  33.480  1.00  0.00     0.037 A 
BRANCH  47  61
ATOM     61  C   UNL A   1      41.070  32.130  35.137  1.00  0.00     0.058 A 
ATOM     62  C   UNL A   1      40.134  31.925  36.162  1.00  0.00     0.135 A 
ATOM     63  C   UNL A   1      41.726  33.372  35.093  1.00  0.00     0.135 A 
ATOM     64  F   UNL A   1      39.468  30.763  36.249  1.00  0.00    -0.206 F 
ATOM     65  C   UNL A   1      39.832  32.923  37.085  1.00  0.00     0.059 A 
ATOM     66  C   UNL A   1      41.463  34.373  36.025  1.00  0.00     0.059 A 
ATOM     67  F   UNL A   1      42.636  33.623  34.139  1.00  0.00    -0.206 F 
ATOM     68  C   UNL A   1      40.501  34.145  37.008  1.00  0.00     0.060 A 
BRANCH  68  69
ATOM     69  S   UNL A   1      40.095  35.426  38.212  1.00  0.00     0.124 S 
ATOM     70  O   UNL A   1      39.833  36.570  37.343  1.00  0.00    -0.237 OA
ATOM     71  O   UNL A   1      38.933  34.864  38.888  1.00  0.00    -0.237 OA
ATOM     72  O   UNL A   1      41.305  35.524  39.027  1.00  0.00    -0.744 OA
ENDBRANCH  68  69
ENDBRANCH  47  61
BRANCH  48  73
ATOM     73  C   UNL A   1      43.088  25.273  28.175  1.00  0.00     0.058 A 
ATOM     74  C   UNL A   1      42.681  23.937  28.313  1.00  0.00     0.135 A 
ATOM     75  C   UNL A   1      43.807  25.620  27.021  1.00  0.00     0.135 A 
ATOM     76  F   UNL A   1      41.998  23.553  29.402  1.00  0.00    -0.206 F 
ATOM     77  C   UNL A   1      42.995  22.976  27.357  1.00  0.00     0.059 A 
ATOM     78  C   UNL A   1      44.107  24.682  26.037  1.00  0.00     0.059 A 
ATOM     79  F   UNL A   1      44.206  26.887  26.832  1.00  0.00    -0.206 F 
ATOM     80  C   UNL A   1      43.707  23.359  26.220  1.00  0.00     0.060 A 
BRANCH  80  81
ATOM     81  S   UNL A   1      44.068  22.114  24.964  1.00  0.00     0.124 S 
ATOM     82  O   UNL A   1      45.524  22.052  25.021  1.00  0.00    -0.237 OA
ATOM     83  O   UNL A   1      43.357  20.947  25.475  1.00  0.00    -0.237 OA
ATOM     84  O   UNL A   1      43.509  22.694  23.746  1.00  0.00    -0.744 OA
ENDBRANCH  80  81
ENDBRANCH  48  73
BRANCH  60  85
ATOM     85  C   UNL A   1      46.074  26.992  34.240  1.00  0.00     0.058 A 
ATOM     86  C   UNL A   1      47.383  27.470  34.071  1.00  0.00     0.135 A 
ATOM     87  C   UNL A   1      45.873  25.955  35.166  1.00  0.00     0.135 A 
ATOM     88  F   UNL A   1      47.635  28.459  33.199  1.00  0.00    -0.206 F 
ATOM     89  C   UNL A   1      48.457  26.907  34.755  1.00  0.00     0.059 A 
ATOM     90  C   UNL A   1      46.927  25.399  35.885  1.00  0.00     0.059 A 
ATOM     91  F   UNL A   1      44.640  25.469  35.381  1.00  0.00    -0.206 F 
ATOM     92  C   UNL A   1      48.219  25.868  35.657  1.00  0.00     0.060 A 
BRANCH  92  93
ATOM     93  S   UNL A   1      49.621  25.141  36.533  1.00  0.00     0.124 S 
ATOM     94  O   UNL A   1      49.153  25.175  37.915  1.00  0.00    -0.237 OA
ATOM     95  O   UNL A   1      49.716  23.816  35.928  1.00  0.00    -0.237 OA
ATOM     96  O   UNL A   1      50.723  26.046  36.220  1.00  0.00    -0.744 OA
ENDBRANCH  92  93
ENDBRANCH  60  85
ENDBRANCH  34  35
ENDBRANCH  26  29
ENDBRANCH  24  25
ENDBRANCH   1  24
TORSDOF 17
ENDMDL
MODEL 3
REMARK VINA RESULT:     -10.9      4.957     10.424
REMARK SMILES CC[C@](C)(NC(=O)NC[C@H]1COCCO1)C(=O)NCCCNC(=O)c1ccc(-c2c3nc(c(-c4c(F)cc(S(=O)(=O)[O-])cc4F)c4ccc([nH]4)c(-c4c(F)cc(S(=O)(=O)[O-])cc4F)c4nc(c(-c5c(F)cc(S(=O)(=O)[O-])cc5F)c5ccc2[nH]5)C=C4)C=C3)cc1
REMARK SMILES IDX 20 1 19 2 18 3 16 4 17 5 3 7 4 8 2 9 1 10 5 11 6 12 7 14
REMARK SMILES IDX 8 15 9 17 10 18 11 19 15 20 12 21 14 22 13 23 21 24 22 25
REMARK SMILES IDX 23 26 24 28 25 29 26 30 90 31 27 32 89 33 28 34 29 35 30 36
REMARK SMILES IDX 83 37 31 38 88 39 82 40 84 41 32 42 87 43 81 44 80 45 33 47
REMARK SMILES IDX 67 48 46 49 66 50 47 51 50 52 65 53 85 54 48 55 49 56 64 58
REMARK SMILES IDX 86 59 51 60 34 61 35 62 44 63 36 64 37 65 43 66 45 67 38 68
REMARK SMILES IDX 39 69 40 70 41 71 42 72 68 73 69 74 78 75 70 76 71 77 77 78
REMARK SMILES IDX 79 79 72 80 73 81 74 82 75 83 76 84 52 85 53 86 62 87 54 88
REMARK SMILES IDX 55 89 61 90 63 91 56 92 57 93 58 94 59 95 60 96
REMARK H PARENT 18 6 5 13 8 16 22 27 84 46 50 57
REMARK Flexibility Score: inf
ROOT
ATOM      1  C   UNL A   1      33.044  27.699  25.736  1.00  0.00     0.042 C 
ENDROOT
BRANCH   1   2
ATOM      2  C   UNL A   1      31.801  26.839  25.993  1.00  0.00     0.117 C 
BRANCH   2   3
ATOM      3  N   UNL A   1      31.122  26.232  24.857  1.00  0.00    -0.354 N 
ATOM      4  C   UNL A   1      31.263  25.040  24.174  1.00  0.00     0.245 C 
ATOM      5  O   UNL A   1      30.308  24.547  23.567  1.00  0.00    -0.272 OA
ATOM      6  H   UNL A   1      30.402  26.798  24.495  1.00  0.00     0.163 HD
BRANCH   4   7
ATOM      7  C   UNL A   1      32.561  24.256  24.275  1.00  0.00     0.117 C 
ATOM      8  C   UNL A   1      33.826  24.968  23.771  1.00  0.00     0.045 C 
BRANCH   7   9
ATOM      9  C   UNL A   1      32.216  23.083  23.300  1.00  0.00     0.035 C 
ATOM     10  C   UNL A   1      32.981  22.911  22.010  1.00  0.00     0.007 C 
ENDBRANCH   7   9
BRANCH   7  11
ATOM     11  N   UNL A   1      32.738  23.981  25.700  1.00  0.00    -0.324 N 
ATOM     12  C   UNL A   1      33.481  23.064  26.355  1.00  0.00     0.315 C 
ATOM     13  H   UNL A   1      32.218  24.573  26.291  1.00  0.00     0.166 HD
ATOM     14  O   UNL A   1      33.274  22.961  27.570  1.00  0.00    -0.249 OA
ATOM     15  N   UNL A   1      34.502  22.330  25.863  1.00  0.00    -0.335 N 
ATOM     16  H   UNL A   1      35.109  22.080  26.596  1.00  0.00     0.165 HD
BRANCH  15  17
ATOM     17  C   UNL A   1      35.017  21.771  24.574  1.00  0.00     0.152 C 
BRANCH  17  18
ATOM     18  C   UNL A   1      36.481  22.170  24.093  1.00  0.00     0.163 C 
ATOM     19  C   UNL A   1      36.814  23.616  24.475  1.00  0.00     0.194 C 
ATOM     20  O   UNL A   1      37.576  21.308  24.475  1.00  0.00    -0.372 OA
ATOM     21  O   UNL A   1      36.990  23.707  25.886  1.00  0.00    -0.376 OA
ATOM     22  C   UNL A   1      38.404  21.686  25.593  1.00  0.00     0.189 C 
ATOM     23  C   UNL A   1      38.190  23.040  26.263  1.00  0.00     0.188 C 
ENDBRANCH  17  18
ENDBRANCH  15  17
ENDBRANCH   7  11
ENDBRANCH   4   7
ENDBRANCH   2   3
ENDBRANCH   1   2
BRANCH   1  24
ATOM     24  C   UNL A   1      33.948  28.126  26.888  1.00  0.00     0.118 C 
BRANCH  24  25
ATOM     25  N   UNL A   1      33.717  29.465  27.388  1.00  0.00    -0.352 N 
ATOM     26  C   UNL A   1      34.560  30.322  28.056  1.00  0.00     0.251 C 
ATOM     27  H   UNL A   1      32.813  29.819  27.224  1.00  0.00     0.163 HD
ATOM     28  O   UNL A   1      34.130  31.406  28.443  1.00  0.00    -0.269 OA
BRANCH  26  29
ATOM     29  C   UNL A   1      35.973  29.957  28.332  1.00  0.00     0.039 A 
ATOM     30  C   UNL A   1      36.912  30.118  27.309  1.00  0.00     0.014 A 
ATOM     31  C   UNL A   1      36.373  29.398  29.550  1.00  0.00     0.014 A 
ATOM     32  C   UNL A   1      38.251  29.762  27.519  1.00  0.00     0.010 A 
ATOM     33  C   UNL A   1      37.723  29.094  29.777  1.00  0.00     0.010 A 
ATOM     34  C   UNL A   1      38.678  29.267  28.763  1.00  0.00    -0.014 A 
BRANCH  34  35
ATOM     35  C   UNL A   1      40.115  28.932  28.990  1.00  0.00     0.031 A 
ATOM     36  C   UNL A   1      41.059  29.935  29.606  1.00  0.00     0.074 A 
ATOM     37  C   UNL A   1      40.585  27.719  28.630  1.00  0.00     0.049 A 
ATOM     38  N   UNL A   1      42.327  29.802  29.908  1.00  0.00    -0.248 NA
ATOM     39  C   UNL A   1      40.512  31.267  29.906  1.00  0.00     0.031 C 
ATOM     40  C   UNL A   1      39.801  26.670  27.978  1.00  0.00     0.029 A 
ATOM     41  N   UNL A   1      41.834  27.161  28.764  1.00  0.00    -0.354 N 
ATOM     42  C   UNL A   1      42.729  31.027  30.429  1.00  0.00     0.074 A 
ATOM     43  C   UNL A   1      41.584  31.908  30.350  1.00  0.00     0.031 C 
ATOM     44  C   UNL A   1      40.575  25.589  27.795  1.00  0.00     0.029 A 
ATOM     45  C   UNL A   1      41.920  25.872  28.290  1.00  0.00     0.049 A 
ATOM     46  H   UNL A   1      42.598  27.639  29.162  1.00  0.00     0.167 HD
ATOM     47  C   UNL A   1      43.932  31.382  30.949  1.00  0.00     0.037 A 
ATOM     48  C   UNL A   1      42.957  25.012  28.259  1.00  0.00     0.037 A 
ATOM     49  C   UNL A   1      45.072  30.502  31.038  1.00  0.00     0.049 A 
ATOM     50  C   UNL A   1      44.280  25.424  28.850  1.00  0.00     0.074 A 
ATOM     51  C   UNL A   1      46.317  30.758  31.589  1.00  0.00     0.029 A 
ATOM     52  N   UNL A   1      45.110  29.198  30.564  1.00  0.00    -0.354 N 
ATOM     53  N   UNL A   1      44.620  26.565  29.400  1.00  0.00    -0.248 NA
ATOM     54  C   UNL A   1      45.356  24.422  28.832  1.00  0.00     0.031 C 
ATOM     55  C   UNL A   1      47.121  29.628  31.406  1.00  0.00     0.029 A 
ATOM     56  C   UNL A   1      46.360  28.645  30.796  1.00  0.00     0.049 A 
ATOM     57  H   UNL A   1      44.360  28.735  30.127  1.00  0.00     0.167 HD
ATOM     58  C   UNL A   1      45.933  26.405  29.829  1.00  0.00     0.074 A 
ATOM     59  C   UNL A   1      46.322  25.053  29.484  1.00  0.00     0.031 C 
ATOM     60  C   UNL A   1      46.741  27.295  30.459  1.00  0.00     0.037 A 
BRANCH  47  61
ATOM     61  C   UNL A   1      44.080  32.789  31.468  1.00  0.00     0.058 A 
ATOM     62  C   UNL A   1      43.823  33.111  32.810  1.00  0.00     0.135 A 
ATOM     63  C   UNL A   1      44.526  33.821  30.625  1.00  0.00     0.135 A 
ATOM     64  F   UNL A   1      43.386  32.169  33.660  1.00  0.00    -0.206 F 
ATOM     65  C   UNL A   1      43.967  34.410  33.289  1.00  0.00     0.059 A 
ATOM     66  C   UNL A   1      44.707  35.121  31.090  1.00  0.00     0.059 A 
ATOM     67  F   UNL A   1      44.794  33.572  29.334  1.00  0.00    -0.206 F 
ATOM     68  C   UNL A   1      44.408  35.409  32.421  1.00  0.00     0.060 A 
BRANCH  68  69
ATOM     69  S   UNL A   1      44.585  37.088  33.060  1.00  0.00     0.124 S 
ATOM     70  O   UNL A   1      44.061  37.879  31.951  1.00  0.00    -0.237 OA
ATOM     71  O   UNL A   1      43.761  37.055  34.262  1.00  0.00    -0.237 OA
ATOM     72  O   UNL A   1      46.024  37.213  33.293  1.00  0.00    -0.744 OA
ENDBRANCH  68  69
ENDBRANCH  47  61
BRANCH  48  73
ATOM     73  C   UNL A   1      42.779  23.651  27.678  1.00  0.00     0.058 A 
ATOM     74  C   UNL A   1      42.398  22.565  28.480  1.00  0.00     0.135 A 
ATOM     75  C   UNL A   1      42.988  23.411  26.311  1.00  0.00     0.135 A 
ATOM     76  F   UNL A   1      42.193  22.741  29.795  1.00  0.00    -0.206 F 
ATOM     77  C   UNL A   1      42.251  21.285  27.954  1.00  0.00     0.059 A 
ATOM     78  C   UNL A   1      42.819  22.146  25.757  1.00  0.00     0.059 A 
ATOM     79  F   UNL A   1      43.339  24.418  25.497  1.00  0.00    -0.206 F 
ATOM     80  C   UNL A   1      42.461  21.086  26.589  1.00  0.00     0.060 A 
BRANCH  80  81
ATOM     81  S   UNL A   1      42.223  19.430  25.909  1.00  0.00     0.124 S 
ATOM     82  O   UNL A   1      43.046  19.485  24.706  1.00  0.00    -0.237 OA
ATOM     83  O   UNL A   1      42.720  18.581  26.986  1.00  0.00    -0.237 OA
ATOM     84  O   UNL A   1      40.782  19.364  25.684  1.00  0.00    -0.744 OA
ENDBRANCH  80  81
ENDBRANCH  48  73
BRANCH  60  85
ATOM     85  C   UNL A   1      48.110  26.819  30.872  1.00  0.00     0.058 A 
ATOM     86  C   UNL A   1      48.313  26.023  32.011  1.00  0.00     0.135 A 
ATOM     87  C   UNL A   1      49.237  27.155  30.104  1.00  0.00     0.135 A 
ATOM     88  F   UNL A   1      47.273  25.670  32.784  1.00  0.00    -0.206 F 
ATOM     89  C   UNL A   1      49.587  25.619  32.399  1.00  0.00     0.059 A 
ATOM     90  C   UNL A   1      50.516  26.736  30.455  1.00  0.00     0.059 A 
ATOM     91  F   UNL A   1      49.101  27.902  28.996  1.00  0.00    -0.206 F 
ATOM     92  C   UNL A   1      50.684  25.985  31.617  1.00  0.00     0.060 A 
BRANCH  92  93
ATOM     93  S   UNL A   1      52.333  25.462  32.133  1.00  0.00     0.124 S 
ATOM     94  O   UNL A   1      52.624  26.416  33.199  1.00  0.00    -0.237 OA
ATOM     95  O   UNL A   1      52.106  24.085  32.560  1.00  0.00    -0.237 OA
ATOM     96  O   UNL A   1      53.133  25.612  30.920  1.00  0.00    -0.744 OA
ENDBRANCH  92  93
ENDBRANCH  60  85
ENDBRANCH  34  35
ENDBRANCH  26  29
ENDBRANCH  24  25
ENDBRANCH   1  24
TORSDOF 17
ENDMDL
