MODEL 1
REMARK VINA RESULT:     -12.3      0.000      0.000
REMARK SMILES O=C(NCCCNC(=O)c1cc(/C=C/c2cc(O)cc(O)c2)ccc1O)c1ccc(-c2c3nc(c(-c4c(F)cc(S(=O)(=O)[O-])cc4F)c4ccc([nH]4)c(-c4c(F)cc(S(=O)(=O)[O-])cc4F)c4nc(c(-c5c(F)cc(S(=O)(=O)[O-])cc5F)c5ccc2[nH]5)C=C4)C=C3)cc1
REMARK SMILES IDX 5 1 4 2 3 3 1 4 2 5 27 7 28 8 92 9 29 10 91 11 30 12 31 13
REMARK SMILES IDX 32 14 85 15 33 16 90 17 84 18 86 19 34 20 89 21 83 22 82 23
REMARK SMILES IDX 35 25 69 26 48 27 68 28 49 29 52 30 67 31 87 32 50 33 51 34
REMARK SMILES IDX 66 36 88 37 53 38 36 39 37 40 46 41 38 42 39 43 45 44 47 45
REMARK SMILES IDX 40 46 41 47 42 48 43 49 44 50 70 51 71 52 80 53 72 54 73 55
REMARK SMILES IDX 79 56 81 57 74 58 75 59 76 60 77 61 78 62 54 63 55 64 64 65
REMARK SMILES IDX 56 66 57 67 63 68 65 69 58 70 59 71 60 72 61 73 62 74 6 75
REMARK SMILES IDX 7 76 8 77 9 79 10 80 11 81 25 82 12 83 24 84 23 85 26 86
REMARK SMILES IDX 13 88 14 89 15 90 16 91 22 92 17 93 20 94 19 95 18 96 21 98
REMARK H PARENT 3 6 86 24 52 35 7 78 26 87 18 97 21 99
REMARK Flexibility Score: inf
ROOT
ATOM      1  C   UNL A   1      39.554  22.176  26.449  1.00  0.00     0.042 C 
ENDROOT
BRANCH   1   2
ATOM      2  C   UNL A   1      40.333  23.334  27.053  1.00  0.00     0.118 C 
BRANCH   2   3
ATOM      3  N   UNL A   1      41.071  24.100  26.058  1.00  0.00    -0.352 N 
ATOM      4  O   UNL A   1      41.867  25.918  25.002  1.00  0.00    -0.269 OA
ATOM      5  C   UNL A   1      41.405  25.431  26.033  1.00  0.00     0.251 C 
ATOM      6  H   UNL A   1      41.378  23.581  25.281  1.00  0.00     0.163 HD
BRANCH   5   7
ATOM      7  C   UNL A   1      41.189  26.284  27.221  1.00  0.00     0.039 A 
ATOM      8  C   UNL A   1      41.996  27.398  27.467  1.00  0.00     0.014 A 
ATOM      9  C   UNL A   1      40.136  25.982  28.088  1.00  0.00     0.014 A 
ATOM     10  C   UNL A   1      41.850  28.116  28.650  1.00  0.00     0.010 A 
ATOM     11  C   UNL A   1      39.932  26.760  29.230  1.00  0.00     0.010 A 
ATOM     12  C   UNL A   1      40.806  27.815  29.537  1.00  0.00    -0.014 A 
BRANCH  12  13
ATOM     13  C   UNL A   1      40.592  28.643  30.749  1.00  0.00     0.031 A 
ATOM     14  C   UNL A   1      39.535  29.708  30.775  1.00  0.00     0.074 A 
ATOM     15  C   UNL A   1      41.391  28.453  31.817  1.00  0.00     0.049 A 
ATOM     16  N   UNL A   1      39.277  30.593  31.704  1.00  0.00    -0.248 NA
ATOM     17  C   UNL A   1      38.658  29.799  29.598  1.00  0.00     0.031 C 
ATOM     18  C   UNL A   1      42.454  27.449  31.906  1.00  0.00     0.029 A 
ATOM     19  N   UNL A   1      41.448  29.105  33.022  1.00  0.00    -0.354 N 
ATOM     20  C   UNL A   1      38.230  31.366  31.214  1.00  0.00     0.074 A 
ATOM     21  C   UNL A   1      37.915  30.856  29.895  1.00  0.00     0.031 C 
ATOM     22  C   UNL A   1      43.057  27.552  33.097  1.00  0.00     0.029 A 
ATOM     23  C   UNL A   1      42.472  28.671  33.830  1.00  0.00     0.049 A 
ATOM     24  H   UNL A   1      40.819  29.816  33.284  1.00  0.00     0.167 HD
ATOM     25  C   UNL A   1      37.593  32.402  31.813  1.00  0.00     0.037 A 
ATOM     26  C   UNL A   1      42.926  29.143  35.006  1.00  0.00     0.037 A 
ATOM     27  C   UNL A   1      37.922  32.894  33.126  1.00  0.00     0.049 A 
ATOM     28  C   UNL A   1      42.234  30.315  35.637  1.00  0.00     0.074 A 
ATOM     29  C   UNL A   1      37.314  33.911  33.841  1.00  0.00     0.029 A 
ATOM     30  N   UNL A   1      38.962  32.420  33.916  1.00  0.00    -0.354 N 
ATOM     31  N   UNL A   1      41.221  31.011  35.182  1.00  0.00    -0.248 NA
ATOM     32  C   UNL A   1      42.741  30.767  36.939  1.00  0.00     0.031 C 
ATOM     33  C   UNL A   1      38.021  34.091  35.034  1.00  0.00     0.029 A 
ATOM     34  C   UNL A   1      39.030  33.142  35.096  1.00  0.00     0.049 A 
ATOM     35  H   UNL A   1      39.562  31.678  33.673  1.00  0.00     0.167 HD
ATOM     36  C   UNL A   1      40.948  31.967  36.152  1.00  0.00     0.074 A 
ATOM     37  C   UNL A   1      41.907  31.761  37.220  1.00  0.00     0.031 C 
ATOM     38  C   UNL A   1      39.984  32.920  36.159  1.00  0.00     0.037 A 
BRANCH  25  39
ATOM     39  C   UNL A   1      36.511  33.099  31.031  1.00  0.00     0.058 A 
ATOM     40  C   UNL A   1      36.793  33.892  29.906  1.00  0.00     0.135 A 
ATOM     41  C   UNL A   1      35.166  32.976  31.419  1.00  0.00     0.135 A 
ATOM     42  F   UNL A   1      38.061  34.052  29.493  1.00  0.00    -0.206 F 
ATOM     43  C   UNL A   1      35.791  34.581  29.231  1.00  0.00     0.059 A 
ATOM     44  C   UNL A   1      34.143  33.630  30.737  1.00  0.00     0.059 A 
ATOM     45  F   UNL A   1      34.833  32.224  32.480  1.00  0.00    -0.206 F 
ATOM     46  C   UNL A   1      34.469  34.453  29.661  1.00  0.00     0.060 A 
BRANCH  46  47
ATOM     47  S   UNL A   1      33.189  35.399  28.812  1.00  0.00     0.124 S 
ATOM     48  O   UNL A   1      33.991  36.346  28.043  1.00  0.00    -0.237 OA
ATOM     49  O   UNL A   1      32.503  34.373  28.034  1.00  0.00    -0.237 OA
ATOM     50  O   UNL A   1      32.412  35.979  29.903  1.00  0.00    -0.744 OA
ENDBRANCH  46  47
ENDBRANCH  25  39
BRANCH  26  51
ATOM     51  C   UNL A   1      44.109  28.496  35.630  1.00  0.00     0.058 A 
ATOM     52  C   UNL A   1      45.408  28.938  35.351  1.00  0.00     0.135 A 
ATOM     53  C   UNL A   1      43.952  27.488  36.597  1.00  0.00     0.135 A 
ATOM     54  F   UNL A   1      45.608  29.896  34.432  1.00  0.00    -0.206 F 
ATOM     55  C   UNL A   1      46.512  28.415  36.016  1.00  0.00     0.059 A 
ATOM     56  C   UNL A   1      45.037  26.969  37.294  1.00  0.00     0.059 A 
ATOM     57  F   UNL A   1      42.725  27.046  36.914  1.00  0.00    -0.206 F 
ATOM     58  C   UNL A   1      46.315  27.440  36.997  1.00  0.00     0.060 A 
BRANCH  58  59
ATOM     59  S   UNL A   1      47.745  26.846  37.926  1.00  0.00     0.124 S 
ATOM     60  O   UNL A   1      48.030  25.585  37.251  1.00  0.00    -0.237 OA
ATOM     61  O   UNL A   1      48.712  27.918  37.714  1.00  0.00    -0.237 OA
ATOM     62  O   UNL A   1      47.236  26.732  39.290  1.00  0.00    -0.744 OA
ENDBRANCH  58  59
ENDBRANCH  26  51
BRANCH  38  63
ATOM     63  C   UNL A   1      39.871  33.796  37.375  1.00  0.00     0.058 A 
ATOM     64  C   UNL A   1      40.539  35.024  37.470  1.00  0.00     0.135 A 
ATOM     65  C   UNL A   1      38.988  33.445  38.412  1.00  0.00     0.135 A 
ATOM     66  F   UNL A   1      41.403  35.400  36.514  1.00  0.00    -0.206 F 
ATOM     67  C   UNL A   1      40.332  35.881  38.548  1.00  0.00     0.059 A 
ATOM     68  C   UNL A   1      38.748  34.295  39.485  1.00  0.00     0.059 A 
ATOM     69  F   UNL A   1      38.322  32.280  38.366  1.00  0.00    -0.206 F 
ATOM     70  C   UNL A   1      39.423  35.513  39.543  1.00  0.00     0.060 A 
BRANCH  70  71
ATOM     71  S   UNL A   1      39.094  36.673  40.888  1.00  0.00     0.124 S 
ATOM     72  O   UNL A   1      40.432  36.885  41.429  1.00  0.00    -0.237 OA
ATOM     73  O   UNL A   1      38.508  37.808  40.181  1.00  0.00    -0.237 OA
ATOM     74  O   UNL A   1      38.176  35.940  41.753  1.00  0.00    -0.744 OA
ENDBRANCH  70  71
ENDBRANCH  38  63
ENDBRANCH  12  13
ENDBRANCH   5   7
ENDBRANCH   2   3
ENDBRANCH   1   2
BRANCH   1  75
ATOM     75  C   UNL A   1      38.099  22.492  26.139  1.00  0.00     0.118 C 
BRANCH  75  76
ATOM     76  N   UNL A   1      37.836  22.594  24.712  1.00  0.00    -0.352 N 
ATOM     77  C   UNL A   1      36.650  22.816  24.061  1.00  0.00     0.255 C 
ATOM     78  H   UNL A   1      38.623  22.488  24.130  1.00  0.00     0.163 HD
ATOM     79  O   UNL A   1      36.617  22.798  22.832  1.00  0.00    -0.269 OA
BRANCH  77  80
ATOM     80  C   UNL A   1      35.391  22.996  24.815  1.00  0.00     0.082 A 
ATOM     81  C   UNL A   1      34.906  24.309  24.922  1.00  0.00     0.025 A 
ATOM     82  C   UNL A   1      34.714  21.948  25.444  1.00  0.00     0.128 A 
ATOM     83  C   UNL A   1      33.719  24.583  25.613  1.00  0.00    -0.025 A 
ATOM     84  C   UNL A   1      33.515  22.198  26.106  1.00  0.00     0.047 A 
ATOM     85  C   UNL A   1      33.022  23.506  26.183  1.00  0.00     0.012 A 
BRANCH  82  86
ATOM     86  O   UNL A   1      35.218  20.679  25.424  1.00  0.00    -0.507 OA
ATOM     87  H   UNL A   1      35.636  20.353  24.653  1.00  0.00     0.293 HD
ENDBRANCH  82  86
BRANCH  83  88
ATOM     88  C   UNL A   1      33.179  25.943  25.798  1.00  0.00     0.009 C 
ATOM     89  C   UNL A   1      33.899  27.074  25.894  1.00  0.00     0.009 C 
BRANCH  89  90
ATOM     90  C   UNL A   1      33.290  28.389  26.137  1.00  0.00    -0.018 A 
ATOM     91  C   UNL A   1      33.782  29.249  27.129  1.00  0.00     0.054 A 
ATOM     92  C   UNL A   1      32.243  28.820  25.311  1.00  0.00     0.054 A 
ATOM     93  C   UNL A   1      33.214  30.511  27.297  1.00  0.00     0.119 A 
ATOM     94  C   UNL A   1      31.689  30.085  25.500  1.00  0.00     0.119 A 
ATOM     95  C   UNL A   1      32.167  30.935  26.489  1.00  0.00     0.092 A 
BRANCH  93  96
ATOM     96  O   UNL A   1      33.674  31.372  28.252  1.00  0.00    -0.508 OA
ATOM     97  H   UNL A   1      34.587  31.573  28.300  1.00  0.00     0.293 HD
ENDBRANCH  93  96
BRANCH  94  98
ATOM     98  O   UNL A   1      30.665  30.533  24.717  1.00  0.00    -0.508 OA
ATOM     99  H   UNL A   1      30.340  31.405  24.825  1.00  0.00     0.293 HD
ENDBRANCH  94  98
ENDBRANCH  89  90
ENDBRANCH  83  88
ENDBRANCH  77  80
ENDBRANCH  75  76
ENDBRANCH   1  75
TORSDOF 18
ENDMDL
MODEL 2
REMARK VINA RESULT:     -12.3      6.673     11.846
REMARK SMILES O=C(NCCCNC(=O)c1cc(/C=C/c2cc(O)cc(O)c2)ccc1O)c1ccc(-c2c3nc(c(-c4c(F)cc(S(=O)(=O)[O-])cc4F)c4ccc([nH]4)c(-c4c(F)cc(S(=O)(=O)[O-])cc4F)c4nc(c(-c5c(F)cc(S(=O)(=O)[O-])cc5F)c5ccc2[nH]5)C=C4)C=C3)cc1
REMARK SMILES IDX 5 1 4 2 3 3 1 4 2 5 27 7 28 8 92 9 29 10 91 11 30 12 31 13
REMARK SMILES IDX 32 14 85 15 33 16 90 17 84 18 86 19 34 20 89 21 83 22 82 23
REMARK SMILES IDX 35 25 69 26 48 27 68 28 49 29 52 30 67 31 87 32 50 33 51 34
REMARK SMILES IDX 66 36 88 37 53 38 36 39 37 40 46 41 38 42 39 43 45 44 47 45
REMARK SMILES IDX 40 46 41 47 42 48 43 49 44 50 70 51 71 52 80 53 72 54 73 55
REMARK SMILES IDX 79 56 81 57 74 58 75 59 76 60 77 61 78 62 54 63 55 64 64 65
REMARK SMILES IDX 56 66 57 67 63 68 65 69 58 70 59 71 60 72 61 73 62 74 6 75
REMARK SMILES IDX 7 76 8 77 9 79 10 80 11 81 25 82 12 83 24 84 23 85 26 86
REMARK SMILES IDX 13 88 14 89 15 90 16 91 22 92 17 93 20 94 19 95 18 96 21 98
REMARK H PARENT 3 6 86 24 52 35 7 78 26 87 18 97 21 99
REMARK Flexibility Score: inf
ROOT
ATOM      1  C   UNL A   1      33.983  28.867  27.252  1.00  0.00     0.042 C 
ENDROOT
BRANCH   1   2
ATOM      2  C   UNL A   1      35.200  29.742  27.506  1.00  0.00     0.118 C 
BRANCH   2   3
ATOM      3  N   UNL A   1      35.146  30.427  28.791  1.00  0.00    -0.352 N 
ATOM      4  O   UNL A   1      35.785  31.016  30.864  1.00  0.00    -0.269 OA
ATOM      5  C   UNL A   1      36.101  30.558  29.767  1.00  0.00     0.251 C 
ATOM      6  H   UNL A   1      34.287  30.865  28.990  1.00  0.00     0.163 HD
BRANCH   5   7
ATOM      7  C   UNL A   1      37.494  30.129  29.519  1.00  0.00     0.039 A 
ATOM      8  C   UNL A   1      38.329  29.742  30.571  1.00  0.00     0.014 A 
ATOM      9  C   UNL A   1      37.963  30.083  28.204  1.00  0.00     0.014 A 
ATOM     10  C   UNL A   1      39.669  29.455  30.327  1.00  0.00     0.010 A 
ATOM     11  C   UNL A   1      39.284  29.705  27.951  1.00  0.00     0.010 A 
ATOM     12  C   UNL A   1      40.157  29.418  29.013  1.00  0.00    -0.014 A 
BRANCH  12  13
ATOM     13  C   UNL A   1      41.561  29.018  28.747  1.00  0.00     0.031 A 
ATOM     14  C   UNL A   1      42.664  30.035  28.757  1.00  0.00     0.074 A 
ATOM     15  C   UNL A   1      41.827  27.731  28.453  1.00  0.00     0.049 A 
ATOM     16  N   UNL A   1      43.927  29.888  28.446  1.00  0.00    -0.248 NA
ATOM     17  C   UNL A   1      42.301  31.402  29.160  1.00  0.00     0.031 C 
ATOM     18  C   UNL A   1      40.835  26.654  28.411  1.00  0.00     0.029 A 
ATOM     19  N   UNL A   1      43.004  27.111  28.117  1.00  0.00    -0.354 N 
ATOM     20  C   UNL A   1      44.503  31.145  28.584  1.00  0.00     0.074 A 
ATOM     21  C   UNL A   1      43.446  32.048  28.989  1.00  0.00     0.031 C 
ATOM     22  C   UNL A   1      41.441  25.510  28.069  1.00  0.00     0.029 A 
ATOM     23  C   UNL A   1      42.850  25.783  27.800  1.00  0.00     0.049 A 
ATOM     24  H   UNL A   1      43.873  27.572  28.102  1.00  0.00     0.167 HD
ATOM     25  C   UNL A   1      45.796  31.507  28.392  1.00  0.00     0.037 A 
ATOM     26  C   UNL A   1      43.727  24.889  27.305  1.00  0.00     0.037 A 
ATOM     27  C   UNL A   1      46.833  30.592  27.989  1.00  0.00     0.049 A 
ATOM     28  C   UNL A   1      45.144  25.316  27.062  1.00  0.00     0.074 A 
ATOM     29  C   UNL A   1      48.181  30.847  27.806  1.00  0.00     0.029 A 
ATOM     30  N   UNL A   1      46.637  29.250  27.687  1.00  0.00    -0.354 N 
ATOM     31  N   UNL A   1      45.685  26.498  27.235  1.00  0.00    -0.248 NA
ATOM     32  C   UNL A   1      46.072  24.295  26.559  1.00  0.00     0.031 C 
ATOM     33  C   UNL A   1      48.788  29.678  27.336  1.00  0.00     0.029 A 
ATOM     34  C   UNL A   1      47.832  28.674  27.291  1.00  0.00     0.049 A 
ATOM     35  H   UNL A   1      45.776  28.779  27.746  1.00  0.00     0.167 HD
ATOM     36  C   UNL A   1      47.024  26.359  26.890  1.00  0.00     0.074 A 
ATOM     37  C   UNL A   1      47.210  24.976  26.495  1.00  0.00     0.031 C 
ATOM     38  C   UNL A   1      48.008  27.291  26.910  1.00  0.00     0.037 A 
BRANCH  25  39
ATOM     39  C   UNL A   1      46.145  32.961  28.571  1.00  0.00     0.058 A 
ATOM     40  C   UNL A   1      46.556  33.484  29.809  1.00  0.00     0.135 A 
ATOM     41  C   UNL A   1      46.060  33.849  27.486  1.00  0.00     0.135 A 
ATOM     42  F   UNL A   1      46.648  32.685  30.884  1.00  0.00    -0.206 F 
ATOM     43  C   UNL A   1      46.816  34.841  29.976  1.00  0.00     0.059 A 
ATOM     44  C   UNL A   1      46.348  35.205  27.622  1.00  0.00     0.059 A 
ATOM     45  F   UNL A   1      45.682  33.406  26.276  1.00  0.00    -0.206 F 
ATOM     46  C   UNL A   1      46.697  35.696  28.879  1.00  0.00     0.060 A 
BRANCH  46  47
ATOM     47  S   UNL A   1      46.978  37.461  29.125  1.00  0.00     0.124 S 
ATOM     48  O   UNL A   1      46.983  37.553  30.583  1.00  0.00    -0.237 OA
ATOM     49  O   UNL A   1      48.268  37.668  28.475  1.00  0.00    -0.237 OA
ATOM     50  O   UNL A   1      45.837  38.085  28.462  1.00  0.00    -0.744 OA
ENDBRANCH  46  47
ENDBRANCH  25  39
BRANCH  26  51
ATOM     51  C   UNL A   1      43.254  23.514  27.000  1.00  0.00     0.058 A 
ATOM     52  C   UNL A   1      43.073  23.087  25.678  1.00  0.00     0.135 A 
ATOM     53  C   UNL A   1      43.075  22.570  28.025  1.00  0.00     0.135 A 
ATOM     54  F   UNL A   1      43.229  23.953  24.665  1.00  0.00    -0.206 F 
ATOM     55  C   UNL A   1      42.741  21.769  25.380  1.00  0.00     0.059 A 
ATOM     56  C   UNL A   1      42.770  21.242  27.751  1.00  0.00     0.059 A 
ATOM     57  F   UNL A   1      43.258  22.927  29.307  1.00  0.00    -0.206 F 
ATOM     58  C   UNL A   1      42.606  20.851  26.423  1.00  0.00     0.060 A 
BRANCH  58  59
ATOM     59  S   UNL A   1      42.280  19.122  26.016  1.00  0.00     0.124 S 
ATOM     60  O   UNL A   1      43.154  18.921  24.867  1.00  0.00    -0.237 OA
ATOM     61  O   UNL A   1      42.673  18.441  27.245  1.00  0.00    -0.237 OA
ATOM     62  O   UNL A   1      40.848  19.107  25.731  1.00  0.00    -0.744 OA
ENDBRANCH  58  59
ENDBRANCH  26  51
BRANCH  38  63
ATOM     63  C   UNL A   1      49.397  26.853  26.540  1.00  0.00     0.058 A 
ATOM     64  C   UNL A   1      50.235  26.192  27.449  1.00  0.00     0.135 A 
ATOM     65  C   UNL A   1      49.850  27.002  25.217  1.00  0.00     0.135 A 
ATOM     66  F   UNL A   1      49.856  26.036  28.727  1.00  0.00    -0.206 F 
ATOM     67  C   UNL A   1      51.472  25.685  27.060  1.00  0.00     0.059 A 
ATOM     68  C   UNL A   1      51.070  26.482  24.800  1.00  0.00     0.059 A 
ATOM     69  F   UNL A   1      49.084  27.625  24.307  1.00  0.00    -0.206 F 
ATOM     70  C   UNL A   1      51.874  25.824  25.729  1.00  0.00     0.060 A 
BRANCH  70  71
ATOM     71  S   UNL A   1      53.438  25.081  25.216  1.00  0.00     0.124 S 
ATOM     72  O   UNL A   1      54.367  25.644  26.191  1.00  0.00    -0.237 OA
ATOM     73  O   UNL A   1      53.164  23.654  25.352  1.00  0.00    -0.237 OA
ATOM     74  O   UNL A   1      53.605  25.553  23.845  1.00  0.00    -0.744 OA
ENDBRANCH  70  71
ENDBRANCH  38  63
ENDBRANCH  12  13
ENDBRANCH   5   7
ENDBRANCH   2   3
ENDBRANCH   1   2
BRANCH   1  75
ATOM     75  C   UNL A   1      33.090  29.347  26.119  1.00  0.00     0.118 C 
BRANCH  75  76
ATOM     76  N   UNL A   1      33.694  29.169  24.808  1.00  0.00    -0.352 N 
ATOM     77  C   UNL A   1      33.374  28.277  23.818  1.00  0.00     0.255 C 
ATOM     78  H   UNL A   1      34.442  29.775  24.603  1.00  0.00     0.163 HD
ATOM     79  O   UNL A   1      34.055  28.231  22.795  1.00  0.00    -0.269 OA
BRANCH  77  80
ATOM     80  C   UNL A   1      32.269  27.311  23.993  1.00  0.00     0.082 A 
ATOM     81  C   UNL A   1      32.633  25.965  24.167  1.00  0.00     0.025 A 
ATOM     82  C   UNL A   1      30.919  27.668  23.947  1.00  0.00     0.128 A 
ATOM     83  C   UNL A   1      31.660  24.975  24.345  1.00  0.00    -0.025 A 
ATOM     84  C   UNL A   1      29.940  26.701  24.156  1.00  0.00     0.047 A 
ATOM     85  C   UNL A   1      30.312  25.367  24.358  1.00  0.00     0.012 A 
BRANCH  82  86
ATOM     86  O   UNL A   1      30.546  28.957  23.693  1.00  0.00    -0.507 OA
ATOM     87  H   UNL A   1      30.438  29.562  24.400  1.00  0.00     0.293 HD
ENDBRANCH  82  86
BRANCH  83  88
ATOM     88  C   UNL A   1      31.972  23.541  24.489  1.00  0.00     0.009 C 
ATOM     89  C   UNL A   1      31.926  22.619  23.511  1.00  0.00     0.009 C 
BRANCH  89  90
ATOM     90  C   UNL A   1      32.196  21.194  23.745  1.00  0.00    -0.018 A 
ATOM     91  C   UNL A   1      32.456  20.701  25.032  1.00  0.00     0.054 A 
ATOM     92  C   UNL A   1      32.121  20.300  22.669  1.00  0.00     0.054 A 
ATOM     93  C   UNL A   1      32.656  19.335  25.224  1.00  0.00     0.119 A 
ATOM     94  C   UNL A   1      32.328  18.938  22.885  1.00  0.00     0.119 A 
ATOM     95  C   UNL A   1      32.596  18.449  24.157  1.00  0.00     0.092 A 
BRANCH  93  96
ATOM     96  O   UNL A   1      32.907  18.825  26.466  1.00  0.00    -0.508 OA
ATOM     97  H   UNL A   1      32.340  19.035  27.181  1.00  0.00     0.293 HD
ENDBRANCH  93  96
BRANCH  94  98
ATOM     98  O   UNL A   1      32.267  18.041  21.858  1.00  0.00    -0.508 OA
ATOM     99  H   UNL A   1      32.776  17.255  21.892  1.00  0.00     0.293 HD
ENDBRANCH  94  98
ENDBRANCH  89  90
ENDBRANCH  83  88
ENDBRANCH  77  80
ENDBRANCH  75  76
ENDBRANCH   1  75
TORSDOF 18
ENDMDL
MODEL 3
REMARK VINA RESULT:     -12.2      6.539     12.375
REMARK SMILES O=C(NCCCNC(=O)c1cc(/C=C/c2cc(O)cc(O)c2)ccc1O)c1ccc(-c2c3nc(c(-c4c(F)cc(S(=O)(=O)[O-])cc4F)c4ccc([nH]4)c(-c4c(F)cc(S(=O)(=O)[O-])cc4F)c4nc(c(-c5c(F)cc(S(=O)(=O)[O-])cc5F)c5ccc2[nH]5)C=C4)C=C3)cc1
REMARK SMILES IDX 5 1 4 2 3 3 1 4 2 5 27 7 28 8 92 9 29 10 91 11 30 12 31 13
REMARK SMILES IDX 32 14 85 15 33 16 90 17 84 18 86 19 34 20 89 21 83 22 82 23
REMARK SMILES IDX 35 25 69 26 48 27 68 28 49 29 52 30 67 31 87 32 50 33 51 34
REMARK SMILES IDX 66 36 88 37 53 38 36 39 37 40 46 41 38 42 39 43 45 44 47 45
REMARK SMILES IDX 40 46 41 47 42 48 43 49 44 50 70 51 71 52 80 53 72 54 73 55
REMARK SMILES IDX 79 56 81 57 74 58 75 59 76 60 77 61 78 62 54 63 55 64 64 65
REMARK SMILES IDX 56 66 57 67 63 68 65 69 58 70 59 71 60 72 61 73 62 74 6 75
REMARK SMILES IDX 7 76 8 77 9 79 10 80 11 81 25 82 12 83 24 84 23 85 26 86
REMARK SMILES IDX 13 88 14 89 15 90 16 91 22 92 17 93 20 94 19 95 18 96 21 98
REMARK H PARENT 3 6 86 24 52 35 7 78 26 87 18 97 21 99
REMARK Flexibility Score: inf
ROOT
ATOM      1  C   UNL A   1      34.999  29.984  27.388  1.00  0.00     0.042 C 
ENDROOT
BRANCH   1   2
ATOM      2  C   UNL A   1      35.743  31.001  28.239  1.00  0.00     0.118 C 
BRANCH   2   3
ATOM      3  N   UNL A   1      35.676  30.704  29.664  1.00  0.00    -0.352 N 
ATOM      4  O   UNL A   1      36.230  29.737  31.616  1.00  0.00    -0.269 OA
ATOM      5  C   UNL A   1      36.569  30.052  30.476  1.00  0.00     0.251 C 
ATOM      6  H   UNL A   1      34.860  31.021  30.114  1.00  0.00     0.163 HD
BRANCH   5   7
ATOM      7  C   UNL A   1      37.919  29.704  29.984  1.00  0.00     0.039 A 
ATOM      8  C   UNL A   1      38.920  29.280  30.861  1.00  0.00     0.014 A 
ATOM      9  C   UNL A   1      38.177  29.771  28.613  1.00  0.00     0.014 A 
ATOM     10  C   UNL A   1      40.214  29.071  30.392  1.00  0.00     0.010 A 
ATOM     11  C   UNL A   1      39.453  29.471  28.131  1.00  0.00     0.010 A 
ATOM     12  C   UNL A   1      40.491  29.148  29.020  1.00  0.00    -0.014 A 
BRANCH  12  13
ATOM     13  C   UNL A   1      41.847  28.830  28.511  1.00  0.00     0.031 A 
ATOM     14  C   UNL A   1      42.191  27.441  28.057  1.00  0.00     0.074 A 
ATOM     15  C   UNL A   1      42.784  29.799  28.501  1.00  0.00     0.049 A 
ATOM     16  N   UNL A   1      43.349  26.957  27.684  1.00  0.00    -0.248 NA
ATOM     17  C   UNL A   1      41.094  26.463  28.029  1.00  0.00     0.031 C 
ATOM     18  C   UNL A   1      42.566  31.185  28.921  1.00  0.00     0.029 A 
ATOM     19  N   UNL A   1      44.107  29.764  28.144  1.00  0.00    -0.354 N 
ATOM     20  C   UNL A   1      43.128  25.613  27.405  1.00  0.00     0.074 A 
ATOM     21  C   UNL A   1      41.728  25.354  27.674  1.00  0.00     0.031 C 
ATOM     22  C   UNL A   1      43.711  31.867  28.798  1.00  0.00     0.029 A 
ATOM     23  C   UNL A   1      44.761  30.954  28.358  1.00  0.00     0.049 A 
ATOM     24  H   UNL A   1      44.547  28.966  27.772  1.00  0.00     0.167 HD
ATOM     25  C   UNL A   1      44.013  24.685  26.966  1.00  0.00     0.037 A 
ATOM     26  C   UNL A   1      46.066  31.271  28.258  1.00  0.00     0.037 A 
ATOM     27  C   UNL A   1      45.402  24.963  26.705  1.00  0.00     0.049 A 
ATOM     28  C   UNL A   1      47.039  30.222  27.807  1.00  0.00     0.074 A 
ATOM     29  C   UNL A   1      46.374  24.106  26.219  1.00  0.00     0.029 A 
ATOM     30  N   UNL A   1      46.024  26.186  26.926  1.00  0.00    -0.354 N 
ATOM     31  N   UNL A   1      46.810  28.966  27.509  1.00  0.00    -0.248 NA
ATOM     32  C   UNL A   1      48.444  30.627  27.675  1.00  0.00     0.031 C 
ATOM     33  C   UNL A   1      47.593  24.790  26.203  1.00  0.00     0.029 A 
ATOM     34  C   UNL A   1      47.371  26.096  26.615  1.00  0.00     0.049 A 
ATOM     35  H   UNL A   1      45.574  26.996  27.255  1.00  0.00     0.167 HD
ATOM     36  C   UNL A   1      48.036  28.435  27.128  1.00  0.00     0.074 A 
ATOM     37  C   UNL A   1      49.005  29.507  27.235  1.00  0.00     0.031 C 
ATOM     38  C   UNL A   1      48.326  27.176  26.716  1.00  0.00     0.037 A 
BRANCH  25  39
ATOM     39  C   UNL A   1      43.512  23.276  26.786  1.00  0.00     0.058 A 
ATOM     40  C   UNL A   1      43.182  22.455  27.877  1.00  0.00     0.135 A 
ATOM     41  C   UNL A   1      43.366  22.735  25.497  1.00  0.00     0.135 A 
ATOM     42  F   UNL A   1      43.309  22.915  29.132  1.00  0.00    -0.206 F 
ATOM     43  C   UNL A   1      42.781  21.134  27.699  1.00  0.00     0.059 A 
ATOM     44  C   UNL A   1      42.934  21.427  25.295  1.00  0.00     0.059 A 
ATOM     45  F   UNL A   1      43.657  23.475  24.415  1.00  0.00    -0.206 F 
ATOM     46  C   UNL A   1      42.671  20.626  26.404  1.00  0.00     0.060 A 
BRANCH  46  47
ATOM     47  S   UNL A   1      42.207  18.894  26.193  1.00  0.00     0.124 S 
ATOM     48  O   UNL A   1      42.464  18.361  27.528  1.00  0.00    -0.237 OA
ATOM     49  O   UNL A   1      40.803  18.990  25.810  1.00  0.00    -0.237 OA
ATOM     50  O   UNL A   1      43.110  18.424  25.147  1.00  0.00    -0.744 OA
ENDBRANCH  46  47
ENDBRANCH  25  39
BRANCH  26  51
ATOM     51  C   UNL A   1      46.499  32.646  28.616  1.00  0.00     0.058 A 
ATOM     52  C   UNL A   1      46.903  32.962  29.919  1.00  0.00     0.135 A 
ATOM     53  C   UNL A   1      46.614  33.644  27.634  1.00  0.00     0.135 A 
ATOM     54  F   UNL A   1      46.809  32.043  30.893  1.00  0.00    -0.206 F 
ATOM     55  C   UNL A   1      47.418  34.215  30.237  1.00  0.00     0.059 A 
ATOM     56  C   UNL A   1      47.150  34.894  27.919  1.00  0.00     0.059 A 
ATOM     57  F   UNL A   1      46.259  33.382  26.365  1.00  0.00    -0.206 F 
ATOM     58  C   UNL A   1      47.550  35.170  29.226  1.00  0.00     0.060 A 
BRANCH  58  59
ATOM     59  S   UNL A   1      48.316  36.755  29.629  1.00  0.00     0.124 S 
ATOM     60  O   UNL A   1      48.081  36.838  31.066  1.00  0.00    -0.237 OA
ATOM     61  O   UNL A   1      49.699  36.537  29.218  1.00  0.00    -0.237 OA
ATOM     62  O   UNL A   1      47.570  37.707  28.810  1.00  0.00    -0.744 OA
ENDBRANCH  58  59
ENDBRANCH  26  51
BRANCH  38  63
ATOM     63  C   UNL A   1      49.740  26.882  26.300  1.00  0.00     0.058 A 
ATOM     64  C   UNL A   1      50.672  26.319  27.183  1.00  0.00     0.135 A 
ATOM     65  C   UNL A   1      50.130  27.065  24.962  1.00  0.00     0.135 A 
ATOM     66  F   UNL A   1      50.355  26.135  28.475  1.00  0.00    -0.206 F 
ATOM     67  C   UNL A   1      51.941  25.940  26.754  1.00  0.00     0.059 A 
ATOM     68  C   UNL A   1      51.382  26.671  24.506  1.00  0.00     0.059 A 
ATOM     69  F   UNL A   1      49.272  27.598  24.076  1.00  0.00    -0.206 F 
ATOM     70  C   UNL A   1      52.281  26.108  25.409  1.00  0.00     0.060 A 
BRANCH  70  71
ATOM     71  S   UNL A   1      53.896  25.527  24.846  1.00  0.00     0.124 S 
ATOM     72  O   UNL A   1      53.676  24.088  24.750  1.00  0.00    -0.237 OA
ATOM     73  O   UNL A   1      54.053  26.232  23.577  1.00  0.00    -0.237 OA
ATOM     74  O   UNL A   1      54.800  25.954  25.908  1.00  0.00    -0.744 OA
ENDBRANCH  70  71
ENDBRANCH  38  63
ENDBRANCH  12  13
ENDBRANCH   5   7
ENDBRANCH   2   3
ENDBRANCH   1   2
BRANCH   1  75
ATOM     75  C   UNL A   1      33.611  30.425  26.951  1.00  0.00     0.118 C 
BRANCH  75  76
ATOM     76  N   UNL A   1      32.549  29.662  27.588  1.00  0.00    -0.352 N 
ATOM     77  C   UNL A   1      32.006  28.458  27.223  1.00  0.00     0.255 C 
ATOM     78  H   UNL A   1      32.164  30.071  28.397  1.00  0.00     0.163 HD
ATOM     79  O   UNL A   1      31.055  28.001  27.856  1.00  0.00    -0.269 OA
BRANCH  77  80
ATOM     80  C   UNL A   1      32.494  27.734  26.030  1.00  0.00     0.082 A 
ATOM     81  C   UNL A   1      33.321  26.624  26.263  1.00  0.00     0.025 A 
ATOM     82  C   UNL A   1      32.209  28.130  24.720  1.00  0.00     0.128 A 
ATOM     83  C   UNL A   1      33.830  25.871  25.198  1.00  0.00    -0.025 A 
ATOM     84  C   UNL A   1      32.679  27.372  23.651  1.00  0.00     0.047 A 
ATOM     85  C   UNL A   1      33.479  26.249  23.893  1.00  0.00     0.012 A 
BRANCH  82  86
ATOM     86  O   UNL A   1      31.478  29.257  24.474  1.00  0.00    -0.507 OA
ATOM     87  H   UNL A   1      30.589  29.311  24.762  1.00  0.00     0.293 HD
ENDBRANCH  82  86
BRANCH  83  88
ATOM     88  C   UNL A   1      34.738  24.722  25.373  1.00  0.00     0.009 C 
ATOM     89  C   UNL A   1      35.152  23.886  24.404  1.00  0.00     0.009 C 
BRANCH  89  90
ATOM     90  C   UNL A   1      36.013  22.726  24.666  1.00  0.00    -0.018 A 
ATOM     91  C   UNL A   1      37.367  22.881  25.001  1.00  0.00     0.054 A 
ATOM     92  C   UNL A   1      35.452  21.442  24.651  1.00  0.00     0.054 A 
ATOM     93  C   UNL A   1      38.141  21.759  25.294  1.00  0.00     0.119 A 
ATOM     94  C   UNL A   1      36.247  20.335  24.946  1.00  0.00     0.119 A 
ATOM     95  C   UNL A   1      37.590  20.485  25.266  1.00  0.00     0.092 A 
BRANCH  93  96
ATOM     96  O   UNL A   1      39.460  21.879  25.627  1.00  0.00    -0.508 OA
ATOM     97  H   UNL A   1      39.845  21.282  26.237  1.00  0.00     0.293 HD
ENDBRANCH  93  96
BRANCH  94  98
ATOM     98  O   UNL A   1      35.733  19.071  24.935  1.00  0.00    -0.508 OA
ATOM     99  H   UNL A   1      35.080  18.825  25.560  1.00  0.00     0.293 HD
ENDBRANCH  94  98
ENDBRANCH  89  90
ENDBRANCH  83  88
ENDBRANCH  77  80
ENDBRANCH  75  76
ENDBRANCH   1  75
TORSDOF 18
ENDMDL
