MODEL 1
REMARK VINA RESULT:     -12.5      0.000      0.000
REMARK SMILES O=C(Cc1ccccc1)Nc1cccc(C(=O)Nc2ccccc2C(=O)NCCCNC(=O)c2ccc(-c3c4nc(c(-c5c(F)cc(S(=O)(=O)[O-])cc5F)c5ccc([nH]5)c(-c5c(F)cc(S(=O)(=O)[O-])cc5F)c5nc(c(-c6c(F)cc(S(=O)(=O)[O-])cc6F)c6ccc3[nH]6)C=C5)C=C4)cc2)c1
REMARK SMILES IDX 28 1 27 2 25 3 26 4 24 6 19 7 20 8 21 9 23 10 22 11 18 12
REMARK SMILES IDX 16 13 17 14 15 16 11 17 12 18 100 19 13 20 14 21 10 22 1 23
REMARK SMILES IDX 2 24 3 26 4 27 5 28 9 29 6 30 8 31 7 32 29 33 30 34 31 35
REMARK SMILES IDX 32 36 33 38 34 39 35 40 99 41 36 42 98 43 37 44 38 45 39 46
REMARK SMILES IDX 92 47 40 48 97 49 91 50 93 51 41 52 96 53 90 54 89 55 42 57
REMARK SMILES IDX 76 58 55 59 75 60 56 61 59 62 74 63 94 64 57 65 58 66 73 68
REMARK SMILES IDX 95 69 60 70 43 71 44 72 53 73 45 74 46 75 52 76 54 77 47 78
REMARK SMILES IDX 48 79 49 80 50 81 51 82 77 83 78 84 87 85 79 86 80 87 86 88
REMARK SMILES IDX 88 89 81 90 82 91 83 92 84 93 85 94 61 95 62 96 71 97 63 98
REMARK SMILES IDX 64 99 70 100 72 101 65 102 66 103 67 104 68 105 69 106
REMARK H PARENT 27 5 18 15 10 25 31 37 93 56 59 67
REMARK Flexibility Score: inf
ROOT
ATOM      1  C   UNL A   1      35.968  23.753  25.263  1.00  0.00     0.118 C 
ENDROOT
BRANCH   1   2
ATOM      2  N   UNL A   1      35.325  23.514  26.537  1.00  0.00    -0.352 N 
ATOM      3  C   UNL A   1      34.540  22.470  26.942  1.00  0.00     0.253 C 
ATOM      4  O   UNL A   1      34.072  22.512  28.083  1.00  0.00    -0.269 OA
ATOM      5  H   UNL A   1      35.475  24.210  27.217  1.00  0.00     0.163 HD
BRANCH   3   6
ATOM      6  C   UNL A   1      34.148  21.358  26.031  1.00  0.00     0.063 A 
ATOM      7  C   UNL A   1      32.859  20.852  25.758  1.00  0.00     0.054 A 
ATOM      8  C   UNL A   1      32.767  19.657  25.015  1.00  0.00     0.027 A 
ATOM      9  C   UNL A   1      33.891  19.055  24.441  1.00  0.00     0.002 A 
ATOM     10  C   UNL A   1      35.272  20.744  25.427  1.00  0.00     0.016 A 
ATOM     11  C   UNL A   1      35.144  19.616  24.623  1.00  0.00     0.001 A 
BRANCH   7  12
ATOM     12  N   UNL A   1      31.588  21.398  26.083  1.00  0.00    -0.321 N 
ATOM     13  C   UNL A   1      30.984  22.617  25.839  1.00  0.00     0.255 C 
ATOM     14  O   UNL A   1      29.916  22.886  26.383  1.00  0.00    -0.269 OA
ATOM     15  H   UNL A   1      31.017  20.776  26.590  1.00  0.00     0.170 HD
BRANCH  13  16
ATOM     16  C   UNL A   1      31.575  23.593  24.908  1.00  0.00     0.042 A 
ATOM     17  C   UNL A   1      32.199  25.871  24.528  1.00  0.00     0.041 A 
ATOM     18  C   UNL A   1      32.158  25.639  23.147  1.00  0.00     0.026 A 
ATOM     19  C   UNL A   1      32.023  24.812  25.403  1.00  0.00     0.040 A 
ATOM     20  C   UNL A   1      31.907  24.356  22.652  1.00  0.00     0.003 A 
ATOM     21  C   UNL A   1      31.588  23.329  23.536  1.00  0.00     0.014 A 
BRANCH  17  22
ATOM     22  N   UNL A   1      32.245  27.196  24.986  1.00  0.00    -0.326 N 
ATOM     23  O   UNL A   1      31.080  27.071  27.009  1.00  0.00    -0.274 OA
ATOM     24  C   UNL A   1      31.641  27.710  26.123  1.00  0.00     0.228 C 
ATOM     25  H   UNL A   1      32.764  27.830  24.440  1.00  0.00     0.169 HD
BRANCH  24  26
ATOM     26  C   UNL A   1      31.751  29.217  26.208  1.00  0.00     0.135 C 
BRANCH  26  27
ATOM     27  C   UNL A   1      33.031  29.738  26.825  1.00  0.00    -0.039 A 
ATOM     28  C   UNL A   1      33.072  31.075  27.244  1.00  0.00     0.004 A 
ATOM     29  C   UNL A   1      34.203  28.971  26.933  1.00  0.00     0.004 A 
ATOM     30  C   UNL A   1      34.250  31.626  27.753  1.00  0.00     0.000 A 
ATOM     31  C   UNL A   1      35.382  29.526  27.426  1.00  0.00     0.000 A 
ATOM     32  C   UNL A   1      35.406  30.853  27.836  1.00  0.00     0.000 A 
ENDBRANCH  26  27
ENDBRANCH  24  26
ENDBRANCH  17  22
ENDBRANCH  13  16
ENDBRANCH   7  12
ENDBRANCH   3   6
ENDBRANCH   1   2
BRANCH   1  33
ATOM     33  C   UNL A   1      37.450  23.440  25.262  1.00  0.00     0.042 C 
BRANCH  33  34
ATOM     34  C   UNL A   1      38.258  24.242  26.271  1.00  0.00     0.118 C 
BRANCH  34  35
ATOM     35  N   UNL A   1      39.701  24.220  26.055  1.00  0.00    -0.352 N 
ATOM     36  C   UNL A   1      40.726  24.953  26.616  1.00  0.00     0.251 C 
ATOM     37  H   UNL A   1      39.998  23.561  25.386  1.00  0.00     0.163 HD
ATOM     38  O   UNL A   1      41.873  24.785  26.237  1.00  0.00    -0.269 OA
BRANCH  36  39
ATOM     39  C   UNL A   1      40.426  25.981  27.640  1.00  0.00     0.039 A 
ATOM     40  C   UNL A   1      39.570  25.659  28.697  1.00  0.00     0.014 A 
ATOM     41  C   UNL A   1      41.018  27.238  27.587  1.00  0.00     0.014 A 
ATOM     42  C   UNL A   1      39.415  26.558  29.757  1.00  0.00     0.010 A 
ATOM     43  C   UNL A   1      40.982  28.061  28.703  1.00  0.00     0.010 A 
ATOM     44  C   UNL A   1      40.175  27.737  29.802  1.00  0.00    -0.014 A 
BRANCH  44  45
ATOM     45  C   UNL A   1      40.142  28.658  30.970  1.00  0.00     0.031 A 
ATOM     46  C   UNL A   1      39.151  29.794  31.000  1.00  0.00     0.074 A 
ATOM     47  C   UNL A   1      41.062  28.537  31.949  1.00  0.00     0.049 A 
ATOM     48  N   UNL A   1      39.051  30.784  31.850  1.00  0.00    -0.248 NA
ATOM     49  C   UNL A   1      38.177  29.858  29.897  1.00  0.00     0.031 C 
ATOM     50  C   UNL A   1      42.130  27.534  31.997  1.00  0.00     0.029 A 
ATOM     51  N   UNL A   1      41.256  29.274  33.090  1.00  0.00    -0.354 N 
ATOM     52  C   UNL A   1      38.039  31.601  31.360  1.00  0.00     0.074 A 
ATOM     53  C   UNL A   1      37.603  31.032  30.105  1.00  0.00     0.031 C 
ATOM     54  C   UNL A   1      42.835  27.691  33.129  1.00  0.00     0.029 A 
ATOM     55  C   UNL A   1      42.300  28.829  33.868  1.00  0.00     0.049 A 
ATOM     56  H   UNL A   1      40.698  30.049  33.332  1.00  0.00     0.167 HD
ATOM     57  C   UNL A   1      37.491  32.706  31.921  1.00  0.00     0.037 A 
ATOM     58  C   UNL A   1      42.770  29.285  35.044  1.00  0.00     0.037 A 
ATOM     59  C   UNL A   1      37.878  33.224  33.206  1.00  0.00     0.049 A 
ATOM     60  C   UNL A   1      42.097  30.467  35.687  1.00  0.00     0.074 A 
ATOM     61  C   UNL A   1      37.337  34.288  33.905  1.00  0.00     0.029 A 
ATOM     62  N   UNL A   1      38.891  32.699  33.995  1.00  0.00    -0.354 N 
ATOM     63  N   UNL A   1      41.103  31.195  35.236  1.00  0.00    -0.248 NA
ATOM     64  C   UNL A   1      42.599  30.882  37.004  1.00  0.00     0.031 C 
ATOM     65  C   UNL A   1      38.038  34.420  35.109  1.00  0.00     0.029 A 
ATOM     66  C   UNL A   1      38.992  33.416  35.174  1.00  0.00     0.049 A 
ATOM     67  H   UNL A   1      39.455  31.930  33.751  1.00  0.00     0.167 HD
ATOM     68  C   UNL A   1      40.844  32.138  36.223  1.00  0.00     0.074 A 
ATOM     69  C   UNL A   1      41.777  31.879  37.301  1.00  0.00     0.031 C 
ATOM     70  C   UNL A   1      39.920  33.130  36.238  1.00  0.00     0.037 A 
BRANCH  57  71
ATOM     71  C   UNL A   1      36.399  33.403  31.158  1.00  0.00     0.058 A 
ATOM     72  C   UNL A   1      36.671  34.148  29.999  1.00  0.00     0.135 A 
ATOM     73  C   UNL A   1      35.063  33.325  31.583  1.00  0.00     0.135 A 
ATOM     74  F   UNL A   1      37.933  34.273  29.555  1.00  0.00    -0.206 F 
ATOM     75  C   UNL A   1      35.668  34.823  29.313  1.00  0.00     0.059 A 
ATOM     76  C   UNL A   1      34.037  33.967  30.895  1.00  0.00     0.059 A 
ATOM     77  F   UNL A   1      34.744  32.627  32.686  1.00  0.00    -0.206 F 
ATOM     78  C   UNL A   1      34.353  34.730  29.771  1.00  0.00     0.060 A 
BRANCH  78  79
ATOM     79  S   UNL A   1      33.061  35.616  28.875  1.00  0.00     0.124 S 
ATOM     80  O   UNL A   1      33.849  36.563  28.092  1.00  0.00    -0.237 OA
ATOM     81  O   UNL A   1      32.417  34.550  28.115  1.00  0.00    -0.237 OA
ATOM     82  O   UNL A   1      32.251  36.202  29.938  1.00  0.00    -0.744 OA
ENDBRANCH  78  79
ENDBRANCH  57  71
BRANCH  58  83
ATOM     83  C   UNL A   1      43.901  28.592  35.717  1.00  0.00     0.058 A 
ATOM     84  C   UNL A   1      45.227  28.976  35.466  1.00  0.00     0.135 A 
ATOM     85  C   UNL A   1      43.685  27.549  36.629  1.00  0.00     0.135 A 
ATOM     86  F   UNL A   1      45.485  29.966  34.599  1.00  0.00    -0.206 F 
ATOM     87  C   UNL A   1      46.301  28.338  36.080  1.00  0.00     0.059 A 
ATOM     88  C   UNL A   1      44.742  26.910  37.273  1.00  0.00     0.059 A 
ATOM     89  F   UNL A   1      42.434  27.157  36.919  1.00  0.00    -0.206 F 
ATOM     90  C   UNL A   1      46.047  27.305  36.983  1.00  0.00     0.060 A 
BRANCH  90  91
ATOM     91  S   UNL A   1      47.445  26.514  37.811  1.00  0.00     0.124 S 
ATOM     92  O   UNL A   1      48.432  27.587  37.809  1.00  0.00    -0.237 OA
ATOM     93  O   UNL A   1      46.879  26.170  39.112  1.00  0.00    -0.237 OA
ATOM     94  O   UNL A   1      47.744  25.377  36.946  1.00  0.00    -0.744 OA
ENDBRANCH  90  91
ENDBRANCH  58  83
BRANCH  70  95
ATOM     95  C   UNL A   1      39.847  33.981  37.474  1.00  0.00     0.058 A 
ATOM     96  C   UNL A   1      40.585  35.168  37.594  1.00  0.00     0.135 A 
ATOM     97  C   UNL A   1      38.998  33.622  38.532  1.00  0.00     0.135 A 
ATOM     98  F   UNL A   1      41.414  35.552  36.610  1.00  0.00    -0.206 F 
ATOM     99  C   UNL A   1      40.505  35.957  38.737  1.00  0.00     0.059 A 
ATOM    100  C   UNL A   1      38.883  34.409  39.673  1.00  0.00     0.059 A 
ATOM    101  F   UNL A   1      38.261  32.502  38.459  1.00  0.00    -0.206 F 
ATOM    102  C   UNL A   1      39.653  35.567  39.771  1.00  0.00     0.060 A 
BRANCH 102 103
ATOM    103  S   UNL A   1      39.541  36.608  41.242  1.00  0.00     0.124 S 
ATOM    104  O   UNL A   1      38.696  35.796  42.111  1.00  0.00    -0.237 OA
ATOM    105  O   UNL A   1      40.939  36.727  41.650  1.00  0.00    -0.237 OA
ATOM    106  O   UNL A   1      38.935  37.838  40.743  1.00  0.00    -0.744 OA
ENDBRANCH 102 103
ENDBRANCH  70  95
ENDBRANCH  44  45
ENDBRANCH  36  39
ENDBRANCH  34  35
ENDBRANCH  33  34
ENDBRANCH   1  33
TORSDOF 18
ENDMDL
MODEL 2
REMARK VINA RESULT:     -11.9      1.480      2.421
REMARK SMILES O=C(Cc1ccccc1)Nc1cccc(C(=O)Nc2ccccc2C(=O)NCCCNC(=O)c2ccc(-c3c4nc(c(-c5c(F)cc(S(=O)(=O)[O-])cc5F)c5ccc([nH]5)c(-c5c(F)cc(S(=O)(=O)[O-])cc5F)c5nc(c(-c6c(F)cc(S(=O)(=O)[O-])cc6F)c6ccc3[nH]6)C=C5)C=C4)cc2)c1
REMARK SMILES IDX 28 1 27 2 25 3 26 4 24 6 19 7 20 8 21 9 23 10 22 11 18 12
REMARK SMILES IDX 16 13 17 14 15 16 11 17 12 18 100 19 13 20 14 21 10 22 1 23
REMARK SMILES IDX 2 24 3 26 4 27 5 28 9 29 6 30 8 31 7 32 29 33 30 34 31 35
REMARK SMILES IDX 32 36 33 38 34 39 35 40 99 41 36 42 98 43 37 44 38 45 39 46
REMARK SMILES IDX 92 47 40 48 97 49 91 50 93 51 41 52 96 53 90 54 89 55 42 57
REMARK SMILES IDX 76 58 55 59 75 60 56 61 59 62 74 63 94 64 57 65 58 66 73 68
REMARK SMILES IDX 95 69 60 70 43 71 44 72 53 73 45 74 46 75 52 76 54 77 47 78
REMARK SMILES IDX 48 79 49 80 50 81 51 82 77 83 78 84 87 85 79 86 80 87 86 88
REMARK SMILES IDX 88 89 81 90 82 91 83 92 84 93 85 94 61 95 62 96 71 97 63 98
REMARK SMILES IDX 64 99 70 100 72 101 65 102 66 103 67 104 68 105 69 106
REMARK H PARENT 27 5 18 15 10 25 31 37 93 56 59 67
REMARK Flexibility Score: inf
ROOT
ATOM      1  C   UNL A   1      36.094  23.677  25.488  1.00  0.00     0.118 C 
ENDROOT
BRANCH   1   2
ATOM      2  N   UNL A   1      35.481  23.403  26.770  1.00  0.00    -0.352 N 
ATOM      3  C   UNL A   1      34.508  22.501  27.103  1.00  0.00     0.253 C 
ATOM      4  O   UNL A   1      34.120  22.481  28.274  1.00  0.00    -0.269 OA
ATOM      5  H   UNL A   1      35.815  23.949  27.518  1.00  0.00     0.163 HD
BRANCH   3   6
ATOM      6  C   UNL A   1      33.835  21.636  26.094  1.00  0.00     0.063 A 
ATOM      7  C   UNL A   1      32.461  21.342  25.957  1.00  0.00     0.054 A 
ATOM      8  C   UNL A   1      32.093  20.330  25.047  1.00  0.00     0.027 A 
ATOM      9  C   UNL A   1      33.025  19.723  24.201  1.00  0.00     0.002 A 
ATOM     10  C   UNL A   1      34.761  21.023  25.216  1.00  0.00     0.016 A 
ATOM     11  C   UNL A   1      34.359  20.090  24.265  1.00  0.00     0.001 A 
BRANCH   7  12
ATOM     12  N   UNL A   1      31.341  21.959  26.577  1.00  0.00    -0.321 N 
ATOM     13  C   UNL A   1      30.695  23.168  26.392  1.00  0.00     0.255 C 
ATOM     14  O   UNL A   1      29.832  23.525  27.191  1.00  0.00    -0.269 OA
ATOM     15  H   UNL A   1      30.940  21.410  27.289  1.00  0.00     0.170 HD
BRANCH  13  16
ATOM     16  C   UNL A   1      30.993  24.027  25.234  1.00  0.00     0.042 A 
ATOM     17  C   UNL A   1      30.896  26.226  24.298  1.00  0.00     0.041 A 
ATOM     18  C   UNL A   1      30.984  25.670  23.015  1.00  0.00     0.026 A 
ATOM     19  C   UNL A   1      31.021  25.406  25.406  1.00  0.00     0.040 A 
ATOM     20  C   UNL A   1      31.162  24.293  22.850  1.00  0.00     0.003 A 
ATOM     21  C   UNL A   1      31.141  23.461  23.966  1.00  0.00     0.014 A 
BRANCH  17  22
ATOM     22  N   UNL A   1      30.512  27.569  24.423  1.00  0.00    -0.326 N 
ATOM     23  O   UNL A   1      32.203  28.688  23.258  1.00  0.00    -0.274 OA
ATOM     24  C   UNL A   1      31.204  28.683  23.973  1.00  0.00     0.228 C 
ATOM     25  H   UNL A   1      29.656  27.739  24.879  1.00  0.00     0.169 HD
BRANCH  24  26
ATOM     26  C   UNL A   1      30.582  29.982  24.441  1.00  0.00     0.135 C 
BRANCH  26  27
ATOM     27  C   UNL A   1      29.603  30.614  23.476  1.00  0.00    -0.039 A 
ATOM     28  C   UNL A   1      29.291  29.923  22.296  1.00  0.00     0.004 A 
ATOM     29  C   UNL A   1      29.047  31.889  23.666  1.00  0.00     0.004 A 
ATOM     30  C   UNL A   1      28.450  30.493  21.339  1.00  0.00     0.000 A 
ATOM     31  C   UNL A   1      28.220  32.464  22.703  1.00  0.00     0.000 A 
ATOM     32  C   UNL A   1      27.922  31.766  21.539  1.00  0.00     0.000 A 
ENDBRANCH  26  27
ENDBRANCH  24  26
ENDBRANCH  17  22
ENDBRANCH  13  16
ENDBRANCH   7  12
ENDBRANCH   3   6
ENDBRANCH   1   2
BRANCH   1  33
ATOM     33  C   UNL A   1      37.575  23.365  25.443  1.00  0.00     0.042 C 
BRANCH  33  34
ATOM     34  C   UNL A   1      38.411  24.157  26.439  1.00  0.00     0.118 C 
BRANCH  34  35
ATOM     35  N   UNL A   1      39.838  24.200  26.141  1.00  0.00    -0.352 N 
ATOM     36  C   UNL A   1      40.855  24.996  26.627  1.00  0.00     0.251 C 
ATOM     37  H   UNL A   1      40.130  23.541  25.470  1.00  0.00     0.163 HD
ATOM     38  O   UNL A   1      41.985  24.876  26.187  1.00  0.00    -0.269 OA
BRANCH  36  39
ATOM     39  C   UNL A   1      40.562  26.032  27.645  1.00  0.00     0.039 A 
ATOM     40  C   UNL A   1      39.621  25.759  28.642  1.00  0.00     0.014 A 
ATOM     41  C   UNL A   1      41.240  27.246  27.646  1.00  0.00     0.014 A 
ATOM     42  C   UNL A   1      39.460  26.655  29.703  1.00  0.00     0.010 A 
ATOM     43  C   UNL A   1      41.190  28.058  28.770  1.00  0.00     0.010 A 
ATOM     44  C   UNL A   1      40.295  27.779  29.811  1.00  0.00    -0.014 A 
BRANCH  44  45
ATOM     45  C   UNL A   1      40.250  28.688  30.989  1.00  0.00     0.031 A 
ATOM     46  C   UNL A   1      39.250  29.817  31.026  1.00  0.00     0.074 A 
ATOM     47  C   UNL A   1      41.168  28.566  31.969  1.00  0.00     0.049 A 
ATOM     48  N   UNL A   1      39.140  30.797  31.885  1.00  0.00    -0.248 NA
ATOM     49  C   UNL A   1      38.279  29.883  29.920  1.00  0.00     0.031 C 
ATOM     50  C   UNL A   1      42.244  27.570  32.011  1.00  0.00     0.029 A 
ATOM     51  N   UNL A   1      41.353  29.293  33.118  1.00  0.00    -0.354 N 
ATOM     52  C   UNL A   1      38.122  31.611  31.400  1.00  0.00     0.074 A 
ATOM     53  C   UNL A   1      37.695  31.050  30.138  1.00  0.00     0.031 C 
ATOM     54  C   UNL A   1      42.944  27.722  33.146  1.00  0.00     0.029 A 
ATOM     55  C   UNL A   1      42.398  28.849  33.895  1.00  0.00     0.049 A 
ATOM     56  H   UNL A   1      40.788  30.061  33.365  1.00  0.00     0.167 HD
ATOM     57  C   UNL A   1      37.564  32.706  31.970  1.00  0.00     0.037 A 
ATOM     58  C   UNL A   1      42.861  29.298  35.077  1.00  0.00     0.037 A 
ATOM     59  C   UNL A   1      37.942  33.215  33.261  1.00  0.00     0.049 A 
ATOM     60  C   UNL A   1      42.176  30.468  35.729  1.00  0.00     0.074 A 
ATOM     61  C   UNL A   1      37.391  34.267  33.968  1.00  0.00     0.029 A 
ATOM     62  N   UNL A   1      38.958  32.690  34.048  1.00  0.00    -0.354 N 
ATOM     63  N   UNL A   1      41.178  31.192  35.282  1.00  0.00    -0.248 NA
ATOM     64  C   UNL A   1      42.671  30.874  37.051  1.00  0.00     0.031 C 
ATOM     65  C   UNL A   1      38.087  34.393  35.176  1.00  0.00     0.029 A 
ATOM     66  C   UNL A   1      39.049  33.397  35.234  1.00  0.00     0.049 A 
ATOM     67  H   UNL A   1      39.529  31.928  33.799  1.00  0.00     0.167 HD
ATOM     68  C   UNL A   1      40.909  32.124  36.277  1.00  0.00     0.074 A 
ATOM     69  C   UNL A   1      41.839  31.861  37.356  1.00  0.00     0.031 C 
ATOM     70  C   UNL A   1      39.976  33.108  36.299  1.00  0.00     0.037 A 
BRANCH  57  71
ATOM     71  C   UNL A   1      36.469  33.402  31.210  1.00  0.00     0.058 A 
ATOM     72  C   UNL A   1      35.124  33.307  31.605  1.00  0.00     0.135 A 
ATOM     73  C   UNL A   1      36.762  34.176  30.076  1.00  0.00     0.135 A 
ATOM     74  F   UNL A   1      34.782  32.566  32.671  1.00  0.00    -0.206 F 
ATOM     75  C   UNL A   1      34.107  33.919  30.881  1.00  0.00     0.059 A 
ATOM     76  C   UNL A   1      35.764  34.824  29.354  1.00  0.00     0.059 A 
ATOM     77  F   UNL A   1      38.031  34.301  29.652  1.00  0.00    -0.206 F 
ATOM     78  C   UNL A   1      34.436  34.673  29.753  1.00  0.00     0.060 A 
BRANCH  78  79
ATOM     79  S   UNL A   1      33.106  35.457  28.820  1.00  0.00     0.124 S 
ATOM     80  O   UNL A   1      32.501  34.307  28.155  1.00  0.00    -0.237 OA
ATOM     81  O   UNL A   1      32.303  36.072  29.873  1.00  0.00    -0.237 OA
ATOM     82  O   UNL A   1      33.808  36.390  27.945  1.00  0.00    -0.744 OA
ENDBRANCH  78  79
ENDBRANCH  57  71
BRANCH  58  83
ATOM     83  C   UNL A   1      43.996  28.607  35.746  1.00  0.00     0.058 A 
ATOM     84  C   UNL A   1      43.763  27.569  36.662  1.00  0.00     0.135 A 
ATOM     85  C   UNL A   1      45.328  28.954  35.476  1.00  0.00     0.135 A 
ATOM     86  F   UNL A   1      42.506  27.204  36.954  1.00  0.00    -0.206 F 
ATOM     87  C   UNL A   1      44.810  26.913  37.302  1.00  0.00     0.059 A 
ATOM     88  C   UNL A   1      46.392  28.296  36.088  1.00  0.00     0.059 A 
ATOM     89  F   UNL A   1      45.605  29.926  34.593  1.00  0.00    -0.206 F 
ATOM     90  C   UNL A   1      46.121  27.285  37.008  1.00  0.00     0.060 A 
BRANCH  90  91
ATOM     91  S   UNL A   1      47.475  26.395  37.810  1.00  0.00     0.124 S 
ATOM     92  O   UNL A   1      48.103  27.457  38.588  1.00  0.00    -0.237 OA
ATOM     93  O   UNL A   1      46.764  25.377  38.578  1.00  0.00    -0.237 OA
ATOM     94  O   UNL A   1      48.255  25.889  36.685  1.00  0.00    -0.744 OA
ENDBRANCH  90  91
ENDBRANCH  58  83
BRANCH  70  95
ATOM     95  C   UNL A   1      39.892  33.947  37.542  1.00  0.00     0.058 A 
ATOM     96  C   UNL A   1      40.636  35.127  37.684  1.00  0.00     0.135 A 
ATOM     97  C   UNL A   1      39.027  33.581  38.586  1.00  0.00     0.135 A 
ATOM     98  F   UNL A   1      41.480  35.516  36.716  1.00  0.00    -0.206 F 
ATOM     99  C   UNL A   1      40.547  35.904  38.834  1.00  0.00     0.059 A 
ATOM    100  C   UNL A   1      38.903  34.357  39.733  1.00  0.00     0.059 A 
ATOM    101  F   UNL A   1      38.285  32.467  38.491  1.00  0.00    -0.206 F 
ATOM    102  C   UNL A   1      39.679  35.509  39.854  1.00  0.00     0.060 A 
BRANCH 102 103
ATOM    103  S   UNL A   1      39.554  36.535  41.334  1.00  0.00     0.124 S 
ATOM    104  O   UNL A   1      40.943  36.576  41.779  1.00  0.00    -0.237 OA
ATOM    105  O   UNL A   1      39.022  37.788  40.804  1.00  0.00    -0.237 OA
ATOM    106  O   UNL A   1      38.640  35.786  42.190  1.00  0.00    -0.744 OA
ENDBRANCH 102 103
ENDBRANCH  70  95
ENDBRANCH  44  45
ENDBRANCH  36  39
ENDBRANCH  34  35
ENDBRANCH  33  34
ENDBRANCH   1  33
TORSDOF 18
ENDMDL
MODEL 3
REMARK VINA RESULT:     -11.7      6.224     10.452
REMARK SMILES O=C(Cc1ccccc1)Nc1cccc(C(=O)Nc2ccccc2C(=O)NCCCNC(=O)c2ccc(-c3c4nc(c(-c5c(F)cc(S(=O)(=O)[O-])cc5F)c5ccc([nH]5)c(-c5c(F)cc(S(=O)(=O)[O-])cc5F)c5nc(c(-c6c(F)cc(S(=O)(=O)[O-])cc6F)c6ccc3[nH]6)C=C5)C=C4)cc2)c1
REMARK SMILES IDX 28 1 27 2 25 3 26 4 24 6 19 7 20 8 21 9 23 10 22 11 18 12
REMARK SMILES IDX 16 13 17 14 15 16 11 17 12 18 100 19 13 20 14 21 10 22 1 23
REMARK SMILES IDX 2 24 3 26 4 27 5 28 9 29 6 30 8 31 7 32 29 33 30 34 31 35
REMARK SMILES IDX 32 36 33 38 34 39 35 40 99 41 36 42 98 43 37 44 38 45 39 46
REMARK SMILES IDX 92 47 40 48 97 49 91 50 93 51 41 52 96 53 90 54 89 55 42 57
REMARK SMILES IDX 76 58 55 59 75 60 56 61 59 62 74 63 94 64 57 65 58 66 73 68
REMARK SMILES IDX 95 69 60 70 43 71 44 72 53 73 45 74 46 75 52 76 54 77 47 78
REMARK SMILES IDX 48 79 49 80 50 81 51 82 77 83 78 84 87 85 79 86 80 87 86 88
REMARK SMILES IDX 88 89 81 90 82 91 83 92 84 93 85 94 61 95 62 96 71 97 63 98
REMARK SMILES IDX 64 99 70 100 72 101 65 102 66 103 67 104 68 105 69 106
REMARK H PARENT 27 5 18 15 10 25 31 37 93 56 59 67
REMARK Flexibility Score: inf
ROOT
ATOM      1  C   UNL A   1      37.334  21.400  24.973  1.00  0.00     0.118 C 
ENDROOT
BRANCH   1   2
ATOM      2  N   UNL A   1      36.382  21.875  25.955  1.00  0.00    -0.352 N 
ATOM      3  C   UNL A   1      35.129  21.417  26.256  1.00  0.00     0.253 C 
ATOM      4  O   UNL A   1      34.489  22.021  27.121  1.00  0.00    -0.269 OA
ATOM      5  H   UNL A   1      36.682  22.645  26.489  1.00  0.00     0.163 HD
BRANCH   3   6
ATOM      6  C   UNL A   1      34.479  20.304  25.509  1.00  0.00     0.063 A 
ATOM      7  C   UNL A   1      33.103  20.043  25.331  1.00  0.00     0.054 A 
ATOM      8  C   UNL A   1      32.738  18.809  24.755  1.00  0.00     0.027 A 
ATOM      9  C   UNL A   1      33.689  17.922  24.245  1.00  0.00     0.002 A 
ATOM     10  C   UNL A   1      35.426  19.401  24.969  1.00  0.00     0.016 A 
ATOM     11  C   UNL A   1      35.037  18.231  24.325  1.00  0.00     0.001 A 
BRANCH   7  12
ATOM     12  N   UNL A   1      31.985  20.875  25.606  1.00  0.00    -0.321 N 
ATOM     13  C   UNL A   1      31.634  22.158  25.225  1.00  0.00     0.255 C 
ATOM     14  O   UNL A   1      30.666  22.704  25.748  1.00  0.00    -0.269 OA
ATOM     15  H   UNL A   1      31.319  20.449  26.193  1.00  0.00     0.170 HD
BRANCH  13  16
ATOM     16  C   UNL A   1      32.375  22.875  24.174  1.00  0.00     0.042 A 
ATOM     17  C   UNL A   1      33.191  24.980  23.384  1.00  0.00     0.041 A 
ATOM     18  C   UNL A   1      33.260  24.453  22.088  1.00  0.00     0.026 A 
ATOM     19  C   UNL A   1      32.861  24.149  24.441  1.00  0.00     0.040 A 
ATOM     20  C   UNL A   1      32.965  23.106  21.854  1.00  0.00     0.003 A 
ATOM     21  C   UNL A   1      32.495  22.316  22.899  1.00  0.00     0.014 A 
BRANCH  17  22
ATOM     22  N   UNL A   1      33.289  26.369  23.550  1.00  0.00    -0.326 N 
ATOM     23  O   UNL A   1      31.447  27.152  22.341  1.00  0.00    -0.274 OA
ATOM     24  C   UNL A   1      32.481  27.339  22.978  1.00  0.00     0.228 C 
ATOM     25  H   UNL A   1      34.010  26.690  24.138  1.00  0.00     0.169 HD
BRANCH  24  26
ATOM     26  C   UNL A   1      32.988  28.743  23.232  1.00  0.00     0.135 C 
BRANCH  26  27
ATOM     27  C   UNL A   1      32.943  29.194  24.676  1.00  0.00    -0.039 A 
ATOM     28  C   UNL A   1      34.056  28.937  25.488  1.00  0.00     0.004 A 
ATOM     29  C   UNL A   1      31.816  29.794  25.262  1.00  0.00     0.004 A 
ATOM     30  C   UNL A   1      34.040  29.268  26.844  1.00  0.00     0.000 A 
ATOM     31  C   UNL A   1      31.795  30.108  26.619  1.00  0.00     0.000 A 
ATOM     32  C   UNL A   1      32.906  29.846  27.411  1.00  0.00     0.000 A 
ENDBRANCH  26  27
ENDBRANCH  24  26
ENDBRANCH  17  22
ENDBRANCH  13  16
ENDBRANCH   7  12
ENDBRANCH   3   6
ENDBRANCH   1   2
BRANCH   1  33
ATOM     33  C   UNL A   1      38.777  21.665  25.349  1.00  0.00     0.042 C 
BRANCH  33  34
ATOM     34  C   UNL A   1      39.273  20.852  26.536  1.00  0.00     0.118 C 
BRANCH  34  35
ATOM     35  N   UNL A   1      40.229  19.802  26.200  1.00  0.00    -0.352 N 
ATOM     36  C   UNL A   1      41.603  19.815  26.080  1.00  0.00     0.251 C 
ATOM     37  H   UNL A   1      39.818  18.924  26.028  1.00  0.00     0.163 HD
ATOM     38  O   UNL A   1      42.194  18.804  25.739  1.00  0.00    -0.269 OA
BRANCH  36  39
ATOM     39  C   UNL A   1      42.355  21.070  26.313  1.00  0.00     0.039 A 
ATOM     40  C   UNL A   1      42.676  21.882  25.222  1.00  0.00     0.014 A 
ATOM     41  C   UNL A   1      42.701  21.469  27.599  1.00  0.00     0.014 A 
ATOM     42  C   UNL A   1      43.231  23.147  25.443  1.00  0.00     0.010 A 
ATOM     43  C   UNL A   1      43.109  22.775  27.825  1.00  0.00     0.010 A 
ATOM     44  C   UNL A   1      43.387  23.631  26.751  1.00  0.00    -0.014 A 
BRANCH  44  45
ATOM     45  C   UNL A   1      43.849  25.018  27.033  1.00  0.00     0.031 A 
ATOM     46  C   UNL A   1      45.293  25.386  26.805  1.00  0.00     0.074 A 
ATOM     47  C   UNL A   1      43.002  25.909  27.587  1.00  0.00     0.049 A 
ATOM     48  N   UNL A   1      45.925  26.488  27.117  1.00  0.00    -0.248 NA
ATOM     49  C   UNL A   1      46.155  24.359  26.195  1.00  0.00     0.031 C 
ATOM     50  C   UNL A   1      41.602  25.653  27.938  1.00  0.00     0.029 A 
ATOM     51  N   UNL A   1      43.199  27.214  27.965  1.00  0.00    -0.354 N 
ATOM     52  C   UNL A   1      47.257  26.268  26.781  1.00  0.00     0.074 A 
ATOM     53  C   UNL A   1      47.355  24.906  26.308  1.00  0.00     0.031 C 
ATOM     54  C   UNL A   1      41.058  26.774  28.436  1.00  0.00     0.029 A 
ATOM     55  C   UNL A   1      42.076  27.818  28.480  1.00  0.00     0.049 A 
ATOM     56  H   UNL A   1      44.064  27.676  27.874  1.00  0.00     0.167 HD
ATOM     57  C   UNL A   1      48.299  27.132  26.825  1.00  0.00     0.037 A 
ATOM     58  C   UNL A   1      41.888  29.072  28.935  1.00  0.00     0.037 A 
ATOM     59  C   UNL A   1      48.180  28.508  27.226  1.00  0.00     0.049 A 
ATOM     60  C   UNL A   1      43.041  30.037  28.902  1.00  0.00     0.074 A 
ATOM     61  C   UNL A   1      49.152  29.491  27.232  1.00  0.00     0.029 A 
ATOM     62  N   UNL A   1      47.007  29.100  27.672  1.00  0.00    -0.354 N 
ATOM     63  N   UNL A   1      44.281  29.828  28.529  1.00  0.00    -0.248 NA
ATOM     64  C   UNL A   1      42.768  31.413  29.340  1.00  0.00     0.031 C 
ATOM     65  C   UNL A   1      48.572  30.675  27.703  1.00  0.00     0.029 A 
ATOM     66  C   UNL A   1      47.230  30.436  27.956  1.00  0.00     0.049 A 
ATOM     67  H   UNL A   1      46.143  28.637  27.771  1.00  0.00     0.167 HD
ATOM     68  C   UNL A   1      44.930  31.049  28.662  1.00  0.00     0.074 A 
ATOM     69  C   UNL A   1      43.941  31.996  29.137  1.00  0.00     0.031 C 
ATOM     70  C   UNL A   1      46.226  31.361  28.415  1.00  0.00     0.037 A 
BRANCH  57  71
ATOM     71  C   UNL A   1      49.647  26.615  26.400  1.00  0.00     0.058 A 
ATOM     72  C   UNL A   1      50.123  26.791  25.091  1.00  0.00     0.135 A 
ATOM     73  C   UNL A   1      50.475  25.940  27.311  1.00  0.00     0.135 A 
ATOM     74  F   UNL A   1      49.366  27.413  24.173  1.00  0.00    -0.206 F 
ATOM     75  C   UNL A   1      51.352  26.281  24.688  1.00  0.00     0.059 A 
ATOM     76  C   UNL A   1      51.723  25.449  26.938  1.00  0.00     0.059 A 
ATOM     77  F   UNL A   1      50.071  25.743  28.577  1.00  0.00    -0.206 F 
ATOM     78  C   UNL A   1      52.145  25.607  25.619  1.00  0.00     0.060 A 
BRANCH  78  79
ATOM     79  S   UNL A   1      53.734  24.945  25.080  1.00  0.00     0.124 S 
ATOM     80  O   UNL A   1      53.857  25.530  23.748  1.00  0.00    -0.237 OA
ATOM     81  O   UNL A   1      54.651  25.470  26.088  1.00  0.00    -0.237 OA
ATOM     82  O   UNL A   1      53.531  23.501  25.114  1.00  0.00    -0.744 OA
ENDBRANCH  78  79
ENDBRANCH  57  71
BRANCH  58  83
ATOM     83  C   UNL A   1      40.544  29.502  29.408  1.00  0.00     0.058 A 
ATOM     84  C   UNL A   1      40.298  29.707  30.774  1.00  0.00     0.135 A 
ATOM     85  C   UNL A   1      39.489  29.731  28.512  1.00  0.00     0.135 A 
ATOM     86  F   UNL A   1      41.274  29.498  31.669  1.00  0.00    -0.206 F 
ATOM     87  C   UNL A   1      39.048  30.105  31.238  1.00  0.00     0.059 A 
ATOM     88  C   UNL A   1      38.236  30.151  28.951  1.00  0.00     0.059 A 
ATOM     89  F   UNL A   1      39.679  29.569  27.193  1.00  0.00    -0.206 F 
ATOM     90  C   UNL A   1      38.023  30.324  30.317  1.00  0.00     0.060 A 
BRANCH  90  91
ATOM     91  S   UNL A   1      36.416  30.885  30.926  1.00  0.00     0.124 S 
ATOM     92  O   UNL A   1      35.639  30.940  29.693  1.00  0.00    -0.237 OA
ATOM     93  O   UNL A   1      36.054  29.826  31.862  1.00  0.00    -0.237 OA
ATOM     94  O   UNL A   1      36.723  32.174  31.538  1.00  0.00    -0.744 OA
ENDBRANCH  90  91
ENDBRANCH  58  83
BRANCH  70  95
ATOM     95  C   UNL A   1      46.638  32.792  28.617  1.00  0.00     0.058 A 
ATOM     96  C   UNL A   1      46.544  33.736  27.584  1.00  0.00     0.135 A 
ATOM     97  C   UNL A   1      47.096  33.227  29.870  1.00  0.00     0.135 A 
ATOM     98  F   UNL A   1      46.116  33.368  26.366  1.00  0.00    -0.206 F 
ATOM     99  C   UNL A   1      46.918  35.061  27.780  1.00  0.00     0.059 A 
ATOM    100  C   UNL A   1      47.451  34.552  30.095  1.00  0.00     0.059 A 
ATOM    101  F   UNL A   1      47.191  32.363  30.893  1.00  0.00    -0.206 F 
ATOM    102  C   UNL A   1      47.372  35.459  29.038  1.00  0.00     0.060 A 
BRANCH 102 103
ATOM    103  S   UNL A   1      47.837  37.185  29.289  1.00  0.00     0.124 S 
ATOM    104  O   UNL A   1      48.693  37.429  28.133  1.00  0.00    -0.237 OA
ATOM    105  O   UNL A   1      46.544  37.864  29.273  1.00  0.00    -0.237 OA
ATOM    106  O   UNL A   1      48.513  37.171  30.583  1.00  0.00    -0.744 OA
ENDBRANCH 102 103
ENDBRANCH  70  95
ENDBRANCH  44  45
ENDBRANCH  36  39
ENDBRANCH  34  35
ENDBRANCH  33  34
ENDBRANCH   1  33
TORSDOF 18
ENDMDL
