MODEL 1
REMARK VINA RESULT:     -11.7      0.000      0.000
REMARK SMILES CCOc1cnc(C(=O)c2[nH]c3cc(Cl)ccc3c2CC(=O)NCCCNC(=O)c2ccc(-c3c4nc(c(-c5c(F)cc(S(=O)(=O)[O-])cc5F)c5ccc([nH]5)c(-c5c(F)cc(S(=O)(=O)[O-])cc5F)c5nc(c(-c6c(F)cc(S(=O)(=O)[O-])cc6F)c6ccc3[nH]6)C=C5)C=C4)cc2)cc1CC
REMARK SMILES IDX 24 1 23 2 21 3 22 4 20 6 19 7 10 8 11 9 12 10 18 12 13 13
REMARK SMILES IDX 17 14 14 15 16 16 15 17 8 18 9 19 7 20 4 21 5 22 97 23 6 24
REMARK SMILES IDX 96 25 3 26 2 27 1 28 98 29 99 30 25 31 26 32 27 33 28 34
REMARK SMILES IDX 29 36 30 37 31 38 95 39 32 40 94 41 33 42 34 43 35 44 88 45
REMARK SMILES IDX 36 46 93 47 87 48 89 49 37 50 92 51 86 52 85 53 38 55 72 56
REMARK SMILES IDX 51 57 71 58 52 59 55 60 70 61 90 62 53 63 54 64 69 66 91 67
REMARK SMILES IDX 56 68 39 69 40 70 49 71 41 72 42 73 48 74 50 75 43 76 44 77
REMARK SMILES IDX 45 78 46 79 47 80 73 81 74 82 83 83 75 84 76 85 82 86 84 87
REMARK SMILES IDX 77 88 78 89 79 90 80 91 81 92 57 93 58 94 67 95 59 96 60 97
REMARK SMILES IDX 66 98 68 99 61 100 62 101 63 102 64 103 65 104
REMARK H PARENT 23 5 11 11 27 35 89 54 55 65
REMARK Flexibility Score: inf
ROOT
ATOM      1  C   UNL A   1      37.611  22.282  25.028  1.00  0.00     0.117 C 
ENDROOT
BRANCH   1   2
ATOM      2  N   UNL A   1      36.840  22.783  26.148  1.00  0.00    -0.356 N 
ATOM      3  C   UNL A   1      35.501  23.031  26.240  1.00  0.00     0.224 C 
ATOM      4  O   UNL A   1      35.034  23.256  27.361  1.00  0.00    -0.275 OA
ATOM      5  H   UNL A   1      37.359  22.974  26.963  1.00  0.00     0.163 HD
BRANCH   3   6
ATOM      6  C   UNL A   1      34.590  22.899  25.027  1.00  0.00     0.138 C 
BRANCH   6   7
ATOM      7  C   UNL A   1      33.537  21.837  25.147  1.00  0.00    -0.002 A 
ATOM      8  C   UNL A   1      32.226  21.997  25.585  1.00  0.00     0.093 A 
ATOM      9  N   UNL A   1      31.580  20.798  25.377  1.00  0.00    -0.351 N 
ATOM     10  C   UNL A   1      32.490  19.810  25.086  1.00  0.00     0.048 A 
ATOM     11  H   UNL A   1      30.605  20.668  25.427  1.00  0.00     0.167 HD
ATOM     12  C   UNL A   1      33.729  20.430  24.936  1.00  0.00     0.004 A 
ATOM     13  C   UNL A   1      32.307  18.429  24.939  1.00  0.00     0.047 A 
ATOM     14  C   UNL A   1      34.848  19.628  24.625  1.00  0.00     0.012 A 
ATOM     15  C   UNL A   1      33.436  17.661  24.640  1.00  0.00     0.043 A 
ATOM     16  C   UNL A   1      34.688  18.245  24.483  1.00  0.00     0.021 A 
ATOM     17  Cl  UNL A   1      33.278  15.956  24.468  1.00  0.00    -0.084 Cl
BRANCH   8  18
ATOM     18  C   UNL A   1      31.588  23.182  26.142  1.00  0.00     0.227 C 
ATOM     19  O   UNL A   1      31.377  23.291  27.343  1.00  0.00    -0.285 OA
BRANCH  18  20
ATOM     20  C   UNL A   1      31.172  24.275  25.176  1.00  0.00     0.113 A 
ATOM     21  C   UNL A   1      30.473  26.353  23.511  1.00  0.00     0.140 A 
ATOM     22  C   UNL A   1      30.014  26.245  24.820  1.00  0.00     0.158 A 
ATOM     23  C   UNL A   1      31.357  25.388  23.030  1.00  0.00    -0.002 A 
ATOM     24  N   UNL A   1      30.350  25.238  25.663  1.00  0.00    -0.249 NA
ATOM     25  C   UNL A   1      31.643  24.300  23.862  1.00  0.00     0.040 A 
BRANCH  21  26
ATOM     26  O   UNL A   1      30.143  27.440  22.755  1.00  0.00    -0.492 OA
BRANCH  26  27
ATOM     27  C   UNL A   1      29.164  28.271  23.395  1.00  0.00     0.226 C 
ATOM     28  C   UNL A   1      28.546  29.217  22.378  1.00  0.00     0.049 C 
ENDBRANCH  26  27
ENDBRANCH  21  26
BRANCH  23  29
ATOM     29  C   UNL A   1      32.013  25.482  21.674  1.00  0.00     0.036 C 
ATOM     30  C   UNL A   1      33.275  26.340  21.674  1.00  0.00     0.009 C 
ENDBRANCH  23  29
ENDBRANCH  18  20
ENDBRANCH   8  18
ENDBRANCH   6   7
ENDBRANCH   3   6
ENDBRANCH   1   2
BRANCH   1  31
ATOM     31  C   UNL A   1      38.211  20.902  25.277  1.00  0.00     0.042 C 
BRANCH  31  32
ATOM     32  C   UNL A   1      39.272  20.865  26.377  1.00  0.00     0.118 C 
BRANCH  32  33
ATOM     33  N   UNL A   1      40.249  19.801  26.182  1.00  0.00    -0.352 N 
ATOM     34  C   UNL A   1      41.620  19.843  26.117  1.00  0.00     0.251 C 
ATOM     35  H   UNL A   1      39.862  18.901  26.081  1.00  0.00     0.163 HD
ATOM     36  O   UNL A   1      42.235  18.844  25.752  1.00  0.00    -0.269 OA
BRANCH  34  37
ATOM     37  C   UNL A   1      42.359  21.079  26.456  1.00  0.00     0.039 A 
ATOM     38  C   UNL A   1      42.794  21.910  25.418  1.00  0.00     0.014 A 
ATOM     39  C   UNL A   1      42.652  21.409  27.782  1.00  0.00     0.014 A 
ATOM     40  C   UNL A   1      43.439  23.115  25.713  1.00  0.00     0.010 A 
ATOM     41  C   UNL A   1      43.238  22.638  28.077  1.00  0.00     0.010 A 
ATOM     42  C   UNL A   1      43.620  23.511  27.048  1.00  0.00    -0.014 A 
BRANCH  42  43
ATOM     43  C   UNL A   1      44.141  24.860  27.392  1.00  0.00     0.031 A 
ATOM     44  C   UNL A   1      43.205  25.966  27.791  1.00  0.00     0.074 A 
ATOM     45  C   UNL A   1      45.454  25.113  27.232  1.00  0.00     0.049 A 
ATOM     46  N   UNL A   1      43.464  27.230  28.001  1.00  0.00    -0.248 NA
ATOM     47  C   UNL A   1      41.787  25.605  27.950  1.00  0.00     0.031 C 
ATOM     48  C   UNL A   1      46.454  24.136  26.797  1.00  0.00     0.029 A 
ATOM     49  N   UNL A   1      46.169  26.277  27.381  1.00  0.00    -0.354 N 
ATOM     50  C   UNL A   1      42.244  27.823  28.301  1.00  0.00     0.074 A 
ATOM     51  C   UNL A   1      41.239  26.784  28.207  1.00  0.00     0.031 C 
ATOM     52  C   UNL A   1      47.649  24.740  26.708  1.00  0.00     0.029 A 
ATOM     53  C   UNL A   1      47.493  26.154  27.033  1.00  0.00     0.049 A 
ATOM     54  H   UNL A   1      45.771  27.116  27.706  1.00  0.00     0.167 HD
ATOM     55  C   UNL A   1      41.988  29.111  28.636  1.00  0.00     0.037 A 
ATOM     56  C   UNL A   1      48.470  27.078  26.951  1.00  0.00     0.037 A 
ATOM     57  C   UNL A   1      42.997  30.136  28.733  1.00  0.00     0.049 A 
ATOM     58  C   UNL A   1      48.165  28.505  27.306  1.00  0.00     0.074 A 
ATOM     59  C   UNL A   1      42.854  31.448  29.149  1.00  0.00     0.029 A 
ATOM     60  N   UNL A   1      44.332  29.970  28.391  1.00  0.00    -0.354 N 
ATOM     61  N   UNL A   1      47.023  29.032  27.677  1.00  0.00    -0.248 NA
ATOM     62  C   UNL A   1      49.276  29.464  27.232  1.00  0.00     0.031 C 
ATOM     63  C   UNL A   1      44.090  32.090  29.007  1.00  0.00     0.029 A 
ATOM     64  C   UNL A   1      45.015  31.165  28.546  1.00  0.00     0.049 A 
ATOM     65  H   UNL A   1      44.735  29.125  28.083  1.00  0.00     0.167 HD
ATOM     66  C   UNL A   1      47.275  30.383  27.881  1.00  0.00     0.074 A 
ATOM     67  C   UNL A   1      48.685  30.589  27.614  1.00  0.00     0.031 C 
ATOM     68  C   UNL A   1      46.416  31.363  28.255  1.00  0.00     0.037 A 
BRANCH  55  69
ATOM     69  C   UNL A   1      40.556  29.483  28.905  1.00  0.00     0.058 A 
ATOM     70  C   UNL A   1      40.094  29.757  30.202  1.00  0.00     0.135 A 
ATOM     71  C   UNL A   1      39.630  29.568  27.851  1.00  0.00     0.135 A 
ATOM     72  F   UNL A   1      40.933  29.684  31.247  1.00  0.00    -0.206 F 
ATOM     73  C   UNL A   1      38.758  30.051  30.453  1.00  0.00     0.059 A 
ATOM     74  C   UNL A   1      38.294  29.889  28.076  1.00  0.00     0.059 A 
ATOM     75  F   UNL A   1      40.018  29.323  26.589  1.00  0.00    -0.206 F 
ATOM     76  C   UNL A   1      37.862  30.104  29.383  1.00  0.00     0.060 A 
BRANCH  76  77
ATOM     77  S   UNL A   1      36.124  30.447  29.729  1.00  0.00     0.124 S 
ATOM     78  O   UNL A   1      36.137  31.900  29.866  1.00  0.00    -0.237 OA
ATOM     79  O   UNL A   1      35.458  29.929  28.538  1.00  0.00    -0.237 OA
ATOM     80  O   UNL A   1      35.870  29.703  30.959  1.00  0.00    -0.744 OA
ENDBRANCH  76  77
ENDBRANCH  55  69
BRANCH  56  81
ATOM     81  C   UNL A   1      49.821  26.664  26.493  1.00  0.00     0.058 A 
ATOM     82  C   UNL A   1      50.725  26.050  27.369  1.00  0.00     0.135 A 
ATOM     83  C   UNL A   1      50.202  26.805  25.149  1.00  0.00     0.135 A 
ATOM     84  F   UNL A   1      50.408  25.900  28.665  1.00  0.00    -0.206 F 
ATOM     85  C   UNL A   1      51.959  25.579  26.929  1.00  0.00     0.059 A 
ATOM     86  C   UNL A   1      51.421  26.325  24.681  1.00  0.00     0.059 A 
ATOM     87  F   UNL A   1      49.364  27.372  24.267  1.00  0.00    -0.206 F 
ATOM     88  C   UNL A   1      52.292  25.711  25.579  1.00  0.00     0.060 A 
BRANCH  88  89
ATOM     89  S   UNL A   1      53.852  25.009  24.998  1.00  0.00     0.124 S 
ATOM     90  O   UNL A   1      53.567  23.580  25.043  1.00  0.00    -0.237 OA
ATOM     91  O   UNL A   1      53.974  25.596  23.667  1.00  0.00    -0.237 OA
ATOM     92  O   UNL A   1      54.820  25.492  25.979  1.00  0.00    -0.744 OA
ENDBRANCH  88  89
ENDBRANCH  56  81
BRANCH  68  93
ATOM     93  C   UNL A   1      46.965  32.756  28.385  1.00  0.00     0.058 A 
ATOM     94  C   UNL A   1      46.890  33.671  27.323  1.00  0.00     0.135 A 
ATOM     95  C   UNL A   1      47.504  33.205  29.601  1.00  0.00     0.135 A 
ATOM     96  F   UNL A   1      46.396  33.289  26.135  1.00  0.00    -0.206 F 
ATOM     97  C   UNL A   1      47.336  34.982  27.460  1.00  0.00     0.059 A 
ATOM     98  C   UNL A   1      47.935  34.518  29.768  1.00  0.00     0.059 A 
ATOM     99  F   UNL A   1      47.595  32.371  30.650  1.00  0.00    -0.206 F 
ATOM    100  C   UNL A   1      47.851  35.398  28.689  1.00  0.00     0.060 A 
BRANCH 100 101
ATOM    101  S   UNL A   1      48.370  37.119  28.871  1.00  0.00     0.124 S 
ATOM    102  O   UNL A   1      47.609  37.533  30.046  1.00  0.00    -0.237 OA
ATOM    103  O   UNL A   1      49.811  36.992  29.061  1.00  0.00    -0.237 OA
ATOM    104  O   UNL A   1      47.961  37.732  27.611  1.00  0.00    -0.744 OA
ENDBRANCH 100 101
ENDBRANCH  68  93
ENDBRANCH  42  43
ENDBRANCH  34  37
ENDBRANCH  32  33
ENDBRANCH  31  32
ENDBRANCH   1  31
TORSDOF 19
ENDMDL
MODEL 2
REMARK VINA RESULT:     -11.0      6.136     10.488
REMARK SMILES CCOc1cnc(C(=O)c2[nH]c3cc(Cl)ccc3c2CC(=O)NCCCNC(=O)c2ccc(-c3c4nc(c(-c5c(F)cc(S(=O)(=O)[O-])cc5F)c5ccc([nH]5)c(-c5c(F)cc(S(=O)(=O)[O-])cc5F)c5nc(c(-c6c(F)cc(S(=O)(=O)[O-])cc6F)c6ccc3[nH]6)C=C5)C=C4)cc2)cc1CC
REMARK SMILES IDX 24 1 23 2 21 3 22 4 20 6 19 7 10 8 11 9 12 10 18 12 13 13
REMARK SMILES IDX 17 14 14 15 16 16 15 17 8 18 9 19 7 20 4 21 5 22 97 23 6 24
REMARK SMILES IDX 96 25 3 26 2 27 1 28 98 29 99 30 25 31 26 32 27 33 28 34
REMARK SMILES IDX 29 36 30 37 31 38 95 39 32 40 94 41 33 42 34 43 35 44 88 45
REMARK SMILES IDX 36 46 93 47 87 48 89 49 37 50 92 51 86 52 85 53 38 55 72 56
REMARK SMILES IDX 51 57 71 58 52 59 55 60 70 61 90 62 53 63 54 64 69 66 91 67
REMARK SMILES IDX 56 68 39 69 40 70 49 71 41 72 42 73 48 74 50 75 43 76 44 77
REMARK SMILES IDX 45 78 46 79 47 80 73 81 74 82 83 83 75 84 76 85 82 86 84 87
REMARK SMILES IDX 77 88 78 89 79 90 80 91 81 92 57 93 58 94 67 95 59 96 60 97
REMARK SMILES IDX 66 98 68 99 61 100 62 101 63 102 64 103 65 104
REMARK H PARENT 23 5 11 11 27 35 89 54 55 65
REMARK Flexibility Score: inf
ROOT
ATOM      1  C   UNL A   1      36.372  23.270  25.769  1.00  0.00     0.117 C 
ENDROOT
BRANCH   1   2
ATOM      2  N   UNL A   1      35.616  22.653  26.841  1.00  0.00    -0.356 N 
ATOM      3  C   UNL A   1      34.318  22.852  27.216  1.00  0.00     0.224 C 
ATOM      4  O   UNL A   1      33.826  22.060  28.025  1.00  0.00    -0.275 OA
ATOM      5  H   UNL A   1      36.111  21.994  27.379  1.00  0.00     0.163 HD
BRANCH   3   6
ATOM      6  C   UNL A   1      33.464  23.927  26.556  1.00  0.00     0.138 C 
BRANCH   6   7
ATOM      7  C   UNL A   1      32.547  23.425  25.479  1.00  0.00    -0.002 A 
ATOM      8  C   UNL A   1      31.329  23.972  25.089  1.00  0.00     0.093 A 
ATOM      9  N   UNL A   1      30.919  23.287  23.966  1.00  0.00    -0.351 N 
ATOM     10  C   UNL A   1      31.679  22.155  23.794  1.00  0.00     0.048 A 
ATOM     11  H   UNL A   1      30.186  23.568  23.371  1.00  0.00     0.167 HD
ATOM     12  C   UNL A   1      32.710  22.212  24.729  1.00  0.00     0.004 A 
ATOM     13  C   UNL A   1      31.535  21.101  22.882  1.00  0.00     0.047 A 
ATOM     14  C   UNL A   1      33.648  21.157  24.760  1.00  0.00     0.012 A 
ATOM     15  C   UNL A   1      32.474  20.068  22.943  1.00  0.00     0.043 A 
ATOM     16  C   UNL A   1      33.517  20.091  23.863  1.00  0.00     0.021 A 
ATOM     17  Cl  UNL A   1      32.338  18.736  21.863  1.00  0.00    -0.084 Cl
BRANCH   8  18
ATOM     18  C   UNL A   1      30.589  25.074  25.688  1.00  0.00     0.227 C 
ATOM     19  O   UNL A   1      30.053  24.965  26.783  1.00  0.00    -0.285 OA
BRANCH  18  20
ATOM     20  C   UNL A   1      30.486  26.363  24.895  1.00  0.00     0.113 A 
ATOM     21  C   UNL A   1      30.168  28.719  23.507  1.00  0.00     0.140 A 
ATOM     22  C   UNL A   1      29.347  27.611  23.316  1.00  0.00     0.158 A 
ATOM     23  C   UNL A   1      31.172  28.650  24.471  1.00  0.00    -0.002 A 
ATOM     24  N   UNL A   1      29.476  26.444  23.992  1.00  0.00    -0.249 NA
ATOM     25  C   UNL A   1      31.368  27.423  25.114  1.00  0.00     0.040 A 
BRANCH  21  26
ATOM     26  O   UNL A   1      29.920  29.881  22.834  1.00  0.00    -0.492 OA
BRANCH  26  27
ATOM     27  C   UNL A   1      28.598  29.917  22.279  1.00  0.00     0.226 C 
ATOM     28  C   UNL A   1      28.519  30.994  21.207  1.00  0.00     0.049 C 
ENDBRANCH  26  27
ENDBRANCH  21  26
BRANCH  23  29
ATOM     29  C   UNL A   1      32.030  29.833  24.846  1.00  0.00     0.036 C 
ATOM     30  C   UNL A   1      31.750  30.359  26.251  1.00  0.00     0.009 C 
ENDBRANCH  23  29
ENDBRANCH  18  20
ENDBRANCH   8  18
ENDBRANCH   6   7
ENDBRANCH   3   6
ENDBRANCH   1   2
BRANCH   1  31
ATOM     31  C   UNL A   1      37.860  22.932  25.808  1.00  0.00     0.042 C 
BRANCH  31  32
ATOM     32  C   UNL A   1      38.724  23.973  26.519  1.00  0.00     0.118 C 
BRANCH  32  33
ATOM     33  N   UNL A   1      40.151  23.730  26.352  1.00  0.00    -0.352 N 
ATOM     34  C   UNL A   1      41.240  24.462  26.759  1.00  0.00     0.251 C 
ATOM     35  H   UNL A   1      40.373  22.902  25.866  1.00  0.00     0.163 HD
ATOM     36  O   UNL A   1      42.355  24.164  26.339  1.00  0.00    -0.269 OA
BRANCH  34  37
ATOM     37  C   UNL A   1      41.082  25.613  27.675  1.00  0.00     0.039 A 
ATOM     38  C   UNL A   1      40.024  25.604  28.591  1.00  0.00     0.014 A 
ATOM     39  C   UNL A   1      41.946  26.709  27.619  1.00  0.00     0.014 A 
ATOM     40  C   UNL A   1      39.889  26.650  29.510  1.00  0.00     0.010 A 
ATOM     41  C   UNL A   1      41.849  27.718  28.575  1.00  0.00     0.010 A 
ATOM     42  C   UNL A   1      40.832  27.689  29.541  1.00  0.00    -0.014 A 
BRANCH  42  43
ATOM     43  C   UNL A   1      40.817  28.717  30.614  1.00  0.00     0.031 A 
ATOM     44  C   UNL A   1      41.674  28.562  31.838  1.00  0.00     0.074 A 
ATOM     45  C   UNL A   1      39.938  29.735  30.531  1.00  0.00     0.049 A 
ATOM     46  N   UNL A   1      41.697  29.287  32.927  1.00  0.00    -0.248 NA
ATOM     47  C   UNL A   1      42.611  27.428  31.848  1.00  0.00     0.031 C 
ATOM     48  C   UNL A   1      39.015  29.963  29.418  1.00  0.00     0.029 A 
ATOM     49  N   UNL A   1      39.652  30.749  31.413  1.00  0.00    -0.354 N 
ATOM     50  C   UNL A   1      42.636  28.691  33.759  1.00  0.00     0.074 A 
ATOM     51  C   UNL A   1      43.132  27.522  33.063  1.00  0.00     0.031 C 
ATOM     52  C   UNL A   1      38.261  31.040  29.685  1.00  0.00     0.029 A 
ATOM     53  C   UNL A   1      38.614  31.553  31.005  1.00  0.00     0.049 A 
ATOM     54  H   UNL A   1      40.144  30.887  32.254  1.00  0.00     0.167 HD
ATOM     55  C   UNL A   1      43.054  29.090  34.985  1.00  0.00     0.037 A 
ATOM     56  C   UNL A   1      37.990  32.568  31.633  1.00  0.00     0.037 A 
ATOM     57  C   UNL A   1      42.560  30.260  35.666  1.00  0.00     0.049 A 
ATOM     58  C   UNL A   1      38.453  32.985  32.999  1.00  0.00     0.074 A 
ATOM     59  C   UNL A   1      42.980  30.798  36.870  1.00  0.00     0.029 A 
ATOM     60  N   UNL A   1      41.519  31.061  35.214  1.00  0.00    -0.354 N 
ATOM     61  N   UNL A   1      39.406  32.466  33.736  1.00  0.00    -0.248 NA
ATOM     62  C   UNL A   1      37.758  34.121  33.622  1.00  0.00     0.031 C 
ATOM     63  C   UNL A   1      42.159  31.891  37.172  1.00  0.00     0.029 A 
ATOM     64  C   UNL A   1      41.257  32.064  36.133  1.00  0.00     0.049 A 
ATOM     65  H   UNL A   1      41.039  30.934  34.363  1.00  0.00     0.167 HD
ATOM     66  C   UNL A   1      39.427  33.211  34.909  1.00  0.00     0.074 A 
ATOM     67  C   UNL A   1      38.407  34.231  34.775  1.00  0.00     0.031 C 
ATOM     68  C   UNL A   1      40.222  33.061  35.998  1.00  0.00     0.037 A 
BRANCH  55  69
ATOM     69  C   UNL A   1      44.089  28.241  35.672  1.00  0.00     0.058 A 
ATOM     70  C   UNL A   1      43.733  27.227  36.575  1.00  0.00     0.135 A 
ATOM     71  C   UNL A   1      45.457  28.443  35.424  1.00  0.00     0.135 A 
ATOM     72  F   UNL A   1      42.441  26.995  36.855  1.00  0.00    -0.206 F 
ATOM     73  C   UNL A   1      44.694  26.478  37.246  1.00  0.00     0.059 A 
ATOM     74  C   UNL A   1      46.436  27.687  36.062  1.00  0.00     0.059 A 
ATOM     75  F   UNL A   1      45.855  29.395  34.564  1.00  0.00    -0.206 F 
ATOM     76  C   UNL A   1      46.045  26.723  36.990  1.00  0.00     0.060 A 
BRANCH  76  77
ATOM     77  S   UNL A   1      47.281  25.772  37.898  1.00  0.00     0.124 S 
ATOM     78  O   UNL A   1      46.481  24.657  38.396  1.00  0.00    -0.237 OA
ATOM     79  O   UNL A   1      48.250  25.441  36.858  1.00  0.00    -0.237 OA
ATOM     80  O   UNL A   1      47.752  26.709  38.914  1.00  0.00    -0.744 OA
ENDBRANCH  76  77
ENDBRANCH  55  69
BRANCH  56  81
ATOM     81  C   UNL A   1      36.846  33.239  30.962  1.00  0.00     0.058 A 
ATOM     82  C   UNL A   1      37.055  34.192  29.956  1.00  0.00     0.135 A 
ATOM     83  C   UNL A   1      35.523  32.881  31.263  1.00  0.00     0.135 A 
ATOM     84  F   UNL A   1      38.303  34.572  29.640  1.00  0.00    -0.206 F 
ATOM     85  C   UNL A   1      35.992  34.761  29.262  1.00  0.00     0.059 A 
ATOM     86  C   UNL A   1      34.444  33.420  30.569  1.00  0.00     0.059 A 
ATOM     87  F   UNL A   1      35.272  31.960  32.207  1.00  0.00    -0.206 F 
ATOM     88  C   UNL A   1      34.689  34.358  29.568  1.00  0.00     0.060 A 
BRANCH  88  89
ATOM     89  S   UNL A   1      33.323  35.029  28.595  1.00  0.00     0.124 S 
ATOM     90  O   UNL A   1      34.025  35.911  27.671  1.00  0.00    -0.237 OA
ATOM     91  O   UNL A   1      32.742  33.823  28.013  1.00  0.00    -0.237 OA
ATOM     92  O   UNL A   1      32.495  35.693  29.598  1.00  0.00    -0.744 OA
ENDBRANCH  88  89
ENDBRANCH  56  81
BRANCH  68  93
ATOM     93  C   UNL A   1      40.013  34.011  37.145  1.00  0.00     0.058 A 
ATOM     94  C   UNL A   1      40.666  35.253  37.191  1.00  0.00     0.135 A 
ATOM     95  C   UNL A   1      39.101  33.710  38.168  1.00  0.00     0.135 A 
ATOM     96  F   UNL A   1      41.558  35.583  36.244  1.00  0.00    -0.206 F 
ATOM     97  C   UNL A   1      40.425  36.162  38.215  1.00  0.00     0.059 A 
ATOM     98  C   UNL A   1      38.826  34.615  39.190  1.00  0.00     0.059 A 
ATOM     99  F   UNL A   1      38.446  32.538  38.169  1.00  0.00    -0.206 F 
ATOM    100  C   UNL A   1      39.498  35.837  39.207  1.00  0.00     0.060 A 
BRANCH 100 101
ATOM    101  S   UNL A   1      39.150  37.053  40.497  1.00  0.00     0.124 S 
ATOM    102  O   UNL A   1      40.490  37.533  40.818  1.00  0.00    -0.237 OA
ATOM    103  O   UNL A   1      38.284  38.002  39.806  1.00  0.00    -0.237 OA
ATOM    104  O   UNL A   1      38.499  36.264  41.540  1.00  0.00    -0.744 OA
ENDBRANCH 100 101
ENDBRANCH  68  93
ENDBRANCH  42  43
ENDBRANCH  34  37
ENDBRANCH  32  33
ENDBRANCH  31  32
ENDBRANCH   1  31
TORSDOF 19
ENDMDL
MODEL 3
REMARK VINA RESULT:     -10.8      5.632      9.897
REMARK SMILES CCOc1cnc(C(=O)c2[nH]c3cc(Cl)ccc3c2CC(=O)NCCCNC(=O)c2ccc(-c3c4nc(c(-c5c(F)cc(S(=O)(=O)[O-])cc5F)c5ccc([nH]5)c(-c5c(F)cc(S(=O)(=O)[O-])cc5F)c5nc(c(-c6c(F)cc(S(=O)(=O)[O-])cc6F)c6ccc3[nH]6)C=C5)C=C4)cc2)cc1CC
REMARK SMILES IDX 24 1 23 2 21 3 22 4 20 6 19 7 10 8 11 9 12 10 18 12 13 13
REMARK SMILES IDX 17 14 14 15 16 16 15 17 8 18 9 19 7 20 4 21 5 22 97 23 6 24
REMARK SMILES IDX 96 25 3 26 2 27 1 28 98 29 99 30 25 31 26 32 27 33 28 34
REMARK SMILES IDX 29 36 30 37 31 38 95 39 32 40 94 41 33 42 34 43 35 44 88 45
REMARK SMILES IDX 36 46 93 47 87 48 89 49 37 50 92 51 86 52 85 53 38 55 72 56
REMARK SMILES IDX 51 57 71 58 52 59 55 60 70 61 90 62 53 63 54 64 69 66 91 67
REMARK SMILES IDX 56 68 39 69 40 70 49 71 41 72 42 73 48 74 50 75 43 76 44 77
REMARK SMILES IDX 45 78 46 79 47 80 73 81 74 82 83 83 75 84 76 85 82 86 84 87
REMARK SMILES IDX 77 88 78 89 79 90 80 91 81 92 57 93 58 94 67 95 59 96 60 97
REMARK SMILES IDX 66 98 68 99 61 100 62 101 63 102 64 103 65 104
REMARK H PARENT 23 5 11 11 27 35 89 54 55 65
REMARK Flexibility Score: inf
ROOT
ATOM      1  C   UNL A   1      42.955  24.147  25.293  1.00  0.00     0.117 C 
ENDROOT
BRANCH   1   2
ATOM      2  N   UNL A   1      44.252  24.483  24.741  1.00  0.00    -0.356 N 
ATOM      3  C   UNL A   1      45.331  25.062  25.347  1.00  0.00     0.224 C 
ATOM      4  O   UNL A   1      46.403  25.060  24.734  1.00  0.00    -0.275 OA
ATOM      5  H   UNL A   1      44.374  24.263  23.789  1.00  0.00     0.163 HD
BRANCH   3   6
ATOM      6  C   UNL A   1      45.252  25.567  26.781  1.00  0.00     0.138 C 
BRANCH   6   7
ATOM      7  C   UNL A   1      46.264  26.619  27.131  1.00  0.00    -0.002 A 
ATOM      8  C   UNL A   1      46.106  27.999  27.046  1.00  0.00     0.093 A 
ATOM      9  N   UNL A   1      47.222  28.569  27.619  1.00  0.00    -0.351 N 
ATOM     10  C   UNL A   1      48.198  27.621  27.811  1.00  0.00     0.048 A 
ATOM     11  H   UNL A   1      47.307  29.521  27.859  1.00  0.00     0.167 HD
ATOM     12  C   UNL A   1      47.628  26.385  27.513  1.00  0.00     0.004 A 
ATOM     13  C   UNL A   1      49.527  27.765  28.231  1.00  0.00     0.047 A 
ATOM     14  C   UNL A   1      48.428  25.229  27.636  1.00  0.00     0.012 A 
ATOM     15  C   UNL A   1      50.295  26.603  28.334  1.00  0.00     0.043 A 
ATOM     16  C   UNL A   1      49.760  25.352  28.046  1.00  0.00     0.021 A 
ATOM     17  Cl  UNL A   1      51.941  26.718  28.825  1.00  0.00    -0.084 Cl
BRANCH   8  18
ATOM     18  C   UNL A   1      44.993  28.759  26.494  1.00  0.00     0.227 C 
ATOM     19  O   UNL A   1      44.378  28.371  25.510  1.00  0.00    -0.285 OA
BRANCH  18  20
ATOM     20  C   UNL A   1      44.633  30.067  27.173  1.00  0.00     0.113 A 
ATOM     21  C   UNL A   1      44.081  32.415  28.500  1.00  0.00     0.140 A 
ATOM     22  C   UNL A   1      43.995  31.165  29.105  1.00  0.00     0.158 A 
ATOM     23  C   UNL A   1      44.502  32.489  27.173  1.00  0.00    -0.002 A 
ATOM     24  N   UNL A   1      44.271  29.996  28.479  1.00  0.00    -0.249 NA
ATOM     25  C   UNL A   1      44.706  31.283  26.491  1.00  0.00     0.040 A 
BRANCH  21  26
ATOM     26  O   UNL A   1      43.856  33.548  29.228  1.00  0.00    -0.492 OA
BRANCH  26  27
ATOM     27  C   UNL A   1      42.468  33.907  29.261  1.00  0.00     0.226 C 
ATOM     28  C   UNL A   1      42.325  35.420  29.208  1.00  0.00     0.049 C 
ENDBRANCH  26  27
ENDBRANCH  21  26
BRANCH  23  29
ATOM     29  C   UNL A   1      44.751  33.797  26.464  1.00  0.00     0.036 C 
ATOM     30  C   UNL A   1      43.614  34.201  25.529  1.00  0.00     0.009 C 
ENDBRANCH  23  29
ENDBRANCH  18  20
ENDBRANCH   8  18
ENDBRANCH   6   7
ENDBRANCH   3   6
ENDBRANCH   1   2
BRANCH   1  31
ATOM     31  C   UNL A   1      42.826  22.676  25.679  1.00  0.00     0.042 C 
BRANCH  31  32
ATOM     32  C   UNL A   1      41.655  22.369  26.610  1.00  0.00     0.118 C 
BRANCH  32  33
ATOM     33  N   UNL A   1      40.361  22.490  25.948  1.00  0.00    -0.352 N 
ATOM     34  C   UNL A   1      39.344  23.396  26.124  1.00  0.00     0.251 C 
ATOM     35  H   UNL A   1      40.187  21.807  25.260  1.00  0.00     0.163 HD
ATOM     36  O   UNL A   1      38.258  23.191  25.589  1.00  0.00    -0.269 OA
BRANCH  34  37
ATOM     37  C   UNL A   1      39.535  24.598  26.966  1.00  0.00     0.039 A 
ATOM     38  C   UNL A   1      38.960  24.625  28.241  1.00  0.00     0.014 A 
ATOM     39  C   UNL A   1      40.248  25.705  26.499  1.00  0.00     0.014 A 
ATOM     40  C   UNL A   1      39.178  25.722  29.080  1.00  0.00     0.010 A 
ATOM     41  C   UNL A   1      40.517  26.769  27.358  1.00  0.00     0.010 A 
ATOM     42  C   UNL A   1      40.001  26.779  28.663  1.00  0.00    -0.014 A 
BRANCH  42  43
ATOM     43  C   UNL A   1      40.392  27.871  29.592  1.00  0.00     0.031 A 
ATOM     44  C   UNL A   1      39.526  29.088  29.756  1.00  0.00     0.074 A 
ATOM     45  C   UNL A   1      41.592  27.811  30.201  1.00  0.00     0.049 A 
ATOM     46  N   UNL A   1      39.768  30.189  30.419  1.00  0.00    -0.248 NA
ATOM     47  C   UNL A   1      38.229  29.072  29.062  1.00  0.00     0.031 C 
ATOM     48  C   UNL A   1      42.546  26.707  30.078  1.00  0.00     0.029 A 
ATOM     49  N   UNL A   1      42.231  28.712  31.018  1.00  0.00    -0.354 N 
ATOM     50  C   UNL A   1      38.663  31.006  30.212  1.00  0.00     0.074 A 
ATOM     51  C   UNL A   1      37.769  30.286  29.329  1.00  0.00     0.031 C 
ATOM     52  C   UNL A   1      43.649  26.997  30.784  1.00  0.00     0.029 A 
ATOM     53  C   UNL A   1      43.502  28.324  31.373  1.00  0.00     0.049 A 
ATOM     54  H   UNL A   1      41.819  29.553  31.320  1.00  0.00     0.167 HD
ATOM     55  C   UNL A   1      38.414  32.236  30.722  1.00  0.00     0.037 A 
ATOM     56  C   UNL A   1      44.457  28.973  32.066  1.00  0.00     0.037 A 
ATOM     57  C   UNL A   1      39.307  32.941  31.606  1.00  0.00     0.049 A 
ATOM     58  C   UNL A   1      44.171  30.345  32.607  1.00  0.00     0.074 A 
ATOM     59  C   UNL A   1      39.108  34.152  32.245  1.00  0.00     0.029 A 
ATOM     60  N   UNL A   1      40.578  32.508  31.959  1.00  0.00    -0.354 N 
ATOM     61  N   UNL A   1      43.084  31.067  32.479  1.00  0.00    -0.248 NA
ATOM     62  C   UNL A   1      45.237  30.991  33.385  1.00  0.00     0.031 C 
ATOM     63  C   UNL A   1      40.279  34.478  32.941  1.00  0.00     0.029 A 
ATOM     64  C   UNL A   1      41.191  33.447  32.773  1.00  0.00     0.049 A 
ATOM     65  H   UNL A   1      40.985  31.658  31.672  1.00  0.00     0.167 HD
ATOM     66  C   UNL A   1      43.333  32.253  33.159  1.00  0.00     0.074 A 
ATOM     67  C   UNL A   1      44.666  32.142  33.716  1.00  0.00     0.031 C 
ATOM     68  C   UNL A   1      42.529  33.335  33.305  1.00  0.00     0.037 A 
BRANCH  55  69
ATOM     69  C   UNL A   1      37.126  32.902  30.319  1.00  0.00     0.058 A 
ATOM     70  C   UNL A   1      37.030  33.688  29.159  1.00  0.00     0.135 A 
ATOM     71  C   UNL A   1      35.970  32.754  31.104  1.00  0.00     0.135 A 
ATOM     72  F   UNL A   1      38.105  33.870  28.376  1.00  0.00    -0.206 F 
ATOM     73  C   UNL A   1      35.852  34.343  28.818  1.00  0.00     0.059 A 
ATOM     74  C   UNL A   1      34.772  33.377  30.766  1.00  0.00     0.059 A 
ATOM     75  F   UNL A   1      36.001  32.009  32.220  1.00  0.00    -0.206 F 
ATOM     76  C   UNL A   1      34.729  34.189  29.634  1.00  0.00     0.060 A 
BRANCH  76  77
ATOM     77  S   UNL A   1      33.219  35.078  29.200  1.00  0.00     0.124 S 
ATOM     78  O   UNL A   1      32.645  34.197  28.189  1.00  0.00    -0.237 OA
ATOM     79  O   UNL A   1      32.508  35.129  30.473  1.00  0.00    -0.237 OA
ATOM     80  O   UNL A   1      33.710  36.362  28.708  1.00  0.00    -0.744 OA
ENDBRANCH  76  77
ENDBRANCH  55  69
BRANCH  56  81
ATOM     81  C   UNL A   1      45.777  28.321  32.263  1.00  0.00     0.058 A 
ATOM     82  C   UNL A   1      46.867  28.630  31.439  1.00  0.00     0.135 A 
ATOM     83  C   UNL A   1      45.991  27.432  33.329  1.00  0.00     0.135 A 
ATOM     84  F   UNL A   1      46.709  29.468  30.403  1.00  0.00    -0.206 F 
ATOM     85  C   UNL A   1      48.129  28.090  31.670  1.00  0.00     0.059 A 
ATOM     86  C   UNL A   1      47.247  26.896  33.593  1.00  0.00     0.059 A 
ATOM     87  F   UNL A   1      44.982  27.118  34.156  1.00  0.00    -0.206 F 
ATOM     88  C   UNL A   1      48.311  27.233  32.758  1.00  0.00     0.060 A 
BRANCH  88  89
ATOM     89  S   UNL A   1      49.972  26.615  33.107  1.00  0.00     0.124 S 
ATOM     90  O   UNL A   1      49.739  25.179  33.199  1.00  0.00    -0.237 OA
ATOM     91  O   UNL A   1      50.719  27.069  31.939  1.00  0.00    -0.237 OA
ATOM     92  O   UNL A   1      50.318  27.281  34.360  1.00  0.00    -0.744 OA
ENDBRANCH  88  89
ENDBRANCH  56  81
BRANCH  68  93
ATOM     93  C   UNL A   1      43.068  34.500  34.087  1.00  0.00     0.058 A 
ATOM     94  C   UNL A   1      43.711  35.572  33.448  1.00  0.00     0.135 A 
ATOM     95  C   UNL A   1      42.878  34.582  35.475  1.00  0.00     0.135 A 
ATOM     96  F   UNL A   1      43.930  35.537  32.124  1.00  0.00    -0.206 F 
ATOM     97  C   UNL A   1      44.153  36.683  34.160  1.00  0.00     0.059 A 
ATOM     98  C   UNL A   1      43.290  35.695  36.204  1.00  0.00     0.059 A 
ATOM     99  F   UNL A   1      42.265  33.586  36.135  1.00  0.00    -0.206 F 
ATOM    100  C   UNL A   1      43.930  36.738  35.537  1.00  0.00     0.060 A 
BRANCH 100 101
ATOM    101  S   UNL A   1      44.454  38.214  36.438  1.00  0.00     0.124 S 
ATOM    102  O   UNL A   1      43.607  38.149  37.626  1.00  0.00    -0.237 OA
ATOM    103  O   UNL A   1      45.874  37.959  36.657  1.00  0.00    -0.237 OA
ATOM    104  O   UNL A   1      44.154  39.302  35.512  1.00  0.00    -0.744 OA
ENDBRANCH 100 101
ENDBRANCH  68  93
ENDBRANCH  42  43
ENDBRANCH  34  37
ENDBRANCH  32  33
ENDBRANCH  31  32
ENDBRANCH   1  31
TORSDOF 19
ENDMDL
