MODEL 1
REMARK VINA RESULT:     -10.2      0.000      0.000
REMARK SMILES CN(CCCC(=O)NCCCNC(=O)c1ccc(-c2c3nc(c(-c4c(F)cc(S(=O)(=O)[O-])cc4F)c4ccc([nH]4)c(-c4c(F)cc(S(=O)(=O)[O-])cc4F)c4nc(c(-c5c(F)cc(S(=O)(=O)[O-])cc5F)c5ccc2[nH]5)C=C4)C=C3)cc1)C(=O)c1ccc(Br)o1
REMARK SMILES IDX 9 1 8 2 6 3 7 4 5 6 4 7 3 8 2 9 1 10 81 11 82 12 83 13 84 14
REMARK SMILES IDX 88 15 85 16 86 17 87 18 10 19 11 20 12 21 13 22 14 24 15 25
REMARK SMILES IDX 16 26 80 27 17 28 79 29 18 30 19 31 20 32 73 33 21 34 78 35
REMARK SMILES IDX 72 36 74 37 22 38 77 39 71 40 70 41 23 43 57 44 36 45 56 46
REMARK SMILES IDX 37 47 40 48 55 49 75 50 38 51 39 52 54 54 76 55 41 56 24 57
REMARK SMILES IDX 25 58 34 59 26 60 27 61 33 62 35 63 28 64 29 65 30 66 31 67
REMARK SMILES IDX 32 68 58 69 59 70 68 71 60 72 61 73 67 74 69 75 62 76 63 77
REMARK SMILES IDX 64 78 65 79 66 80 42 81 43 82 52 83 44 84 45 85 51 86 53 87
REMARK SMILES IDX 46 88 47 89 48 90 49 91 50 92
REMARK H PARENT 8 5 12 23 74 42 40 53
REMARK Flexibility Score: inf
ROOT
ATOM      1  C   UNL A   1      46.078  23.910  27.442  1.00  0.00     0.117 C 
ENDROOT
BRANCH   1   2
ATOM      2  N   UNL A   1      46.795  24.442  26.306  1.00  0.00    -0.356 N 
ATOM      3  C   UNL A   1      46.645  24.326  24.968  1.00  0.00     0.220 C 
ATOM      4  O   UNL A   1      47.438  24.991  24.287  1.00  0.00    -0.275 OA
ATOM      5  H   UNL A   1      47.557  25.012  26.561  1.00  0.00     0.163 HD
BRANCH   3   6
ATOM      6  C   UNL A   1      45.528  23.580  24.256  1.00  0.00     0.102 C 
BRANCH   6   7
ATOM      7  C   UNL A   1      45.409  22.077  24.156  1.00  0.00     0.031 C 
BRANCH   7   8
ATOM      8  C   UNL A   1      44.903  21.203  25.295  1.00  0.00     0.120 C 
BRANCH   8   9
ATOM      9  N   UNL A   1      44.141  19.942  25.152  1.00  0.00    -0.339 N 
ATOM     10  C   UNL A   1      44.944  18.872  24.551  1.00  0.00     0.147 C 
BRANCH   9  11
ATOM     11  C   UNL A   1      42.940  19.430  25.714  1.00  0.00     0.289 C 
ATOM     12  O   UNL A   1      42.721  18.216  25.646  1.00  0.00    -0.265 OA
BRANCH  11  13
ATOM     13  C   UNL A   1      41.983  20.242  26.435  1.00  0.00     0.193 A 
ATOM     14  C   UNL A   1      42.001  20.807  27.700  1.00  0.00     0.057 A 
ATOM     15  O   UNL A   1      40.968  20.833  25.716  1.00  0.00    -0.444 OA
ATOM     16  C   UNL A   1      40.849  21.631  27.808  1.00  0.00     0.059 A 
ATOM     17  C   UNL A   1      40.271  21.639  26.561  1.00  0.00     0.170 A 
ATOM     18  Br  UNL A   1      38.749  22.609  26.086  1.00  0.00    -0.008 Br
ENDBRANCH  11  13
ENDBRANCH   9  11
ENDBRANCH   8   9
ENDBRANCH   7   8
ENDBRANCH   6   7
ENDBRANCH   3   6
ENDBRANCH   1   2
BRANCH   1  19
ATOM     19  C   UNL A   1      44.949  24.820  27.885  1.00  0.00     0.042 C 
BRANCH  19  20
ATOM     20  C   UNL A   1      43.608  24.127  27.796  1.00  0.00     0.118 C 
BRANCH  20  21
ATOM     21  N   UNL A   1      42.936  24.398  26.528  1.00  0.00    -0.352 N 
ATOM     22  C   UNL A   1      41.950  25.315  26.249  1.00  0.00     0.251 C 
ATOM     23  H   UNL A   1      43.231  23.848  25.767  1.00  0.00     0.163 HD
ATOM     24  O   UNL A   1      41.366  25.279  25.168  1.00  0.00    -0.269 OA
BRANCH  22  25
ATOM     25  C   UNL A   1      41.572  26.314  27.272  1.00  0.00     0.039 A 
ATOM     26  C   UNL A   1      40.601  25.990  28.222  1.00  0.00     0.014 A 
ATOM     27  C   UNL A   1      42.215  27.551  27.319  1.00  0.00     0.014 A 
ATOM     28  C   UNL A   1      40.335  26.883  29.263  1.00  0.00     0.010 A 
ATOM     29  C   UNL A   1      42.049  28.372  28.425  1.00  0.00     0.010 A 
ATOM     30  C   UNL A   1      41.089  28.061  29.397  1.00  0.00    -0.014 A 
BRANCH  30  31
ATOM     31  C   UNL A   1      40.876  29.002  30.525  1.00  0.00     0.031 A 
ATOM     32  C   UNL A   1      41.706  28.866  31.775  1.00  0.00     0.074 A 
ATOM     33  C   UNL A   1      39.890  29.916  30.460  1.00  0.00     0.049 A 
ATOM     34  N   UNL A   1      41.622  29.529  32.899  1.00  0.00    -0.248 NA
ATOM     35  C   UNL A   1      42.736  27.815  31.777  1.00  0.00     0.031 C 
ATOM     36  C   UNL A   1      38.973  30.095  29.331  1.00  0.00     0.029 A 
ATOM     37  N   UNL A   1      39.482  30.860  31.369  1.00  0.00    -0.354 N 
ATOM     38  C   UNL A   1      42.567  28.958  33.744  1.00  0.00     0.074 A 
ATOM     39  C   UNL A   1      43.157  27.849  33.031  1.00  0.00     0.031 C 
ATOM     40  C   UNL A   1      38.131  31.104  29.603  1.00  0.00     0.029 A 
ATOM     41  C   UNL A   1      38.416  31.614  30.941  1.00  0.00     0.049 A 
ATOM     42  H   UNL A   1      39.912  30.984  32.245  1.00  0.00     0.167 HD
ATOM     43  C   UNL A   1      42.933  29.342  34.989  1.00  0.00     0.037 A 
ATOM     44  C   UNL A   1      37.738  32.601  31.558  1.00  0.00     0.037 A 
ATOM     45  C   UNL A   1      42.356  30.466  35.677  1.00  0.00     0.049 A 
ATOM     46  C   UNL A   1      38.168  33.028  32.934  1.00  0.00     0.074 A 
ATOM     47  C   UNL A   1      42.705  30.996  36.905  1.00  0.00     0.029 A 
ATOM     48  N   UNL A   1      41.300  31.229  35.197  1.00  0.00    -0.354 N 
ATOM     49  N   UNL A   1      39.124  32.537  33.686  1.00  0.00    -0.248 NA
ATOM     50  C   UNL A   1      37.436  34.147  33.542  1.00  0.00     0.031 C 
ATOM     51  C   UNL A   1      41.821  32.041  37.195  1.00  0.00     0.029 A 
ATOM     52  C   UNL A   1      40.961  32.204  36.119  1.00  0.00     0.049 A 
ATOM     53  H   UNL A   1      40.857  31.096  34.327  1.00  0.00     0.167 HD
ATOM     54  C   UNL A   1      39.120  33.295  34.852  1.00  0.00     0.074 A 
ATOM     55  C   UNL A   1      38.077  34.290  34.694  1.00  0.00     0.031 C 
ATOM     56  C   UNL A   1      39.908  33.179  35.951  1.00  0.00     0.037 A 
BRANCH  43  57
ATOM     57  C   UNL A   1      43.995  28.528  35.681  1.00  0.00     0.058 A 
ATOM     58  C   UNL A   1      43.676  27.464  36.543  1.00  0.00     0.135 A 
ATOM     59  C   UNL A   1      45.355  28.827  35.495  1.00  0.00     0.135 A 
ATOM     60  F   UNL A   1      42.393  27.139  36.771  1.00  0.00    -0.206 F 
ATOM     61  C   UNL A   1      44.659  26.768  37.239  1.00  0.00     0.059 A 
ATOM     62  C   UNL A   1      46.358  28.119  36.152  1.00  0.00     0.059 A 
ATOM     63  F   UNL A   1      45.723  29.830  34.682  1.00  0.00    -0.206 F 
ATOM     64  C   UNL A   1      45.998  27.108  37.042  1.00  0.00     0.060 A 
BRANCH  64  65
ATOM     65  S   UNL A   1      47.259  26.221  37.980  1.00  0.00     0.124 S 
ATOM     66  O   UNL A   1      48.333  26.117  36.996  1.00  0.00    -0.237 OA
ATOM     67  O   UNL A   1      47.511  27.126  39.097  1.00  0.00    -0.237 OA
ATOM     68  O   UNL A   1      46.604  24.965  38.329  1.00  0.00    -0.744 OA
ENDBRANCH  64  65
ENDBRANCH  43  57
BRANCH  44  69
ATOM     69  C   UNL A   1      36.603  33.256  30.856  1.00  0.00     0.058 A 
ATOM     70  C   UNL A   1      35.278  33.044  31.264  1.00  0.00     0.135 A 
ATOM     71  C   UNL A   1      36.826  34.167  29.811  1.00  0.00     0.135 A 
ATOM     72  F   UNL A   1      35.011  32.177  32.252  1.00  0.00    -0.206 F 
ATOM     73  C   UNL A   1      34.215  33.717  30.668  1.00  0.00     0.059 A 
ATOM     74  C   UNL A   1      35.783  34.870  29.217  1.00  0.00     0.059 A 
ATOM     75  F   UNL A   1      38.077  34.420  29.394  1.00  0.00    -0.206 F 
ATOM     76  C   UNL A   1      34.480  34.639  29.654  1.00  0.00     0.060 A 
BRANCH  76  77
ATOM     77  S   UNL A   1      33.104  35.584  28.963  1.00  0.00     0.124 S 
ATOM     78  O   UNL A   1      33.804  36.608  28.196  1.00  0.00    -0.237 OA
ATOM     79  O   UNL A   1      32.401  34.570  28.183  1.00  0.00    -0.237 OA
ATOM     80  O   UNL A   1      32.392  36.056  30.146  1.00  0.00    -0.744 OA
ENDBRANCH  76  77
ENDBRANCH  44  69
BRANCH  56  81
ATOM     81  C   UNL A   1      39.682  34.158  37.070  1.00  0.00     0.058 A 
ATOM     82  C   UNL A   1      38.870  33.846  38.171  1.00  0.00     0.135 A 
ATOM     83  C   UNL A   1      40.333  35.403  37.067  1.00  0.00     0.135 A 
ATOM     84  F   UNL A   1      38.220  32.673  38.221  1.00  0.00    -0.206 F 
ATOM     85  C   UNL A   1      38.692  34.743  39.220  1.00  0.00     0.059 A 
ATOM     86  C   UNL A   1      40.195  36.301  38.119  1.00  0.00     0.059 A 
ATOM     87  F   UNL A   1      41.130  35.748  36.043  1.00  0.00    -0.206 F 
ATOM     88  C   UNL A   1      39.362  35.967  39.186  1.00  0.00     0.060 A 
BRANCH  88  89
ATOM     89  S   UNL A   1      39.148  37.106  40.570  1.00  0.00     0.124 S 
ATOM     90  O   UNL A   1      38.571  36.230  41.584  1.00  0.00    -0.237 OA
ATOM     91  O   UNL A   1      40.514  37.554  40.819  1.00  0.00    -0.237 OA
ATOM     92  O   UNL A   1      38.248  38.125  40.036  1.00  0.00    -0.744 OA
ENDBRANCH  88  89
ENDBRANCH  56  81
ENDBRANCH  30  31
ENDBRANCH  22  25
ENDBRANCH  20  21
ENDBRANCH  19  20
ENDBRANCH   1  19
TORSDOF 18
ENDMDL
MODEL 2
REMARK VINA RESULT:     -10.1      0.607      8.463
REMARK SMILES CN(CCCC(=O)NCCCNC(=O)c1ccc(-c2c3nc(c(-c4c(F)cc(S(=O)(=O)[O-])cc4F)c4ccc([nH]4)c(-c4c(F)cc(S(=O)(=O)[O-])cc4F)c4nc(c(-c5c(F)cc(S(=O)(=O)[O-])cc5F)c5ccc2[nH]5)C=C4)C=C3)cc1)C(=O)c1ccc(Br)o1
REMARK SMILES IDX 9 1 8 2 6 3 7 4 5 6 4 7 3 8 2 9 1 10 81 11 82 12 83 13 84 14
REMARK SMILES IDX 88 15 85 16 86 17 87 18 10 19 11 20 12 21 13 22 14 24 15 25
REMARK SMILES IDX 16 26 80 27 17 28 79 29 18 30 19 31 20 32 73 33 21 34 78 35
REMARK SMILES IDX 72 36 74 37 22 38 77 39 71 40 70 41 23 43 57 44 36 45 56 46
REMARK SMILES IDX 37 47 40 48 55 49 75 50 38 51 39 52 54 54 76 55 41 56 24 57
REMARK SMILES IDX 25 58 34 59 26 60 27 61 33 62 35 63 28 64 29 65 30 66 31 67
REMARK SMILES IDX 32 68 58 69 59 70 68 71 60 72 61 73 67 74 69 75 62 76 63 77
REMARK SMILES IDX 64 78 65 79 66 80 42 81 43 82 52 83 44 84 45 85 51 86 53 87
REMARK SMILES IDX 46 88 47 89 48 90 49 91 50 92
REMARK H PARENT 8 5 12 23 74 42 40 53
REMARK Flexibility Score: inf
ROOT
ATOM      1  C   UNL A   1      46.167  24.044  27.227  1.00  0.00     0.117 C 
ENDROOT
BRANCH   1   2
ATOM      2  N   UNL A   1      46.833  24.470  26.017  1.00  0.00    -0.356 N 
ATOM      3  C   UNL A   1      46.692  24.154  24.711  1.00  0.00     0.220 C 
ATOM      4  O   UNL A   1      47.423  24.782  23.933  1.00  0.00    -0.275 OA
ATOM      5  H   UNL A   1      47.541  25.134  26.179  1.00  0.00     0.163 HD
BRANCH   3   6
ATOM      6  C   UNL A   1      45.644  23.220  24.126  1.00  0.00     0.102 C 
BRANCH   6   7
ATOM      7  C   UNL A   1      45.554  21.734  24.392  1.00  0.00     0.031 C 
BRANCH   7   8
ATOM      8  C   UNL A   1      44.671  21.133  25.476  1.00  0.00     0.120 C 
BRANCH   8   9
ATOM      9  N   UNL A   1      43.702  20.028  25.294  1.00  0.00    -0.339 N 
ATOM     10  C   UNL A   1      44.307  18.858  24.650  1.00  0.00     0.147 C 
BRANCH   9  11
ATOM     11  C   UNL A   1      42.431  19.712  25.847  1.00  0.00     0.289 C 
ATOM     12  O   UNL A   1      42.017  18.551  25.761  1.00  0.00    -0.265 OA
BRANCH  11  13
ATOM     13  C   UNL A   1      41.617  20.659  26.579  1.00  0.00     0.193 A 
ATOM     14  C   UNL A   1      41.745  21.228  27.835  1.00  0.00     0.057 A 
ATOM     15  O   UNL A   1      40.680  21.382  25.875  1.00  0.00    -0.444 OA
ATOM     16  C   UNL A   1      40.726  22.209  27.958  1.00  0.00     0.059 A 
ATOM     17  C   UNL A   1      40.124  22.287  26.725  1.00  0.00     0.170 A 
ATOM     18  Br  UNL A   1      38.745  23.460  26.272  1.00  0.00    -0.008 Br
ENDBRANCH  11  13
ENDBRANCH   9  11
ENDBRANCH   8   9
ENDBRANCH   7   8
ENDBRANCH   6   7
ENDBRANCH   3   6
ENDBRANCH   1   2
BRANCH   1  19
ATOM     19  C   UNL A   1      45.018  24.960  27.602  1.00  0.00     0.042 C 
BRANCH  19  20
ATOM     20  C   UNL A   1      43.683  24.263  27.464  1.00  0.00     0.118 C 
BRANCH  20  21
ATOM     21  N   UNL A   1      42.986  24.655  26.242  1.00  0.00    -0.352 N 
ATOM     22  C   UNL A   1      41.983  25.581  26.076  1.00  0.00     0.251 C 
ATOM     23  H   UNL A   1      43.275  24.192  25.423  1.00  0.00     0.163 HD
ATOM     24  O   UNL A   1      41.381  25.650  25.006  1.00  0.00    -0.269 OA
BRANCH  22  25
ATOM     25  C   UNL A   1      41.609  26.461  27.203  1.00  0.00     0.039 A 
ATOM     26  C   UNL A   1      40.688  26.010  28.151  1.00  0.00     0.014 A 
ATOM     27  C   UNL A   1      42.207  27.713  27.348  1.00  0.00     0.014 A 
ATOM     28  C   UNL A   1      40.430  26.788  29.282  1.00  0.00     0.010 A 
ATOM     29  C   UNL A   1      42.055  28.417  28.533  1.00  0.00     0.010 A 
ATOM     30  C   UNL A   1      41.145  27.976  29.504  1.00  0.00    -0.014 A 
BRANCH  30  31
ATOM     31  C   UNL A   1      40.942  28.796  30.724  1.00  0.00     0.031 A 
ATOM     32  C   UNL A   1      39.837  29.819  30.759  1.00  0.00     0.074 A 
ATOM     33  C   UNL A   1      41.795  28.682  31.760  1.00  0.00     0.049 A 
ATOM     34  N   UNL A   1      39.545  30.690  31.691  1.00  0.00    -0.248 NA
ATOM     35  C   UNL A   1      38.974  29.905  29.570  1.00  0.00     0.031 C 
ATOM     36  C   UNL A   1      42.947  27.778  31.812  1.00  0.00     0.029 A 
ATOM     37  N   UNL A   1      41.836  29.339  32.964  1.00  0.00    -0.354 N 
ATOM     38  C   UNL A   1      38.487  31.438  31.188  1.00  0.00     0.074 A 
ATOM     39  C   UNL A   1      38.239  30.972  29.844  1.00  0.00     0.031 C 
ATOM     40  C   UNL A   1      43.563  27.918  32.997  1.00  0.00     0.029 A 
ATOM     41  C   UNL A   1      42.880  28.951  33.769  1.00  0.00     0.049 A 
ATOM     42  H   UNL A   1      41.181  30.025  33.224  1.00  0.00     0.167 HD
ATOM     43  C   UNL A   1      37.765  32.405  31.801  1.00  0.00     0.037 A 
ATOM     44  C   UNL A   1      43.251  29.384  34.989  1.00  0.00     0.037 A 
ATOM     45  C   UNL A   1      38.005  32.840  33.152  1.00  0.00     0.049 A 
ATOM     46  C   UNL A   1      42.429  30.445  35.666  1.00  0.00     0.074 A 
ATOM     47  C   UNL A   1      37.287  33.752  33.903  1.00  0.00     0.029 A 
ATOM     48  N   UNL A   1      39.052  32.399  33.951  1.00  0.00    -0.354 N 
ATOM     49  N   UNL A   1      41.375  31.082  35.213  1.00  0.00    -0.248 NA
ATOM     50  C   UNL A   1      42.838  30.842  37.019  1.00  0.00     0.031 C 
ATOM     51  C   UNL A   1      37.934  33.907  35.134  1.00  0.00     0.029 A 
ATOM     52  C   UNL A   1      39.020  33.045  35.175  1.00  0.00     0.049 A 
ATOM     53  H   UNL A   1      39.719  31.725  33.685  1.00  0.00     0.167 HD
ATOM     54  C   UNL A   1      40.984  31.946  36.230  1.00  0.00     0.074 A 
ATOM     55  C   UNL A   1      41.906  31.734  37.329  1.00  0.00     0.031 C 
ATOM     56  C   UNL A   1      39.956  32.831  36.253  1.00  0.00     0.037 A 
BRANCH  43  57
ATOM     57  C   UNL A   1      36.663  33.057  31.007  1.00  0.00     0.058 A 
ATOM     58  C   UNL A   1      36.930  33.979  29.980  1.00  0.00     0.135 A 
ATOM     59  C   UNL A   1      35.317  32.771  31.289  1.00  0.00     0.135 A 
ATOM     60  F   UNL A   1      38.197  34.302  29.673  1.00  0.00    -0.206 F 
ATOM     61  C   UNL A   1      35.907  34.635  29.304  1.00  0.00     0.059 A 
ATOM     62  C   UNL A   1      34.277  33.388  30.600  1.00  0.00     0.059 A 
ATOM     63  F   UNL A   1      34.999  31.897  32.257  1.00  0.00    -0.206 F 
ATOM     64  C   UNL A   1      34.583  34.338  29.627  1.00  0.00     0.060 A 
BRANCH  64  65
ATOM     65  S   UNL A   1      33.267  35.225  28.767  1.00  0.00     0.124 S 
ATOM     66  O   UNL A   1      34.032  36.186  27.978  1.00  0.00    -0.237 OA
ATOM     67  O   UNL A   1      32.615  34.161  28.010  1.00  0.00    -0.237 OA
ATOM     68  O   UNL A   1      32.474  35.795  29.852  1.00  0.00    -0.744 OA
ENDBRANCH  64  65
ENDBRANCH  43  57
BRANCH  44  69
ATOM     69  C   UNL A   1      44.444  28.785  35.644  1.00  0.00     0.058 A 
ATOM     70  C   UNL A   1      44.327  27.665  36.479  1.00  0.00     0.135 A 
ATOM     71  C   UNL A   1      45.735  29.276  35.387  1.00  0.00     0.135 A 
ATOM     72  F   UNL A   1      43.116  27.163  36.762  1.00  0.00    -0.206 F 
ATOM     73  C   UNL A   1      45.446  27.045  37.029  1.00  0.00     0.059 A 
ATOM     74  C   UNL A   1      46.869  28.659  35.905  1.00  0.00     0.059 A 
ATOM     75  F   UNL A   1      45.903  30.335  34.581  1.00  0.00    -0.206 F 
ATOM     76  C   UNL A   1      46.714  27.542  36.724  1.00  0.00     0.060 A 
BRANCH  76  77
ATOM     77  S   UNL A   1      48.162  26.666  37.357  1.00  0.00     0.124 S 
ATOM     78  O   UNL A   1      48.571  27.529  38.459  1.00  0.00    -0.237 OA
ATOM     79  O   UNL A   1      47.596  25.374  37.731  1.00  0.00    -0.237 OA
ATOM     80  O   UNL A   1      49.064  26.635  36.209  1.00  0.00    -0.744 OA
ENDBRANCH  76  77
ENDBRANCH  44  69
BRANCH  56  81
ATOM     81  C   UNL A   1      39.764  33.634  37.510  1.00  0.00     0.058 A 
ATOM     82  C   UNL A   1      40.419  34.860  37.711  1.00  0.00     0.135 A 
ATOM     83  C   UNL A   1      38.868  33.200  38.501  1.00  0.00     0.135 A 
ATOM     84  F   UNL A   1      41.290  35.317  36.799  1.00  0.00    -0.206 F 
ATOM     85  C   UNL A   1      40.212  35.615  38.860  1.00  0.00     0.059 A 
ATOM     86  C   UNL A   1      38.621  33.955  39.643  1.00  0.00     0.059 A 
ATOM     87  F   UNL A   1      38.206  32.042  38.355  1.00  0.00    -0.206 F 
ATOM     88  C   UNL A   1      39.307  35.155  39.820  1.00  0.00     0.060 A 
BRANCH  88  89
ATOM     89  S   UNL A   1      39.022  36.162  41.290  1.00  0.00     0.124 S 
ATOM     90  O   UNL A   1      37.792  35.576  41.814  1.00  0.00    -0.237 OA
ATOM     91  O   UNL A   1      40.227  35.915  42.075  1.00  0.00    -0.237 OA
ATOM     92  O   UNL A   1      38.894  37.516  40.756  1.00  0.00    -0.744 OA
ENDBRANCH  88  89
ENDBRANCH  56  81
ENDBRANCH  30  31
ENDBRANCH  22  25
ENDBRANCH  20  21
ENDBRANCH  19  20
ENDBRANCH   1  19
TORSDOF 18
ENDMDL
MODEL 3
REMARK VINA RESULT:     -10.0      3.099      4.365
REMARK SMILES CN(CCCC(=O)NCCCNC(=O)c1ccc(-c2c3nc(c(-c4c(F)cc(S(=O)(=O)[O-])cc4F)c4ccc([nH]4)c(-c4c(F)cc(S(=O)(=O)[O-])cc4F)c4nc(c(-c5c(F)cc(S(=O)(=O)[O-])cc5F)c5ccc2[nH]5)C=C4)C=C3)cc1)C(=O)c1ccc(Br)o1
REMARK SMILES IDX 9 1 8 2 6 3 7 4 5 6 4 7 3 8 2 9 1 10 81 11 82 12 83 13 84 14
REMARK SMILES IDX 88 15 85 16 86 17 87 18 10 19 11 20 12 21 13 22 14 24 15 25
REMARK SMILES IDX 16 26 80 27 17 28 79 29 18 30 19 31 20 32 73 33 21 34 78 35
REMARK SMILES IDX 72 36 74 37 22 38 77 39 71 40 70 41 23 43 57 44 36 45 56 46
REMARK SMILES IDX 37 47 40 48 55 49 75 50 38 51 39 52 54 54 76 55 41 56 24 57
REMARK SMILES IDX 25 58 34 59 26 60 27 61 33 62 35 63 28 64 29 65 30 66 31 67
REMARK SMILES IDX 32 68 58 69 59 70 68 71 60 72 61 73 67 74 69 75 62 76 63 77
REMARK SMILES IDX 64 78 65 79 66 80 42 81 43 82 52 83 44 84 45 85 51 86 53 87
REMARK SMILES IDX 46 88 47 89 48 90 49 91 50 92
REMARK H PARENT 8 5 12 23 74 42 40 53
REMARK Flexibility Score: inf
ROOT
ATOM      1  C   UNL A   1      39.260  21.660  26.143  1.00  0.00     0.117 C 
ENDROOT
BRANCH   1   2
ATOM      2  N   UNL A   1      38.236  22.671  26.278  1.00  0.00    -0.356 N 
ATOM      3  C   UNL A   1      37.177  23.035  25.523  1.00  0.00     0.220 C 
ATOM      4  O   UNL A   1      36.469  23.933  26.001  1.00  0.00    -0.275 OA
ATOM      5  H   UNL A   1      38.329  23.209  27.097  1.00  0.00     0.163 HD
BRANCH   3   6
ATOM      6  C   UNL A   1      36.718  22.358  24.241  1.00  0.00     0.102 C 
BRANCH   6   7
ATOM      7  C   UNL A   1      35.772  22.960  23.227  1.00  0.00     0.031 C 
BRANCH   7   8
ATOM      8  C   UNL A   1      34.265  22.752  23.264  1.00  0.00     0.120 C 
BRANCH   8   9
ATOM      9  N   UNL A   1      33.448  22.528  24.478  1.00  0.00    -0.339 N 
ATOM     10  C   UNL A   1      32.806  23.759  24.951  1.00  0.00     0.147 C 
BRANCH   9  11
ATOM     11  C   UNL A   1      32.900  21.383  25.118  1.00  0.00     0.289 C 
ATOM     12  O   UNL A   1      31.925  21.528  25.863  1.00  0.00    -0.265 OA
BRANCH  11  13
ATOM     13  C   UNL A   1      33.371  20.034  24.887  1.00  0.00     0.193 A 
ATOM     14  C   UNL A   1      34.626  19.516  24.615  1.00  0.00     0.057 A 
ATOM     15  O   UNL A   1      32.547  18.993  25.254  1.00  0.00    -0.444 OA
ATOM     16  C   UNL A   1      34.511  18.101  24.640  1.00  0.00     0.059 A 
ATOM     17  C   UNL A   1      33.232  17.832  25.066  1.00  0.00     0.170 A 
ATOM     18  Br  UNL A   1      32.526  16.128  25.349  1.00  0.00    -0.008 Br
ENDBRANCH  11  13
ENDBRANCH   9  11
ENDBRANCH   8   9
ENDBRANCH   7   8
ENDBRANCH   6   7
ENDBRANCH   3   6
ENDBRANCH   1   2
BRANCH   1  19
ATOM     19  C   UNL A   1      40.386  21.848  27.141  1.00  0.00     0.042 C 
BRANCH  19  20
ATOM     20  C   UNL A   1      40.659  23.312  27.403  1.00  0.00     0.118 C 
BRANCH  20  21
ATOM     21  N   UNL A   1      41.326  23.955  26.274  1.00  0.00    -0.352 N 
ATOM     22  C   UNL A   1      41.513  25.294  26.025  1.00  0.00     0.251 C 
ATOM     23  H   UNL A   1      41.694  23.343  25.597  1.00  0.00     0.163 HD
ATOM     24  O   UNL A   1      41.934  25.663  24.931  1.00  0.00    -0.269 OA
BRANCH  22  25
ATOM     25  C   UNL A   1      41.167  26.284  27.068  1.00  0.00     0.039 A 
ATOM     26  C   UNL A   1      40.188  25.971  28.013  1.00  0.00     0.014 A 
ATOM     27  C   UNL A   1      41.845  27.501  27.138  1.00  0.00     0.014 A 
ATOM     28  C   UNL A   1      39.949  26.852  29.071  1.00  0.00     0.010 A 
ATOM     29  C   UNL A   1      41.705  28.305  28.259  1.00  0.00     0.010 A 
ATOM     30  C   UNL A   1      40.738  28.004  29.227  1.00  0.00    -0.014 A 
BRANCH  30  31
ATOM     31  C   UNL A   1      40.555  28.929  30.373  1.00  0.00     0.031 A 
ATOM     32  C   UNL A   1      41.386  28.748  31.616  1.00  0.00     0.074 A 
ATOM     33  C   UNL A   1      39.593  29.870  30.329  1.00  0.00     0.049 A 
ATOM     34  N   UNL A   1      41.324  29.392  32.753  1.00  0.00    -0.248 NA
ATOM     35  C   UNL A   1      42.388  27.670  31.594  1.00  0.00     0.031 C 
ATOM     36  C   UNL A   1      38.676  30.094  29.208  1.00  0.00     0.029 A 
ATOM     37  N   UNL A   1      39.214  30.808  31.257  1.00  0.00    -0.354 N 
ATOM     38  C   UNL A   1      42.257  28.781  33.583  1.00  0.00     0.074 A 
ATOM     39  C   UNL A   1      42.814  27.670  32.847  1.00  0.00     0.031 C 
ATOM     40  C   UNL A   1      37.862  31.120  29.503  1.00  0.00     0.029 A 
ATOM     41  C   UNL A   1      38.167  31.597  30.847  1.00  0.00     0.049 A 
ATOM     42  H   UNL A   1      39.651  30.904  32.133  1.00  0.00     0.167 HD
ATOM     43  C   UNL A   1      42.638  29.132  34.834  1.00  0.00     0.037 A 
ATOM     44  C   UNL A   1      37.517  32.590  31.486  1.00  0.00     0.037 A 
ATOM     45  C   UNL A   1      42.093  30.258  35.544  1.00  0.00     0.049 A 
ATOM     46  C   UNL A   1      37.964  32.980  32.868  1.00  0.00     0.074 A 
ATOM     47  C   UNL A   1      42.461  30.756  36.780  1.00  0.00     0.029 A 
ATOM     48  N   UNL A   1      41.056  31.057  35.083  1.00  0.00    -0.354 N 
ATOM     49  N   UNL A   1      38.910  32.450  33.606  1.00  0.00    -0.248 NA
ATOM     50  C   UNL A   1      37.265  34.107  33.500  1.00  0.00     0.031 C 
ATOM     51  C   UNL A   1      41.606  31.818  37.093  1.00  0.00     0.029 A 
ATOM     52  C   UNL A   1      40.746  32.024  36.025  1.00  0.00     0.049 A 
ATOM     53  H   UNL A   1      40.606  30.952  34.213  1.00  0.00     0.167 HD
ATOM     54  C   UNL A   1      38.930  33.186  34.786  1.00  0.00     0.074 A 
ATOM     55  C   UNL A   1      37.914  34.211  34.651  1.00  0.00     0.031 C 
ATOM     56  C   UNL A   1      39.720  33.029  35.879  1.00  0.00     0.037 A 
BRANCH  43  57
ATOM     57  C   UNL A   1      43.681  28.277  35.505  1.00  0.00     0.058 A 
ATOM     58  C   UNL A   1      43.338  27.210  36.352  1.00  0.00     0.135 A 
ATOM     59  C   UNL A   1      45.048  28.541  35.316  1.00  0.00     0.135 A 
ATOM     60  F   UNL A   1      42.047  26.917  36.583  1.00  0.00    -0.206 F 
ATOM     61  C   UNL A   1      44.305  26.475  37.030  1.00  0.00     0.059 A 
ATOM     62  C   UNL A   1      46.034  27.795  35.955  1.00  0.00     0.059 A 
ATOM     63  F   UNL A   1      45.438  29.546  34.516  1.00  0.00    -0.206 F 
ATOM     64  C   UNL A   1      45.651  26.781  36.831  1.00  0.00     0.060 A 
BRANCH  64  65
ATOM     65  S   UNL A   1      46.893  25.844  37.746  1.00  0.00     0.124 S 
ATOM     66  O   UNL A   1      48.103  26.149  36.988  1.00  0.00    -0.237 OA
ATOM     67  O   UNL A   1      46.813  26.438  39.077  1.00  0.00    -0.237 OA
ATOM     68  O   UNL A   1      46.421  24.466  37.648  1.00  0.00    -0.744 OA
ENDBRANCH  64  65
ENDBRANCH  43  57
BRANCH  44  69
ATOM     69  C   UNL A   1      36.397  33.288  30.801  1.00  0.00     0.058 A 
ATOM     70  C   UNL A   1      35.072  33.126  31.230  1.00  0.00     0.135 A 
ATOM     71  C   UNL A   1      36.638  34.189  29.752  1.00  0.00     0.135 A 
ATOM     72  F   UNL A   1      34.788  32.271  32.223  1.00  0.00    -0.206 F 
ATOM     73  C   UNL A   1      34.026  33.839  30.651  1.00  0.00     0.059 A 
ATOM     74  C   UNL A   1      35.613  34.931  29.174  1.00  0.00     0.059 A 
ATOM     75  F   UNL A   1      37.891  34.394  29.315  1.00  0.00    -0.206 F 
ATOM     76  C   UNL A   1      34.310  34.750  29.632  1.00  0.00     0.060 A 
BRANCH  76  77
ATOM     77  S   UNL A   1      32.960  35.747  28.961  1.00  0.00     0.124 S 
ATOM     78  O   UNL A   1      32.353  34.821  28.012  1.00  0.00    -0.237 OA
ATOM     79  O   UNL A   1      32.177  36.042  30.157  1.00  0.00    -0.237 OA
ATOM     80  O   UNL A   1      33.648  36.893  28.375  1.00  0.00    -0.744 OA
ENDBRANCH  76  77
ENDBRANCH  44  69
BRANCH  56  81
ATOM     81  C   UNL A   1      39.524  33.993  37.017  1.00  0.00     0.058 A 
ATOM     82  C   UNL A   1      38.752  33.661  38.141  1.00  0.00     0.135 A 
ATOM     83  C   UNL A   1      40.165  35.243  37.007  1.00  0.00     0.135 A 
ATOM     84  F   UNL A   1      38.114  32.482  38.199  1.00  0.00    -0.206 F 
ATOM     85  C   UNL A   1      38.603  34.544  39.206  1.00  0.00     0.059 A 
ATOM     86  C   UNL A   1      40.055  36.127  38.074  1.00  0.00     0.059 A 
ATOM     87  F   UNL A   1      40.924  35.606  35.961  1.00  0.00    -0.206 F 
ATOM     88  C   UNL A   1      39.262  35.774  39.165  1.00  0.00     0.060 A 
BRANCH  88  89
ATOM     89  S   UNL A   1      39.086  36.895  40.568  1.00  0.00     0.124 S 
ATOM     90  O   UNL A   1      40.481  37.172  40.898  1.00  0.00    -0.237 OA
ATOM     91  O   UNL A   1      38.337  38.005  39.989  1.00  0.00    -0.237 OA
ATOM     92  O   UNL A   1      38.356  36.098  41.551  1.00  0.00    -0.744 OA
ENDBRANCH  88  89
ENDBRANCH  56  81
ENDBRANCH  30  31
ENDBRANCH  22  25
ENDBRANCH  20  21
ENDBRANCH  19  20
ENDBRANCH   1  19
TORSDOF 18
ENDMDL
