MODEL 1
REMARK VINA RESULT:     -11.8      0.000      0.000
REMARK SMILES C[C@@H](C(=O)NCCCNC(=O)c1ccc(-c2c3nc(c(-c4c(F)cc(S(=O)(=O)[O-])cc4F)c4ccc([nH]4)c(-c4c(F)cc(S(=O)(=O)[O-])cc4F)c4nc(c(-c5c(F)cc(S(=O)(=O)[O-])cc5F)c5ccc2[nH]5)C=C4)C=C3)cc1)c1ccc(Cc2cccs2)cc1F
REMARK SMILES IDX 7 1 6 2 5 3 3 4 4 5 2 7 1 8 78 9 79 10 89 11 80 12 88 13
REMARK SMILES IDX 90 14 81 15 82 16 83 17 84 18 87 19 85 20 86 21 8 22 9 23
REMARK SMILES IDX 10 24 11 26 12 27 13 28 77 29 14 30 76 31 15 32 16 33 17 34
REMARK SMILES IDX 70 35 18 36 75 37 69 38 71 39 19 40 74 41 68 42 67 43 20 45
REMARK SMILES IDX 54 46 33 47 53 48 34 49 37 50 52 51 72 52 35 53 36 54 51 56
REMARK SMILES IDX 73 57 38 58 21 59 22 60 31 61 23 62 24 63 30 64 32 65 25 66
REMARK SMILES IDX 26 67 27 68 28 69 29 70 55 71 56 72 65 73 57 74 58 75 64 76
REMARK SMILES IDX 66 77 59 78 60 79 61 80 62 81 63 82 39 83 40 84 49 85 41 86
REMARK SMILES IDX 42 87 48 88 50 89 43 90 44 91 45 92 46 93 47 94
REMARK H PARENT 5 6 9 25 71 44 37 55
REMARK Flexibility Score: inf
ROOT
ATOM      1  C   UNL A   1      34.728  30.114  27.315  1.00  0.00     0.042 C 
ENDROOT
BRANCH   1   2
ATOM      2  C   UNL A   1      33.231  30.427  27.261  1.00  0.00     0.117 C 
BRANCH   2   3
ATOM      3  N   UNL A   1      32.431  29.263  27.597  1.00  0.00    -0.356 N 
ATOM      4  C   UNL A   1      31.798  28.353  26.798  1.00  0.00     0.227 C 
ATOM      5  O   UNL A   1      31.046  27.560  27.368  1.00  0.00    -0.274 OA
ATOM      6  H   UNL A   1      32.327  29.101  28.562  1.00  0.00     0.163 HD
BRANCH   4   7
ATOM      7  C   UNL A   1      32.077  28.311  25.278  1.00  0.00     0.108 C 
ATOM      8  C   UNL A   1      30.817  28.734  24.519  1.00  0.00     0.023 C 
BRANCH   7   9
ATOM      9  C   UNL A   1      32.671  26.968  24.829  1.00  0.00    -0.000 A 
ATOM     10  C   UNL A   1      31.998  26.209  23.855  1.00  0.00     0.008 A 
ATOM     11  C   UNL A   1      33.854  26.422  25.346  1.00  0.00     0.127 A 
ATOM     12  C   UNL A   1      32.525  25.002  23.376  1.00  0.00     0.004 A 
ATOM     13  C   UNL A   1      34.366  25.202  24.898  1.00  0.00     0.043 A 
ATOM     14  F   UNL A   1      34.558  27.052  26.296  1.00  0.00    -0.207 F 
ATOM     15  C   UNL A   1      33.717  24.482  23.893  1.00  0.00    -0.040 A 
BRANCH  15  16
ATOM     16  C   UNL A   1      34.317  23.203  23.356  1.00  0.00     0.082 C 
BRANCH  16  17
ATOM     17  C   UNL A   1      33.713  21.950  23.930  1.00  0.00     0.009 A 
ATOM     18  C   UNL A   1      32.591  21.261  23.509  1.00  0.00     0.016 A 
ATOM     19  S   UNL A   1      34.466  21.156  25.252  1.00  0.00    -0.149 S 
ATOM     20  C   UNL A   1      32.348  20.087  24.277  1.00  0.00     0.012 A 
ATOM     21  C   UNL A   1      33.302  19.905  25.252  1.00  0.00     0.065 A 
ENDBRANCH  16  17
ENDBRANCH  15  16
ENDBRANCH   7   9
ENDBRANCH   4   7
ENDBRANCH   2   3
ENDBRANCH   1   2
BRANCH   1  22
ATOM     22  C   UNL A   1      35.544  31.087  28.162  1.00  0.00     0.118 C 
BRANCH  22  23
ATOM     23  N   UNL A   1      35.462  30.798  29.585  1.00  0.00    -0.352 N 
ATOM     24  C   UNL A   1      36.407  30.281  30.437  1.00  0.00     0.251 C 
ATOM     25  H   UNL A   1      34.593  31.003  30.002  1.00  0.00     0.163 HD
ATOM     26  O   UNL A   1      36.069  29.926  31.566  1.00  0.00    -0.269 OA
BRANCH  24  27
ATOM     27  C   UNL A   1      37.813  30.122  30.003  1.00  0.00     0.039 A 
ATOM     28  C   UNL A   1      38.821  30.148  30.970  1.00  0.00     0.014 A 
ATOM     29  C   UNL A   1      38.144  29.957  28.655  1.00  0.00     0.014 A 
ATOM     30  C   UNL A   1      40.148  29.916  30.597  1.00  0.00     0.010 A 
ATOM     31  C   UNL A   1      39.457  29.658  28.293  1.00  0.00     0.010 A 
ATOM     32  C   UNL A   1      40.470  29.613  29.263  1.00  0.00    -0.014 A 
BRANCH  32  33
ATOM     33  C   UNL A   1      41.839  29.171  28.884  1.00  0.00     0.031 A 
ATOM     34  C   UNL A   1      42.966  30.160  28.771  1.00  0.00     0.074 A 
ATOM     35  C   UNL A   1      42.039  27.877  28.557  1.00  0.00     0.049 A 
ATOM     36  N   UNL A   1      44.194  29.965  28.366  1.00  0.00    -0.248 NA
ATOM     37  C   UNL A   1      42.674  31.554  29.143  1.00  0.00     0.031 C 
ATOM     38  C   UNL A   1      41.013  26.830  28.582  1.00  0.00     0.029 A 
ATOM     39  N   UNL A   1      43.164  27.219  28.121  1.00  0.00    -0.354 N 
ATOM     40  C   UNL A   1      44.817  31.206  28.417  1.00  0.00     0.074 A 
ATOM     41  C   UNL A   1      43.824  32.157  28.867  1.00  0.00     0.031 C 
ATOM     42  C   UNL A   1      41.554  25.668  28.186  1.00  0.00     0.029 A 
ATOM     43  C   UNL A   1      42.951  25.890  27.830  1.00  0.00     0.049 A 
ATOM     44  H   UNL A   1      44.040  27.658  28.025  1.00  0.00     0.167 HD
ATOM     45  C   UNL A   1      46.102  31.516  28.125  1.00  0.00     0.037 A 
ATOM     46  C   UNL A   1      43.775  24.961  27.308  1.00  0.00     0.037 A 
ATOM     47  C   UNL A   1      47.092  30.555  27.707  1.00  0.00     0.049 A 
ATOM     48  C   UNL A   1      45.191  25.346  26.973  1.00  0.00     0.074 A 
ATOM     49  C   UNL A   1      48.443  30.761  27.482  1.00  0.00     0.029 A 
ATOM     50  N   UNL A   1      46.842  29.220  27.435  1.00  0.00    -0.354 N 
ATOM     51  N   UNL A   1      45.790  26.502  27.129  1.00  0.00    -0.248 NA
ATOM     52  C   UNL A   1      46.045  24.303  26.384  1.00  0.00     0.031 C 
ATOM     53  C   UNL A   1      48.994  29.568  27.009  1.00  0.00     0.029 A 
ATOM     54  C   UNL A   1      48.001  28.602  26.997  1.00  0.00     0.049 A 
ATOM     55  H   UNL A   1      45.969  28.777  27.536  1.00  0.00     0.167 HD
ATOM     56  C   UNL A   1      47.092  26.320  26.676  1.00  0.00     0.074 A 
ATOM     57  C   UNL A   1      47.204  24.936  26.266  1.00  0.00     0.031 C 
ATOM     58  C   UNL A   1      48.102  27.221  26.596  1.00  0.00     0.037 A 
BRANCH  45  59
ATOM     59  C   UNL A   1      46.541  32.951  28.244  1.00  0.00     0.058 A 
ATOM     60  C   UNL A   1      46.400  33.856  27.182  1.00  0.00     0.135 A 
ATOM     61  C   UNL A   1      46.991  33.451  29.478  1.00  0.00     0.135 A 
ATOM     62  F   UNL A   1      45.988  33.428  25.978  1.00  0.00    -0.206 F 
ATOM     63  C   UNL A   1      46.688  35.207  27.338  1.00  0.00     0.059 A 
ATOM     64  C   UNL A   1      47.261  34.804  29.663  1.00  0.00     0.059 A 
ATOM     65  F   UNL A   1      47.145  32.627  30.526  1.00  0.00    -0.206 F 
ATOM     66  C   UNL A   1      47.107  35.675  28.586  1.00  0.00     0.060 A 
BRANCH  66  67
ATOM     67  S   UNL A   1      47.408  37.444  28.786  1.00  0.00     0.124 S 
ATOM     68  O   UNL A   1      47.112  37.632  30.203  1.00  0.00    -0.237 OA
ATOM     69  O   UNL A   1      48.814  37.563  28.412  1.00  0.00    -0.237 OA
ATOM     70  O   UNL A   1      46.462  38.059  27.860  1.00  0.00    -0.744 OA
ENDBRANCH  66  67
ENDBRANCH  45  59
BRANCH  46  71
ATOM     71  C   UNL A   1      43.283  23.582  27.032  1.00  0.00     0.058 A 
ATOM     72  C   UNL A   1      43.209  22.621  28.052  1.00  0.00     0.135 A 
ATOM     73  C   UNL A   1      42.914  23.187  25.737  1.00  0.00     0.135 A 
ATOM     74  F   UNL A   1      43.555  22.946  29.307  1.00  0.00    -0.206 F 
ATOM     75  C   UNL A   1      42.828  21.308  27.791  1.00  0.00     0.059 A 
ATOM     76  C   UNL A   1      42.498  21.890  25.457  1.00  0.00     0.059 A 
ATOM     77  F   UNL A   1      42.947  24.072  24.728  1.00  0.00    -0.206 F 
ATOM     78  C   UNL A   1      42.479  20.951  26.487  1.00  0.00     0.060 A 
BRANCH  78  79
ATOM     79  S   UNL A   1      41.989  19.246  26.156  1.00  0.00     0.124 S 
ATOM     80  O   UNL A   1      42.835  18.914  25.016  1.00  0.00    -0.237 OA
ATOM     81  O   UNL A   1      42.320  18.582  27.414  1.00  0.00    -0.237 OA
ATOM     82  O   UNL A   1      40.561  19.357  25.873  1.00  0.00    -0.744 OA
ENDBRANCH  78  79
ENDBRANCH  46  71
BRANCH  58  83
ATOM     83  C   UNL A   1      49.421  26.741  26.058  1.00  0.00     0.058 A 
ATOM     84  C   UNL A   1      49.812  27.006  24.735  1.00  0.00     0.135 A 
ATOM     85  C   UNL A   1      50.331  26.066  26.888  1.00  0.00     0.135 A 
ATOM     86  F   UNL A   1      48.976  27.637  23.897  1.00  0.00    -0.206 F 
ATOM     87  C   UNL A   1      51.053  26.605  24.251  1.00  0.00     0.059 A 
ATOM     88  C   UNL A   1      51.589  25.684  26.434  1.00  0.00     0.059 A 
ATOM     89  F   UNL A   1      50.009  25.795  28.163  1.00  0.00    -0.206 F 
ATOM     90  C   UNL A   1      51.937  25.951  25.111  1.00  0.00     0.060 A 
BRANCH  90  91
ATOM     91  S   UNL A   1      53.564  25.485  24.482  1.00  0.00     0.124 S 
ATOM     92  O   UNL A   1      54.443  26.336  25.277  1.00  0.00    -0.237 OA
ATOM     93  O   UNL A   1      53.618  24.058  24.787  1.00  0.00    -0.237 OA
ATOM     94  O   UNL A   1      53.489  25.814  23.062  1.00  0.00    -0.744 OA
ENDBRANCH  90  91
ENDBRANCH  58  83
ENDBRANCH  32  33
ENDBRANCH  24  27
ENDBRANCH  22  23
ENDBRANCH   1  22
TORSDOF 16
ENDMDL
MODEL 2
REMARK VINA RESULT:     -11.8      1.022      8.365
REMARK SMILES C[C@@H](C(=O)NCCCNC(=O)c1ccc(-c2c3nc(c(-c4c(F)cc(S(=O)(=O)[O-])cc4F)c4ccc([nH]4)c(-c4c(F)cc(S(=O)(=O)[O-])cc4F)c4nc(c(-c5c(F)cc(S(=O)(=O)[O-])cc5F)c5ccc2[nH]5)C=C4)C=C3)cc1)c1ccc(Cc2cccs2)cc1F
REMARK SMILES IDX 7 1 6 2 5 3 3 4 4 5 2 7 1 8 78 9 79 10 89 11 80 12 88 13
REMARK SMILES IDX 90 14 81 15 82 16 83 17 84 18 87 19 85 20 86 21 8 22 9 23
REMARK SMILES IDX 10 24 11 26 12 27 13 28 77 29 14 30 76 31 15 32 16 33 17 34
REMARK SMILES IDX 70 35 18 36 75 37 69 38 71 39 19 40 74 41 68 42 67 43 20 45
REMARK SMILES IDX 54 46 33 47 53 48 34 49 37 50 52 51 72 52 35 53 36 54 51 56
REMARK SMILES IDX 73 57 38 58 21 59 22 60 31 61 23 62 24 63 30 64 32 65 25 66
REMARK SMILES IDX 26 67 27 68 28 69 29 70 55 71 56 72 65 73 57 74 58 75 64 76
REMARK SMILES IDX 66 77 59 78 60 79 61 80 62 81 63 82 39 83 40 84 49 85 41 86
REMARK SMILES IDX 42 87 48 88 50 89 43 90 44 91 45 92 46 93 47 94
REMARK H PARENT 5 6 9 25 71 44 37 55
REMARK Flexibility Score: inf
ROOT
ATOM      1  C   UNL A   1      34.253  31.391  27.672  1.00  0.00     0.042 C 
ENDROOT
BRANCH   1   2
ATOM      2  C   UNL A   1      33.877  30.124  26.901  1.00  0.00     0.117 C 
BRANCH   2   3
ATOM      3  N   UNL A   1      32.885  29.341  27.616  1.00  0.00    -0.356 N 
ATOM      4  C   UNL A   1      32.070  28.329  27.191  1.00  0.00     0.227 C 
ATOM      5  O   UNL A   1      31.201  27.962  27.986  1.00  0.00    -0.274 OA
ATOM      6  H   UNL A   1      32.781  29.578  28.565  1.00  0.00     0.163 HD
BRANCH   4   7
ATOM      7  C   UNL A   1      32.292  27.666  25.813  1.00  0.00     0.108 C 
ATOM      8  C   UNL A   1      31.149  28.055  24.873  1.00  0.00     0.023 C 
BRANCH   7   9
ATOM      9  C   UNL A   1      32.538  26.154  25.925  1.00  0.00    -0.000 A 
ATOM     10  C   UNL A   1      33.834  25.649  25.717  1.00  0.00     0.008 A 
ATOM     11  C   UNL A   1      31.536  25.215  26.207  1.00  0.00     0.127 A 
ATOM     12  C   UNL A   1      34.119  24.285  25.856  1.00  0.00     0.004 A 
ATOM     13  C   UNL A   1      31.807  23.849  26.312  1.00  0.00     0.043 A 
ATOM     14  F   UNL A   1      30.263  25.587  26.395  1.00  0.00    -0.207 F 
ATOM     15  C   UNL A   1      33.107  23.366  26.155  1.00  0.00    -0.040 A 
BRANCH  15  16
ATOM     16  C   UNL A   1      33.408  21.897  26.349  1.00  0.00     0.082 C 
BRANCH  16  17
ATOM     17  C   UNL A   1      32.987  21.024  25.198  1.00  0.00     0.009 A 
ATOM     18  C   UNL A   1      32.665  21.393  23.906  1.00  0.00     0.016 A 
ATOM     19  S   UNL A   1      32.915  19.320  25.390  1.00  0.00    -0.149 S 
ATOM     20  C   UNL A   1      32.353  20.278  23.078  1.00  0.00     0.012 A 
ATOM     21  C   UNL A   1      32.462  19.088  23.759  1.00  0.00     0.065 A 
ENDBRANCH  16  17
ENDBRANCH  15  16
ENDBRANCH   7   9
ENDBRANCH   4   7
ENDBRANCH   2   3
ENDBRANCH   1   2
BRANCH   1  22
ATOM     22  C   UNL A   1      35.631  31.344  28.326  1.00  0.00     0.118 C 
BRANCH  22  23
ATOM     23  N   UNL A   1      35.606  30.724  29.643  1.00  0.00    -0.352 N 
ATOM     24  C   UNL A   1      36.560  29.972  30.283  1.00  0.00     0.251 C 
ATOM     25  H   UNL A   1      34.775  30.866  30.154  1.00  0.00     0.163 HD
ATOM     26  O   UNL A   1      36.260  29.373  31.316  1.00  0.00    -0.269 OA
BRANCH  24  27
ATOM     27  C   UNL A   1      37.928  29.854  29.732  1.00  0.00     0.039 A 
ATOM     28  C   UNL A   1      39.015  29.962  30.603  1.00  0.00     0.014 A 
ATOM     29  C   UNL A   1      38.147  29.646  28.367  1.00  0.00     0.014 A 
ATOM     30  C   UNL A   1      40.313  29.770  30.122  1.00  0.00     0.010 A 
ATOM     31  C   UNL A   1      39.436  29.387  27.900  1.00  0.00     0.010 A 
ATOM     32  C   UNL A   1      40.530  29.425  28.777  1.00  0.00    -0.014 A 
BRANCH  32  33
ATOM     33  C   UNL A   1      41.879  29.024  28.294  1.00  0.00     0.031 A 
ATOM     34  C   UNL A   1      42.166  27.602  27.897  1.00  0.00     0.074 A 
ATOM     35  C   UNL A   1      42.871  29.939  28.298  1.00  0.00     0.049 A 
ATOM     36  N   UNL A   1      43.302  27.061  27.541  1.00  0.00    -0.248 NA
ATOM     37  C   UNL A   1      41.035  26.660  27.917  1.00  0.00     0.031 C 
ATOM     38  C   UNL A   1      42.728  31.340  28.707  1.00  0.00     0.029 A 
ATOM     39  N   UNL A   1      44.201  29.831  27.968  1.00  0.00    -0.354 N 
ATOM     40  C   UNL A   1      43.033  25.717  27.312  1.00  0.00     0.074 A 
ATOM     41  C   UNL A   1      41.628  25.517  27.595  1.00  0.00     0.031 C 
ATOM     42  C   UNL A   1      43.915  31.957  28.600  1.00  0.00     0.029 A 
ATOM     43  C   UNL A   1      44.916  30.991  28.163  1.00  0.00     0.049 A 
ATOM     44  H   UNL A   1      44.604  29.001  27.626  1.00  0.00     0.167 HD
ATOM     45  C   UNL A   1      43.879  24.747  26.894  1.00  0.00     0.037 A 
ATOM     46  C   UNL A   1      46.234  31.244  28.034  1.00  0.00     0.037 A 
ATOM     47  C   UNL A   1      45.270  24.965  26.585  1.00  0.00     0.049 A 
ATOM     48  C   UNL A   1      47.151  30.136  27.590  1.00  0.00     0.074 A 
ATOM     49  C   UNL A   1      46.182  24.063  26.063  1.00  0.00     0.029 A 
ATOM     50  N   UNL A   1      45.954  26.153  26.784  1.00  0.00    -0.354 N 
ATOM     51  N   UNL A   1      46.855  28.898  27.276  1.00  0.00    -0.248 NA
ATOM     52  C   UNL A   1      48.582  30.456  27.487  1.00  0.00     0.031 C 
ATOM     53  C   UNL A   1      47.431  24.685  26.009  1.00  0.00     0.029 A 
ATOM     54  C   UNL A   1      47.287  25.994  26.441  1.00  0.00     0.049 A 
ATOM     55  H   UNL A   1      45.553  26.987  27.120  1.00  0.00     0.167 HD
ATOM     56  C   UNL A   1      48.058  28.298  26.923  1.00  0.00     0.074 A 
ATOM     57  C   UNL A   1      49.083  29.315  27.033  1.00  0.00     0.031 C 
ATOM     58  C   UNL A   1      48.297  27.017  26.550  1.00  0.00     0.037 A 
BRANCH  45  59
ATOM     59  C   UNL A   1      43.347  23.349  26.732  1.00  0.00     0.058 A 
ATOM     60  C   UNL A   1      43.144  22.778  25.467  1.00  0.00     0.135 A 
ATOM     61  C   UNL A   1      43.157  22.531  27.859  1.00  0.00     0.135 A 
ATOM     62  F   UNL A   1      43.297  23.518  24.358  1.00  0.00    -0.206 F 
ATOM     63  C   UNL A   1      42.774  21.445  25.324  1.00  0.00     0.059 A 
ATOM     64  C   UNL A   1      42.812  21.188  27.738  1.00  0.00     0.059 A 
ATOM     65  F   UNL A   1      43.337  23.029  29.093  1.00  0.00    -0.206 F 
ATOM     66  C   UNL A   1      42.623  20.654  26.465  1.00  0.00     0.060 A 
BRANCH  66  67
ATOM     67  S   UNL A   1      42.210  18.909  26.255  1.00  0.00     0.124 S 
ATOM     68  O   UNL A   1      43.172  18.503  25.234  1.00  0.00    -0.237 OA
ATOM     69  O   UNL A   1      42.442  18.372  27.592  1.00  0.00    -0.237 OA
ATOM     70  O   UNL A   1      40.815  18.936  25.825  1.00  0.00    -0.744 OA
ENDBRANCH  66  67
ENDBRANCH  45  59
BRANCH  46  71
ATOM     71  C   UNL A   1      46.780  32.590  28.361  1.00  0.00     0.058 A 
ATOM     72  C   UNL A   1      47.239  32.894  29.652  1.00  0.00     0.135 A 
ATOM     73  C   UNL A   1      46.818  33.613  27.400  1.00  0.00     0.135 A 
ATOM     74  F   UNL A   1      47.219  31.953  30.609  1.00  0.00    -0.206 F 
ATOM     75  C   UNL A   1      47.676  34.171  29.990  1.00  0.00     0.059 A 
ATOM     76  C   UNL A   1      47.282  34.888  27.705  1.00  0.00     0.059 A 
ATOM     77  F   UNL A   1      46.411  33.372  26.144  1.00  0.00    -0.206 F 
ATOM     78  C   UNL A   1      47.688  35.164  29.010  1.00  0.00     0.060 A 
BRANCH  78  79
ATOM     79  S   UNL A   1      48.254  36.818  29.458  1.00  0.00     0.124 S 
ATOM     80  O   UNL A   1      49.461  36.519  30.218  1.00  0.00    -0.237 OA
ATOM     81  O   UNL A   1      48.456  37.437  28.151  1.00  0.00    -0.237 OA
ATOM     82  O   UNL A   1      47.138  37.356  30.230  1.00  0.00    -0.744 OA
ENDBRANCH  78  79
ENDBRANCH  46  71
BRANCH  58  83
ATOM     83  C   UNL A   1      49.715  26.639  26.222  1.00  0.00     0.058 A 
ATOM     84  C   UNL A   1      50.552  26.038  27.175  1.00  0.00     0.135 A 
ATOM     85  C   UNL A   1      50.222  26.822  24.925  1.00  0.00     0.135 A 
ATOM     86  F   UNL A   1      50.121  25.851  28.431  1.00  0.00    -0.206 F 
ATOM     87  C   UNL A   1      51.848  25.644  26.857  1.00  0.00     0.059 A 
ATOM     88  C   UNL A   1      51.503  26.407  24.577  1.00  0.00     0.059 A 
ATOM     89  F   UNL A   1      49.460  27.385  23.974  1.00  0.00    -0.206 F 
ATOM     90  C   UNL A   1      52.312  25.827  25.553  1.00  0.00     0.060 A 
BRANCH  90  91
ATOM     91  S   UNL A   1      53.977  25.262  25.144  1.00  0.00     0.124 S 
ATOM     92  O   UNL A   1      54.703  25.569  26.372  1.00  0.00    -0.237 OA
ATOM     93  O   UNL A   1      53.765  23.844  24.871  1.00  0.00    -0.237 OA
ATOM     94  O   UNL A   1      54.337  26.071  23.984  1.00  0.00    -0.744 OA
ENDBRANCH  90  91
ENDBRANCH  58  83
ENDBRANCH  32  33
ENDBRANCH  24  27
ENDBRANCH  22  23
ENDBRANCH   1  22
TORSDOF 16
ENDMDL
MODEL 3
REMARK VINA RESULT:     -11.8      2.835      3.665
REMARK SMILES C[C@@H](C(=O)NCCCNC(=O)c1ccc(-c2c3nc(c(-c4c(F)cc(S(=O)(=O)[O-])cc4F)c4ccc([nH]4)c(-c4c(F)cc(S(=O)(=O)[O-])cc4F)c4nc(c(-c5c(F)cc(S(=O)(=O)[O-])cc5F)c5ccc2[nH]5)C=C4)C=C3)cc1)c1ccc(Cc2cccs2)cc1F
REMARK SMILES IDX 7 1 6 2 5 3 3 4 4 5 2 7 1 8 78 9 79 10 89 11 80 12 88 13
REMARK SMILES IDX 90 14 81 15 82 16 83 17 84 18 87 19 85 20 86 21 8 22 9 23
REMARK SMILES IDX 10 24 11 26 12 27 13 28 77 29 14 30 76 31 15 32 16 33 17 34
REMARK SMILES IDX 70 35 18 36 75 37 69 38 71 39 19 40 74 41 68 42 67 43 20 45
REMARK SMILES IDX 54 46 33 47 53 48 34 49 37 50 52 51 72 52 35 53 36 54 51 56
REMARK SMILES IDX 73 57 38 58 21 59 22 60 31 61 23 62 24 63 30 64 32 65 25 66
REMARK SMILES IDX 26 67 27 68 28 69 29 70 55 71 56 72 65 73 57 74 58 75 64 76
REMARK SMILES IDX 66 77 59 78 60 79 61 80 62 81 63 82 39 83 40 84 49 85 41 86
REMARK SMILES IDX 42 87 48 88 50 89 43 90 44 91 45 92 46 93 47 94
REMARK H PARENT 5 6 9 25 71 44 37 55
REMARK Flexibility Score: inf
ROOT
ATOM      1  C   UNL A   1      32.964  28.073  27.234  1.00  0.00     0.042 C 
ENDROOT
BRANCH   1   2
ATOM      2  C   UNL A   1      31.536  28.129  26.689  1.00  0.00     0.117 C 
BRANCH   2   3
ATOM      3  N   UNL A   1      30.828  26.882  26.921  1.00  0.00    -0.356 N 
ATOM      4  C   UNL A   1      30.465  25.888  26.057  1.00  0.00     0.227 C 
ATOM      5  O   UNL A   1      29.718  25.019  26.513  1.00  0.00    -0.274 OA
ATOM      6  H   UNL A   1      30.567  26.727  27.857  1.00  0.00     0.163 HD
BRANCH   4   7
ATOM      7  C   UNL A   1      31.024  25.852  24.617  1.00  0.00     0.108 C 
ATOM      8  C   UNL A   1      29.890  25.529  23.641  1.00  0.00     0.023 C 
BRANCH   7   9
ATOM      9  C   UNL A   1      32.254  24.941  24.489  1.00  0.00    -0.000 A 
ATOM     10  C   UNL A   1      32.529  24.008  25.505  1.00  0.00     0.008 A 
ATOM     11  C   UNL A   1      33.154  24.987  23.416  1.00  0.00     0.127 A 
ATOM     12  C   UNL A   1      33.610  23.122  25.409  1.00  0.00     0.004 A 
ATOM     13  C   UNL A   1      34.254  24.129  23.332  1.00  0.00     0.043 A 
ATOM     14  F   UNL A   1      32.999  25.857  22.409  1.00  0.00    -0.207 F 
ATOM     15  C   UNL A   1      34.488  23.171  24.321  1.00  0.00    -0.040 A 
BRANCH  15  16
ATOM     16  C   UNL A   1      35.633  22.194  24.186  1.00  0.00     0.082 C 
BRANCH  16  17
ATOM     17  C   UNL A   1      36.848  22.552  24.997  1.00  0.00     0.009 A 
ATOM     18  C   UNL A   1      37.172  23.762  25.582  1.00  0.00     0.016 A 
ATOM     19  S   UNL A   1      38.031  21.359  25.350  1.00  0.00    -0.149 S 
ATOM     20  C   UNL A   1      38.393  23.710  26.312  1.00  0.00     0.012 A 
ATOM     21  C   UNL A   1      38.958  22.456  26.277  1.00  0.00     0.065 A 
ENDBRANCH  16  17
ENDBRANCH  15  16
ENDBRANCH   7   9
ENDBRANCH   4   7
ENDBRANCH   2   3
ENDBRANCH   1   2
BRANCH   1  22
ATOM     22  C   UNL A   1      33.894  29.147  26.674  1.00  0.00     0.118 C 
BRANCH  22  23
ATOM     23  N   UNL A   1      33.827  30.392  27.423  1.00  0.00    -0.352 N 
ATOM     24  C   UNL A   1      34.700  30.916  28.344  1.00  0.00     0.251 C 
ATOM     25  H   UNL A   1      33.032  30.945  27.242  1.00  0.00     0.163 HD
ATOM     26  O   UNL A   1      34.356  31.892  29.012  1.00  0.00    -0.269 OA
BRANCH  24  27
ATOM     27  C   UNL A   1      36.031  30.306  28.560  1.00  0.00     0.039 A 
ATOM     28  C   UNL A   1      36.951  30.314  27.509  1.00  0.00     0.014 A 
ATOM     29  C   UNL A   1      36.374  29.721  29.782  1.00  0.00     0.014 A 
ATOM     30  C   UNL A   1      38.243  29.821  27.713  1.00  0.00     0.010 A 
ATOM     31  C   UNL A   1      37.682  29.293  30.006  1.00  0.00     0.010 A 
ATOM     32  C   UNL A   1      38.637  29.357  28.979  1.00  0.00    -0.014 A 
BRANCH  32  33
ATOM     33  C   UNL A   1      40.056  29.015  29.266  1.00  0.00     0.031 A 
ATOM     34  C   UNL A   1      41.001  30.046  29.820  1.00  0.00     0.074 A 
ATOM     35  C   UNL A   1      40.509  27.786  28.942  1.00  0.00     0.049 A 
ATOM     36  N   UNL A   1      42.287  29.946  30.044  1.00  0.00    -0.248 NA
ATOM     37  C   UNL A   1      40.437  31.364  30.152  1.00  0.00     0.031 C 
ATOM     38  C   UNL A   1      39.699  26.715  28.354  1.00  0.00     0.029 A 
ATOM     39  N   UNL A   1      41.762  27.231  29.038  1.00  0.00    -0.354 N 
ATOM     40  C   UNL A   1      42.690  31.187  30.523  1.00  0.00     0.074 A 
ATOM     41  C   UNL A   1      41.517  32.035  30.534  1.00  0.00     0.031 C 
ATOM     42  C   UNL A   1      40.471  25.637  28.147  1.00  0.00     0.029 A 
ATOM     43  C   UNL A   1      41.840  25.950  28.540  1.00  0.00     0.049 A 
ATOM     44  H   UNL A   1      42.532  27.706  29.426  1.00  0.00     0.167 HD
ATOM     45  C   UNL A   1      43.922  31.575  30.926  1.00  0.00     0.037 A 
ATOM     46  C   UNL A   1      42.898  25.129  28.387  1.00  0.00     0.037 A 
ATOM     47  C   UNL A   1      45.078  30.713  30.940  1.00  0.00     0.049 A 
ATOM     48  C   UNL A   1      44.259  25.600  28.824  1.00  0.00     0.074 A 
ATOM     49  C   UNL A   1      46.346  30.990  31.422  1.00  0.00     0.029 A 
ATOM     50  N   UNL A   1      45.115  29.422  30.439  1.00  0.00    -0.354 N 
ATOM     51  N   UNL A   1      44.598  26.742  29.374  1.00  0.00    -0.248 NA
ATOM     52  C   UNL A   1      45.384  24.677  28.616  1.00  0.00     0.031 C 
ATOM     53  C   UNL A   1      47.166  29.892  31.151  1.00  0.00     0.029 A 
ATOM     54  C   UNL A   1      46.395  28.907  30.556  1.00  0.00     0.049 A 
ATOM     55  H   UNL A   1      44.345  28.942  30.057  1.00  0.00     0.167 HD
ATOM     56  C   UNL A   1      45.969  26.665  29.592  1.00  0.00     0.074 A 
ATOM     57  C   UNL A   1      46.393  25.356  29.142  1.00  0.00     0.031 C 
ATOM     58  C   UNL A   1      46.805  27.599  30.109  1.00  0.00     0.037 A 
BRANCH  45  59
ATOM     59  C   UNL A   1      44.113  32.992  31.396  1.00  0.00     0.058 A 
ATOM     60  C   UNL A   1      44.493  34.016  30.515  1.00  0.00     0.135 A 
ATOM     61  C   UNL A   1      43.791  33.347  32.716  1.00  0.00     0.135 A 
ATOM     62  F   UNL A   1      44.825  33.730  29.247  1.00  0.00    -0.206 F 
ATOM     63  C   UNL A   1      44.544  35.344  30.926  1.00  0.00     0.059 A 
ATOM     64  C   UNL A   1      43.811  34.673  33.142  1.00  0.00     0.059 A 
ATOM     65  F   UNL A   1      43.424  32.406  33.599  1.00  0.00    -0.206 F 
ATOM     66  C   UNL A   1      44.189  35.664  32.239  1.00  0.00     0.060 A 
BRANCH  66  67
ATOM     67  S   UNL A   1      44.195  37.401  32.733  1.00  0.00     0.124 S 
ATOM     68  O   UNL A   1      45.560  37.559  33.225  1.00  0.00    -0.237 OA
ATOM     69  O   UNL A   1      43.892  38.081  31.478  1.00  0.00    -0.237 OA
ATOM     70  O   UNL A   1      43.150  37.471  33.750  1.00  0.00    -0.744 OA
ENDBRANCH  66  67
ENDBRANCH  45  59
BRANCH  46  71
ATOM     71  C   UNL A   1      42.729  23.787  27.762  1.00  0.00     0.058 A 
ATOM     72  C   UNL A   1      42.538  22.639  28.546  1.00  0.00     0.135 A 
ATOM     73  C   UNL A   1      42.795  23.621  26.369  1.00  0.00     0.135 A 
ATOM     74  F   UNL A   1      42.473  22.744  29.883  1.00  0.00    -0.206 F 
ATOM     75  C   UNL A   1      42.461  21.372  27.978  1.00  0.00     0.059 A 
ATOM     76  C   UNL A   1      42.687  22.367  25.775  1.00  0.00     0.059 A 
ATOM     77  F   UNL A   1      42.956  24.687  25.570  1.00  0.00    -0.206 F 
ATOM     78  C   UNL A   1      42.542  21.246  26.590  1.00  0.00     0.060 A 
BRANCH  78  79
ATOM     79  S   UNL A   1      42.443  19.597  25.861  1.00  0.00     0.124 S 
ATOM     80  O   UNL A   1      42.767  18.752  27.005  1.00  0.00    -0.237 OA
ATOM     81  O   UNL A   1      41.059  19.548  25.400  1.00  0.00    -0.237 OA
ATOM     82  O   UNL A   1      43.447  19.639  24.802  1.00  0.00    -0.744 OA
ENDBRANCH  78  79
ENDBRANCH  46  71
BRANCH  58  83
ATOM     83  C   UNL A   1      48.260  27.240  30.230  1.00  0.00     0.058 A 
ATOM     84  C   UNL A   1      49.176  27.545  29.210  1.00  0.00     0.135 A 
ATOM     85  C   UNL A   1      48.756  26.644  31.401  1.00  0.00     0.135 A 
ATOM     86  F   UNL A   1      48.753  28.104  28.067  1.00  0.00    -0.206 F 
ATOM     87  C   UNL A   1      50.531  27.258  29.343  1.00  0.00     0.059 A 
ATOM     88  C   UNL A   1      50.111  26.377  31.567  1.00  0.00     0.059 A 
ATOM     89  F   UNL A   1      47.923  26.339  32.409  1.00  0.00    -0.206 F 
ATOM     90  C   UNL A   1      50.990  26.680  30.528  1.00  0.00     0.060 A 
BRANCH  90  91
ATOM     91  S   UNL A   1      52.758  26.362  30.704  1.00  0.00     0.124 S 
ATOM     92  O   UNL A   1      52.761  25.161  31.531  1.00  0.00    -0.237 OA
ATOM     93  O   UNL A   1      53.180  26.179  29.319  1.00  0.00    -0.237 OA
ATOM     94  O   UNL A   1      53.259  27.570  31.351  1.00  0.00    -0.744 OA
ENDBRANCH  90  91
ENDBRANCH  58  83
ENDBRANCH  32  33
ENDBRANCH  24  27
ENDBRANCH  22  23
ENDBRANCH   1  22
TORSDOF 16
ENDMDL
