MODEL 1
REMARK VINA RESULT:     -12.8      0.000      0.000
REMARK SMILES C[C@H]1OCC[C@@H]1C(=O)Nc1sc2c(c1C(=O)NCCCNC(=O)c1ccc(-c3c4nc(c(-c5c(F)cc(S(=O)(=O)[O-])cc5F)c5ccc([nH]5)c(-c5c(F)cc(S(=O)(=O)[O-])cc5F)c5nc(c(-c6c(F)cc(S(=O)(=O)[O-])cc6F)c6ccc3[nH]6)C=C5)C=C4)cc1)CCC2
REMARK SMILES IDX 19 1 18 2 17 3 15 4 16 5 14 7 10 8 11 9 12 10 13 11 92 12
REMARK SMILES IDX 90 13 91 14 9 15 7 16 8 17 6 19 1 20 2 21 3 22 4 23 5 24
REMARK SMILES IDX 20 25 21 26 22 27 23 29 24 30 25 31 89 32 26 33 88 34 27 35
REMARK SMILES IDX 28 36 29 37 82 38 30 39 87 40 81 41 83 42 31 43 86 44 80 45
REMARK SMILES IDX 79 46 32 48 66 49 45 50 65 51 46 52 49 53 64 54 84 55 47 56
REMARK SMILES IDX 48 57 63 59 85 60 50 61 33 62 34 63 43 64 35 65 36 66 42 67
REMARK SMILES IDX 44 68 37 69 38 70 39 71 40 72 41 73 67 74 68 75 77 76 69 77
REMARK SMILES IDX 70 78 76 79 78 80 71 81 72 82 73 83 74 84 75 85 51 86 52 87
REMARK SMILES IDX 61 88 53 89 54 90 60 91 62 92 55 93 56 94 57 95 58 96 59 97
REMARK H PARENT 17 6 9 18 21 28 83 47 49 58
REMARK Flexibility Score: inf
ROOT
ATOM      1  C   UNL A   1      38.444  21.731  25.702  1.00  0.00     0.042 C 
ENDROOT
BRANCH   1   2
ATOM      2  C   UNL A   1      37.237  22.641  25.476  1.00  0.00     0.118 C 
BRANCH   2   3
ATOM      3  N   UNL A   1      36.305  22.688  26.575  1.00  0.00    -0.352 N 
ATOM      4  C   UNL A   1      34.968  22.390  26.641  1.00  0.00     0.254 C 
ATOM      5  O   UNL A   1      34.610  21.913  27.723  1.00  0.00    -0.269 OA
ATOM      6  H   UNL A   1      36.696  22.987  27.427  1.00  0.00     0.163 HD
BRANCH   4   7
ATOM      7  C   UNL A   1      33.995  22.611  25.561  1.00  0.00     0.078 A 
ATOM      8  C   UNL A   1      33.078  21.600  25.239  1.00  0.00     0.108 A 
ATOM      9  S   UNL A   1      32.415  21.741  23.662  1.00  0.00    -0.122 S 
ATOM     10  C   UNL A   1      33.019  23.285  23.550  1.00  0.00     0.011 A 
ATOM     11  C   UNL A   1      33.800  23.675  24.611  1.00  0.00    -0.019 A 
ATOM     12  C   UNL A   1      32.894  24.277  22.457  1.00  0.00     0.047 C 
ATOM     13  C   UNL A   1      34.284  25.059  24.341  1.00  0.00     0.038 C 
ATOM     14  C   UNL A   1      33.389  25.551  23.172  1.00  0.00     0.010 C 
BRANCH   8  15
ATOM     15  N   UNL A   1      32.701  20.413  25.817  1.00  0.00    -0.317 N 
ATOM     16  C   UNL A   1      32.761  19.134  25.363  1.00  0.00     0.230 C 
ATOM     17  O   UNL A   1      32.340  18.274  26.153  1.00  0.00    -0.274 OA
ATOM     18  H   UNL A   1      32.319  20.506  26.720  1.00  0.00     0.170 HD
BRANCH  16  19
ATOM     19  C   UNL A   1      33.425  18.658  24.070  1.00  0.00     0.110 C 
ATOM     20  C   UNL A   1      32.465  18.424  21.739  1.00  0.00     0.039 C 
ATOM     21  C   UNL A   1      32.504  17.856  23.158  1.00  0.00     0.127 C 
ATOM     22  O   UNL A   1      33.043  16.524  23.114  1.00  0.00    -0.378 OA
ATOM     23  C   UNL A   1      34.453  16.626  23.327  1.00  0.00     0.161 C 
ATOM     24  C   UNL A   1      34.687  17.843  24.195  1.00  0.00     0.044 C 
ENDBRANCH  16  19
ENDBRANCH   8  15
ENDBRANCH   4   7
ENDBRANCH   2   3
ENDBRANCH   1   2
BRANCH   1  25
ATOM     25  C   UNL A   1      39.589  22.452  26.383  1.00  0.00     0.118 C 
BRANCH  25  26
ATOM     26  N   UNL A   1      40.883  22.049  25.822  1.00  0.00    -0.352 N 
ATOM     27  C   UNL A   1      42.007  22.817  25.575  1.00  0.00     0.251 C 
ATOM     28  H   UNL A   1      40.964  21.097  25.586  1.00  0.00     0.163 HD
ATOM     29  O   UNL A   1      42.887  22.409  24.840  1.00  0.00    -0.269 OA
BRANCH  27  30
ATOM     30  C   UNL A   1      42.102  24.137  26.216  1.00  0.00     0.039 A 
ATOM     31  C   UNL A   1      41.315  25.211  25.790  1.00  0.00     0.014 A 
ATOM     32  C   UNL A   1      42.969  24.269  27.294  1.00  0.00     0.014 A 
ATOM     33  C   UNL A   1      41.353  26.398  26.515  1.00  0.00     0.010 A 
ATOM     34  C   UNL A   1      42.856  25.353  28.114  1.00  0.00     0.010 A 
ATOM     35  C   UNL A   1      42.114  26.452  27.689  1.00  0.00    -0.014 A 
BRANCH  35  36
ATOM     36  C   UNL A   1      42.077  27.605  28.579  1.00  0.00     0.031 A 
ATOM     37  C   UNL A   1      43.193  28.571  28.378  1.00  0.00     0.074 A 
ATOM     38  C   UNL A   1      40.958  27.886  29.285  1.00  0.00     0.049 A 
ATOM     39  N   UNL A   1      44.094  28.931  29.231  1.00  0.00    -0.248 NA
ATOM     40  C   UNL A   1      43.440  29.081  27.015  1.00  0.00     0.031 C 
ATOM     41  C   UNL A   1      39.692  27.139  29.299  1.00  0.00     0.029 A 
ATOM     42  N   UNL A   1      40.647  28.991  30.010  1.00  0.00    -0.354 N 
ATOM     43  C   UNL A   1      44.856  29.907  28.590  1.00  0.00     0.074 A 
ATOM     44  C   UNL A   1      44.560  29.786  27.188  1.00  0.00     0.031 C 
ATOM     45  C   UNL A   1      38.700  27.932  29.754  1.00  0.00     0.029 A 
ATOM     46  C   UNL A   1      39.279  29.177  30.216  1.00  0.00     0.049 A 
ATOM     47  H   UNL A   1      41.328  29.609  30.361  1.00  0.00     0.167 HD
ATOM     48  C   UNL A   1      45.449  30.913  29.291  1.00  0.00     0.037 A 
ATOM     49  C   UNL A   1      38.678  30.308  30.669  1.00  0.00     0.037 A 
ATOM     50  C   UNL A   1      45.497  30.602  30.699  1.00  0.00     0.049 A 
ATOM     51  C   UNL A   1      39.737  31.097  31.359  1.00  0.00     0.074 A 
ATOM     52  C   UNL A   1      46.021  29.558  31.438  1.00  0.00     0.029 A 
ATOM     53  N   UNL A   1      44.589  31.224  31.523  1.00  0.00    -0.354 N 
ATOM     54  N   UNL A   1      40.344  30.695  32.446  1.00  0.00    -0.248 NA
ATOM     55  C   UNL A   1      40.464  32.083  30.573  1.00  0.00     0.031 C 
ATOM     56  C   UNL A   1      45.050  29.303  32.450  1.00  0.00     0.029 A 
ATOM     57  C   UNL A   1      44.041  30.261  32.331  1.00  0.00     0.049 A 
ATOM     58  H   UNL A   1      44.373  32.185  31.532  1.00  0.00     0.167 HD
ATOM     59  C   UNL A   1      41.677  31.029  32.254  1.00  0.00     0.074 A 
ATOM     60  C   UNL A   1      41.677  31.951  31.118  1.00  0.00     0.031 C 
ATOM     61  C   UNL A   1      42.681  30.299  32.827  1.00  0.00     0.037 A 
BRANCH  48  62
ATOM     62  C   UNL A   1      45.633  32.324  28.774  1.00  0.00     0.058 A 
ATOM     63  C   UNL A   1      46.925  32.891  28.771  1.00  0.00     0.135 A 
ATOM     64  C   UNL A   1      44.574  33.232  28.550  1.00  0.00     0.135 A 
ATOM     65  F   UNL A   1      48.008  32.125  28.980  1.00  0.00    -0.206 F 
ATOM     66  C   UNL A   1      47.139  34.263  28.637  1.00  0.00     0.059 A 
ATOM     67  C   UNL A   1      44.769  34.594  28.357  1.00  0.00     0.059 A 
ATOM     68  F   UNL A   1      43.288  32.866  28.607  1.00  0.00    -0.206 F 
ATOM     69  C   UNL A   1      46.051  35.108  28.445  1.00  0.00     0.060 A 
BRANCH  69  70
ATOM     70  S   UNL A   1      46.311  36.887  28.376  1.00  0.00     0.124 S 
ATOM     71  O   UNL A   1      45.457  37.262  27.255  1.00  0.00    -0.237 OA
ATOM     72  O   UNL A   1      45.859  37.310  29.697  1.00  0.00    -0.237 OA
ATOM     73  O   UNL A   1      47.748  37.007  28.143  1.00  0.00    -0.744 OA
ENDBRANCH  69  70
ENDBRANCH  48  62
BRANCH  49  74
ATOM     74  C   UNL A   1      37.389  30.899  30.203  1.00  0.00     0.058 A 
ATOM     75  C   UNL A   1      36.479  31.460  31.119  1.00  0.00     0.135 A 
ATOM     76  C   UNL A   1      37.142  31.184  28.843  1.00  0.00     0.135 A 
ATOM     77  F   UNL A   1      36.632  31.250  32.436  1.00  0.00    -0.206 F 
ATOM     78  C   UNL A   1      35.439  32.310  30.719  1.00  0.00     0.059 A 
ATOM     79  C   UNL A   1      36.104  32.012  28.420  1.00  0.00     0.059 A 
ATOM     80  F   UNL A   1      37.962  30.747  27.877  1.00  0.00    -0.206 F 
ATOM     81  C   UNL A   1      35.277  32.602  29.366  1.00  0.00     0.060 A 
BRANCH  81  82
ATOM     82  S   UNL A   1      34.093  33.873  28.857  1.00  0.00     0.124 S 
ATOM     83  O   UNL A   1      33.496  34.257  30.129  1.00  0.00    -0.237 OA
ATOM     84  O   UNL A   1      34.958  34.867  28.230  1.00  0.00    -0.237 OA
ATOM     85  O   UNL A   1      33.209  33.159  27.939  1.00  0.00    -0.744 OA
ENDBRANCH  81  82
ENDBRANCH  49  74
BRANCH  61  86
ATOM     86  C   UNL A   1      42.330  29.291  33.897  1.00  0.00     0.058 A 
ATOM     87  C   UNL A   1      41.848  27.992  33.647  1.00  0.00     0.135 A 
ATOM     88  C   UNL A   1      42.664  29.599  35.223  1.00  0.00     0.135 A 
ATOM     89  F   UNL A   1      41.608  27.573  32.399  1.00  0.00    -0.206 F 
ATOM     90  C   UNL A   1      41.667  27.062  34.673  1.00  0.00     0.059 A 
ATOM     91  C   UNL A   1      42.524  28.677  36.257  1.00  0.00     0.059 A 
ATOM     92  F   UNL A   1      43.191  30.798  35.522  1.00  0.00    -0.206 F 
ATOM     93  C   UNL A   1      42.012  27.413  35.977  1.00  0.00     0.060 A 
BRANCH  93  94
ATOM     94  S   UNL A   1      41.845  26.188  37.292  1.00  0.00     0.124 S 
ATOM     95  O   UNL A   1      42.020  24.934  36.567  1.00  0.00    -0.237 OA
ATOM     96  O   UNL A   1      42.928  26.550  38.203  1.00  0.00    -0.237 OA
ATOM     97  O   UNL A   1      40.501  26.425  37.812  1.00  0.00    -0.744 OA
ENDBRANCH  93  94
ENDBRANCH  61  86
ENDBRANCH  35  36
ENDBRANCH  27  30
ENDBRANCH  25  26
ENDBRANCH   1  25
TORSDOF 15
ENDMDL
MODEL 2
REMARK VINA RESULT:     -12.6      1.573      2.917
REMARK SMILES C[C@H]1OCC[C@@H]1C(=O)Nc1sc2c(c1C(=O)NCCCNC(=O)c1ccc(-c3c4nc(c(-c5c(F)cc(S(=O)(=O)[O-])cc5F)c5ccc([nH]5)c(-c5c(F)cc(S(=O)(=O)[O-])cc5F)c5nc(c(-c6c(F)cc(S(=O)(=O)[O-])cc6F)c6ccc3[nH]6)C=C5)C=C4)cc1)CCC2
REMARK SMILES IDX 19 1 18 2 17 3 15 4 16 5 14 7 10 8 11 9 12 10 13 11 92 12
REMARK SMILES IDX 90 13 91 14 9 15 7 16 8 17 6 19 1 20 2 21 3 22 4 23 5 24
REMARK SMILES IDX 20 25 21 26 22 27 23 29 24 30 25 31 89 32 26 33 88 34 27 35
REMARK SMILES IDX 28 36 29 37 82 38 30 39 87 40 81 41 83 42 31 43 86 44 80 45
REMARK SMILES IDX 79 46 32 48 66 49 45 50 65 51 46 52 49 53 64 54 84 55 47 56
REMARK SMILES IDX 48 57 63 59 85 60 50 61 33 62 34 63 43 64 35 65 36 66 42 67
REMARK SMILES IDX 44 68 37 69 38 70 39 71 40 72 41 73 67 74 68 75 77 76 69 77
REMARK SMILES IDX 70 78 76 79 78 80 71 81 72 82 73 83 74 84 75 85 51 86 52 87
REMARK SMILES IDX 61 88 53 89 54 90 60 91 62 92 55 93 56 94 57 95 58 96 59 97
REMARK H PARENT 17 6 9 18 21 28 83 47 49 58
REMARK Flexibility Score: inf
ROOT
ATOM      1  C   UNL A   1      39.434  21.409  25.909  1.00  0.00     0.042 C 
ENDROOT
BRANCH   1   2
ATOM      2  C   UNL A   1      38.130  22.197  25.787  1.00  0.00     0.118 C 
BRANCH   2   3
ATOM      3  N   UNL A   1      37.598  22.278  24.449  1.00  0.00    -0.352 N 
ATOM      4  C   UNL A   1      36.331  22.537  23.993  1.00  0.00     0.254 C 
ATOM      5  O   UNL A   1      36.296  23.155  22.924  1.00  0.00    -0.269 OA
ATOM      6  H   UNL A   1      38.261  22.120  23.739  1.00  0.00     0.163 HD
BRANCH   4   7
ATOM      7  C   UNL A   1      35.088  22.129  24.663  1.00  0.00     0.078 A 
ATOM      8  C   UNL A   1      34.313  23.089  25.330  1.00  0.00     0.108 A 
ATOM      9  S   UNL A   1      33.250  22.429  26.504  1.00  0.00    -0.122 S 
ATOM     10  C   UNL A   1      33.520  20.909  25.889  1.00  0.00     0.011 A 
ATOM     11  C   UNL A   1      34.467  20.850  24.897  1.00  0.00    -0.019 A 
ATOM     12  C   UNL A   1      32.941  19.606  26.291  1.00  0.00     0.047 C 
ATOM     13  C   UNL A   1      34.610  19.426  24.481  1.00  0.00     0.038 C 
ATOM     14  C   UNL A   1      33.369  18.726  25.098  1.00  0.00     0.010 C 
BRANCH   8  15
ATOM     15  N   UNL A   1      34.316  24.460  25.397  1.00  0.00    -0.317 N 
ATOM     16  C   UNL A   1      33.747  25.400  24.598  1.00  0.00     0.230 C 
ATOM     17  O   UNL A   1      33.934  26.575  24.950  1.00  0.00    -0.274 OA
ATOM     18  H   UNL A   1      34.821  24.827  26.159  1.00  0.00     0.170 HD
BRANCH  16  19
ATOM     19  C   UNL A   1      32.794  25.144  23.430  1.00  0.00     0.110 C 
ATOM     20  C   UNL A   1      32.920  23.426  21.574  1.00  0.00     0.039 C 
ATOM     21  C   UNL A   1      33.491  24.727  22.140  1.00  0.00     0.127 C 
ATOM     22  O   UNL A   1      33.261  25.788  21.198  1.00  0.00    -0.378 OA
ATOM     23  C   UNL A   1      32.022  26.410  21.548  1.00  0.00     0.161 C 
ATOM     24  C   UNL A   1      31.852  26.255  23.043  1.00  0.00     0.044 C 
ENDBRANCH  16  19
ENDBRANCH   8  15
ENDBRANCH   4   7
ENDBRANCH   2   3
ENDBRANCH   1   2
BRANCH   1  25
ATOM     25  C   UNL A   1      40.569  22.256  26.446  1.00  0.00     0.118 C 
BRANCH  25  26
ATOM     26  N   UNL A   1      41.782  22.100  25.636  1.00  0.00    -0.352 N 
ATOM     27  C   UNL A   1      42.700  23.056  25.242  1.00  0.00     0.251 C 
ATOM     28  H   UNL A   1      41.969  21.184  25.327  1.00  0.00     0.163 HD
ATOM     29  O   UNL A   1      43.481  22.830  24.335  1.00  0.00    -0.269 OA
BRANCH  27  30
ATOM     30  C   UNL A   1      42.701  24.351  25.941  1.00  0.00     0.039 A 
ATOM     31  C   UNL A   1      41.937  25.427  25.478  1.00  0.00     0.014 A 
ATOM     32  C   UNL A   1      43.451  24.454  27.105  1.00  0.00     0.014 A 
ATOM     33  C   UNL A   1      41.875  26.583  26.250  1.00  0.00     0.010 A 
ATOM     34  C   UNL A   1      43.231  25.501  27.952  1.00  0.00     0.010 A 
ATOM     35  C   UNL A   1      42.512  26.602  27.496  1.00  0.00    -0.014 A 
BRANCH  35  36
ATOM     36  C   UNL A   1      42.359  27.716  28.423  1.00  0.00     0.031 A 
ATOM     37  C   UNL A   1      43.417  28.760  28.307  1.00  0.00     0.074 A 
ATOM     38  C   UNL A   1      41.193  27.898  29.085  1.00  0.00     0.049 A 
ATOM     39  N   UNL A   1      44.253  29.145  29.214  1.00  0.00    -0.248 NA
ATOM     40  C   UNL A   1      43.689  29.335  26.976  1.00  0.00     0.031 C 
ATOM     41  C   UNL A   1      39.980  27.071  29.014  1.00  0.00     0.029 A 
ATOM     42  N   UNL A   1      40.778  28.954  29.832  1.00  0.00    -0.354 N 
ATOM     43  C   UNL A   1      44.976  30.191  28.642  1.00  0.00     0.074 A 
ATOM     44  C   UNL A   1      44.751  30.103  27.224  1.00  0.00     0.031 C 
ATOM     45  C   UNL A   1      38.919  27.781  29.449  1.00  0.00     0.029 A 
ATOM     46  C   UNL A   1      39.393  29.043  29.980  1.00  0.00     0.049 A 
ATOM     47  H   UNL A   1      41.401  29.601  30.235  1.00  0.00     0.167 HD
ATOM     48  C   UNL A   1      45.469  31.207  29.405  1.00  0.00     0.037 A 
ATOM     49  C   UNL A   1      38.698  30.115  30.443  1.00  0.00     0.037 A 
ATOM     50  C   UNL A   1      45.475  30.848  30.802  1.00  0.00     0.049 A 
ATOM     51  C   UNL A   1      39.672  30.945  31.208  1.00  0.00     0.074 A 
ATOM     52  C   UNL A   1      46.034  29.813  31.528  1.00  0.00     0.029 A 
ATOM     53  N   UNL A   1      44.493  31.379  31.603  1.00  0.00    -0.354 N 
ATOM     54  N   UNL A   1      40.255  30.542  32.307  1.00  0.00    -0.248 NA
ATOM     55  C   UNL A   1      40.366  32.004  30.491  1.00  0.00     0.031 C 
ATOM     56  C   UNL A   1      45.038  29.459  32.485  1.00  0.00     0.029 A 
ATOM     57  C   UNL A   1      43.974  30.353  32.351  1.00  0.00     0.049 A 
ATOM     58  H   UNL A   1      44.213  32.323  31.635  1.00  0.00     0.167 HD
ATOM     59  C   UNL A   1      41.570  30.969  32.190  1.00  0.00     0.074 A 
ATOM     60  C   UNL A   1      41.560  31.930  31.087  1.00  0.00     0.031 C 
ATOM     61  C   UNL A   1      42.594  30.285  32.784  1.00  0.00     0.037 A 
BRANCH  48  62
ATOM     62  C   UNL A   1      45.582  32.645  28.945  1.00  0.00     0.058 A 
ATOM     63  C   UNL A   1      46.808  33.324  29.110  1.00  0.00     0.135 A 
ATOM     64  C   UNL A   1      44.478  33.463  28.616  1.00  0.00     0.135 A 
ATOM     65  F   UNL A   1      47.925  32.650  29.430  1.00  0.00    -0.206 F 
ATOM     66  C   UNL A   1      46.910  34.713  29.033  1.00  0.00     0.059 A 
ATOM     67  C   UNL A   1      44.569  34.842  28.478  1.00  0.00     0.059 A 
ATOM     68  F   UNL A   1      43.233  32.982  28.510  1.00  0.00    -0.206 F 
ATOM     69  C   UNL A   1      45.778  35.465  28.731  1.00  0.00     0.060 A 
BRANCH  69  70
ATOM     70  S   UNL A   1      45.880  37.261  28.733  1.00  0.00     0.124 S 
ATOM     71  O   UNL A   1      46.293  37.527  30.106  1.00  0.00    -0.237 OA
ATOM     72  O   UNL A   1      46.884  37.507  27.702  1.00  0.00    -0.237 OA
ATOM     73  O   UNL A   1      44.523  37.674  28.390  1.00  0.00    -0.744 OA
ENDBRANCH  69  70
ENDBRANCH  48  62
BRANCH  49  74
ATOM     74  C   UNL A   1      37.395  30.639  29.937  1.00  0.00     0.058 A 
ATOM     75  C   UNL A   1      36.468  31.236  30.813  1.00  0.00     0.135 A 
ATOM     76  C   UNL A   1      37.144  30.824  28.561  1.00  0.00     0.135 A 
ATOM     77  F   UNL A   1      36.625  31.119  32.141  1.00  0.00    -0.206 F 
ATOM     78  C   UNL A   1      35.408  32.029  30.356  1.00  0.00     0.059 A 
ATOM     79  C   UNL A   1      36.085  31.594  28.083  1.00  0.00     0.059 A 
ATOM     80  F   UNL A   1      37.977  30.345  27.626  1.00  0.00    -0.206 F 
ATOM     81  C   UNL A   1      35.241  32.224  28.986  1.00  0.00     0.060 A 
BRANCH  81  82
ATOM     82  S   UNL A   1      34.024  33.425  28.391  1.00  0.00     0.124 S 
ATOM     83  O   UNL A   1      34.840  34.288  27.547  1.00  0.00    -0.237 OA
ATOM     84  O   UNL A   1      33.065  32.573  27.697  1.00  0.00    -0.237 OA
ATOM     85  O   UNL A   1      33.528  34.038  29.621  1.00  0.00    -0.744 OA
ENDBRANCH  81  82
ENDBRANCH  49  74
BRANCH  61  86
ATOM     86  C   UNL A   1      42.263  29.218  33.801  1.00  0.00     0.058 A 
ATOM     87  C   UNL A   1      42.103  27.850  33.505  1.00  0.00     0.135 A 
ATOM     88  C   UNL A   1      42.282  29.574  35.156  1.00  0.00     0.135 A 
ATOM     89  F   UNL A   1      42.182  27.402  32.247  1.00  0.00    -0.206 F 
ATOM     90  C   UNL A   1      41.929  26.893  34.507  1.00  0.00     0.059 A 
ATOM     91  C   UNL A   1      42.144  28.634  36.174  1.00  0.00     0.059 A 
ATOM     92  F   UNL A   1      42.496  30.852  35.512  1.00  0.00    -0.206 F 
ATOM     93  C   UNL A   1      41.954  27.295  35.842  1.00  0.00     0.060 A 
BRANCH  93  94
ATOM     94  S   UNL A   1      41.800  26.050  37.140  1.00  0.00     0.124 S 
ATOM     95  O   UNL A   1      42.009  24.809  36.401  1.00  0.00    -0.237 OA
ATOM     96  O   UNL A   1      42.865  26.423  38.067  1.00  0.00    -0.237 OA
ATOM     97  O   UNL A   1      40.445  26.252  37.648  1.00  0.00    -0.744 OA
ENDBRANCH  93  94
ENDBRANCH  61  86
ENDBRANCH  35  36
ENDBRANCH  27  30
ENDBRANCH  25  26
ENDBRANCH   1  25
TORSDOF 15
ENDMDL
MODEL 3
REMARK VINA RESULT:     -12.4      5.247     11.901
REMARK SMILES C[C@H]1OCC[C@@H]1C(=O)Nc1sc2c(c1C(=O)NCCCNC(=O)c1ccc(-c3c4nc(c(-c5c(F)cc(S(=O)(=O)[O-])cc5F)c5ccc([nH]5)c(-c5c(F)cc(S(=O)(=O)[O-])cc5F)c5nc(c(-c6c(F)cc(S(=O)(=O)[O-])cc6F)c6ccc3[nH]6)C=C5)C=C4)cc1)CCC2
REMARK SMILES IDX 19 1 18 2 17 3 15 4 16 5 14 7 10 8 11 9 12 10 13 11 92 12
REMARK SMILES IDX 90 13 91 14 9 15 7 16 8 17 6 19 1 20 2 21 3 22 4 23 5 24
REMARK SMILES IDX 20 25 21 26 22 27 23 29 24 30 25 31 89 32 26 33 88 34 27 35
REMARK SMILES IDX 28 36 29 37 82 38 30 39 87 40 81 41 83 42 31 43 86 44 80 45
REMARK SMILES IDX 79 46 32 48 66 49 45 50 65 51 46 52 49 53 64 54 84 55 47 56
REMARK SMILES IDX 48 57 63 59 85 60 50 61 33 62 34 63 43 64 35 65 36 66 42 67
REMARK SMILES IDX 44 68 37 69 38 70 39 71 40 72 41 73 67 74 68 75 77 76 69 77
REMARK SMILES IDX 70 78 76 79 78 80 71 81 72 82 73 83 74 84 75 85 51 86 52 87
REMARK SMILES IDX 61 88 53 89 54 90 60 91 62 92 55 93 56 94 57 95 58 96 59 97
REMARK H PARENT 17 6 9 18 21 28 83 47 49 58
REMARK Flexibility Score: inf
ROOT
ATOM      1  C   UNL A   1      34.353  33.832  30.311  1.00  0.00     0.042 C 
ENDROOT
BRANCH   1   2
ATOM      2  C   UNL A   1      34.894  34.544  31.550  1.00  0.00     0.118 C 
BRANCH   2   3
ATOM      3  N   UNL A   1      34.929  33.734  32.742  1.00  0.00    -0.352 N 
ATOM      4  C   UNL A   1      35.973  33.349  33.544  1.00  0.00     0.254 C 
ATOM      5  O   UNL A   1      35.680  33.244  34.739  1.00  0.00    -0.269 OA
ATOM      6  H   UNL A   1      34.050  33.399  33.031  1.00  0.00     0.163 HD
BRANCH   4   7
ATOM      7  C   UNL A   1      37.336  33.056  33.078  1.00  0.00     0.078 A 
ATOM      8  C   UNL A   1      38.127  32.138  33.785  1.00  0.00     0.108 A 
ATOM      9  S   UNL A   1      39.811  32.308  33.500  1.00  0.00    -0.122 S 
ATOM     10  C   UNL A   1      39.488  33.297  32.205  1.00  0.00     0.011 A 
ATOM     11  C   UNL A   1      38.161  33.602  32.031  1.00  0.00    -0.019 A 
ATOM     12  C   UNL A   1      40.418  33.946  31.251  1.00  0.00     0.047 C 
ATOM     13  C   UNL A   1      38.048  34.514  30.858  1.00  0.00     0.038 C 
ATOM     14  C   UNL A   1      39.429  34.402  30.158  1.00  0.00     0.010 C 
BRANCH   8  15
ATOM     15  N   UNL A   1      37.896  31.234  34.792  1.00  0.00    -0.317 N 
ATOM     16  C   UNL A   1      38.046  31.333  36.139  1.00  0.00     0.230 C 
ATOM     17  O   UNL A   1      37.732  30.318  36.780  1.00  0.00    -0.274 OA
ATOM     18  H   UNL A   1      37.563  30.360  34.484  1.00  0.00     0.170 HD
BRANCH  16  19
ATOM     19  C   UNL A   1      38.407  32.594  36.924  1.00  0.00     0.110 C 
ATOM     20  C   UNL A   1      40.571  33.909  36.986  1.00  0.00     0.039 C 
ATOM     21  C   UNL A   1      39.850  32.630  37.413  1.00  0.00     0.127 C 
ATOM     22  O   UNL A   1      39.788  32.585  38.849  1.00  0.00    -0.378 OA
ATOM     23  C   UNL A   1      38.549  33.180  39.243  1.00  0.00     0.161 C 
ATOM     24  C   UNL A   1      37.560  32.934  38.124  1.00  0.00     0.044 C 
ENDBRANCH  16  19
ENDBRANCH   8  15
ENDBRANCH   4   7
ENDBRANCH   2   3
ENDBRANCH   1   2
BRANCH   1  25
ATOM     25  C   UNL A   1      34.776  32.379  30.252  1.00  0.00     0.118 C 
BRANCH  25  26
ATOM     26  N   UNL A   1      34.340  31.746  29.002  1.00  0.00    -0.352 N 
ATOM     27  C   UNL A   1      35.074  31.000  28.097  1.00  0.00     0.251 C 
ATOM     28  H   UNL A   1      33.391  31.869  28.774  1.00  0.00     0.163 HD
ATOM     29  O   UNL A   1      34.651  30.798  26.974  1.00  0.00    -0.269 OA
BRANCH  27  30
ATOM     30  C   UNL A   1      36.377  30.470  28.526  1.00  0.00     0.039 A 
ATOM     31  C   UNL A   1      36.731  29.136  28.296  1.00  0.00     0.014 A 
ATOM     32  C   UNL A   1      37.267  31.353  29.124  1.00  0.00     0.014 A 
ATOM     33  C   UNL A   1      38.023  28.724  28.606  1.00  0.00     0.010 A 
ATOM     34  C   UNL A   1      38.581  31.003  29.239  1.00  0.00     0.010 A 
ATOM     35  C   UNL A   1      38.947  29.673  29.060  1.00  0.00    -0.014 A 
BRANCH  35  36
ATOM     36  C   UNL A   1      40.354  29.346  29.252  1.00  0.00     0.031 A 
ATOM     37  C   UNL A   1      40.760  29.197  30.679  1.00  0.00     0.074 A 
ATOM     38  C   UNL A   1      41.106  28.925  28.210  1.00  0.00     0.049 A 
ATOM     39  N   UNL A   1      41.640  29.883  31.328  1.00  0.00    -0.248 NA
ATOM     40  C   UNL A   1      39.980  28.283  31.535  1.00  0.00     0.031 C 
ATOM     41  C   UNL A   1      40.687  28.750  26.812  1.00  0.00     0.029 A 
ATOM     42  N   UNL A   1      42.358  28.398  28.203  1.00  0.00    -0.354 N 
ATOM     43  C   UNL A   1      41.707  29.309  32.597  1.00  0.00     0.074 A 
ATOM     44  C   UNL A   1      40.523  28.504  32.734  1.00  0.00     0.031 C 
ATOM     45  C   UNL A   1      41.547  27.926  26.179  1.00  0.00     0.029 A 
ATOM     46  C   UNL A   1      42.658  27.647  27.065  1.00  0.00     0.049 A 
ATOM     47  H   UNL A   1      42.999  28.534  28.937  1.00  0.00     0.167 HD
ATOM     48  C   UNL A   1      42.864  29.321  33.317  1.00  0.00     0.037 A 
ATOM     49  C   UNL A   1      43.714  26.807  26.909  1.00  0.00     0.037 A 
ATOM     50  C   UNL A   1      43.796  30.284  32.781  1.00  0.00     0.049 A 
ATOM     51  C   UNL A   1      44.722  27.207  27.931  1.00  0.00     0.074 A 
ATOM     52  C   UNL A   1      43.742  31.643  32.537  1.00  0.00     0.029 A 
ATOM     53  N   UNL A   1      44.844  29.810  32.029  1.00  0.00    -0.354 N 
ATOM     54  N   UNL A   1      45.333  28.364  27.927  1.00  0.00    -0.248 NA
ATOM     55  C   UNL A   1      44.680  26.533  29.220  1.00  0.00     0.031 C 
ATOM     56  C   UNL A   1      44.411  31.817  31.290  1.00  0.00     0.029 A 
ATOM     57  C   UNL A   1      44.913  30.577  30.894  1.00  0.00     0.049 A 
ATOM     58  H   UNL A   1      45.436  29.058  32.263  1.00  0.00     0.167 HD
ATOM     59  C   UNL A   1      45.359  28.757  29.258  1.00  0.00     0.074 A 
ATOM     60  C   UNL A   1      45.013  27.554  30.016  1.00  0.00     0.031 C 
ATOM     61  C   UNL A   1      45.355  30.078  29.608  1.00  0.00     0.037 A 
BRANCH  48  62
ATOM     62  C   UNL A   1      43.303  28.212  34.249  1.00  0.00     0.058 A 
ATOM     63  C   UNL A   1      43.650  28.531  35.580  1.00  0.00     0.135 A 
ATOM     64  C   UNL A   1      43.666  26.914  33.824  1.00  0.00     0.135 A 
ATOM     65  F   UNL A   1      43.361  29.738  36.091  1.00  0.00    -0.206 F 
ATOM     66  C   UNL A   1      44.371  27.657  36.394  1.00  0.00     0.059 A 
ATOM     67  C   UNL A   1      44.334  26.008  34.638  1.00  0.00     0.059 A 
ATOM     68  F   UNL A   1      43.483  26.491  32.568  1.00  0.00    -0.206 F 
ATOM     69  C   UNL A   1      44.722  26.402  35.907  1.00  0.00     0.060 A 
BRANCH  69  70
ATOM     70  S   UNL A   1      45.741  25.312  36.913  1.00  0.00     0.124 S 
ATOM     71  O   UNL A   1      45.667  25.967  38.214  1.00  0.00    -0.237 OA
ATOM     72  O   UNL A   1      45.033  24.042  36.793  1.00  0.00    -0.237 OA
ATOM     73  O   UNL A   1      47.041  25.364  36.252  1.00  0.00    -0.744 OA
ENDBRANCH  69  70
ENDBRANCH  48  62
BRANCH  49  74
ATOM     74  C   UNL A   1      43.724  25.480  26.225  1.00  0.00     0.058 A 
ATOM     75  C   UNL A   1      44.663  25.194  25.216  1.00  0.00     0.135 A 
ATOM     76  C   UNL A   1      43.011  24.371  26.728  1.00  0.00     0.135 A 
ATOM     77  F   UNL A   1      45.394  26.183  24.677  1.00  0.00    -0.206 F 
ATOM     78  C   UNL A   1      44.932  23.887  24.788  1.00  0.00     0.059 A 
ATOM     79  C   UNL A   1      43.248  23.064  26.306  1.00  0.00     0.059 A 
ATOM     80  F   UNL A   1      42.122  24.503  27.723  1.00  0.00    -0.206 F 
ATOM     81  C   UNL A   1      44.237  22.824  25.361  1.00  0.00     0.060 A 
BRANCH  81  82
ATOM     82  S   UNL A   1      44.731  21.123  24.991  1.00  0.00     0.124 S 
ATOM     83  O   UNL A   1      43.718  20.353  25.701  1.00  0.00    -0.237 OA
ATOM     84  O   UNL A   1      44.656  21.090  23.534  1.00  0.00    -0.237 OA
ATOM     85  O   UNL A   1      46.082  21.039  25.542  1.00  0.00    -0.744 OA
ENDBRANCH  81  82
ENDBRANCH  49  74
BRANCH  61  86
ATOM     86  C   UNL A   1      45.603  31.116  28.538  1.00  0.00     0.058 A 
ATOM     87  C   UNL A   1      44.600  31.698  27.739  1.00  0.00     0.135 A 
ATOM     88  C   UNL A   1      46.889  31.665  28.441  1.00  0.00     0.135 A 
ATOM     89  F   UNL A   1      43.323  31.313  27.844  1.00  0.00    -0.206 F 
ATOM     90  C   UNL A   1      44.874  32.748  26.858  1.00  0.00     0.059 A 
ATOM     91  C   UNL A   1      47.179  32.733  27.596  1.00  0.00     0.059 A 
ATOM     92  F   UNL A   1      47.878  31.201  29.222  1.00  0.00    -0.206 F 
ATOM     93  C   UNL A   1      46.168  33.261  26.796  1.00  0.00     0.060 A 
BRANCH  93  94
ATOM     94  S   UNL A   1      46.508  34.663  25.711  1.00  0.00     0.124 S 
ATOM     95  O   UNL A   1      45.536  34.465  24.641  1.00  0.00    -0.237 OA
ATOM     96  O   UNL A   1      46.265  35.808  26.584  1.00  0.00    -0.237 OA
ATOM     97  O   UNL A   1      47.905  34.469  25.329  1.00  0.00    -0.744 OA
ENDBRANCH  93  94
ENDBRANCH  61  86
ENDBRANCH  35  36
ENDBRANCH  27  30
ENDBRANCH  25  26
ENDBRANCH   1  25
TORSDOF 15
ENDMDL
