MODEL 1
REMARK VINA RESULT:     -12.3      0.000      0.000
REMARK SMILES CC1(C)CSC[C@](Nc2ccccc2Cl)(C(=O)NCCCNC(=O)c2ccc(-c3c4nc(c(-c5c(F)cc(S(=O)(=O)[O-])cc5F)c5ccc([nH]5)c(-c5c(F)cc(S(=O)(=O)[O-])cc5F)c5nc(c(-c6c(F)cc(S(=O)(=O)[O-])cc6F)c6ccc3[nH]6)C=C5)C=C4)cc2)C1
REMARK SMILES IDX 20 1 19 2 18 3 16 4 17 5 7 7 1 8 2 9 3 10 4 11 91 12 5 13
REMARK SMILES IDX 6 14 8 15 9 17 10 18 14 19 11 20 13 21 15 22 12 23 21 24
REMARK SMILES IDX 22 25 23 26 24 28 25 29 26 30 90 31 27 32 89 33 28 34 29 35
REMARK SMILES IDX 30 36 83 37 31 38 88 39 82 40 84 41 32 42 87 43 81 44 80 45
REMARK SMILES IDX 33 47 67 48 46 49 66 50 47 51 50 52 65 53 85 54 48 55 49 56
REMARK SMILES IDX 64 58 86 59 51 60 34 61 35 62 44 63 36 64 37 65 43 66 45 67
REMARK SMILES IDX 38 68 39 69 40 70 41 71 42 72 68 73 69 74 78 75 70 76 71 77
REMARK SMILES IDX 77 78 79 79 72 80 73 81 74 82 75 83 76 84 52 85 53 86 62 87
REMARK SMILES IDX 54 88 55 89 61 90 63 91 56 92 57 93 58 94 59 95 60 96
REMARK H PARENT 18 6 8 16 22 27 84 46 50 57
REMARK Flexibility Score: inf
ROOT
ATOM      1  C   UNL A   1      32.191  27.864  27.036  1.00  0.00     0.042 C 
ENDROOT
BRANCH   1   2
ATOM      2  C   UNL A   1      32.237  26.571  26.244  1.00  0.00     0.117 C 
BRANCH   2   3
ATOM      3  N   UNL A   1      31.371  25.547  26.799  1.00  0.00    -0.354 N 
ATOM      4  C   UNL A   1      31.217  24.232  26.456  1.00  0.00     0.246 C 
ATOM      5  O   UNL A   1      30.422  23.586  27.149  1.00  0.00    -0.272 OA
ATOM      6  H   UNL A   1      30.801  25.848  27.542  1.00  0.00     0.163 HD
BRANCH   4   7
ATOM      7  C   UNL A   1      31.944  23.594  25.223  1.00  0.00     0.126 C 
ATOM      8  C   UNL A   1      32.200  20.972  23.161  1.00  0.00     0.012 C 
ATOM      9  C   UNL A   1      32.843  21.143  24.551  1.00  0.00    -0.024 C 
ATOM     10  C   UNL A   1      32.872  19.735  25.201  1.00  0.00     0.012 C 
ATOM     11  C   UNL A   1      34.296  21.638  24.440  1.00  0.00     0.076 C 
ATOM     12  C   UNL A   1      31.982  22.052  25.468  1.00  0.00     0.046 C 
ATOM     13  S   UNL A   1      34.440  23.368  23.909  1.00  0.00    -0.158 SA
ATOM     14  C   UNL A   1      33.408  24.115  25.224  1.00  0.00     0.108 C 
BRANCH   7  15
ATOM     15  N   UNL A   1      31.314  23.926  23.905  1.00  0.00    -0.369 N 
ATOM     16  H   UNL A   1      31.207  23.185  23.265  1.00  0.00     0.161 HD
BRANCH  15  17
ATOM     17  C   UNL A   1      30.865  25.178  23.495  1.00  0.00     0.054 A 
ATOM     18  C   UNL A   1      29.590  25.570  23.942  1.00  0.00     0.027 A 
ATOM     19  C   UNL A   1      31.527  26.055  22.617  1.00  0.00     0.064 A 
ATOM     20  C   UNL A   1      29.080  26.848  23.690  1.00  0.00     0.002 A 
ATOM     21  C   UNL A   1      31.018  27.337  22.359  1.00  0.00     0.023 A 
ATOM     22  Cl  UNL A   1      32.960  25.615  21.762  1.00  0.00    -0.082 Cl
ATOM     23  C   UNL A   1      29.811  27.744  22.920  1.00  0.00     0.002 A 
ENDBRANCH  15  17
ENDBRANCH   7  15
ENDBRANCH   4   7
ENDBRANCH   2   3
ENDBRANCH   1   2
BRANCH   1  24
ATOM     24  C   UNL A   1      33.569  28.465  27.254  1.00  0.00     0.118 C 
BRANCH  24  25
ATOM     25  N   UNL A   1      33.509  29.879  27.611  1.00  0.00    -0.352 N 
ATOM     26  C   UNL A   1      34.457  30.668  28.216  1.00  0.00     0.251 C 
ATOM     27  H   UNL A   1      32.665  30.334  27.385  1.00  0.00     0.163 HD
ATOM     28  O   UNL A   1      34.161  31.786  28.617  1.00  0.00    -0.269 OA
BRANCH  26  29
ATOM     29  C   UNL A   1      35.826  30.143  28.395  1.00  0.00     0.039 A 
ATOM     30  C   UNL A   1      36.711  30.159  27.316  1.00  0.00     0.014 A 
ATOM     31  C   UNL A   1      36.238  29.664  29.641  1.00  0.00     0.014 A 
ATOM     32  C   UNL A   1      38.035  29.760  27.508  1.00  0.00     0.010 A 
ATOM     33  C   UNL A   1      37.575  29.362  29.854  1.00  0.00     0.010 A 
ATOM     34  C   UNL A   1      38.487  29.398  28.788  1.00  0.00    -0.014 A 
BRANCH  34  35
ATOM     35  C   UNL A   1      39.898  29.020  29.044  1.00  0.00     0.031 A 
ATOM     36  C   UNL A   1      40.846  30.045  29.607  1.00  0.00     0.074 A 
ATOM     37  C   UNL A   1      40.340  27.795  28.696  1.00  0.00     0.049 A 
ATOM     38  N   UNL A   1      42.139  29.969  29.775  1.00  0.00    -0.248 NA
ATOM     39  C   UNL A   1      40.265  31.340  30.002  1.00  0.00     0.031 C 
ATOM     40  C   UNL A   1      39.524  26.733  28.102  1.00  0.00     0.029 A 
ATOM     41  N   UNL A   1      41.593  27.241  28.779  1.00  0.00    -0.354 N 
ATOM     42  C   UNL A   1      42.527  31.206  30.275  1.00  0.00     0.074 A 
ATOM     43  C   UNL A   1      41.345  32.035  30.326  1.00  0.00     0.031 C 
ATOM     44  C   UNL A   1      40.292  25.650  27.896  1.00  0.00     0.029 A 
ATOM     45  C   UNL A   1      41.660  25.953  28.302  1.00  0.00     0.049 A 
ATOM     46  H   UNL A   1      42.370  27.721  29.146  1.00  0.00     0.167 HD
ATOM     47  C   UNL A   1      43.754  31.606  30.685  1.00  0.00     0.037 A 
ATOM     48  C   UNL A   1      42.712  25.117  28.196  1.00  0.00     0.037 A 
ATOM     49  C   UNL A   1      44.918  30.763  30.668  1.00  0.00     0.049 A 
ATOM     50  C   UNL A   1      44.066  25.587  28.657  1.00  0.00     0.074 A 
ATOM     51  C   UNL A   1      46.201  31.057  31.094  1.00  0.00     0.029 A 
ATOM     52  N   UNL A   1      44.938  29.452  30.213  1.00  0.00    -0.354 N 
ATOM     53  N   UNL A   1      44.408  26.749  29.161  1.00  0.00    -0.248 NA
ATOM     54  C   UNL A   1      45.177  24.632  28.540  1.00  0.00     0.031 C 
ATOM     55  C   UNL A   1      47.003  29.933  30.870  1.00  0.00     0.029 A 
ATOM     56  C   UNL A   1      46.211  28.926  30.345  1.00  0.00     0.049 A 
ATOM     57  H   UNL A   1      44.160  28.969  29.849  1.00  0.00     0.167 HD
ATOM     58  C   UNL A   1      45.763  26.652  29.455  1.00  0.00     0.074 A 
ATOM     59  C   UNL A   1      46.178  25.316  29.078  1.00  0.00     0.031 C 
ATOM     60  C   UNL A   1      46.591  27.582  29.990  1.00  0.00     0.037 A 
BRANCH  47  61
ATOM     61  C   UNL A   1      43.892  33.008  31.210  1.00  0.00     0.058 A 
ATOM     62  C   UNL A   1      44.225  34.077  30.362  1.00  0.00     0.135 A 
ATOM     63  C   UNL A   1      43.651  33.296  32.563  1.00  0.00     0.135 A 
ATOM     64  F   UNL A   1      44.488  33.854  29.064  1.00  0.00    -0.206 F 
ATOM     65  C   UNL A   1      44.337  35.377  30.840  1.00  0.00     0.059 A 
ATOM     66  C   UNL A   1      43.728  34.594  33.058  1.00  0.00     0.059 A 
ATOM     67  F   UNL A   1      43.332  32.311  33.417  1.00  0.00    -0.206 F 
ATOM     68  C   UNL A   1      44.084  35.627  32.190  1.00  0.00     0.060 A 
BRANCH  68  69
ATOM     69  S   UNL A   1      44.212  37.324  32.789  1.00  0.00     0.124 S 
ATOM     70  O   UNL A   1      45.590  37.360  33.268  1.00  0.00    -0.237 OA
ATOM     71  O   UNL A   1      43.941  38.102  31.584  1.00  0.00    -0.237 OA
ATOM     72  O   UNL A   1      43.185  37.399  33.823  1.00  0.00    -0.744 OA
ENDBRANCH  68  69
ENDBRANCH  47  61
BRANCH  48  73
ATOM     73  C   UNL A   1      42.531  23.744  27.652  1.00  0.00     0.058 A 
ATOM     74  C   UNL A   1      42.365  22.648  28.510  1.00  0.00     0.135 A 
ATOM     75  C   UNL A   1      42.538  23.496  26.271  1.00  0.00     0.135 A 
ATOM     76  F   UNL A   1      42.354  22.833  29.840  1.00  0.00    -0.206 F 
ATOM     77  C   UNL A   1      42.247  21.350  28.024  1.00  0.00     0.059 A 
ATOM     78  C   UNL A   1      42.395  22.211  25.758  1.00  0.00     0.059 A 
ATOM     79  F   UNL A   1      42.671  24.513  25.405  1.00  0.00    -0.206 F 
ATOM     80  C   UNL A   1      42.269  21.142  26.644  1.00  0.00     0.060 A 
BRANCH  80  81
ATOM     81  S   UNL A   1      42.100  19.456  26.019  1.00  0.00     0.124 S 
ATOM     82  O   UNL A   1      42.584  18.676  27.151  1.00  0.00    -0.237 OA
ATOM     83  O   UNL A   1      40.669  19.369  25.747  1.00  0.00    -0.237 OA
ATOM     84  O   UNL A   1      42.956  19.451  24.835  1.00  0.00    -0.744 OA
ENDBRANCH  80  81
ENDBRANCH  48  73
BRANCH  60  85
ATOM     85  C   UNL A   1      48.012  27.175  30.256  1.00  0.00     0.058 A 
ATOM     86  C   UNL A   1      49.025  27.361  29.303  1.00  0.00     0.135 A 
ATOM     87  C   UNL A   1      48.374  26.655  31.509  1.00  0.00     0.135 A 
ATOM     88  F   UNL A   1      48.727  27.848  28.088  1.00  0.00    -0.206 F 
ATOM     89  C   UNL A   1      50.347  27.031  29.578  1.00  0.00     0.059 A 
ATOM     90  C   UNL A   1      49.694  26.341  31.815  1.00  0.00     0.059 A 
ATOM     91  F   UNL A   1      47.443  26.468  32.458  1.00  0.00    -0.206 F 
ATOM     92  C   UNL A   1      50.672  26.525  30.838  1.00  0.00     0.060 A 
BRANCH  92  93
ATOM     93  S   UNL A   1      52.400  26.147  31.199  1.00  0.00     0.124 S 
ATOM     94  O   UNL A   1      52.762  27.246  32.087  1.00  0.00    -0.237 OA
ATOM     95  O   UNL A   1      52.308  24.831  31.823  1.00  0.00    -0.237 OA
ATOM     96  O   UNL A   1      53.034  26.168  29.883  1.00  0.00    -0.744 OA
ENDBRANCH  92  93
ENDBRANCH  60  85
ENDBRANCH  34  35
ENDBRANCH  26  29
ENDBRANCH  24  25
ENDBRANCH   1  24
TORSDOF 15
ENDMDL
MODEL 2
REMARK VINA RESULT:     -12.2      4.795     10.477
REMARK SMILES CC1(C)CSC[C@](Nc2ccccc2Cl)(C(=O)NCCCNC(=O)c2ccc(-c3c4nc(c(-c5c(F)cc(S(=O)(=O)[O-])cc5F)c5ccc([nH]5)c(-c5c(F)cc(S(=O)(=O)[O-])cc5F)c5nc(c(-c6c(F)cc(S(=O)(=O)[O-])cc6F)c6ccc3[nH]6)C=C5)C=C4)cc2)C1
REMARK SMILES IDX 20 1 19 2 18 3 16 4 17 5 7 7 1 8 2 9 3 10 4 11 91 12 5 13
REMARK SMILES IDX 6 14 8 15 9 17 10 18 14 19 11 20 13 21 15 22 12 23 21 24
REMARK SMILES IDX 22 25 23 26 24 28 25 29 26 30 90 31 27 32 89 33 28 34 29 35
REMARK SMILES IDX 30 36 83 37 31 38 88 39 82 40 84 41 32 42 87 43 81 44 80 45
REMARK SMILES IDX 33 47 67 48 46 49 66 50 47 51 50 52 65 53 85 54 48 55 49 56
REMARK SMILES IDX 64 58 86 59 51 60 34 61 35 62 44 63 36 64 37 65 43 66 45 67
REMARK SMILES IDX 38 68 39 69 40 70 41 71 42 72 68 73 69 74 78 75 70 76 71 77
REMARK SMILES IDX 77 78 79 79 72 80 73 81 74 82 75 83 76 84 52 85 53 86 62 87
REMARK SMILES IDX 54 88 55 89 61 90 63 91 56 92 57 93 58 94 59 95 60 96
REMARK H PARENT 18 6 8 16 22 27 84 46 50 57
REMARK Flexibility Score: inf
ROOT
ATOM      1  C   UNL A   1      37.412  23.706  25.331  1.00  0.00     0.042 C 
ENDROOT
BRANCH   1   2
ATOM      2  C   UNL A   1      36.830  22.306  25.394  1.00  0.00     0.117 C 
BRANCH   2   3
ATOM      3  N   UNL A   1      35.964  22.116  26.543  1.00  0.00    -0.354 N 
ATOM      4  C   UNL A   1      34.607  22.240  26.663  1.00  0.00     0.246 C 
ATOM      5  O   UNL A   1      34.138  21.968  27.774  1.00  0.00    -0.272 OA
ATOM      6  H   UNL A   1      36.427  21.856  27.370  1.00  0.00     0.163 HD
BRANCH   4   7
ATOM      7  C   UNL A   1      33.704  22.762  25.492  1.00  0.00     0.126 C 
ATOM      8  C   UNL A   1      33.431  24.793  22.848  1.00  0.00     0.012 C 
ATOM      9  C   UNL A   1      33.212  25.145  24.332  1.00  0.00    -0.024 C 
ATOM     10  C   UNL A   1      33.692  26.609  24.514  1.00  0.00     0.012 C 
ATOM     11  C   UNL A   1      31.721  25.091  24.708  1.00  0.00     0.076 C 
ATOM     12  C   UNL A   1      34.084  24.259  25.261  1.00  0.00     0.046 C 
ATOM     13  S   UNL A   1      31.045  23.407  24.772  1.00  0.00    -0.158 SA
ATOM     14  C   UNL A   1      32.230  22.713  25.982  1.00  0.00     0.108 C 
BRANCH   7  15
ATOM     15  N   UNL A   1      33.821  21.964  24.230  1.00  0.00    -0.369 N 
ATOM     16  H   UNL A   1      34.211  22.422  23.450  1.00  0.00     0.161 HD
BRANCH  15  17
ATOM     17  C   UNL A   1      33.432  20.640  24.050  1.00  0.00     0.054 A 
ATOM     18  C   UNL A   1      34.115  19.672  24.808  1.00  0.00     0.027 A 
ATOM     19  C   UNL A   1      32.478  20.169  23.130  1.00  0.00     0.064 A 
ATOM     20  C   UNL A   1      33.738  18.325  24.797  1.00  0.00     0.002 A 
ATOM     21  C   UNL A   1      32.099  18.818  23.114  1.00  0.00     0.023 A 
ATOM     22  Cl  UNL A   1      31.752  21.181  21.937  1.00  0.00    -0.082 Cl
ATOM     23  C   UNL A   1      32.707  17.903  23.969  1.00  0.00     0.002 A 
ENDBRANCH  15  17
ENDBRANCH   7  15
ENDBRANCH   4   7
ENDBRANCH   2   3
ENDBRANCH   1   2
BRANCH   1  24
ATOM     24  C   UNL A   1      38.317  24.015  26.510  1.00  0.00     0.118 C 
BRANCH  24  25
ATOM     25  N   UNL A   1      39.732  23.878  26.178  1.00  0.00    -0.352 N 
ATOM     26  C   UNL A   1      40.791  24.688  26.510  1.00  0.00     0.251 C 
ATOM     27  H   UNL A   1      39.961  23.088  25.636  1.00  0.00     0.163 HD
ATOM     28  O   UNL A   1      41.881  24.523  25.979  1.00  0.00    -0.269 OA
BRANCH  26  29
ATOM     29  C   UNL A   1      40.590  25.769  27.496  1.00  0.00     0.039 A 
ATOM     30  C   UNL A   1      39.668  25.591  28.528  1.00  0.00     0.014 A 
ATOM     31  C   UNL A   1      41.339  26.945  27.411  1.00  0.00     0.014 A 
ATOM     32  C   UNL A   1      39.552  26.567  29.520  1.00  0.00     0.010 A 
ATOM     33  C   UNL A   1      41.293  27.867  28.448  1.00  0.00     0.010 A 
ATOM     34  C   UNL A   1      40.392  27.692  29.509  1.00  0.00    -0.014 A 
BRANCH  34  35
ATOM     35  C   UNL A   1      40.336  28.724  30.573  1.00  0.00     0.031 A 
ATOM     36  C   UNL A   1      41.258  28.613  31.758  1.00  0.00     0.074 A 
ATOM     37  C   UNL A   1      39.411  29.702  30.514  1.00  0.00     0.049 A 
ATOM     38  N   UNL A   1      41.280  29.320  32.856  1.00  0.00    -0.248 NA
ATOM     39  C   UNL A   1      42.268  27.541  31.715  1.00  0.00     0.031 C 
ATOM     40  C   UNL A   1      38.435  29.886  29.436  1.00  0.00     0.029 A 
ATOM     41  N   UNL A   1      39.129  30.720  31.390  1.00  0.00    -0.354 N 
ATOM     42  C   UNL A   1      42.287  28.769  33.639  1.00  0.00     0.074 A 
ATOM     43  C   UNL A   1      42.813  27.632  32.919  1.00  0.00     0.031 C 
ATOM     44  C   UNL A   1      37.680  30.964  29.705  1.00  0.00     0.029 A 
ATOM     45  C   UNL A   1      38.087  31.522  30.990  1.00  0.00     0.049 A 
ATOM     46  H   UNL A   1      39.628  30.863  32.227  1.00  0.00     0.167 HD
ATOM     47  C   UNL A   1      42.753  29.191  34.838  1.00  0.00     0.037 A 
ATOM     48  C   UNL A   1      37.518  32.580  31.599  1.00  0.00     0.037 A 
ATOM     49  C   UNL A   1      42.252  30.347  35.530  1.00  0.00     0.049 A 
ATOM     50  C   UNL A   1      38.055  33.030  32.933  1.00  0.00     0.074 A 
ATOM     51  C   UNL A   1      42.677  30.882  36.732  1.00  0.00     0.029 A 
ATOM     52  N   UNL A   1      41.220  31.155  35.074  1.00  0.00    -0.354 N 
ATOM     53  N   UNL A   1      39.032  32.517  33.642  1.00  0.00    -0.248 NA
ATOM     54  C   UNL A   1      37.415  34.201  33.548  1.00  0.00     0.031 C 
ATOM     55  C   UNL A   1      41.884  31.999  37.017  1.00  0.00     0.029 A 
ATOM     56  C   UNL A   1      40.993  32.183  35.973  1.00  0.00     0.049 A 
ATOM     57  H   UNL A   1      40.722  31.016  34.236  1.00  0.00     0.167 HD
ATOM     58  C   UNL A   1      39.149  33.326  34.767  1.00  0.00     0.074 A 
ATOM     59  C   UNL A   1      38.146  34.364  34.642  1.00  0.00     0.031 C 
ATOM     60  C   UNL A   1      40.008  33.221  35.810  1.00  0.00     0.037 A 
BRANCH  47  61
ATOM     61  C   UNL A   1      43.880  28.415  35.462  1.00  0.00     0.058 A 
ATOM     62  C   UNL A   1      43.633  27.372  36.370  1.00  0.00     0.135 A 
ATOM     63  C   UNL A   1      45.214  28.685  35.121  1.00  0.00     0.135 A 
ATOM     64  F   UNL A   1      42.377  27.086  36.747  1.00  0.00    -0.206 F 
ATOM     65  C   UNL A   1      44.671  26.641  36.935  1.00  0.00     0.059 A 
ATOM     66  C   UNL A   1      46.267  27.946  35.652  1.00  0.00     0.059 A 
ATOM     67  F   UNL A   1      45.505  29.673  34.260  1.00  0.00    -0.206 F 
ATOM     68  C   UNL A   1      45.986  26.933  36.569  1.00  0.00     0.060 A 
BRANCH  68  69
ATOM     69  S   UNL A   1      47.319  25.958  37.296  1.00  0.00     0.124 S 
ATOM     70  O   UNL A   1      47.234  26.352  38.699  1.00  0.00    -0.237 OA
ATOM     71  O   UNL A   1      46.905  24.591  36.997  1.00  0.00    -0.237 OA
ATOM     72  O   UNL A   1      48.506  26.420  36.584  1.00  0.00    -0.744 OA
ENDBRANCH  68  69
ENDBRANCH  47  61
BRANCH  48  73
ATOM     73  C   UNL A   1      36.392  33.307  30.952  1.00  0.00     0.058 A 
ATOM     74  C   UNL A   1      36.616  34.138  29.845  1.00  0.00     0.135 A 
ATOM     75  C   UNL A   1      35.079  33.203  31.434  1.00  0.00     0.135 A 
ATOM     76  F   UNL A   1      37.856  34.273  29.348  1.00  0.00    -0.206 F 
ATOM     77  C   UNL A   1      35.587  34.867  29.258  1.00  0.00     0.059 A 
ATOM     78  C   UNL A   1      34.027  33.901  30.849  1.00  0.00     0.059 A 
ATOM     79  F   UNL A   1      34.806  32.404  32.478  1.00  0.00    -0.206 F 
ATOM     80  C   UNL A   1      34.295  34.745  29.772  1.00  0.00     0.060 A 
BRANCH  80  81
ATOM     81  S   UNL A   1      32.961  35.683  28.996  1.00  0.00     0.124 S 
ATOM     82  O   UNL A   1      32.384  34.684  28.105  1.00  0.00    -0.237 OA
ATOM     83  O   UNL A   1      32.145  36.065  30.143  1.00  0.00    -0.237 OA
ATOM     84  O   UNL A   1      33.663  36.784  28.342  1.00  0.00    -0.744 OA
ENDBRANCH  80  81
ENDBRANCH  48  73
BRANCH  60  85
ATOM     85  C   UNL A   1      39.946  34.285  36.869  1.00  0.00     0.058 A 
ATOM     86  C   UNL A   1      40.672  35.480  36.757  1.00  0.00     0.135 A 
ATOM     87  C   UNL A   1      39.094  34.133  37.974  1.00  0.00     0.135 A 
ATOM     88  F   UNL A   1      41.506  35.671  35.722  1.00  0.00    -0.206 F 
ATOM     89  C   UNL A   1      40.568  36.483  37.716  1.00  0.00     0.059 A 
ATOM     90  C   UNL A   1      38.955  35.132  38.931  1.00  0.00     0.059 A 
ATOM     91  F   UNL A   1      38.371  33.011  38.120  1.00  0.00    -0.206 F 
ATOM     92  C   UNL A   1      39.704  36.300  38.796  1.00  0.00     0.060 A 
BRANCH  92  93
ATOM     93  S   UNL A   1      39.540  37.629  40.007  1.00  0.00     0.124 S 
ATOM     94  O   UNL A   1      38.352  38.325  39.522  1.00  0.00    -0.237 OA
ATOM     95  O   UNL A   1      39.378  36.895  41.258  1.00  0.00    -0.237 OA
ATOM     96  O   UNL A   1      40.795  38.364  39.876  1.00  0.00    -0.744 OA
ENDBRANCH  92  93
ENDBRANCH  60  85
ENDBRANCH  34  35
ENDBRANCH  26  29
ENDBRANCH  24  25
ENDBRANCH   1  24
TORSDOF 15
ENDMDL
MODEL 3
REMARK VINA RESULT:     -12.0      2.546      3.172
REMARK SMILES CC1(C)CSC[C@](Nc2ccccc2Cl)(C(=O)NCCCNC(=O)c2ccc(-c3c4nc(c(-c5c(F)cc(S(=O)(=O)[O-])cc5F)c5ccc([nH]5)c(-c5c(F)cc(S(=O)(=O)[O-])cc5F)c5nc(c(-c6c(F)cc(S(=O)(=O)[O-])cc6F)c6ccc3[nH]6)C=C5)C=C4)cc2)C1
REMARK SMILES IDX 20 1 19 2 18 3 16 4 17 5 7 7 1 8 2 9 3 10 4 11 91 12 5 13
REMARK SMILES IDX 6 14 8 15 9 17 10 18 14 19 11 20 13 21 15 22 12 23 21 24
REMARK SMILES IDX 22 25 23 26 24 28 25 29 26 30 90 31 27 32 89 33 28 34 29 35
REMARK SMILES IDX 30 36 83 37 31 38 88 39 82 40 84 41 32 42 87 43 81 44 80 45
REMARK SMILES IDX 33 47 67 48 46 49 66 50 47 51 50 52 65 53 85 54 48 55 49 56
REMARK SMILES IDX 64 58 86 59 51 60 34 61 35 62 44 63 36 64 37 65 43 66 45 67
REMARK SMILES IDX 38 68 39 69 40 70 41 71 42 72 68 73 69 74 78 75 70 76 71 77
REMARK SMILES IDX 77 78 79 79 72 80 73 81 74 82 75 83 76 84 52 85 53 86 62 87
REMARK SMILES IDX 54 88 55 89 61 90 63 91 56 92 57 93 58 94 59 95 60 96
REMARK H PARENT 18 6 8 16 22 27 84 46 50 57
REMARK Flexibility Score: inf
ROOT
ATOM      1  C   UNL A   1      33.691  29.003  27.247  1.00  0.00     0.042 C 
ENDROOT
BRANCH   1   2
ATOM      2  C   UNL A   1      33.598  27.707  26.465  1.00  0.00     0.117 C 
BRANCH   2   3
ATOM      3  N   UNL A   1      32.426  26.928  26.818  1.00  0.00    -0.354 N 
ATOM      4  C   UNL A   1      31.984  25.722  26.345  1.00  0.00     0.246 C 
ATOM      5  O   UNL A   1      30.959  25.279  26.876  1.00  0.00    -0.272 OA
ATOM      6  H   UNL A   1      31.854  27.332  27.509  1.00  0.00     0.163 HD
BRANCH   4   7
ATOM      7  C   UNL A   1      32.687  24.976  25.159  1.00  0.00     0.126 C 
ATOM      8  C   UNL A   1      32.434  22.671  22.748  1.00  0.00     0.012 C 
ATOM      9  C   UNL A   1      32.774  22.446  24.234  1.00  0.00    -0.024 C 
ATOM     10  C   UNL A   1      32.154  21.079  24.627  1.00  0.00     0.012 C 
ATOM     11  C   UNL A   1      34.294  22.351  24.454  1.00  0.00     0.076 C 
ATOM     12  C   UNL A   1      32.116  23.522  25.138  1.00  0.00     0.046 C 
ATOM     13  S   UNL A   1      35.160  23.935  24.261  1.00  0.00    -0.158 SA
ATOM     14  C   UNL A   1      34.202  24.890  25.494  1.00  0.00     0.108 C 
BRANCH   7  15
ATOM     15  N   UNL A   1      32.523  25.651  23.832  1.00  0.00    -0.369 N 
ATOM     16  H   UNL A   1      33.107  25.342  23.101  1.00  0.00     0.161 HD
BRANCH  15  17
ATOM     17  C   UNL A   1      31.629  26.673  23.529  1.00  0.00     0.054 A 
ATOM     18  C   UNL A   1      30.262  26.342  23.542  1.00  0.00     0.027 A 
ATOM     19  C   UNL A   1      31.961  27.982  23.136  1.00  0.00     0.064 A 
ATOM     20  C   UNL A   1      29.266  27.308  23.366  1.00  0.00     0.002 A 
ATOM     21  C   UNL A   1      30.965  28.955  22.955  1.00  0.00     0.023 A 
ATOM     22  Cl  UNL A   1      33.580  28.475  22.800  1.00  0.00    -0.082 Cl
ATOM     23  C   UNL A   1      29.620  28.624  23.100  1.00  0.00     0.002 A 
ENDBRANCH  15  17
ENDBRANCH   7  15
ENDBRANCH   4   7
ENDBRANCH   2   3
ENDBRANCH   1   2
BRANCH   1  24
ATOM     24  C   UNL A   1      35.124  29.382  27.580  1.00  0.00     0.118 C 
BRANCH  24  25
ATOM     25  N   UNL A   1      35.213  30.249  28.751  1.00  0.00    -0.352 N 
ATOM     26  C   UNL A   1      36.264  30.447  29.614  1.00  0.00     0.251 C 
ATOM     27  H   UNL A   1      34.400  30.767  28.952  1.00  0.00     0.163 HD
ATOM     28  O   UNL A   1      36.094  31.065  30.657  1.00  0.00    -0.269 OA
BRANCH  26  29
ATOM     29  C   UNL A   1      37.589  29.889  29.277  1.00  0.00     0.039 A 
ATOM     30  C   UNL A   1      37.996  29.851  27.942  1.00  0.00     0.014 A 
ATOM     31  C   UNL A   1      38.437  29.432  30.289  1.00  0.00     0.014 A 
ATOM     32  C   UNL A   1      39.287  29.422  27.631  1.00  0.00     0.010 A 
ATOM     33  C   UNL A   1      39.750  29.099  29.987  1.00  0.00     0.010 A 
ATOM     34  C   UNL A   1      40.187  29.081  28.655  1.00  0.00    -0.014 A 
BRANCH  34  35
ATOM     35  C   UNL A   1      41.584  28.671  28.368  1.00  0.00     0.031 A 
ATOM     36  C   UNL A   1      42.670  29.713  28.355  1.00  0.00     0.074 A 
ATOM     37  C   UNL A   1      41.856  27.392  28.042  1.00  0.00     0.049 A 
ATOM     38  N   UNL A   1      43.921  29.596  27.995  1.00  0.00    -0.248 NA
ATOM     39  C   UNL A   1      42.290  31.074  28.769  1.00  0.00     0.031 C 
ATOM     40  C   UNL A   1      40.877  26.303  27.980  1.00  0.00     0.029 A 
ATOM     41  N   UNL A   1      43.038  26.793  27.687  1.00  0.00    -0.354 N 
ATOM     42  C   UNL A   1      44.469  30.867  28.121  1.00  0.00     0.074 A 
ATOM     43  C   UNL A   1      43.402  31.752  28.530  1.00  0.00     0.031 C 
ATOM     44  C   UNL A   1      41.504  25.167  27.632  1.00  0.00     0.029 A 
ATOM     45  C   UNL A   1      42.916  25.453  27.405  1.00  0.00     0.049 A 
ATOM     46  H   UNL A   1      43.894  27.277  27.640  1.00  0.00     0.167 HD
ATOM     47  C   UNL A   1      45.753  31.256  27.941  1.00  0.00     0.037 A 
ATOM     48  C   UNL A   1      43.840  24.560  26.999  1.00  0.00     0.037 A 
ATOM     49  C   UNL A   1      46.817  30.362  27.572  1.00  0.00     0.049 A 
ATOM     50  C   UNL A   1      45.261  25.018  26.805  1.00  0.00     0.074 A 
ATOM     51  C   UNL A   1      48.159  30.646  27.398  1.00  0.00     0.029 A 
ATOM     52  N   UNL A   1      46.660  29.004  27.331  1.00  0.00    -0.354 N 
ATOM     53  N   UNL A   1      45.769  26.218  26.964  1.00  0.00    -0.248 NA
ATOM     54  C   UNL A   1      46.236  24.004  26.381  1.00  0.00     0.031 C 
ATOM     55  C   UNL A   1      48.809  29.465  27.026  1.00  0.00     0.029 A 
ATOM     56  C   UNL A   1      47.880  28.438  27.008  1.00  0.00     0.049 A 
ATOM     57  H   UNL A   1      45.805  28.517  27.382  1.00  0.00     0.167 HD
ATOM     58  C   UNL A   1      47.128  26.093  26.696  1.00  0.00     0.074 A 
ATOM     59  C   UNL A   1      47.364  24.702  26.370  1.00  0.00     0.031 C 
ATOM     60  C   UNL A   1      48.094  27.043  26.718  1.00  0.00     0.037 A 
BRANCH  47  61
ATOM     61  C   UNL A   1      46.082  32.705  28.169  1.00  0.00     0.058 A 
ATOM     62  C   UNL A   1      45.991  33.647  27.130  1.00  0.00     0.135 A 
ATOM     63  C   UNL A   1      46.451  33.167  29.441  1.00  0.00     0.135 A 
ATOM     64  F   UNL A   1      45.664  33.255  25.888  1.00  0.00    -0.206 F 
ATOM     65  C   UNL A   1      46.278  34.990  27.341  1.00  0.00     0.059 A 
ATOM     66  C   UNL A   1      46.714  34.513  29.682  1.00  0.00     0.059 A 
ATOM     67  F   UNL A   1      46.555  32.309  30.468  1.00  0.00    -0.206 F 
ATOM     68  C   UNL A   1      46.636  35.416  28.621  1.00  0.00     0.060 A 
BRANCH  68  69
ATOM     69  S   UNL A   1      46.982  37.167  28.880  1.00  0.00     0.124 S 
ATOM     70  O   UNL A   1      47.983  37.112  29.941  1.00  0.00    -0.237 OA
ATOM     71  O   UNL A   1      47.472  37.586  27.570  1.00  0.00    -0.237 OA
ATOM     72  O   UNL A   1      45.687  37.717  29.267  1.00  0.00    -0.744 OA
ENDBRANCH  68  69
ENDBRANCH  47  61
BRANCH  48  73
ATOM     73  C   UNL A   1      43.464  23.139  26.768  1.00  0.00     0.058 A 
ATOM     74  C   UNL A   1      43.168  22.290  27.845  1.00  0.00     0.135 A 
ATOM     75  C   UNL A   1      43.411  22.596  25.476  1.00  0.00     0.135 A 
ATOM     76  F   UNL A   1      43.208  22.762  29.101  1.00  0.00    -0.206 F 
ATOM     77  C   UNL A   1      42.866  20.946  27.654  1.00  0.00     0.059 A 
ATOM     78  C   UNL A   1      43.086  21.260  25.257  1.00  0.00     0.059 A 
ATOM     79  F   UNL A   1      43.664  23.370  24.409  1.00  0.00    -0.206 F 
ATOM     80  C   UNL A   1      42.833  20.439  26.355  1.00  0.00     0.060 A 
BRANCH  80  81
ATOM     81  S   UNL A   1      42.425  18.696  26.113  1.00  0.00     0.124 S 
ATOM     82  O   UNL A   1      42.725  18.143  27.428  1.00  0.00    -0.237 OA
ATOM     83  O   UNL A   1      41.013  18.757  25.751  1.00  0.00    -0.237 OA
ATOM     84  O   UNL A   1      43.323  18.289  25.036  1.00  0.00    -0.744 OA
ENDBRANCH  80  81
ENDBRANCH  48  73
BRANCH  60  85
ATOM     85  C   UNL A   1      49.504  26.605  26.440  1.00  0.00     0.058 A 
ATOM     86  C   UNL A   1      50.307  26.030  27.436  1.00  0.00     0.135 A 
ATOM     87  C   UNL A   1      50.030  26.698  25.142  1.00  0.00     0.135 A 
ATOM     88  F   UNL A   1      49.851  25.924  28.695  1.00  0.00    -0.206 F 
ATOM     89  C   UNL A   1      51.592  25.578  27.158  1.00  0.00     0.059 A 
ATOM     90  C   UNL A   1      51.303  26.230  24.836  1.00  0.00     0.059 A 
ATOM     91  F   UNL A   1      49.296  27.232  24.153  1.00  0.00    -0.206 F 
ATOM     92  C   UNL A   1      52.079  25.679  25.854  1.00  0.00     0.060 A 
BRANCH  92  93
ATOM     93  S   UNL A   1      53.731  25.043  25.495  1.00  0.00     0.124 S 
ATOM     94  O   UNL A   1      54.472  25.467  26.678  1.00  0.00    -0.237 OA
ATOM     95  O   UNL A   1      53.494  23.607  25.376  1.00  0.00    -0.237 OA
ATOM     96  O   UNL A   1      54.091  25.718  24.252  1.00  0.00    -0.744 OA
ENDBRANCH  92  93
ENDBRANCH  60  85
ENDBRANCH  34  35
ENDBRANCH  26  29
ENDBRANCH  24  25
ENDBRANCH   1  24
TORSDOF 15
ENDMDL
