MODEL 1
REMARK VINA RESULT:     -13.3      0.000      0.000
REMARK SMILES CC(=O)Nc1cccc(-c2cc(F)ccc2C(=O)NCCCNC(=O)c2ccc(-c3c4nc(c(-c5c(F)cc(S(=O)(=O)[O-])cc5F)c5ccc([nH]5)c(-c5c(F)cc(S(=O)(=O)[O-])cc5F)c5nc(c(-c6c(F)cc(S(=O)(=O)[O-])cc6F)c6ccc3[nH]6)C=C5)C=C4)cc2)c1
REMARK SMILES IDX 21 1 20 2 19 3 17 4 18 5 16 7 10 8 11 9 12 10 15 11 13 12
REMARK SMILES IDX 14 13 9 14 5 15 6 16 92 17 7 18 8 19 4 20 1 21 2 22 3 23
REMARK SMILES IDX 22 25 23 26 24 27 25 29 26 30 27 31 91 32 28 33 90 34 29 35
REMARK SMILES IDX 30 36 31 37 84 38 32 39 89 40 83 41 85 42 33 43 88 44 82 45
REMARK SMILES IDX 81 46 34 48 68 49 47 50 67 51 48 52 51 53 66 54 86 55 49 56
REMARK SMILES IDX 50 57 65 59 87 60 52 61 35 62 36 63 45 64 37 65 38 66 44 67
REMARK SMILES IDX 46 68 39 69 40 70 41 71 42 72 43 73 69 74 70 75 79 76 71 77
REMARK SMILES IDX 72 78 78 79 80 80 73 81 74 82 75 83 76 84 77 85 53 86 54 87
REMARK SMILES IDX 63 88 55 89 56 90 62 91 64 92 57 93 58 94 59 95 60 96 61 97
REMARK H PARENT 19 6 4 24 23 28 85 47 51 58
REMARK Flexibility Score: inf
ROOT
ATOM      1  C   UNL A   1      34.634  30.040  27.319  1.00  0.00     0.042 C 
ENDROOT
BRANCH   1   2
ATOM      2  C   UNL A   1      33.250  30.395  26.838  1.00  0.00     0.118 C 
BRANCH   2   3
ATOM      3  N   UNL A   1      32.120  29.662  27.315  1.00  0.00    -0.352 N 
ATOM      4  C   UNL A   1      31.769  28.367  27.006  1.00  0.00     0.251 C 
ATOM      5  O   UNL A   1      30.938  27.848  27.761  1.00  0.00    -0.269 OA
ATOM      6  H   UNL A   1      31.523  30.139  27.936  1.00  0.00     0.163 HD
BRANCH   4   7
ATOM      7  C   UNL A   1      32.207  27.572  25.788  1.00  0.00     0.047 A 
ATOM      8  C   UNL A   1      31.723  27.535  24.443  1.00  0.00    -0.003 A 
ATOM      9  C   UNL A   1      32.394  26.691  23.517  1.00  0.00     0.048 A 
ATOM     10  C   UNL A   1      33.491  25.921  23.878  1.00  0.00     0.123 A 
ATOM     11  C   UNL A   1      33.336  26.765  26.105  1.00  0.00     0.017 A 
ATOM     12  F   UNL A   1      34.086  25.146  22.963  1.00  0.00    -0.207 F 
ATOM     13  C   UNL A   1      33.971  25.949  25.169  1.00  0.00     0.040 A 
BRANCH   8  14
ATOM     14  C   UNL A   1      30.561  28.259  23.881  1.00  0.00    -0.015 A 
ATOM     15  C   UNL A   1      29.318  30.331  23.514  1.00  0.00     0.041 A 
ATOM     16  C   UNL A   1      28.168  29.584  23.229  1.00  0.00     0.026 A 
ATOM     17  C   UNL A   1      30.523  29.661  23.790  1.00  0.00     0.034 A 
ATOM     18  C   UNL A   1      28.214  28.192  23.199  1.00  0.00     0.003 A 
ATOM     19  C   UNL A   1      29.401  27.535  23.519  1.00  0.00     0.009 A 
BRANCH  15  20
ATOM     20  N   UNL A   1      29.135  31.711  23.728  1.00  0.00    -0.326 N 
ATOM     21  C   UNL A   1      28.243  32.445  21.529  1.00  0.00     0.114 C 
ATOM     22  C   UNL A   1      28.875  32.732  22.862  1.00  0.00     0.221 C 
ATOM     23  O   UNL A   1      29.121  33.894  23.189  1.00  0.00    -0.275 OA
ATOM     24  H   UNL A   1      29.208  31.987  24.670  1.00  0.00     0.169 HD
ENDBRANCH  15  20
ENDBRANCH   8  14
ENDBRANCH   4   7
ENDBRANCH   2   3
ENDBRANCH   1   2
BRANCH   1  25
ATOM     25  C   UNL A   1      35.400  31.162  28.005  1.00  0.00     0.118 C 
BRANCH  25  26
ATOM     26  N   UNL A   1      35.488  31.044  29.463  1.00  0.00    -0.352 N 
ATOM     27  C   UNL A   1      36.354  30.399  30.320  1.00  0.00     0.251 C 
ATOM     28  H   UNL A   1      34.773  31.531  29.933  1.00  0.00     0.163 HD
ATOM     29  O   UNL A   1      36.014  30.265  31.492  1.00  0.00    -0.269 OA
BRANCH  27  30
ATOM     30  C   UNL A   1      37.638  29.810  29.860  1.00  0.00     0.039 A 
ATOM     31  C   UNL A   1      38.038  29.986  28.528  1.00  0.00     0.014 A 
ATOM     32  C   UNL A   1      38.460  29.078  30.709  1.00  0.00     0.014 A 
ATOM     33  C   UNL A   1      39.294  29.537  28.105  1.00  0.00     0.010 A 
ATOM     34  C   UNL A   1      39.767  28.795  30.343  1.00  0.00     0.010 A 
ATOM     35  C   UNL A   1      40.201  29.000  29.030  1.00  0.00    -0.014 A 
BRANCH  35  36
ATOM     36  C   UNL A   1      41.591  28.617  28.665  1.00  0.00     0.031 A 
ATOM     37  C   UNL A   1      42.677  29.665  28.629  1.00  0.00     0.074 A 
ATOM     38  C   UNL A   1      41.852  27.356  28.261  1.00  0.00     0.049 A 
ATOM     39  N   UNL A   1      43.910  29.567  28.206  1.00  0.00    -0.248 NA
ATOM     40  C   UNL A   1      42.311  31.021  29.079  1.00  0.00     0.031 C 
ATOM     41  C   UNL A   1      40.872  26.268  28.181  1.00  0.00     0.029 A 
ATOM     42  N   UNL A   1      43.018  26.776  27.832  1.00  0.00    -0.354 N 
ATOM     43  C   UNL A   1      44.446  30.847  28.299  1.00  0.00     0.074 A 
ATOM     44  C   UNL A   1      43.386  31.719  28.749  1.00  0.00     0.031 C 
ATOM     45  C   UNL A   1      41.487  25.147  27.774  1.00  0.00     0.029 A 
ATOM     46  C   UNL A   1      42.890  25.443  27.515  1.00  0.00     0.049 A 
ATOM     47  H   UNL A   1      43.868  27.268  27.757  1.00  0.00     0.167 HD
ATOM     48  C   UNL A   1      45.716  31.256  28.066  1.00  0.00     0.037 A 
ATOM     49  C   UNL A   1      43.802  24.561  27.063  1.00  0.00     0.037 A 
ATOM     50  C   UNL A   1      46.779  30.366  27.677  1.00  0.00     0.049 A 
ATOM     51  C   UNL A   1      45.216  25.029  26.847  1.00  0.00     0.074 A 
ATOM     52  C   UNL A   1      48.121  30.652  27.501  1.00  0.00     0.029 A 
ATOM     53  N   UNL A   1      46.618  29.015  27.408  1.00  0.00    -0.354 N 
ATOM     54  N   UNL A   1      45.723  26.228  27.012  1.00  0.00    -0.248 NA
ATOM     55  C   UNL A   1      46.184  24.022  26.394  1.00  0.00     0.031 C 
ATOM     56  C   UNL A   1      48.763  29.484  27.076  1.00  0.00     0.029 A 
ATOM     57  C   UNL A   1      47.832  28.457  27.046  1.00  0.00     0.049 A 
ATOM     58  H   UNL A   1      45.766  28.523  27.467  1.00  0.00     0.167 HD
ATOM     59  C   UNL A   1      47.076  26.114  26.711  1.00  0.00     0.074 A 
ATOM     60  C   UNL A   1      47.308  24.724  26.374  1.00  0.00     0.031 C 
ATOM     61  C   UNL A   1      48.040  27.069  26.715  1.00  0.00     0.037 A 
BRANCH  48  62
ATOM     62  C   UNL A   1      46.026  32.721  28.236  1.00  0.00     0.058 A 
ATOM     63  C   UNL A   1      46.537  33.239  29.437  1.00  0.00     0.135 A 
ATOM     64  C   UNL A   1      45.830  33.618  27.172  1.00  0.00     0.135 A 
ATOM     65  F   UNL A   1      46.731  32.434  30.495  1.00  0.00    -0.206 F 
ATOM     66  C   UNL A   1      46.805  34.596  29.592  1.00  0.00     0.059 A 
ATOM     67  C   UNL A   1      46.125  34.973  27.293  1.00  0.00     0.059 A 
ATOM     68  F   UNL A   1      45.342  33.181  26.000  1.00  0.00    -0.206 F 
ATOM     69  C   UNL A   1      46.596  35.456  28.513  1.00  0.00     0.060 A 
BRANCH  69  70
ATOM     70  S   UNL A   1      46.956  37.211  28.729  1.00  0.00     0.124 S 
ATOM     71  O   UNL A   1      48.400  37.187  28.937  1.00  0.00    -0.237 OA
ATOM     72  O   UNL A   1      46.508  37.779  27.462  1.00  0.00    -0.237 OA
ATOM     73  O   UNL A   1      46.160  37.581  29.895  1.00  0.00    -0.744 OA
ENDBRANCH  69  70
ENDBRANCH  48  62
BRANCH  49  74
ATOM     74  C   UNL A   1      43.420  23.142  26.828  1.00  0.00     0.058 A 
ATOM     75  C   UNL A   1      43.167  22.280  27.906  1.00  0.00     0.135 A 
ATOM     76  C   UNL A   1      43.286  22.621  25.532  1.00  0.00     0.135 A 
ATOM     77  F   UNL A   1      43.284  22.729  29.165  1.00  0.00    -0.206 F 
ATOM     78  C   UNL A   1      42.815  20.948  27.711  1.00  0.00     0.059 A 
ATOM     79  C   UNL A   1      42.907  21.300  25.310  1.00  0.00     0.059 A 
ATOM     80  F   UNL A   1      43.495  23.408  24.464  1.00  0.00    -0.206 F 
ATOM     81  C   UNL A   1      42.685  20.468  26.407  1.00  0.00     0.060 A 
BRANCH  81  82
ATOM     82  S   UNL A   1      42.183  18.750  26.165  1.00  0.00     0.124 S 
ATOM     83  O   UNL A   1      42.354  18.202  27.505  1.00  0.00    -0.237 OA
ATOM     84  O   UNL A   1      40.805  18.897  25.705  1.00  0.00    -0.237 OA
ATOM     85  O   UNL A   1      43.123  18.265  25.159  1.00  0.00    -0.744 OA
ENDBRANCH  81  82
ENDBRANCH  49  74
BRANCH  61  86
ATOM     86  C   UNL A   1      49.440  26.630  26.381  1.00  0.00     0.058 A 
ATOM     87  C   UNL A   1      49.967  26.759  25.086  1.00  0.00     0.135 A 
ATOM     88  C   UNL A   1      50.270  26.093  27.377  1.00  0.00     0.135 A 
ATOM     89  F   UNL A   1      49.212  27.262  24.096  1.00  0.00    -0.206 F 
ATOM     90  C   UNL A   1      51.253  26.328  24.781  1.00  0.00     0.059 A 
ATOM     91  C   UNL A   1      51.572  25.690  27.103  1.00  0.00     0.059 A 
ATOM     92  F   UNL A   1      49.821  25.964  28.636  1.00  0.00    -0.206 F 
ATOM     93  C   UNL A   1      52.048  25.792  25.797  1.00  0.00     0.060 A 
BRANCH  93  94
ATOM     94  S   UNL A   1      53.715  25.238  25.389  1.00  0.00     0.124 S 
ATOM     95  O   UNL A   1      53.897  25.811  24.059  1.00  0.00    -0.237 OA
ATOM     96  O   UNL A   1      54.514  25.840  26.453  1.00  0.00    -0.237 OA
ATOM     97  O   UNL A   1      53.611  23.783  25.437  1.00  0.00    -0.744 OA
ENDBRANCH  93  94
ENDBRANCH  61  86
ENDBRANCH  35  36
ENDBRANCH  27  30
ENDBRANCH  25  26
ENDBRANCH   1  25
TORSDOF 15
ENDMDL
MODEL 2
REMARK VINA RESULT:     -13.3      0.238      1.639
REMARK SMILES CC(=O)Nc1cccc(-c2cc(F)ccc2C(=O)NCCCNC(=O)c2ccc(-c3c4nc(c(-c5c(F)cc(S(=O)(=O)[O-])cc5F)c5ccc([nH]5)c(-c5c(F)cc(S(=O)(=O)[O-])cc5F)c5nc(c(-c6c(F)cc(S(=O)(=O)[O-])cc6F)c6ccc3[nH]6)C=C5)C=C4)cc2)c1
REMARK SMILES IDX 21 1 20 2 19 3 17 4 18 5 16 7 10 8 11 9 12 10 15 11 13 12
REMARK SMILES IDX 14 13 9 14 5 15 6 16 92 17 7 18 8 19 4 20 1 21 2 22 3 23
REMARK SMILES IDX 22 25 23 26 24 27 25 29 26 30 27 31 91 32 28 33 90 34 29 35
REMARK SMILES IDX 30 36 31 37 84 38 32 39 89 40 83 41 85 42 33 43 88 44 82 45
REMARK SMILES IDX 81 46 34 48 68 49 47 50 67 51 48 52 51 53 66 54 86 55 49 56
REMARK SMILES IDX 50 57 65 59 87 60 52 61 35 62 36 63 45 64 37 65 38 66 44 67
REMARK SMILES IDX 46 68 39 69 40 70 41 71 42 72 43 73 69 74 70 75 79 76 71 77
REMARK SMILES IDX 72 78 78 79 80 80 73 81 74 82 75 83 76 84 77 85 53 86 54 87
REMARK SMILES IDX 63 88 55 89 56 90 62 91 64 92 57 93 58 94 59 95 60 96 61 97
REMARK H PARENT 19 6 4 24 23 28 85 47 51 58
REMARK Flexibility Score: inf
ROOT
ATOM      1  C   UNL A   1      33.862  31.397  27.541  1.00  0.00     0.042 C 
ENDROOT
BRANCH   1   2
ATOM      2  C   UNL A   1      32.981  30.552  26.656  1.00  0.00     0.118 C 
BRANCH   2   3
ATOM      3  N   UNL A   1      31.973  29.723  27.238  1.00  0.00    -0.352 N 
ATOM      4  C   UNL A   1      31.752  28.383  27.006  1.00  0.00     0.251 C 
ATOM      5  O   UNL A   1      31.033  27.813  27.836  1.00  0.00    -0.269 OA
ATOM      6  H   UNL A   1      31.365  30.160  27.878  1.00  0.00     0.163 HD
BRANCH   4   7
ATOM      7  C   UNL A   1      32.201  27.584  25.795  1.00  0.00     0.047 A 
ATOM      8  C   UNL A   1      31.731  27.544  24.445  1.00  0.00    -0.003 A 
ATOM      9  C   UNL A   1      32.410  26.696  23.529  1.00  0.00     0.048 A 
ATOM     10  C   UNL A   1      33.501  25.924  23.904  1.00  0.00     0.123 A 
ATOM     11  C   UNL A   1      33.325  26.775  26.127  1.00  0.00     0.017 A 
ATOM     12  F   UNL A   1      34.104  25.145  22.998  1.00  0.00    -0.207 F 
ATOM     13  C   UNL A   1      33.967  25.955  25.199  1.00  0.00     0.040 A 
BRANCH   8  14
ATOM     14  C   UNL A   1      30.576  28.270  23.869  1.00  0.00    -0.015 A 
ATOM     15  C   UNL A   1      29.336  30.342  23.494  1.00  0.00     0.041 A 
ATOM     16  C   UNL A   1      28.192  29.594  23.186  1.00  0.00     0.026 A 
ATOM     17  C   UNL A   1      30.538  29.672  23.786  1.00  0.00     0.034 A 
ATOM     18  C   UNL A   1      28.242  28.203  23.148  1.00  0.00     0.003 A 
ATOM     19  C   UNL A   1      29.424  27.546  23.483  1.00  0.00     0.009 A 
BRANCH  15  20
ATOM     20  N   UNL A   1      29.147  31.720  23.714  1.00  0.00    -0.326 N 
ATOM     21  C   UNL A   1      28.204  32.450  21.535  1.00  0.00     0.114 C 
ATOM     22  C   UNL A   1      28.861  32.740  22.855  1.00  0.00     0.221 C 
ATOM     23  O   UNL A   1      29.104  33.903  23.180  1.00  0.00    -0.275 OA
ATOM     24  H   UNL A   1      29.237  31.996  24.656  1.00  0.00     0.169 HD
ENDBRANCH  15  20
ENDBRANCH   8  14
ENDBRANCH   4   7
ENDBRANCH   2   3
ENDBRANCH   1   2
BRANCH   1  25
ATOM     25  C   UNL A   1      35.090  30.698  28.105  1.00  0.00     0.118 C 
BRANCH  25  26
ATOM     26  N   UNL A   1      35.335  30.941  29.531  1.00  0.00    -0.352 N 
ATOM     27  C   UNL A   1      36.335  30.573  30.405  1.00  0.00     0.251 C 
ATOM     28  H   UNL A   1      34.633  31.484  29.955  1.00  0.00     0.163 HD
ATOM     29  O   UNL A   1      36.127  30.706  31.608  1.00  0.00    -0.269 OA
BRANCH  27  30
ATOM     30  C   UNL A   1      37.611  29.965  29.947  1.00  0.00     0.039 A 
ATOM     31  C   UNL A   1      37.983  30.081  28.601  1.00  0.00     0.014 A 
ATOM     32  C   UNL A   1      38.452  29.275  30.811  1.00  0.00     0.014 A 
ATOM     33  C   UNL A   1      39.231  29.615  28.173  1.00  0.00     0.010 A 
ATOM     34  C   UNL A   1      39.752  28.978  30.433  1.00  0.00     0.010 A 
ATOM     35  C   UNL A   1      40.159  29.123  29.103  1.00  0.00    -0.014 A 
BRANCH  35  36
ATOM     36  C   UNL A   1      41.542  28.726  28.728  1.00  0.00     0.031 A 
ATOM     37  C   UNL A   1      42.636  29.765  28.675  1.00  0.00     0.074 A 
ATOM     38  C   UNL A   1      41.789  27.461  28.330  1.00  0.00     0.049 A 
ATOM     39  N   UNL A   1      43.865  29.655  28.242  1.00  0.00    -0.248 NA
ATOM     40  C   UNL A   1      42.285  31.127  29.120  1.00  0.00     0.031 C 
ATOM     41  C   UNL A   1      40.800  26.381  28.264  1.00  0.00     0.029 A 
ATOM     42  N   UNL A   1      42.946  26.869  27.893  1.00  0.00    -0.354 N 
ATOM     43  C   UNL A   1      44.412  30.931  28.322  1.00  0.00     0.074 A 
ATOM     44  C   UNL A   1      43.363  31.814  28.776  1.00  0.00     0.031 C 
ATOM     45  C   UNL A   1      41.402  25.252  27.860  1.00  0.00     0.029 A 
ATOM     46  C   UNL A   1      42.805  25.535  27.585  1.00  0.00     0.049 A 
ATOM     47  H   UNL A   1      43.799  27.353  27.808  1.00  0.00     0.167 HD
ATOM     48  C   UNL A   1      45.683  31.327  28.075  1.00  0.00     0.037 A 
ATOM     49  C   UNL A   1      43.706  24.643  27.130  1.00  0.00     0.037 A 
ATOM     50  C   UNL A   1      46.735  30.427  27.682  1.00  0.00     0.049 A 
ATOM     51  C   UNL A   1      45.121  25.098  26.899  1.00  0.00     0.074 A 
ATOM     52  C   UNL A   1      48.078  30.700  27.492  1.00  0.00     0.029 A 
ATOM     53  N   UNL A   1      46.560  29.075  27.423  1.00  0.00    -0.354 N 
ATOM     54  N   UNL A   1      45.639  26.294  27.052  1.00  0.00    -0.248 NA
ATOM     55  C   UNL A   1      46.077  24.080  26.443  1.00  0.00     0.031 C 
ATOM     56  C   UNL A   1      48.706  29.524  27.069  1.00  0.00     0.029 A 
ATOM     57  C   UNL A   1      47.767  28.505  27.053  1.00  0.00     0.049 A 
ATOM     58  H   UNL A   1      45.705  28.591  27.492  1.00  0.00     0.167 HD
ATOM     59  C   UNL A   1      46.989  26.166  26.740  1.00  0.00     0.074 A 
ATOM     60  C   UNL A   1      47.206  24.772  26.409  1.00  0.00     0.031 C 
ATOM     61  C   UNL A   1      47.961  27.113  26.729  1.00  0.00     0.037 A 
BRANCH  48  62
ATOM     62  C   UNL A   1      46.007  32.791  28.234  1.00  0.00     0.058 A 
ATOM     63  C   UNL A   1      45.874  33.703  27.174  1.00  0.00     0.135 A 
ATOM     64  C   UNL A   1      46.435  33.294  29.474  1.00  0.00     0.135 A 
ATOM     65  F   UNL A   1      45.484  33.278  25.960  1.00  0.00    -0.206 F 
ATOM     66  C   UNL A   1      46.190  35.049  27.324  1.00  0.00     0.059 A 
ATOM     67  C   UNL A   1      46.723  34.643  29.657  1.00  0.00     0.059 A 
ATOM     68  F   UNL A   1      46.582  32.470  30.524  1.00  0.00    -0.206 F 
ATOM     69  C   UNL A   1      46.614  35.510  28.571  1.00  0.00     0.060 A 
BRANCH  69  70
ATOM     70  S   UNL A   1      47.013  37.262  28.751  1.00  0.00     0.124 S 
ATOM     71  O   UNL A   1      48.399  37.292  28.296  1.00  0.00    -0.237 OA
ATOM     72  O   UNL A   1      46.042  37.894  27.865  1.00  0.00    -0.237 OA
ATOM     73  O   UNL A   1      46.814  37.512  30.176  1.00  0.00    -0.744 OA
ENDBRANCH  69  70
ENDBRANCH  48  62
BRANCH  49  74
ATOM     74  C   UNL A   1      43.309  23.226  26.908  1.00  0.00     0.058 A 
ATOM     75  C   UNL A   1      43.181  22.712  25.608  1.00  0.00     0.135 A 
ATOM     76  C   UNL A   1      43.066  22.353  27.980  1.00  0.00     0.135 A 
ATOM     77  F   UNL A   1      43.401  23.506  24.549  1.00  0.00    -0.206 F 
ATOM     78  C   UNL A   1      42.806  21.393  25.377  1.00  0.00     0.059 A 
ATOM     79  C   UNL A   1      42.717  21.021  27.775  1.00  0.00     0.059 A 
ATOM     80  F   UNL A   1      43.195  22.786  29.244  1.00  0.00    -0.206 F 
ATOM     81  C   UNL A   1      42.578  20.553  26.468  1.00  0.00     0.060 A 
BRANCH  81  82
ATOM     82  S   UNL A   1      42.136  18.830  26.156  1.00  0.00     0.124 S 
ATOM     83  O   UNL A   1      43.067  18.476  25.091  1.00  0.00    -0.237 OA
ATOM     84  O   UNL A   1      42.383  18.212  27.455  1.00  0.00    -0.237 OA
ATOM     85  O   UNL A   1      40.731  18.910  25.766  1.00  0.00    -0.744 OA
ENDBRANCH  81  82
ENDBRANCH  49  74
BRANCH  61  86
ATOM     86  C   UNL A   1      49.353  26.661  26.385  1.00  0.00     0.058 A 
ATOM     87  C   UNL A   1      50.199  26.074  27.339  1.00  0.00     0.135 A 
ATOM     88  C   UNL A   1      49.837  26.797  25.074  1.00  0.00     0.135 A 
ATOM     89  F   UNL A   1      49.785  25.925  28.608  1.00  0.00    -0.206 F 
ATOM     90  C   UNL A   1      51.493  25.681  27.018  1.00  0.00     0.059 A 
ATOM     91  C   UNL A   1      51.115  26.377  24.721  1.00  0.00     0.059 A 
ATOM     92  F   UNL A   1      49.064  27.336  24.118  1.00  0.00    -0.206 F 
ATOM     93  C   UNL A   1      51.943  25.840  25.705  1.00  0.00     0.060 A 
BRANCH  93  94
ATOM     94  S   UNL A   1      53.624  25.325  25.299  1.00  0.00     0.124 S 
ATOM     95  O   UNL A   1      54.405  26.088  26.267  1.00  0.00    -0.237 OA
ATOM     96  O   UNL A   1      53.572  23.883  25.523  1.00  0.00    -0.237 OA
ATOM     97  O   UNL A   1      53.777  25.732  23.907  1.00  0.00    -0.744 OA
ENDBRANCH  93  94
ENDBRANCH  61  86
ENDBRANCH  35  36
ENDBRANCH  27  30
ENDBRANCH  25  26
ENDBRANCH   1  25
TORSDOF 15
ENDMDL
MODEL 3
REMARK VINA RESULT:     -13.2      7.241     12.848
REMARK SMILES CC(=O)Nc1cccc(-c2cc(F)ccc2C(=O)NCCCNC(=O)c2ccc(-c3c4nc(c(-c5c(F)cc(S(=O)(=O)[O-])cc5F)c5ccc([nH]5)c(-c5c(F)cc(S(=O)(=O)[O-])cc5F)c5nc(c(-c6c(F)cc(S(=O)(=O)[O-])cc6F)c6ccc3[nH]6)C=C5)C=C4)cc2)c1
REMARK SMILES IDX 21 1 20 2 19 3 17 4 18 5 16 7 10 8 11 9 12 10 15 11 13 12
REMARK SMILES IDX 14 13 9 14 5 15 6 16 92 17 7 18 8 19 4 20 1 21 2 22 3 23
REMARK SMILES IDX 22 25 23 26 24 27 25 29 26 30 27 31 91 32 28 33 90 34 29 35
REMARK SMILES IDX 30 36 31 37 84 38 32 39 89 40 83 41 85 42 33 43 88 44 82 45
REMARK SMILES IDX 81 46 34 48 68 49 47 50 67 51 48 52 51 53 66 54 86 55 49 56
REMARK SMILES IDX 50 57 65 59 87 60 52 61 35 62 36 63 45 64 37 65 38 66 44 67
REMARK SMILES IDX 46 68 39 69 40 70 41 71 42 72 43 73 69 74 70 75 79 76 71 77
REMARK SMILES IDX 72 78 78 79 80 80 73 81 74 82 75 83 76 84 77 85 53 86 54 87
REMARK SMILES IDX 63 88 55 89 56 90 62 91 64 92 57 93 58 94 59 95 60 96 61 97
REMARK H PARENT 19 6 4 24 23 28 85 47 51 58
REMARK Flexibility Score: inf
ROOT
ATOM      1  C   UNL A   1      37.213  22.886  26.313  1.00  0.00     0.042 C 
ENDROOT
BRANCH   1   2
ATOM      2  C   UNL A   1      37.087  21.826  25.248  1.00  0.00     0.118 C 
BRANCH   2   3
ATOM      3  N   UNL A   1      36.578  22.170  23.958  1.00  0.00    -0.352 N 
ATOM      4  C   UNL A   1      35.376  22.775  23.664  1.00  0.00     0.251 C 
ATOM      5  O   UNL A   1      35.284  23.245  22.524  1.00  0.00    -0.269 OA
ATOM      6  H   UNL A   1      37.153  21.948  23.190  1.00  0.00     0.163 HD
BRANCH   4   7
ATOM      7  C   UNL A   1      34.140  22.816  24.545  1.00  0.00     0.047 A 
ATOM      8  C   UNL A   1      33.144  21.835  24.846  1.00  0.00    -0.003 A 
ATOM      9  C   UNL A   1      32.115  22.190  25.760  1.00  0.00     0.048 A 
ATOM     10  C   UNL A   1      32.057  23.440  26.360  1.00  0.00     0.123 A 
ATOM     11  C   UNL A   1      34.035  24.081  25.190  1.00  0.00     0.017 A 
ATOM     12  F   UNL A   1      31.066  23.719  27.215  1.00  0.00    -0.207 F 
ATOM     13  C   UNL A   1      33.011  24.394  26.083  1.00  0.00     0.040 A 
BRANCH   8  14
ATOM     14  C   UNL A   1      33.025  20.469  24.290  1.00  0.00    -0.015 A 
ATOM     15  C   UNL A   1      33.835  18.171  24.096  1.00  0.00     0.041 A 
ATOM     16  C   UNL A   1      33.096  18.016  22.916  1.00  0.00     0.026 A 
ATOM     17  C   UNL A   1      33.755  19.384  24.804  1.00  0.00     0.034 A 
ATOM     18  C   UNL A   1      32.273  19.040  22.454  1.00  0.00     0.003 A 
ATOM     19  C   UNL A   1      32.236  20.255  23.135  1.00  0.00     0.009 A 
BRANCH  15  20
ATOM     20  N   UNL A   1      34.791  17.175  24.376  1.00  0.00    -0.326 N 
ATOM     21  C   UNL A   1      33.398  15.437  25.473  1.00  0.00     0.114 C 
ATOM     22  C   UNL A   1      34.729  16.057  25.153  1.00  0.00     0.221 C 
ATOM     23  O   UNL A   1      35.766  15.532  25.559  1.00  0.00    -0.275 OA
ATOM     24  H   UNL A   1      35.659  17.311  23.929  1.00  0.00     0.169 HD
ENDBRANCH  15  20
ENDBRANCH   8  14
ENDBRANCH   4   7
ENDBRANCH   2   3
ENDBRANCH   1   2
BRANCH   1  25
ATOM     25  C   UNL A   1      38.107  24.067  25.962  1.00  0.00     0.118 C 
BRANCH  25  26
ATOM     26  N   UNL A   1      39.545  23.807  26.085  1.00  0.00    -0.352 N 
ATOM     27  C   UNL A   1      40.588  24.474  26.692  1.00  0.00     0.251 C 
ATOM     28  H   UNL A   1      39.827  22.978  25.637  1.00  0.00     0.163 HD
ATOM     29  O   UNL A   1      41.733  24.144  26.396  1.00  0.00    -0.269 OA
BRANCH  27  30
ATOM     30  C   UNL A   1      40.373  25.608  27.627  1.00  0.00     0.039 A 
ATOM     31  C   UNL A   1      39.439  25.476  28.664  1.00  0.00     0.014 A 
ATOM     32  C   UNL A   1      41.066  26.806  27.506  1.00  0.00     0.014 A 
ATOM     33  C   UNL A   1      39.303  26.487  29.621  1.00  0.00     0.010 A 
ATOM     34  C   UNL A   1      41.064  27.723  28.546  1.00  0.00     0.010 A 
ATOM     35  C   UNL A   1      40.168  27.591  29.611  1.00  0.00    -0.014 A 
BRANCH  35  36
ATOM     36  C   UNL A   1      40.152  28.636  30.669  1.00  0.00     0.031 A 
ATOM     37  C   UNL A   1      41.068  28.513  31.864  1.00  0.00     0.074 A 
ATOM     38  C   UNL A   1      39.243  29.631  30.611  1.00  0.00     0.049 A 
ATOM     39  N   UNL A   1      41.110  29.234  32.953  1.00  0.00    -0.248 NA
ATOM     40  C   UNL A   1      42.029  27.394  31.855  1.00  0.00     0.031 C 
ATOM     41  C   UNL A   1      38.253  29.819  29.547  1.00  0.00     0.029 A 
ATOM     42  N   UNL A   1      38.994  30.669  31.473  1.00  0.00    -0.354 N 
ATOM     43  C   UNL A   1      42.065  28.634  33.769  1.00  0.00     0.074 A 
ATOM     44  C   UNL A   1      42.524  27.450  33.082  1.00  0.00     0.031 C 
ATOM     45  C   UNL A   1      37.538  30.927  29.796  1.00  0.00     0.029 A 
ATOM     46  C   UNL A   1      37.979  31.501  31.061  1.00  0.00     0.049 A 
ATOM     47  H   UNL A   1      39.496  30.805  32.310  1.00  0.00     0.167 HD
ATOM     48  C   UNL A   1      42.542  29.050  34.966  1.00  0.00     0.037 A 
ATOM     49  C   UNL A   1      37.462  32.601  31.640  1.00  0.00     0.037 A 
ATOM     50  C   UNL A   1      42.120  30.265  35.612  1.00  0.00     0.049 A 
ATOM     51  C   UNL A   1      38.034  33.066  32.952  1.00  0.00     0.074 A 
ATOM     52  C   UNL A   1      42.598  30.831  36.780  1.00  0.00     0.029 A 
ATOM     53  N   UNL A   1      41.120  31.103  35.140  1.00  0.00    -0.354 N 
ATOM     54  N   UNL A   1      38.989  32.527  33.673  1.00  0.00    -0.248 NA
ATOM     55  C   UNL A   1      37.466  34.293  33.524  1.00  0.00     0.031 C 
ATOM     56  C   UNL A   1      41.853  31.986  37.041  1.00  0.00     0.029 A 
ATOM     57  C   UNL A   1      40.951  32.171  36.005  1.00  0.00     0.049 A 
ATOM     58  H   UNL A   1      40.606  30.961  34.312  1.00  0.00     0.167 HD
ATOM     59  C   UNL A   1      39.157  33.365  34.770  1.00  0.00     0.074 A 
ATOM     60  C   UNL A   1      38.217  34.456  34.603  1.00  0.00     0.031 C 
ATOM     61  C   UNL A   1      40.010  33.248  35.818  1.00  0.00     0.037 A 
BRANCH  48  62
ATOM     62  C   UNL A   1      43.579  28.193  35.645  1.00  0.00     0.058 A 
ATOM     63  C   UNL A   1      44.954  28.366  35.417  1.00  0.00     0.135 A 
ATOM     64  C   UNL A   1      43.192  27.196  36.557  1.00  0.00     0.135 A 
ATOM     65  F   UNL A   1      45.384  29.292  34.544  1.00  0.00    -0.206 F 
ATOM     66  C   UNL A   1      45.904  27.560  36.036  1.00  0.00     0.059 A 
ATOM     67  C   UNL A   1      44.127  26.402  37.215  1.00  0.00     0.059 A 
ATOM     68  F   UNL A   1      41.891  26.983  36.815  1.00  0.00    -0.206 F 
ATOM     69  C   UNL A   1      45.480  26.580  36.934  1.00  0.00     0.060 A 
BRANCH  69  70
ATOM     70  S   UNL A   1      46.727  25.548  37.734  1.00  0.00     0.124 S 
ATOM     71  O   UNL A   1      47.390  26.515  38.603  1.00  0.00    -0.237 OA
ATOM     72  O   UNL A   1      45.914  24.542  38.409  1.00  0.00    -0.237 OA
ATOM     73  O   UNL A   1      47.529  25.056  36.616  1.00  0.00    -0.744 OA
ENDBRANCH  69  70
ENDBRANCH  48  62
BRANCH  49  74
ATOM     74  C   UNL A   1      36.376  33.363  30.964  1.00  0.00     0.058 A 
ATOM     75  C   UNL A   1      35.070  33.362  31.480  1.00  0.00     0.135 A 
ATOM     76  C   UNL A   1      36.617  34.117  29.805  1.00  0.00     0.135 A 
ATOM     77  F   UNL A   1      34.787  32.655  32.585  1.00  0.00    -0.206 F 
ATOM     78  C   UNL A   1      34.039  34.060  30.861  1.00  0.00     0.059 A 
ATOM     79  C   UNL A   1      35.609  34.848  29.184  1.00  0.00     0.059 A 
ATOM     80  F   UNL A   1      37.853  34.171  29.282  1.00  0.00    -0.206 F 
ATOM     81  C   UNL A   1      34.319  34.804  29.714  1.00  0.00     0.060 A 
BRANCH  81  82
ATOM     82  S   UNL A   1      32.982  35.744  28.946  1.00  0.00     0.124 S 
ATOM     83  O   UNL A   1      32.208  36.159  30.109  1.00  0.00    -0.237 OA
ATOM     84  O   UNL A   1      33.713  36.801  28.253  1.00  0.00    -0.237 OA
ATOM     85  O   UNL A   1      32.339  34.763  28.076  1.00  0.00    -0.744 OA
ENDBRANCH  81  82
ENDBRANCH  49  74
BRANCH  61  86
ATOM     86  C   UNL A   1      39.990  34.348  36.844  1.00  0.00     0.058 A 
ATOM     87  C   UNL A   1      39.148  34.299  37.966  1.00  0.00     0.135 A 
ATOM     88  C   UNL A   1      40.843  35.454  36.710  1.00  0.00     0.135 A 
ATOM     89  F   UNL A   1      38.310  33.265  38.138  1.00  0.00    -0.206 F 
ATOM     90  C   UNL A   1      39.120  35.332  38.896  1.00  0.00     0.059 A 
ATOM     91  C   UNL A   1      40.858  36.481  37.648  1.00  0.00     0.059 A 
ATOM     92  F   UNL A   1      41.681  35.542  35.665  1.00  0.00    -0.206 F 
ATOM     93  C   UNL A   1      39.978  36.422  38.726  1.00  0.00     0.060 A 
BRANCH  93  94
ATOM     94  S   UNL A   1      39.932  37.755  39.940  1.00  0.00     0.124 S 
ATOM     95  O   UNL A   1      39.900  37.009  41.194  1.00  0.00    -0.237 OA
ATOM     96  O   UNL A   1      41.173  38.473  39.661  1.00  0.00    -0.237 OA
ATOM     97  O   UNL A   1      38.709  38.477  39.606  1.00  0.00    -0.744 OA
ENDBRANCH  93  94
ENDBRANCH  61  86
ENDBRANCH  35  36
ENDBRANCH  27  30
ENDBRANCH  25  26
ENDBRANCH   1  25
TORSDOF 15
ENDMDL
