MODEL 1
REMARK VINA RESULT:     -11.7      0.000      0.000
REMARK SMILES O=C(NCCCNC(=O)c1ccc(-c2c3nc(c(-c4c(F)cc(S(=O)(=O)[O-])cc4F)c4ccc([nH]4)c(-c4c(F)cc(S(=O)(=O)[O-])cc4F)c4nc(c(-c5c(F)cc(S(=O)(=O)[O-])cc5F)c5ccc2[nH]5)C=C4)C=C3)cc1)c1ccc(N/C=C\C(=O)c2ccco2)cc1
REMARK SMILES IDX 4 1 3 2 1 3 2 4 76 6 77 7 91 8 78 9 90 10 79 11 80 12 81 14
REMARK SMILES IDX 82 15 83 16 84 17 85 18 86 19 89 20 87 21 88 22 5 23 6 24
REMARK SMILES IDX 7 25 8 26 9 28 10 29 11 30 75 31 12 32 74 33 13 34 14 35
REMARK SMILES IDX 15 36 68 37 16 38 73 39 67 40 69 41 17 42 72 43 66 44 65 45
REMARK SMILES IDX 18 47 52 48 31 49 51 50 32 51 35 52 50 53 70 54 33 55 34 56
REMARK SMILES IDX 49 58 71 59 36 60 19 61 20 62 29 63 21 64 22 65 28 66 30 67
REMARK SMILES IDX 23 68 24 69 25 70 26 71 27 72 53 73 54 74 63 75 55 76 56 77
REMARK SMILES IDX 62 78 64 79 57 80 58 81 59 82 60 83 61 84 37 85 38 86 47 87
REMARK SMILES IDX 39 88 40 89 46 90 48 91 41 92 42 93 43 94 44 95 45 96
REMARK H PARENT 3 5 80 13 7 27 69 46 35 57
REMARK Flexibility Score: inf
ROOT
ATOM      1  C   UNL A   1      32.518  29.304  25.003  1.00  0.00     0.118 C 
ENDROOT
BRANCH   1   2
ATOM      2  N   UNL A   1      31.245  29.754  24.455  1.00  0.00    -0.352 N 
ATOM      3  O   UNL A   1      29.386  29.675  23.179  1.00  0.00    -0.269 OA
ATOM      4  C   UNL A   1      30.343  29.083  23.669  1.00  0.00     0.251 C 
ATOM      5  H   UNL A   1      30.995  30.679  24.683  1.00  0.00     0.163 HD
BRANCH   4   6
ATOM      6  C   UNL A   1      30.535  27.647  23.389  1.00  0.00     0.039 A 
ATOM      7  C   UNL A   1      29.912  26.668  24.169  1.00  0.00     0.016 A 
ATOM      8  C   UNL A   1      31.352  27.279  22.323  1.00  0.00     0.016 A 
ATOM      9  C   UNL A   1      30.195  25.319  23.948  1.00  0.00     0.027 A 
ATOM     10  C   UNL A   1      31.603  25.927  22.087  1.00  0.00     0.027 A 
ATOM     11  C   UNL A   1      31.047  24.931  22.908  1.00  0.00     0.038 A 
BRANCH  11  12
ATOM     12  N   UNL A   1      31.458  23.605  22.706  1.00  0.00    -0.362 N 
ATOM     13  H   UNL A   1      31.434  23.288  21.774  1.00  0.00     0.166 HD
BRANCH  12  14
ATOM     14  C   UNL A   1      31.888  22.694  23.635  1.00  0.00     0.087 C 
ATOM     15  C   UNL A   1      33.137  22.385  24.014  1.00  0.00     0.074 C 
BRANCH  15  16
ATOM     16  C   UNL A   1      34.400  22.995  23.500  1.00  0.00     0.222 C 
ATOM     17  O   UNL A   1      34.354  23.560  22.408  1.00  0.00    -0.286 OA
BRANCH  16  18
ATOM     18  C   UNL A   1      35.597  22.900  24.307  1.00  0.00     0.173 A 
ATOM     19  C   UNL A   1      36.296  23.834  25.054  1.00  0.00     0.054 A 
ATOM     20  O   UNL A   1      36.277  21.712  24.319  1.00  0.00    -0.461 OA
ATOM     21  C   UNL A   1      37.468  23.189  25.520  1.00  0.00     0.043 A 
ATOM     22  C   UNL A   1      37.408  21.901  25.044  1.00  0.00     0.196 A 
ENDBRANCH  16  18
ENDBRANCH  15  16
ENDBRANCH  12  14
ENDBRANCH  11  12
ENDBRANCH   4   6
ENDBRANCH   1   2
BRANCH   1  23
ATOM     23  C   UNL A   1      32.354  28.425  26.236  1.00  0.00     0.042 C 
BRANCH  23  24
ATOM     24  C   UNL A   1      33.388  28.669  27.327  1.00  0.00     0.118 C 
BRANCH  24  25
ATOM     25  N   UNL A   1      33.462  30.066  27.740  1.00  0.00    -0.352 N 
ATOM     26  C   UNL A   1      34.482  30.771  28.334  1.00  0.00     0.251 C 
ATOM     27  H   UNL A   1      32.649  30.591  27.563  1.00  0.00     0.163 HD
ATOM     28  O   UNL A   1      34.266  31.903  28.758  1.00  0.00    -0.269 OA
BRANCH  26  29
ATOM     29  C   UNL A   1      35.821  30.163  28.497  1.00  0.00     0.039 A 
ATOM     30  C   UNL A   1      36.686  30.128  27.400  1.00  0.00     0.014 A 
ATOM     31  C   UNL A   1      36.228  29.633  29.723  1.00  0.00     0.014 A 
ATOM     32  C   UNL A   1      37.993  29.665  27.561  1.00  0.00     0.010 A 
ATOM     33  C   UNL A   1      37.552  29.243  29.902  1.00  0.00     0.010 A 
ATOM     34  C   UNL A   1      38.455  29.276  28.829  1.00  0.00    -0.014 A 
BRANCH  34  35
ATOM     35  C   UNL A   1      39.884  28.951  29.076  1.00  0.00     0.031 A 
ATOM     36  C   UNL A   1      40.830  30.014  29.560  1.00  0.00     0.074 A 
ATOM     37  C   UNL A   1      40.347  27.724  28.762  1.00  0.00     0.049 A 
ATOM     38  N   UNL A   1      42.132  29.971  29.671  1.00  0.00    -0.248 NA
ATOM     39  C   UNL A   1      40.237  31.305  29.946  1.00  0.00     0.031 C 
ATOM     40  C   UNL A   1      39.536  26.616  28.250  1.00  0.00     0.029 A 
ATOM     41  N   UNL A   1      41.618  27.208  28.805  1.00  0.00    -0.354 N 
ATOM     42  C   UNL A   1      42.517  31.226  30.124  1.00  0.00     0.074 A 
ATOM     43  C   UNL A   1      41.315  32.024  30.231  1.00  0.00     0.031 C 
ATOM     44  C   UNL A   1      40.325  25.552  28.035  1.00  0.00     0.029 A 
ATOM     45  C   UNL A   1      41.704  25.914  28.346  1.00  0.00     0.049 A 
ATOM     46  H   UNL A   1      42.395  27.715  29.133  1.00  0.00     0.167 HD
ATOM     47  C   UNL A   1      43.758  31.666  30.440  1.00  0.00     0.037 A 
ATOM     48  C   UNL A   1      42.775  25.116  28.167  1.00  0.00     0.037 A 
ATOM     49  C   UNL A   1      44.948  30.860  30.360  1.00  0.00     0.049 A 
ATOM     50  C   UNL A   1      44.145  25.640  28.493  1.00  0.00     0.074 A 
ATOM     51  C   UNL A   1      46.242  31.199  30.716  1.00  0.00     0.029 A 
ATOM     52  N   UNL A   1      44.992  29.555  29.894  1.00  0.00    -0.354 N 
ATOM     53  N   UNL A   1      44.485  26.819  28.959  1.00  0.00    -0.248 NA
ATOM     54  C   UNL A   1      45.278  24.735  28.258  1.00  0.00     0.031 C 
ATOM     55  C   UNL A   1      47.074  30.109  30.435  1.00  0.00     0.029 A 
ATOM     56  C   UNL A   1      46.293  29.082  29.932  1.00  0.00     0.049 A 
ATOM     57  H   UNL A   1      44.212  29.041  29.582  1.00  0.00     0.167 HD
ATOM     58  C   UNL A   1      45.869  26.791  29.084  1.00  0.00     0.074 A 
ATOM     59  C   UNL A   1      46.303  25.476  28.660  1.00  0.00     0.031 C 
ATOM     60  C   UNL A   1      46.706  27.770  29.506  1.00  0.00     0.037 A 
BRANCH  47  61
ATOM     61  C   UNL A   1      43.896  33.083  30.919  1.00  0.00     0.058 A 
ATOM     62  C   UNL A   1      43.771  33.409  32.279  1.00  0.00     0.135 A 
ATOM     63  C   UNL A   1      44.212  34.116  30.023  1.00  0.00     0.135 A 
ATOM     64  F   UNL A   1      43.454  32.460  33.174  1.00  0.00    -0.206 F 
ATOM     65  C   UNL A   1      43.939  34.712  32.731  1.00  0.00     0.059 A 
ATOM     66  C   UNL A   1      44.405  35.424  30.457  1.00  0.00     0.059 A 
ATOM     67  F   UNL A   1      44.340  33.857  28.711  1.00  0.00    -0.206 F 
ATOM     68  C   UNL A   1      44.256  35.714  31.813  1.00  0.00     0.060 A 
BRANCH  68  69
ATOM     69  S   UNL A   1      44.492  37.397  32.420  1.00  0.00     0.124 S 
ATOM     70  O   UNL A   1      43.743  37.360  33.673  1.00  0.00    -0.237 OA
ATOM     71  O   UNL A   1      45.942  37.483  32.552  1.00  0.00    -0.237 OA
ATOM     72  O   UNL A   1      43.911  38.223  31.366  1.00  0.00    -0.744 OA
ENDBRANCH  68  69
ENDBRANCH  47  61
BRANCH  48  73
ATOM     73  C   UNL A   1      42.600  23.739  27.636  1.00  0.00     0.058 A 
ATOM     74  C   UNL A   1      42.495  22.643  28.504  1.00  0.00     0.135 A 
ATOM     75  C   UNL A   1      42.545  23.490  26.255  1.00  0.00     0.135 A 
ATOM     76  F   UNL A   1      42.550  22.831  29.831  1.00  0.00    -0.206 F 
ATOM     77  C   UNL A   1      42.357  21.345  28.024  1.00  0.00     0.059 A 
ATOM     78  C   UNL A   1      42.386  22.204  25.752  1.00  0.00     0.059 A 
ATOM     79  F   UNL A   1      42.626  24.508  25.385  1.00  0.00    -0.206 F 
ATOM     80  C   UNL A   1      42.307  21.136  26.645  1.00  0.00     0.060 A 
BRANCH  80  81
ATOM     81  S   UNL A   1      42.093  19.452  26.026  1.00  0.00     0.124 S 
ATOM     82  O   UNL A   1      42.575  18.664  27.153  1.00  0.00    -0.237 OA
ATOM     83  O   UNL A   1      40.657  19.396  25.772  1.00  0.00    -0.237 OA
ATOM     84  O   UNL A   1      42.933  19.429  24.830  1.00  0.00    -0.744 OA
ENDBRANCH  80  81
ENDBRANCH  48  73
BRANCH  60  85
ATOM     85  C   UNL A   1      48.173  27.455  29.541  1.00  0.00     0.058 A 
ATOM     86  C   UNL A   1      49.023  27.833  28.490  1.00  0.00     0.135 A 
ATOM     87  C   UNL A   1      48.744  26.828  30.659  1.00  0.00     0.135 A 
ATOM     88  F   UNL A   1      48.522  28.426  27.395  1.00  0.00    -0.206 F 
ATOM     89  C   UNL A   1      50.392  27.592  28.544  1.00  0.00     0.059 A 
ATOM     90  C   UNL A   1      50.113  26.595  30.743  1.00  0.00     0.059 A 
ATOM     91  F   UNL A   1      47.972  26.452  31.691  1.00  0.00    -0.206 F 
ATOM     92  C   UNL A   1      50.927  26.977  29.677  1.00  0.00     0.060 A 
BRANCH  92  93
ATOM     93  S   UNL A   1      52.713  26.718  29.759  1.00  0.00     0.124 S 
ATOM     94  O   UNL A   1      52.984  26.124  28.454  1.00  0.00    -0.237 OA
ATOM     95  O   UNL A   1      53.217  28.075  29.955  1.00  0.00    -0.237 OA
ATOM     96  O   UNL A   1      52.874  25.826  30.903  1.00  0.00    -0.744 OA
ENDBRANCH  92  93
ENDBRANCH  60  85
ENDBRANCH  34  35
ENDBRANCH  26  29
ENDBRANCH  24  25
ENDBRANCH  23  24
ENDBRANCH   1  23
TORSDOF 17
ENDMDL
MODEL 2
REMARK VINA RESULT:     -11.3      1.555      2.288
REMARK SMILES O=C(NCCCNC(=O)c1ccc(-c2c3nc(c(-c4c(F)cc(S(=O)(=O)[O-])cc4F)c4ccc([nH]4)c(-c4c(F)cc(S(=O)(=O)[O-])cc4F)c4nc(c(-c5c(F)cc(S(=O)(=O)[O-])cc5F)c5ccc2[nH]5)C=C4)C=C3)cc1)c1ccc(N/C=C\C(=O)c2ccco2)cc1
REMARK SMILES IDX 4 1 3 2 1 3 2 4 76 6 77 7 91 8 78 9 90 10 79 11 80 12 81 14
REMARK SMILES IDX 82 15 83 16 84 17 85 18 86 19 89 20 87 21 88 22 5 23 6 24
REMARK SMILES IDX 7 25 8 26 9 28 10 29 11 30 75 31 12 32 74 33 13 34 14 35
REMARK SMILES IDX 15 36 68 37 16 38 73 39 67 40 69 41 17 42 72 43 66 44 65 45
REMARK SMILES IDX 18 47 52 48 31 49 51 50 32 51 35 52 50 53 70 54 33 55 34 56
REMARK SMILES IDX 49 58 71 59 36 60 19 61 20 62 29 63 21 64 22 65 28 66 30 67
REMARK SMILES IDX 23 68 24 69 25 70 26 71 27 72 53 73 54 74 63 75 55 76 56 77
REMARK SMILES IDX 62 78 64 79 57 80 58 81 59 82 60 83 61 84 37 85 38 86 47 87
REMARK SMILES IDX 39 88 40 89 46 90 48 91 41 92 42 93 43 94 44 95 45 96
REMARK H PARENT 3 5 80 13 7 27 69 46 35 57
REMARK Flexibility Score: inf
ROOT
ATOM      1  C   UNL A   1      32.633  28.526  24.650  1.00  0.00     0.118 C 
ENDROOT
BRANCH   1   2
ATOM      2  N   UNL A   1      31.606  27.736  25.316  1.00  0.00    -0.352 N 
ATOM      3  O   UNL A   1      30.449  25.884  25.883  1.00  0.00    -0.269 OA
ATOM      4  C   UNL A   1      31.465  26.374  25.399  1.00  0.00     0.251 C 
ATOM      5  H   UNL A   1      30.908  28.258  25.774  1.00  0.00     0.163 HD
BRANCH   4   6
ATOM      6  C   UNL A   1      32.528  25.490  24.883  1.00  0.00     0.039 A 
ATOM      7  C   UNL A   1      32.473  24.973  23.586  1.00  0.00     0.016 A 
ATOM      8  C   UNL A   1      33.600  25.180  25.716  1.00  0.00     0.016 A 
ATOM      9  C   UNL A   1      33.436  24.056  23.161  1.00  0.00     0.027 A 
ATOM     10  C   UNL A   1      34.577  24.289  25.272  1.00  0.00     0.027 A 
ATOM     11  C   UNL A   1      34.498  23.700  23.998  1.00  0.00     0.038 A 
BRANCH  11  12
ATOM     12  N   UNL A   1      35.431  22.704  23.674  1.00  0.00    -0.362 N 
ATOM     13  H   UNL A   1      35.672  22.638  22.722  1.00  0.00     0.166 HD
BRANCH  12  14
ATOM     14  C   UNL A   1      36.050  21.810  24.509  1.00  0.00     0.087 C 
ATOM     15  C   UNL A   1      35.556  20.712  25.100  1.00  0.00     0.074 C 
BRANCH  15  16
ATOM     16  C   UNL A   1      34.167  20.179  24.973  1.00  0.00     0.222 C 
ATOM     17  O   UNL A   1      33.249  20.884  25.390  1.00  0.00    -0.286 OA
BRANCH  16  18
ATOM     18  C   UNL A   1      33.972  18.880  24.366  1.00  0.00     0.173 A 
ATOM     19  C   UNL A   1      34.776  17.755  24.290  1.00  0.00     0.054 A 
ATOM     20  O   UNL A   1      32.833  18.672  23.637  1.00  0.00    -0.461 OA
ATOM     21  C   UNL A   1      34.105  16.831  23.453  1.00  0.00     0.043 A 
ATOM     22  C   UNL A   1      32.929  17.437  23.081  1.00  0.00     0.196 A 
ENDBRANCH  16  18
ENDBRANCH  15  16
ENDBRANCH  12  14
ENDBRANCH  11  12
ENDBRANCH   4   6
ENDBRANCH   1   2
BRANCH   1  23
ATOM     23  C   UNL A   1      33.832  28.814  25.545  1.00  0.00     0.042 C 
BRANCH  23  24
ATOM     24  C   UNL A   1      33.518  28.827  27.036  1.00  0.00     0.118 C 
BRANCH  24  25
ATOM     25  N   UNL A   1      33.544  30.166  27.612  1.00  0.00    -0.352 N 
ATOM     26  C   UNL A   1      34.514  30.806  28.347  1.00  0.00     0.251 C 
ATOM     27  H   UNL A   1      32.734  30.701  27.448  1.00  0.00     0.163 HD
ATOM     28  O   UNL A   1      34.255  31.879  28.885  1.00  0.00    -0.269 OA
BRANCH  26  29
ATOM     29  C   UNL A   1      35.851  30.195  28.520  1.00  0.00     0.039 A 
ATOM     30  C   UNL A   1      36.733  30.179  27.436  1.00  0.00     0.014 A 
ATOM     31  C   UNL A   1      36.239  29.644  29.742  1.00  0.00     0.014 A 
ATOM     32  C   UNL A   1      38.038  29.713  27.609  1.00  0.00     0.010 A 
ATOM     33  C   UNL A   1      37.561  29.251  29.936  1.00  0.00     0.010 A 
ATOM     34  C   UNL A   1      38.480  29.302  28.877  1.00  0.00    -0.014 A 
BRANCH  34  35
ATOM     35  C   UNL A   1      39.905  28.973  29.141  1.00  0.00     0.031 A 
ATOM     36  C   UNL A   1      40.848  30.033  29.638  1.00  0.00     0.074 A 
ATOM     37  C   UNL A   1      40.368  27.745  28.832  1.00  0.00     0.049 A 
ATOM     38  N   UNL A   1      42.149  29.986  29.764  1.00  0.00    -0.248 NA
ATOM     39  C   UNL A   1      40.254  31.325  30.017  1.00  0.00     0.031 C 
ATOM     40  C   UNL A   1      39.560  26.640  28.308  1.00  0.00     0.029 A 
ATOM     41  N   UNL A   1      41.637  27.225  28.889  1.00  0.00    -0.354 N 
ATOM     42  C   UNL A   1      42.531  31.239  30.223  1.00  0.00     0.074 A 
ATOM     43  C   UNL A   1      41.330  32.041  30.317  1.00  0.00     0.031 C 
ATOM     44  C   UNL A   1      40.349  25.574  28.102  1.00  0.00     0.029 A 
ATOM     45  C   UNL A   1      41.725  25.931  28.430  1.00  0.00     0.049 A 
ATOM     46  H   UNL A   1      42.412  27.730  29.227  1.00  0.00     0.167 HD
ATOM     47  C   UNL A   1      43.770  31.676  30.555  1.00  0.00     0.037 A 
ATOM     48  C   UNL A   1      42.796  25.131  28.263  1.00  0.00     0.037 A 
ATOM     49  C   UNL A   1      44.959  30.866  30.488  1.00  0.00     0.049 A 
ATOM     50  C   UNL A   1      44.164  25.651  28.606  1.00  0.00     0.074 A 
ATOM     51  C   UNL A   1      46.249  31.202  30.860  1.00  0.00     0.029 A 
ATOM     52  N   UNL A   1      45.004  29.562  30.021  1.00  0.00    -0.354 N 
ATOM     53  N   UNL A   1      44.501  26.828  29.077  1.00  0.00    -0.248 NA
ATOM     54  C   UNL A   1      45.297  24.743  28.384  1.00  0.00     0.031 C 
ATOM     55  C   UNL A   1      47.081  30.110  30.587  1.00  0.00     0.029 A 
ATOM     56  C   UNL A   1      46.303  29.085  30.074  1.00  0.00     0.049 A 
ATOM     57  H   UNL A   1      44.227  29.050  29.699  1.00  0.00     0.167 HD
ATOM     58  C   UNL A   1      45.884  26.796  29.219  1.00  0.00     0.074 A 
ATOM     59  C   UNL A   1      46.318  25.481  28.799  1.00  0.00     0.031 C 
ATOM     60  C   UNL A   1      46.718  27.772  29.652  1.00  0.00     0.037 A 
BRANCH  47  61
ATOM     61  C   UNL A   1      43.906  33.092  31.036  1.00  0.00     0.058 A 
ATOM     62  C   UNL A   1      43.886  33.402  32.405  1.00  0.00     0.135 A 
ATOM     63  C   UNL A   1      44.116  34.142  30.129  1.00  0.00     0.135 A 
ATOM     64  F   UNL A   1      43.673  32.436  33.313  1.00  0.00    -0.206 F 
ATOM     65  C   UNL A   1      44.053  34.705  32.857  1.00  0.00     0.059 A 
ATOM     66  C   UNL A   1      44.307  35.452  30.560  1.00  0.00     0.059 A 
ATOM     67  F   UNL A   1      44.142  33.899  28.808  1.00  0.00    -0.206 F 
ATOM     68  C   UNL A   1      44.263  35.724  31.926  1.00  0.00     0.060 A 
BRANCH  68  69
ATOM     69  S   UNL A   1      44.499  37.409  32.531  1.00  0.00     0.124 S 
ATOM     70  O   UNL A   1      43.407  37.527  33.492  1.00  0.00    -0.237 OA
ATOM     71  O   UNL A   1      45.840  37.352  33.103  1.00  0.00    -0.237 OA
ATOM     72  O   UNL A   1      44.368  38.224  31.328  1.00  0.00    -0.744 OA
ENDBRANCH  68  69
ENDBRANCH  47  61
BRANCH  48  73
ATOM     73  C   UNL A   1      42.624  23.755  27.729  1.00  0.00     0.058 A 
ATOM     74  C   UNL A   1      42.526  23.527  26.349  1.00  0.00     0.135 A 
ATOM     75  C   UNL A   1      42.546  22.644  28.584  1.00  0.00     0.135 A 
ATOM     76  F   UNL A   1      42.587  24.559  25.494  1.00  0.00    -0.206 F 
ATOM     77  C   UNL A   1      42.338  22.250  25.833  1.00  0.00     0.059 A 
ATOM     78  C   UNL A   1      42.380  21.355  28.091  1.00  0.00     0.059 A 
ATOM     79  F   UNL A   1      42.650  22.808  29.912  1.00  0.00    -0.206 F 
ATOM     80  C   UNL A   1      42.264  21.169  26.714  1.00  0.00     0.060 A 
BRANCH  80  81
ATOM     81  S   UNL A   1      42.056  19.507  26.038  1.00  0.00     0.124 S 
ATOM     82  O   UNL A   1      40.615  19.456  25.827  1.00  0.00    -0.237 OA
ATOM     83  O   UNL A   1      42.879  19.557  24.833  1.00  0.00    -0.237 OA
ATOM     84  O   UNL A   1      42.572  18.650  27.102  1.00  0.00    -0.744 OA
ENDBRANCH  80  81
ENDBRANCH  48  73
BRANCH  60  85
ATOM     85  C   UNL A   1      48.184  27.453  29.704  1.00  0.00     0.058 A 
ATOM     86  C   UNL A   1      49.004  27.615  28.577  1.00  0.00     0.135 A 
ATOM     87  C   UNL A   1      48.785  27.044  30.904  1.00  0.00     0.135 A 
ATOM     88  F   UNL A   1      48.473  27.994  27.403  1.00  0.00    -0.206 F 
ATOM     89  C   UNL A   1      50.372  27.373  28.636  1.00  0.00     0.059 A 
ATOM     90  C   UNL A   1      50.154  26.816  30.991  1.00  0.00     0.059 A 
ATOM     91  F   UNL A   1      48.042  26.881  32.011  1.00  0.00    -0.206 F 
ATOM     92  C   UNL A   1      50.938  26.979  29.850  1.00  0.00     0.060 A 
BRANCH  92  93
ATOM     93  S   UNL A   1      52.724  26.720  29.928  1.00  0.00     0.124 S 
ATOM     94  O   UNL A   1      53.027  26.347  28.551  1.00  0.00    -0.237 OA
ATOM     95  O   UNL A   1      53.212  28.030  30.351  1.00  0.00    -0.237 OA
ATOM     96  O   UNL A   1      52.869  25.656  30.916  1.00  0.00    -0.744 OA
ENDBRANCH  92  93
ENDBRANCH  60  85
ENDBRANCH  34  35
ENDBRANCH  26  29
ENDBRANCH  24  25
ENDBRANCH  23  24
ENDBRANCH   1  23
TORSDOF 17
ENDMDL
MODEL 3
REMARK VINA RESULT:     -11.1      3.291      9.513
REMARK SMILES O=C(NCCCNC(=O)c1ccc(-c2c3nc(c(-c4c(F)cc(S(=O)(=O)[O-])cc4F)c4ccc([nH]4)c(-c4c(F)cc(S(=O)(=O)[O-])cc4F)c4nc(c(-c5c(F)cc(S(=O)(=O)[O-])cc5F)c5ccc2[nH]5)C=C4)C=C3)cc1)c1ccc(N/C=C\C(=O)c2ccco2)cc1
REMARK SMILES IDX 4 1 3 2 1 3 2 4 76 6 77 7 91 8 78 9 90 10 79 11 80 12 81 14
REMARK SMILES IDX 82 15 83 16 84 17 85 18 86 19 89 20 87 21 88 22 5 23 6 24
REMARK SMILES IDX 7 25 8 26 9 28 10 29 11 30 75 31 12 32 74 33 13 34 14 35
REMARK SMILES IDX 15 36 68 37 16 38 73 39 67 40 69 41 17 42 72 43 66 44 65 45
REMARK SMILES IDX 18 47 52 48 31 49 51 50 32 51 35 52 50 53 70 54 33 55 34 56
REMARK SMILES IDX 49 58 71 59 36 60 19 61 20 62 29 63 21 64 22 65 28 66 30 67
REMARK SMILES IDX 23 68 24 69 25 70 26 71 27 72 53 73 54 74 63 75 55 76 56 77
REMARK SMILES IDX 62 78 64 79 57 80 58 81 59 82 60 83 61 84 37 85 38 86 47 87
REMARK SMILES IDX 39 88 40 89 46 90 48 91 41 92 42 93 43 94 44 95 45 96
REMARK H PARENT 3 5 80 13 7 27 69 46 35 57
REMARK Flexibility Score: inf
ROOT
ATOM      1  C   UNL A   1      34.773  22.856  23.982  1.00  0.00     0.118 C 
ENDROOT
BRANCH   1   2
ATOM      2  N   UNL A   1      34.535  22.444  25.359  1.00  0.00    -0.352 N 
ATOM      3  O   UNL A   1      33.952  22.672  27.527  1.00  0.00    -0.269 OA
ATOM      4  C   UNL A   1      33.935  23.127  26.387  1.00  0.00     0.251 C 
ATOM      5  H   UNL A   1      34.851  21.539  25.585  1.00  0.00     0.163 HD
BRANCH   4   6
ATOM      6  C   UNL A   1      33.288  24.427  26.129  1.00  0.00     0.039 A 
ATOM      7  C   UNL A   1      34.037  25.548  25.759  1.00  0.00     0.016 A 
ATOM      8  C   UNL A   1      31.904  24.520  26.257  1.00  0.00     0.016 A 
ATOM      9  C   UNL A   1      33.411  26.789  25.624  1.00  0.00     0.027 A 
ATOM     10  C   UNL A   1      31.282  25.758  26.087  1.00  0.00     0.027 A 
ATOM     11  C   UNL A   1      32.028  26.911  25.790  1.00  0.00     0.038 A 
BRANCH  11  12
ATOM     12  N   UNL A   1      31.359  28.144  25.779  1.00  0.00    -0.362 N 
ATOM     13  H   UNL A   1      30.674  28.264  26.476  1.00  0.00     0.166 HD
BRANCH  12  14
ATOM     14  C   UNL A   1      31.532  29.201  24.925  1.00  0.00     0.087 C 
ATOM     15  C   UNL A   1      31.289  29.284  23.608  1.00  0.00     0.074 C 
BRANCH  15  16
ATOM     16  C   UNL A   1      30.739  28.206  22.734  1.00  0.00     0.222 C 
ATOM     17  O   UNL A   1      29.593  28.350  22.308  1.00  0.00    -0.286 OA
BRANCH  16  18
ATOM     18  C   UNL A   1      31.573  27.065  22.428  1.00  0.00     0.173 A 
ATOM     19  C   UNL A   1      31.322  25.703  22.411  1.00  0.00     0.054 A 
ATOM     20  O   UNL A   1      32.901  27.282  22.177  1.00  0.00    -0.461 OA
ATOM     21  C   UNL A   1      32.561  25.063  22.165  1.00  0.00     0.043 A 
ATOM     22  C   UNL A   1      33.489  26.068  22.031  1.00  0.00     0.196 A 
ENDBRANCH  16  18
ENDBRANCH  15  16
ENDBRANCH  12  14
ENDBRANCH  11  12
ENDBRANCH   4   6
ENDBRANCH   1   2
BRANCH   1  23
ATOM     23  C   UNL A   1      36.252  23.032  23.664  1.00  0.00     0.042 C 
BRANCH  23  24
ATOM     24  C   UNL A   1      37.091  23.549  24.825  1.00  0.00     0.118 C 
BRANCH  24  25
ATOM     25  N   UNL A   1      38.179  22.647  25.188  1.00  0.00    -0.352 N 
ATOM     26  C   UNL A   1      39.320  22.870  25.921  1.00  0.00     0.251 C 
ATOM     27  H   UNL A   1      38.078  21.726  24.854  1.00  0.00     0.163 HD
ATOM     28  O   UNL A   1      40.193  22.007  25.957  1.00  0.00    -0.269 OA
BRANCH  26  29
ATOM     29  C   UNL A   1      39.517  24.152  26.633  1.00  0.00     0.039 A 
ATOM     30  C   UNL A   1      38.917  24.331  27.883  1.00  0.00     0.014 A 
ATOM     31  C   UNL A   1      40.291  25.173  26.079  1.00  0.00     0.014 A 
ATOM     32  C   UNL A   1      39.183  25.485  28.623  1.00  0.00     0.010 A 
ATOM     33  C   UNL A   1      40.619  26.287  26.847  1.00  0.00     0.010 A 
ATOM     34  C   UNL A   1      40.086  26.444  28.136  1.00  0.00    -0.014 A 
BRANCH  34  35
ATOM     35  C   UNL A   1      40.534  27.591  28.968  1.00  0.00     0.031 A 
ATOM     36  C   UNL A   1      41.812  27.503  29.754  1.00  0.00     0.074 A 
ATOM     37  C   UNL A   1      39.733  28.668  29.095  1.00  0.00     0.049 A 
ATOM     38  N   UNL A   1      42.281  28.322  30.660  1.00  0.00    -0.248 NA
ATOM     39  C   UNL A   1      42.663  26.328  29.509  1.00  0.00     0.031 C 
ATOM     40  C   UNL A   1      38.450  28.857  28.412  1.00  0.00     0.029 A 
ATOM     41  N   UNL A   1      39.866  29.799  29.862  1.00  0.00    -0.354 N 
ATOM     42  C   UNL A   1      43.470  27.758  31.102  1.00  0.00     0.074 A 
ATOM     43  C   UNL A   1      43.634  26.507  30.394  1.00  0.00     0.031 C 
ATOM     44  C   UNL A   1      37.920  30.034  28.784  1.00  0.00     0.029 A 
ATOM     45  C   UNL A   1      38.798  30.661  29.766  1.00  0.00     0.049 A 
ATOM     46  H   UNL A   1      40.652  29.977  30.428  1.00  0.00     0.167 HD
ATOM     47  C   UNL A   1      44.354  28.249  32.004  1.00  0.00     0.037 A 
ATOM     48  C   UNL A   1      38.539  31.812  30.415  1.00  0.00     0.037 A 
ATOM     49  C   UNL A   1      44.202  29.508  32.685  1.00  0.00     0.049 A 
ATOM     50  C   UNL A   1      39.520  32.318  31.436  1.00  0.00     0.074 A 
ATOM     51  C   UNL A   1      45.074  30.118  33.570  1.00  0.00     0.029 A 
ATOM     52  N   UNL A   1      43.109  30.351  32.556  1.00  0.00    -0.354 N 
ATOM     53  N   UNL A   1      40.660  31.789  31.812  1.00  0.00    -0.248 NA
ATOM     54  C   UNL A   1      39.176  33.566  32.129  1.00  0.00     0.031 C 
ATOM     55  C   UNL A   1      44.492  31.315  34.002  1.00  0.00     0.029 A 
ATOM     56  C   UNL A   1      43.274  31.465  33.362  1.00  0.00     0.049 A 
ATOM     57  H   UNL A   1      42.331  30.182  31.978  1.00  0.00     0.167 HD
ATOM     58  C   UNL A   1      41.174  32.648  32.777  1.00  0.00     0.074 A 
ATOM     59  C   UNL A   1      40.231  33.737  32.916  1.00  0.00     0.031 C 
ATOM     60  C   UNL A   1      42.323  32.539  33.488  1.00  0.00     0.037 A 
BRANCH  47  61
ATOM     61  C   UNL A   1      45.579  27.430  32.298  1.00  0.00     0.058 A 
ATOM     62  C   UNL A   1      46.769  27.613  31.577  1.00  0.00     0.135 A 
ATOM     63  C   UNL A   1      45.583  26.497  33.346  1.00  0.00     0.135 A 
ATOM     64  F   UNL A   1      46.812  28.483  30.555  1.00  0.00    -0.206 F 
ATOM     65  C   UNL A   1      47.916  26.887  31.873  1.00  0.00     0.059 A 
ATOM     66  C   UNL A   1      46.727  25.774  33.674  1.00  0.00     0.059 A 
ATOM     67  F   UNL A   1      44.470  26.283  34.066  1.00  0.00    -0.206 F 
ATOM     68  C   UNL A   1      47.886  25.970  32.925  1.00  0.00     0.060 A 
BRANCH  68  69
ATOM     69  S   UNL A   1      49.391  25.050  33.310  1.00  0.00     0.124 S 
ATOM     70  O   UNL A   1      50.108  26.007  34.148  1.00  0.00    -0.237 OA
ATOM     71  O   UNL A   1      48.872  23.873  33.997  1.00  0.00    -0.237 OA
ATOM     72  O   UNL A   1      49.981  24.799  31.999  1.00  0.00    -0.744 OA
ENDBRANCH  68  69
ENDBRANCH  47  61
BRANCH  48  73
ATOM     73  C   UNL A   1      37.287  32.562  30.136  1.00  0.00     0.058 A 
ATOM     74  C   UNL A   1      36.101  32.260  30.820  1.00  0.00     0.135 A 
ATOM     75  C   UNL A   1      37.248  33.587  29.176  1.00  0.00     0.135 A 
ATOM     76  F   UNL A   1      36.089  31.284  31.740  1.00  0.00    -0.206 F 
ATOM     77  C   UNL A   1      34.914  32.934  30.552  1.00  0.00     0.059 A 
ATOM     78  C   UNL A   1      36.079  34.289  28.907  1.00  0.00     0.059 A 
ATOM     79  F   UNL A   1      38.361  33.923  28.506  1.00  0.00    -0.206 F 
ATOM     80  C   UNL A   1      34.913  33.946  29.591  1.00  0.00     0.060 A 
BRANCH  80  81
ATOM     81  S   UNL A   1      33.378  34.843  29.271  1.00  0.00     0.124 S 
ATOM     82  O   UNL A   1      32.789  34.896  30.603  1.00  0.00    -0.237 OA
ATOM     83  O   UNL A   1      33.866  36.110  28.735  1.00  0.00    -0.237 OA
ATOM     84  O   UNL A   1      32.690  33.989  28.307  1.00  0.00    -0.744 OA
ENDBRANCH  80  81
ENDBRANCH  48  73
BRANCH  60  85
ATOM     85  C   UNL A   1      42.629  33.630  34.473  1.00  0.00     0.058 A 
ATOM     86  C   UNL A   1      43.218  34.836  34.063  1.00  0.00     0.135 A 
ATOM     87  C   UNL A   1      42.274  33.496  35.824  1.00  0.00     0.135 A 
ATOM     88  F   UNL A   1      43.585  35.007  32.783  1.00  0.00    -0.206 F 
ATOM     89  C   UNL A   1      43.453  35.870  34.962  1.00  0.00     0.059 A 
ATOM     90  C   UNL A   1      42.481  34.524  36.737  1.00  0.00     0.059 A 
ATOM     91  F   UNL A   1      41.703  32.363  36.263  1.00  0.00    -0.206 F 
ATOM     92  C   UNL A   1      43.076  35.706  36.296  1.00  0.00     0.060 A 
BRANCH  92  93
ATOM     93  S   UNL A   1      43.336  37.076  37.444  1.00  0.00     0.124 S 
ATOM     94  O   UNL A   1      44.367  36.532  38.322  1.00  0.00    -0.237 OA
ATOM     95  O   UNL A   1      43.765  38.152  36.555  1.00  0.00    -0.237 OA
ATOM     96  O   UNL A   1      42.024  37.261  38.054  1.00  0.00    -0.744 OA
ENDBRANCH  92  93
ENDBRANCH  60  85
ENDBRANCH  34  35
ENDBRANCH  26  29
ENDBRANCH  24  25
ENDBRANCH  23  24
ENDBRANCH   1  23
TORSDOF 17
ENDMDL
