MODEL 1
REMARK VINA RESULT:     -12.5      0.000      0.000
REMARK SMILES O=C(CNC(=O)/C(=C/c1ccccc1)NC(=O)c1ccc(Br)cc1)NCCCNC(=O)c1ccc(-c2c3nc(c(-c4c(F)cc(S(=O)(=O)[O-])cc4F)c4ccc([nH]4)c(-c4c(F)cc(S(=O)(=O)[O-])cc4F)c4nc(c(-c5c(F)cc(S(=O)(=O)[O-])cc5F)c5ccc2[nH]5)C=C4)C=C3)cc1
REMARK SMILES IDX 26 1 25 2 1 3 2 4 3 6 4 7 5 8 6 10 7 11 8 12 15 13 16 14
REMARK SMILES IDX 17 16 18 17 19 18 24 19 20 20 23 21 21 22 22 23 9 24 10 25
REMARK SMILES IDX 14 26 11 27 13 28 12 29 27 30 28 31 29 32 30 33 31 35 32 36
REMARK SMILES IDX 33 37 97 38 34 39 96 40 35 41 36 42 37 43 90 44 38 45 95 46
REMARK SMILES IDX 89 47 91 48 39 49 94 50 88 51 87 52 40 54 74 55 53 56 73 57
REMARK SMILES IDX 54 58 57 59 72 60 92 61 55 62 56 63 71 65 93 66 58 67 41 68
REMARK SMILES IDX 42 69 51 70 43 71 44 72 50 73 52 74 45 75 46 76 47 77 48 78
REMARK SMILES IDX 49 79 75 80 76 81 85 82 77 83 78 84 84 85 86 86 79 87 80 88
REMARK SMILES IDX 81 89 82 90 83 91 59 92 60 93 69 94 61 95 62 96 68 97 70 98
REMARK SMILES IDX 63 99 64 100 65 101 66 102 67 103
REMARK H PARENT 25 5 4 9 15 15 29 34 91 53 57 64
REMARK Flexibility Score: inf
ROOT
ATOM      1  C   UNL A   1      31.501  28.219  25.959  1.00  0.00     0.117 C 
ENDROOT
BRANCH   1   2
ATOM      2  N   UNL A   1      31.421  27.012  25.157  1.00  0.00    -0.355 N 
ATOM      3  O   UNL A   1      29.942  25.911  26.525  1.00  0.00    -0.273 OA
ATOM      4  C   UNL A   1      30.606  25.954  25.494  1.00  0.00     0.239 C 
ATOM      5  H   UNL A   1      31.971  26.947  24.343  1.00  0.00     0.163 HD
BRANCH   4   6
ATOM      6  C   UNL A   1      30.710  24.749  24.560  1.00  0.00     0.216 C 
BRANCH   6   7
ATOM      7  N   UNL A   1      30.459  23.459  25.209  1.00  0.00    -0.342 N 
ATOM      8  C   UNL A   1      31.460  22.682  25.743  1.00  0.00     0.268 C 
ATOM      9  H   UNL A   1      29.532  23.133  25.265  1.00  0.00     0.164 HD
ATOM     10  O   UNL A   1      31.607  22.637  26.961  1.00  0.00    -0.268 OA
BRANCH   8  11
ATOM     11  C   UNL A   1      32.200  21.743  24.819  1.00  0.00     0.107 C 
ATOM     12  C   UNL A   1      32.212  20.433  25.132  1.00  0.00     0.040 C 
BRANCH  11  13
ATOM     13  N   UNL A   1      32.687  22.176  23.598  1.00  0.00    -0.317 N 
ATOM     14  C   UNL A   1      33.866  22.740  23.173  1.00  0.00     0.255 C 
ATOM     15  H   UNL A   1      32.041  22.052  22.866  1.00  0.00     0.170 HD
ATOM     16  O   UNL A   1      33.918  23.235  22.046  1.00  0.00    -0.269 OA
BRANCH  14  17
ATOM     17  C   UNL A   1      35.099  22.745  23.980  1.00  0.00     0.040 A 
ATOM     18  C   UNL A   1      35.346  23.857  24.796  1.00  0.00     0.015 A 
ATOM     19  C   UNL A   1      36.048  21.721  23.879  1.00  0.00     0.015 A 
ATOM     20  C   UNL A   1      36.502  23.910  25.574  1.00  0.00     0.016 A 
ATOM     21  C   UNL A   1      37.202  21.771  24.666  1.00  0.00     0.016 A 
ATOM     22  C   UNL A   1      37.416  22.857  25.518  1.00  0.00     0.018 A 
ATOM     23  Br  UNL A   1      38.963  22.907  26.605  1.00  0.00    -0.051 Br
ENDBRANCH  14  17
ENDBRANCH  11  13
BRANCH  12  24
ATOM     24  C   UNL A   1      32.795  19.303  24.385  1.00  0.00    -0.023 A 
ATOM     25  C   UNL A   1      34.011  18.774  24.839  1.00  0.00     0.008 A 
ATOM     26  C   UNL A   1      32.236  18.796  23.206  1.00  0.00     0.008 A 
ATOM     27  C   UNL A   1      34.637  17.733  24.152  1.00  0.00     0.001 A 
ATOM     28  C   UNL A   1      32.855  17.742  22.528  1.00  0.00     0.001 A 
ATOM     29  C   UNL A   1      34.053  17.211  23.002  1.00  0.00     0.000 A 
ENDBRANCH  12  24
ENDBRANCH   8  11
ENDBRANCH   6   7
ENDBRANCH   4   6
ENDBRANCH   1   2
BRANCH   1  30
ATOM     30  C   UNL A   1      32.309  28.028  27.240  1.00  0.00     0.042 C 
BRANCH  30  31
ATOM     31  C   UNL A   1      33.688  28.681  27.218  1.00  0.00     0.118 C 
BRANCH  31  32
ATOM     32  N   UNL A   1      33.680  30.055  27.703  1.00  0.00    -0.352 N 
ATOM     33  C   UNL A   1      34.652  30.772  28.364  1.00  0.00     0.251 C 
ATOM     34  H   UNL A   1      32.846  30.549  27.532  1.00  0.00     0.163 HD
ATOM     35  O   UNL A   1      34.377  31.874  28.824  1.00  0.00    -0.269 OA
BRANCH  33  36
ATOM     36  C   UNL A   1      36.008  30.209  28.544  1.00  0.00     0.039 A 
ATOM     37  C   UNL A   1      36.879  30.178  27.448  1.00  0.00     0.014 A 
ATOM     38  C   UNL A   1      36.424  29.711  29.779  1.00  0.00     0.014 A 
ATOM     39  C   UNL A   1      38.193  29.734  27.618  1.00  0.00     0.010 A 
ATOM     40  C   UNL A   1      37.754  29.337  29.963  1.00  0.00     0.010 A 
ATOM     41  C   UNL A   1      38.656  29.356  28.888  1.00  0.00    -0.014 A 
BRANCH  41  42
ATOM     42  C   UNL A   1      40.080  29.004  29.135  1.00  0.00     0.031 A 
ATOM     43  C   UNL A   1      41.041  30.052  29.630  1.00  0.00     0.074 A 
ATOM     44  C   UNL A   1      40.530  27.774  28.817  1.00  0.00     0.049 A 
ATOM     45  N   UNL A   1      42.341  29.989  29.750  1.00  0.00    -0.248 NA
ATOM     46  C   UNL A   1      40.464  31.352  30.008  1.00  0.00     0.031 C 
ATOM     47  C   UNL A   1      39.705  26.678  28.301  1.00  0.00     0.029 A 
ATOM     48  N   UNL A   1      41.796  27.243  28.855  1.00  0.00    -0.354 N 
ATOM     49  C   UNL A   1      42.742  31.242  30.199  1.00  0.00     0.074 A 
ATOM     50  C   UNL A   1      41.550  32.059  30.285  1.00  0.00     0.031 C 
ATOM     51  C   UNL A   1      40.484  25.607  28.078  1.00  0.00     0.029 A 
ATOM     52  C   UNL A   1      41.868  25.952  28.384  1.00  0.00     0.049 A 
ATOM     53  H   UNL A   1      42.579  27.740  29.187  1.00  0.00     0.167 HD
ATOM     54  C   UNL A   1      43.986  31.667  30.525  1.00  0.00     0.037 A 
ATOM     55  C   UNL A   1      42.931  25.143  28.196  1.00  0.00     0.037 A 
ATOM     56  C   UNL A   1      45.164  30.840  30.457  1.00  0.00     0.049 A 
ATOM     57  C   UNL A   1      44.307  25.644  28.543  1.00  0.00     0.074 A 
ATOM     58  C   UNL A   1      46.462  31.164  30.812  1.00  0.00     0.029 A 
ATOM     59  N   UNL A   1      45.189  29.529  30.004  1.00  0.00    -0.354 N 
ATOM     60  N   UNL A   1      44.663  26.818  29.009  1.00  0.00    -0.248 NA
ATOM     61  C   UNL A   1      45.428  24.714  28.343  1.00  0.00     0.031 C 
ATOM     62  C   UNL A   1      47.280  30.067  30.526  1.00  0.00     0.029 A 
ATOM     63  C   UNL A   1      46.483  29.037  30.051  1.00  0.00     0.049 A 
ATOM     64  H   UNL A   1      44.404  29.023  29.693  1.00  0.00     0.167 HD
ATOM     65  C   UNL A   1      46.039  26.753  29.197  1.00  0.00     0.074 A 
ATOM     66  C   UNL A   1      46.454  25.426  28.790  1.00  0.00     0.031 C 
ATOM     67  C   UNL A   1      46.880  27.705  29.668  1.00  0.00     0.037 A 
BRANCH  54  68
ATOM     68  C   UNL A   1      44.144  33.092  30.981  1.00  0.00     0.058 A 
ATOM     69  C   UNL A   1      44.397  34.135  30.075  1.00  0.00     0.135 A 
ATOM     70  C   UNL A   1      43.999  33.426  32.338  1.00  0.00     0.135 A 
ATOM     71  F   UNL A   1      44.559  33.871  28.768  1.00  0.00    -0.206 F 
ATOM     72  C   UNL A   1      44.531  35.452  30.501  1.00  0.00     0.059 A 
ATOM     73  C   UNL A   1      44.098  34.741  32.782  1.00  0.00     0.059 A 
ATOM     74  F   UNL A   1      43.756  32.470  33.247  1.00  0.00    -0.206 F 
ATOM     75  C   UNL A   1      44.379  35.745  31.857  1.00  0.00     0.060 A 
BRANCH  75  76
ATOM     76  S   UNL A   1      44.554  37.460  32.391  1.00  0.00     0.124 S 
ATOM     77  O   UNL A   1      45.988  37.539  32.650  1.00  0.00    -0.237 OA
ATOM     78  O   UNL A   1      44.079  38.200  31.225  1.00  0.00    -0.237 OA
ATOM     79  O   UNL A   1      43.699  37.539  33.571  1.00  0.00    -0.744 OA
ENDBRANCH  75  76
ENDBRANCH  54  68
BRANCH  55  80
ATOM     80  C   UNL A   1      42.733  23.768  27.659  1.00  0.00     0.058 A 
ATOM     81  C   UNL A   1      42.572  22.675  28.522  1.00  0.00     0.135 A 
ATOM     82  C   UNL A   1      42.689  23.522  26.278  1.00  0.00     0.135 A 
ATOM     83  F   UNL A   1      42.614  22.857  29.851  1.00  0.00    -0.206 F 
ATOM     84  C   UNL A   1      42.390  21.384  28.037  1.00  0.00     0.059 A 
ATOM     85  C   UNL A   1      42.481  22.244  25.768  1.00  0.00     0.059 A 
ATOM     86  F   UNL A   1      42.822  24.537  25.409  1.00  0.00    -0.206 F 
ATOM     87  C   UNL A   1      42.343  21.180  26.657  1.00  0.00     0.060 A 
BRANCH  87  88
ATOM     88  S   UNL A   1      42.060  19.506  26.040  1.00  0.00     0.124 S 
ATOM     89  O   UNL A   1      42.453  18.699  27.191  1.00  0.00    -0.237 OA
ATOM     90  O   UNL A   1      40.634  19.529  25.733  1.00  0.00    -0.237 OA
ATOM     91  O   UNL A   1      42.943  19.422  24.880  1.00  0.00    -0.744 OA
ENDBRANCH  87  88
ENDBRANCH  55  80
BRANCH  67  92
ATOM     92  C   UNL A   1      48.330  27.343  29.836  1.00  0.00     0.058 A 
ATOM     93  C   UNL A   1      49.291  27.644  28.860  1.00  0.00     0.135 A 
ATOM     94  C   UNL A   1      48.775  26.768  31.038  1.00  0.00     0.135 A 
ATOM     95  F   UNL A   1      48.918  28.186  27.690  1.00  0.00    -0.206 F 
ATOM     96  C   UNL A   1      50.643  27.384  29.067  1.00  0.00     0.059 A 
ATOM     97  C   UNL A   1      50.124  26.524  31.278  1.00  0.00     0.059 A 
ATOM     98  F   UNL A   1      47.897  26.465  32.008  1.00  0.00    -0.206 F 
ATOM     99  C   UNL A   1      51.050  26.834  30.284  1.00  0.00     0.060 A 
BRANCH  99 100
ATOM    100  S   UNL A   1      52.814  26.569  30.567  1.00  0.00     0.124 S 
ATOM    101  O   UNL A   1      53.283  26.246  29.224  1.00  0.00    -0.237 OA
ATOM    102  O   UNL A   1      53.241  27.861  31.093  1.00  0.00    -0.237 OA
ATOM    103  O   UNL A   1      52.843  25.468  31.525  1.00  0.00    -0.744 OA
ENDBRANCH  99 100
ENDBRANCH  67  92
ENDBRANCH  41  42
ENDBRANCH  33  36
ENDBRANCH  31  32
ENDBRANCH  30  31
ENDBRANCH   1  30
TORSDOF 18
ENDMDL
MODEL 2
REMARK VINA RESULT:     -12.5      1.165      2.743
REMARK SMILES O=C(CNC(=O)/C(=C/c1ccccc1)NC(=O)c1ccc(Br)cc1)NCCCNC(=O)c1ccc(-c2c3nc(c(-c4c(F)cc(S(=O)(=O)[O-])cc4F)c4ccc([nH]4)c(-c4c(F)cc(S(=O)(=O)[O-])cc4F)c4nc(c(-c5c(F)cc(S(=O)(=O)[O-])cc5F)c5ccc2[nH]5)C=C4)C=C3)cc1
REMARK SMILES IDX 26 1 25 2 1 3 2 4 3 6 4 7 5 8 6 10 7 11 8 12 15 13 16 14
REMARK SMILES IDX 17 16 18 17 19 18 24 19 20 20 23 21 21 22 22 23 9 24 10 25
REMARK SMILES IDX 14 26 11 27 13 28 12 29 27 30 28 31 29 32 30 33 31 35 32 36
REMARK SMILES IDX 33 37 97 38 34 39 96 40 35 41 36 42 37 43 90 44 38 45 95 46
REMARK SMILES IDX 89 47 91 48 39 49 94 50 88 51 87 52 40 54 74 55 53 56 73 57
REMARK SMILES IDX 54 58 57 59 72 60 92 61 55 62 56 63 71 65 93 66 58 67 41 68
REMARK SMILES IDX 42 69 51 70 43 71 44 72 50 73 52 74 45 75 46 76 47 77 48 78
REMARK SMILES IDX 49 79 75 80 76 81 85 82 77 83 78 84 84 85 86 86 79 87 80 88
REMARK SMILES IDX 81 89 82 90 83 91 59 92 60 93 69 94 61 95 62 96 68 97 70 98
REMARK SMILES IDX 63 99 64 100 65 101 66 102 67 103
REMARK H PARENT 25 5 4 9 15 15 29 34 91 53 57 64
REMARK Flexibility Score: inf
ROOT
ATOM      1  C   UNL A   1      31.663  28.294  25.477  1.00  0.00     0.117 C 
ENDROOT
BRANCH   1   2
ATOM      2  N   UNL A   1      31.813  27.138  24.613  1.00  0.00    -0.355 N 
ATOM      3  O   UNL A   1      29.702  27.233  23.714  1.00  0.00    -0.273 OA
ATOM      4  C   UNL A   1      30.815  26.718  23.762  1.00  0.00     0.239 C 
ATOM      5  H   UNL A   1      32.659  26.635  24.637  1.00  0.00     0.163 HD
BRANCH   4   6
ATOM      6  C   UNL A   1      31.139  25.444  22.982  1.00  0.00     0.216 C 
BRANCH   6   7
ATOM      7  N   UNL A   1      32.490  25.410  22.415  1.00  0.00    -0.342 N 
ATOM      8  C   UNL A   1      33.189  24.244  22.214  1.00  0.00     0.268 C 
ATOM      9  H   UNL A   1      32.915  26.262  22.166  1.00  0.00     0.164 HD
ATOM     10  O   UNL A   1      33.301  23.792  21.078  1.00  0.00    -0.268 OA
BRANCH   8  11
ATOM     11  C   UNL A   1      33.978  23.680  23.374  1.00  0.00     0.107 C 
ATOM     12  C   UNL A   1      35.315  23.588  23.238  1.00  0.00     0.040 C 
BRANCH  11  13
ATOM     13  N   UNL A   1      33.379  23.444  24.599  1.00  0.00    -0.317 N 
ATOM     14  C   UNL A   1      32.849  22.337  25.218  1.00  0.00     0.255 C 
ATOM     15  H   UNL A   1      33.318  24.254  25.154  1.00  0.00     0.170 HD
ATOM     16  O   UNL A   1      32.170  22.490  26.235  1.00  0.00    -0.269 OA
BRANCH  14  17
ATOM     17  C   UNL A   1      33.089  20.958  24.757  1.00  0.00     0.040 A 
ATOM     18  C   UNL A   1      34.244  20.307  25.208  1.00  0.00     0.015 A 
ATOM     19  C   UNL A   1      32.247  20.336  23.828  1.00  0.00     0.015 A 
ATOM     20  C   UNL A   1      34.517  19.003  24.795  1.00  0.00     0.016 A 
ATOM     21  C   UNL A   1      32.517  19.026  23.422  1.00  0.00     0.016 A 
ATOM     22  C   UNL A   1      33.642  18.364  23.917  1.00  0.00     0.018 A 
ATOM     23  Br  UNL A   1      33.987  16.580  23.391  1.00  0.00    -0.051 Br
ENDBRANCH  14  17
ENDBRANCH  11  13
BRANCH  12  24
ATOM     24  C   UNL A   1      36.320  23.142  24.220  1.00  0.00    -0.023 A 
ATOM     25  C   UNL A   1      36.712  24.048  25.216  1.00  0.00     0.008 A 
ATOM     26  C   UNL A   1      36.957  21.897  24.151  1.00  0.00     0.008 A 
ATOM     27  C   UNL A   1      37.691  23.702  26.149  1.00  0.00     0.001 A 
ATOM     28  C   UNL A   1      37.926  21.546  25.096  1.00  0.00     0.001 A 
ATOM     29  C   UNL A   1      38.290  22.448  26.094  1.00  0.00     0.000 A 
ENDBRANCH  12  24
ENDBRANCH   8  11
ENDBRANCH   6   7
ENDBRANCH   4   6
ENDBRANCH   1   2
BRANCH   1  30
ATOM     30  C   UNL A   1      32.098  28.022  26.914  1.00  0.00     0.042 C 
BRANCH  30  31
ATOM     31  C   UNL A   1      33.489  28.545  27.262  1.00  0.00     0.118 C 
BRANCH  31  32
ATOM     32  N   UNL A   1      33.490  29.945  27.667  1.00  0.00    -0.352 N 
ATOM     33  C   UNL A   1      34.471  30.695  28.276  1.00  0.00     0.251 C 
ATOM     34  H   UNL A   1      32.655  30.432  27.477  1.00  0.00     0.163 HD
ATOM     35  O   UNL A   1      34.205  31.823  28.674  1.00  0.00    -0.269 OA
BRANCH  33  36
ATOM     36  C   UNL A   1      35.828  30.139  28.472  1.00  0.00     0.039 A 
ATOM     37  C   UNL A   1      36.711  30.108  27.387  1.00  0.00     0.014 A 
ATOM     38  C   UNL A   1      36.231  29.646  29.714  1.00  0.00     0.014 A 
ATOM     39  C   UNL A   1      38.025  29.670  27.573  1.00  0.00     0.010 A 
ATOM     40  C   UNL A   1      37.560  29.278  29.914  1.00  0.00     0.010 A 
ATOM     41  C   UNL A   1      38.475  29.298  28.850  1.00  0.00    -0.014 A 
BRANCH  41  42
ATOM     42  C   UNL A   1      39.897  28.953  29.115  1.00  0.00     0.031 A 
ATOM     43  C   UNL A   1      40.848  30.006  29.617  1.00  0.00     0.074 A 
ATOM     44  C   UNL A   1      40.356  27.723  28.805  1.00  0.00     0.049 A 
ATOM     45  N   UNL A   1      42.147  29.949  29.753  1.00  0.00    -0.248 NA
ATOM     46  C   UNL A   1      40.261  31.304  29.985  1.00  0.00     0.031 C 
ATOM     47  C   UNL A   1      39.542  26.623  28.282  1.00  0.00     0.029 A 
ATOM     48  N   UNL A   1      41.624  27.198  28.858  1.00  0.00    -0.354 N 
ATOM     49  C   UNL A   1      42.537  31.205  30.204  1.00  0.00     0.074 A 
ATOM     50  C   UNL A   1      41.341  32.017  30.274  1.00  0.00     0.031 C 
ATOM     51  C   UNL A   1      40.328  25.554  28.071  1.00  0.00     0.029 A 
ATOM     52  C   UNL A   1      41.707  25.906  28.392  1.00  0.00     0.049 A 
ATOM     53  H   UNL A   1      42.401  27.699  29.198  1.00  0.00     0.167 HD
ATOM     54  C   UNL A   1      43.776  31.636  30.542  1.00  0.00     0.037 A 
ATOM     55  C   UNL A   1      42.775  25.102  28.219  1.00  0.00     0.037 A 
ATOM     56  C   UNL A   1      44.958  30.814  30.490  1.00  0.00     0.049 A 
ATOM     57  C   UNL A   1      44.146  25.609  28.581  1.00  0.00     0.074 A 
ATOM     58  C   UNL A   1      46.250  31.144  30.860  1.00  0.00     0.029 A 
ATOM     59  N   UNL A   1      44.994  29.502  30.041  1.00  0.00    -0.354 N 
ATOM     60  N   UNL A   1      44.490  26.786  29.048  1.00  0.00    -0.248 NA
ATOM     61  C   UNL A   1      45.273  24.684  28.396  1.00  0.00     0.031 C 
ATOM     62  C   UNL A   1      47.076  30.050  30.586  1.00  0.00     0.029 A 
ATOM     63  C   UNL A   1      46.289  29.016  30.105  1.00  0.00     0.049 A 
ATOM     64  H   UNL A   1      44.214  28.991  29.723  1.00  0.00     0.167 HD
ATOM     65  C   UNL A   1      45.865  26.727  29.251  1.00  0.00     0.074 A 
ATOM     66  C   UNL A   1      46.290  25.401  28.853  1.00  0.00     0.031 C 
ATOM     67  C   UNL A   1      46.696  27.684  29.730  1.00  0.00     0.037 A 
BRANCH  54  68
ATOM     68  C   UNL A   1      43.922  33.063  30.997  1.00  0.00     0.058 A 
ATOM     69  C   UNL A   1      43.923  33.409  32.358  1.00  0.00     0.135 A 
ATOM     70  C   UNL A   1      44.107  34.094  30.061  1.00  0.00     0.135 A 
ATOM     71  F   UNL A   1      43.736  32.466  33.295  1.00  0.00    -0.206 F 
ATOM     72  C   UNL A   1      44.070  34.727  32.773  1.00  0.00     0.059 A 
ATOM     73  C   UNL A   1      44.288  35.416  30.455  1.00  0.00     0.059 A 
ATOM     74  F   UNL A   1      44.117  33.820  28.747  1.00  0.00    -0.206 F 
ATOM     75  C   UNL A   1      44.253  35.725  31.814  1.00  0.00     0.060 A 
BRANCH  75  76
ATOM     76  S   UNL A   1      44.445  37.430  32.371  1.00  0.00     0.124 S 
ATOM     77  O   UNL A   1      44.340  38.161  31.112  1.00  0.00    -0.237 OA
ATOM     78  O   UNL A   1      43.321  37.586  33.290  1.00  0.00    -0.237 OA
ATOM     79  O   UNL A   1      45.765  37.439  32.993  1.00  0.00    -0.744 OA
ENDBRANCH  75  76
ENDBRANCH  54  68
BRANCH  55  80
ATOM     80  C   UNL A   1      42.590  23.725  27.683  1.00  0.00     0.058 A 
ATOM     81  C   UNL A   1      42.499  22.623  28.546  1.00  0.00     0.135 A 
ATOM     82  C   UNL A   1      42.487  23.484  26.304  1.00  0.00     0.135 A 
ATOM     83  F   UNL A   1      42.598  22.799  29.872  1.00  0.00    -0.206 F 
ATOM     84  C   UNL A   1      42.329  21.330  28.062  1.00  0.00     0.059 A 
ATOM     85  C   UNL A   1      42.290  22.203  25.797  1.00  0.00     0.059 A 
ATOM     86  F   UNL A   1      42.552  24.507  25.436  1.00  0.00    -0.206 F 
ATOM     87  C   UNL A   1      42.223  21.131  26.684  1.00  0.00     0.060 A 
BRANCH  87  88
ATOM     88  S   UNL A   1      41.957  19.453  26.071  1.00  0.00     0.124 S 
ATOM     89  O   UNL A   1      40.540  19.488  25.726  1.00  0.00    -0.237 OA
ATOM     90  O   UNL A   1      42.887  19.386  24.949  1.00  0.00    -0.237 OA
ATOM     91  O   UNL A   1      42.306  18.619  27.217  1.00  0.00    -0.744 OA
ENDBRANCH  87  88
ENDBRANCH  55  80
BRANCH  67  92
ATOM     92  C   UNL A   1      48.146  27.329  29.916  1.00  0.00     0.058 A 
ATOM     93  C   UNL A   1      49.109  27.590  28.931  1.00  0.00     0.135 A 
ATOM     94  C   UNL A   1      48.588  26.802  31.141  1.00  0.00     0.135 A 
ATOM     95  F   UNL A   1      48.739  28.084  27.738  1.00  0.00    -0.206 F 
ATOM     96  C   UNL A   1      50.460  27.338  29.151  1.00  0.00     0.059 A 
ATOM     97  C   UNL A   1      49.936  26.569  31.394  1.00  0.00     0.059 A 
ATOM     98  F   UNL A   1      47.707  26.540  32.121  1.00  0.00    -0.206 F 
ATOM     99  C   UNL A   1      50.864  26.838  30.390  1.00  0.00     0.060 A 
BRANCH  99 100
ATOM    100  S   UNL A   1      52.628  26.584  30.688  1.00  0.00     0.124 S 
ATOM    101  O   UNL A   1      52.613  25.434  31.585  1.00  0.00    -0.237 OA
ATOM    102  O   UNL A   1      53.136  26.332  29.343  1.00  0.00    -0.237 OA
ATOM    103  O   UNL A   1      53.056  27.844  31.287  1.00  0.00    -0.744 OA
ENDBRANCH  99 100
ENDBRANCH  67  92
ENDBRANCH  41  42
ENDBRANCH  33  36
ENDBRANCH  31  32
ENDBRANCH  30  31
ENDBRANCH   1  30
TORSDOF 18
ENDMDL
MODEL 3
REMARK VINA RESULT:     -12.5      2.226      3.031
REMARK SMILES O=C(CNC(=O)/C(=C/c1ccccc1)NC(=O)c1ccc(Br)cc1)NCCCNC(=O)c1ccc(-c2c3nc(c(-c4c(F)cc(S(=O)(=O)[O-])cc4F)c4ccc([nH]4)c(-c4c(F)cc(S(=O)(=O)[O-])cc4F)c4nc(c(-c5c(F)cc(S(=O)(=O)[O-])cc5F)c5ccc2[nH]5)C=C4)C=C3)cc1
REMARK SMILES IDX 26 1 25 2 1 3 2 4 3 6 4 7 5 8 6 10 7 11 8 12 15 13 16 14
REMARK SMILES IDX 17 16 18 17 19 18 24 19 20 20 23 21 21 22 22 23 9 24 10 25
REMARK SMILES IDX 14 26 11 27 13 28 12 29 27 30 28 31 29 32 30 33 31 35 32 36
REMARK SMILES IDX 33 37 97 38 34 39 96 40 35 41 36 42 37 43 90 44 38 45 95 46
REMARK SMILES IDX 89 47 91 48 39 49 94 50 88 51 87 52 40 54 74 55 53 56 73 57
REMARK SMILES IDX 54 58 57 59 72 60 92 61 55 62 56 63 71 65 93 66 58 67 41 68
REMARK SMILES IDX 42 69 51 70 43 71 44 72 50 73 52 74 45 75 46 76 47 77 48 78
REMARK SMILES IDX 49 79 75 80 76 81 85 82 77 83 78 84 84 85 86 86 79 87 80 88
REMARK SMILES IDX 81 89 82 90 83 91 59 92 60 93 69 94 61 95 62 96 68 97 70 98
REMARK SMILES IDX 63 99 64 100 65 101 66 102 67 103
REMARK H PARENT 25 5 4 9 15 15 29 34 91 53 57 64
REMARK Flexibility Score: inf
ROOT
ATOM      1  C   UNL A   1      32.713  28.789  26.959  1.00  0.00     0.117 C 
ENDROOT
BRANCH   1   2
ATOM      2  N   UNL A   1      32.806  27.628  26.093  1.00  0.00    -0.355 N 
ATOM      3  O   UNL A   1      30.989  26.529  26.965  1.00  0.00    -0.273 OA
ATOM      4  C   UNL A   1      31.899  26.593  26.144  1.00  0.00     0.239 C 
ATOM      5  H   UNL A   1      33.546  27.579  25.445  1.00  0.00     0.163 HD
BRANCH   4   6
ATOM      6  C   UNL A   1      32.205  25.432  25.198  1.00  0.00     0.216 C 
BRANCH   6   7
ATOM      7  N   UNL A   1      31.396  24.233  25.433  1.00  0.00    -0.342 N 
ATOM      8  C   UNL A   1      31.911  23.074  25.963  1.00  0.00     0.268 C 
ATOM      9  H   UNL A   1      30.440  24.259  25.200  1.00  0.00     0.164 HD
ATOM     10  O   UNL A   1      31.675  22.785  27.132  1.00  0.00    -0.268 OA
BRANCH   8  11
ATOM     11  C   UNL A   1      32.566  22.091  25.020  1.00  0.00     0.107 C 
ATOM     12  C   UNL A   1      32.473  20.780  25.314  1.00  0.00     0.040 C 
BRANCH  11  13
ATOM     13  N   UNL A   1      33.079  22.501  23.801  1.00  0.00    -0.317 N 
ATOM     14  C   UNL A   1      34.295  22.983  23.379  1.00  0.00     0.255 C 
ATOM     15  H   UNL A   1      32.423  22.434  23.071  1.00  0.00     0.170 HD
ATOM     16  O   UNL A   1      34.379  23.486  22.257  1.00  0.00    -0.269 OA
BRANCH  14  17
ATOM     17  C   UNL A   1      35.528  22.889  24.180  1.00  0.00     0.040 A 
ATOM     18  C   UNL A   1      36.305  21.730  24.055  1.00  0.00     0.015 A 
ATOM     19  C   UNL A   1      35.880  23.875  25.108  1.00  0.00     0.015 A 
ATOM     20  C   UNL A   1      37.478  21.591  24.797  1.00  0.00     0.016 A 
ATOM     21  C   UNL A   1      37.060  23.740  25.845  1.00  0.00     0.016 A 
ATOM     22  C   UNL A   1      37.857  22.606  25.676  1.00  0.00     0.018 A 
ATOM     23  Br  UNL A   1      39.470  22.440  26.650  1.00  0.00    -0.051 Br
ENDBRANCH  14  17
ENDBRANCH  11  13
BRANCH  12  24
ATOM     24  C   UNL A   1      32.956  19.618  24.546  1.00  0.00    -0.023 A 
ATOM     25  C   UNL A   1      32.181  19.178  23.464  1.00  0.00     0.008 A 
ATOM     26  C   UNL A   1      34.099  18.890  24.899  1.00  0.00     0.008 A 
ATOM     27  C   UNL A   1      32.562  18.057  22.724  1.00  0.00     0.001 A 
ATOM     28  C   UNL A   1      34.487  17.777  24.147  1.00  0.00     0.001 A 
ATOM     29  C   UNL A   1      33.720  17.363  23.061  1.00  0.00     0.000 A 
ENDBRANCH  12  24
ENDBRANCH   8  11
ENDBRANCH   6   7
ENDBRANCH   4   6
ENDBRANCH   1   2
BRANCH   1  30
ATOM     30  C   UNL A   1      33.915  29.720  26.836  1.00  0.00     0.042 C 
BRANCH  30  31
ATOM     31  C   UNL A   1      35.058  29.404  27.796  1.00  0.00     0.118 C 
BRANCH  31  32
ATOM     32  N   UNL A   1      35.208  30.396  28.854  1.00  0.00    -0.352 N 
ATOM     33  C   UNL A   1      36.297  30.702  29.639  1.00  0.00     0.251 C 
ATOM     34  H   UNL A   1      34.402  30.931  29.037  1.00  0.00     0.163 HD
ATOM     35  O   UNL A   1      36.159  31.471  30.584  1.00  0.00    -0.269 OA
BRANCH  33  36
ATOM     36  C   UNL A   1      37.616  30.091  29.365  1.00  0.00     0.039 A 
ATOM     37  C   UNL A   1      38.045  29.972  28.038  1.00  0.00     0.014 A 
ATOM     38  C   UNL A   1      38.428  29.633  30.404  1.00  0.00     0.014 A 
ATOM     39  C   UNL A   1      39.324  29.481  27.763  1.00  0.00     0.010 A 
ATOM     40  C   UNL A   1      39.728  29.213  30.133  1.00  0.00     0.010 A 
ATOM     41  C   UNL A   1      40.195  29.144  28.811  1.00  0.00    -0.014 A 
BRANCH  41  42
ATOM     42  C   UNL A   1      41.606  28.743  28.564  1.00  0.00     0.031 A 
ATOM     43  C   UNL A   1      42.693  29.784  28.544  1.00  0.00     0.074 A 
ATOM     44  C   UNL A   1      41.894  27.463  28.256  1.00  0.00     0.049 A 
ATOM     45  N   UNL A   1      43.946  29.664  28.191  1.00  0.00    -0.248 NA
ATOM     46  C   UNL A   1      42.310  31.147  28.945  1.00  0.00     0.031 C 
ATOM     47  C   UNL A   1      40.926  26.364  28.212  1.00  0.00     0.029 A 
ATOM     48  N   UNL A   1      43.080  26.870  27.895  1.00  0.00    -0.354 N 
ATOM     49  C   UNL A   1      44.497  30.935  28.308  1.00  0.00     0.074 A 
ATOM     50  C   UNL A   1      43.430  31.820  28.721  1.00  0.00     0.031 C 
ATOM     51  C   UNL A   1      41.556  25.234  27.853  1.00  0.00     0.029 A 
ATOM     52  C   UNL A   1      42.960  25.534  27.591  1.00  0.00     0.049 A 
ATOM     53  H   UNL A   1      43.935  27.357  27.857  1.00  0.00     0.167 HD
ATOM     54  C   UNL A   1      45.779  31.324  28.105  1.00  0.00     0.037 A 
ATOM     55  C   UNL A   1      43.870  24.653  27.129  1.00  0.00     0.037 A 
ATOM     56  C   UNL A   1      46.840  30.431  27.714  1.00  0.00     0.049 A 
ATOM     57  C   UNL A   1      45.283  25.112  26.888  1.00  0.00     0.074 A 
ATOM     58  C   UNL A   1      48.181  30.720  27.531  1.00  0.00     0.029 A 
ATOM     59  N   UNL A   1      46.683  29.079  27.445  1.00  0.00    -0.354 N 
ATOM     60  N   UNL A   1      45.798  26.309  27.047  1.00  0.00    -0.248 NA
ATOM     61  C   UNL A   1      46.242  24.107  26.408  1.00  0.00     0.031 C 
ATOM     62  C   UNL A   1      48.825  29.556  27.103  1.00  0.00     0.029 A 
ATOM     63  C   UNL A   1      47.898  28.526  27.079  1.00  0.00     0.049 A 
ATOM     64  H   UNL A   1      45.833  28.586  27.506  1.00  0.00     0.167 HD
ATOM     65  C   UNL A   1      47.146  26.189  26.728  1.00  0.00     0.074 A 
ATOM     66  C   UNL A   1      47.368  24.806  26.362  1.00  0.00     0.031 C 
ATOM     67  C   UNL A   1      48.112  27.140  26.742  1.00  0.00     0.037 A 
BRANCH  54  68
ATOM     68  C   UNL A   1      46.109  32.779  28.296  1.00  0.00     0.058 A 
ATOM     69  C   UNL A   1      46.542  33.283  29.533  1.00  0.00     0.135 A 
ATOM     70  C   UNL A   1      46.033  33.675  27.217  1.00  0.00     0.135 A 
ATOM     71  F   UNL A   1      46.620  32.474  30.603  1.00  0.00    -0.206 F 
ATOM     72  C   UNL A   1      46.857  34.626  29.702  1.00  0.00     0.059 A 
ATOM     73  C   UNL A   1      46.373  35.018  27.356  1.00  0.00     0.059 A 
ATOM     74  F   UNL A   1      45.626  33.248  26.011  1.00  0.00    -0.206 F 
ATOM     75  C   UNL A   1      46.770  35.487  28.606  1.00  0.00     0.060 A 
BRANCH  75  76
ATOM     76  S   UNL A   1      47.185  37.227  28.843  1.00  0.00     0.124 S 
ATOM     77  O   UNL A   1      46.026  37.885  28.248  1.00  0.00    -0.237 OA
ATOM     78  O   UNL A   1      47.293  37.326  30.296  1.00  0.00    -0.237 OA
ATOM     79  O   UNL A   1      48.439  37.380  28.112  1.00  0.00    -0.744 OA
ENDBRANCH  75  76
ENDBRANCH  54  68
BRANCH  55  80
ATOM     80  C   UNL A   1      43.474  23.241  26.871  1.00  0.00     0.058 A 
ATOM     81  C   UNL A   1      43.238  22.354  27.932  1.00  0.00     0.135 A 
ATOM     82  C   UNL A   1      43.311  22.753  25.565  1.00  0.00     0.135 A 
ATOM     83  F   UNL A   1      43.387  22.770  29.199  1.00  0.00    -0.206 F 
ATOM     84  C   UNL A   1      42.871  21.031  27.709  1.00  0.00     0.059 A 
ATOM     85  C   UNL A   1      42.918  21.442  25.316  1.00  0.00     0.059 A 
ATOM     86  F   UNL A   1      43.509  23.566  24.514  1.00  0.00    -0.206 F 
ATOM     87  C   UNL A   1      42.711  20.585  26.396  1.00  0.00     0.060 A 
BRANCH  87  88
ATOM     88  S   UNL A   1      42.189  18.878  26.121  1.00  0.00     0.124 S 
ATOM     89  O   UNL A   1      43.147  18.438  25.112  1.00  0.00    -0.237 OA
ATOM     90  O   UNL A   1      42.344  18.293  27.448  1.00  0.00    -0.237 OA
ATOM     91  O   UNL A   1      40.810  19.019  25.662  1.00  0.00    -0.744 OA
ENDBRANCH  87  88
ENDBRANCH  55  80
BRANCH  67  92
ATOM     92  C   UNL A   1      49.518  26.719  26.414  1.00  0.00     0.058 A 
ATOM     93  C   UNL A   1      50.330  26.050  27.342  1.00  0.00     0.135 A 
ATOM     94  C   UNL A   1      50.024  26.909  25.118  1.00  0.00     0.135 A 
ATOM     95  F   UNL A   1      49.899  25.851  28.598  1.00  0.00    -0.206 F 
ATOM     96  C   UNL A   1      51.596  25.587  26.998  1.00  0.00     0.059 A 
ATOM     97  C   UNL A   1      51.276  26.431  24.743  1.00  0.00     0.059 A 
ATOM     98  F   UNL A   1      49.285  27.539  24.190  1.00  0.00    -0.206 F 
ATOM     99  C   UNL A   1      52.055  25.773  25.692  1.00  0.00     0.060 A 
BRANCH  99 100
ATOM    100  S   UNL A   1      53.671  25.103  25.239  1.00  0.00     0.124 S 
ATOM    101  O   UNL A   1      53.814  25.578  23.868  1.00  0.00    -0.237 OA
ATOM    102  O   UNL A   1      54.552  25.727  26.221  1.00  0.00    -0.237 OA
ATOM    103  O   UNL A   1      53.495  23.661  25.391  1.00  0.00    -0.744 OA
ENDBRANCH  99 100
ENDBRANCH  67  92
ENDBRANCH  41  42
ENDBRANCH  33  36
ENDBRANCH  31  32
ENDBRANCH  30  31
ENDBRANCH   1  30
TORSDOF 18
ENDMDL
