MODEL 1
REMARK VINA RESULT:     -12.5      0.000      0.000
REMARK SMILES Cc1nc(C)c(C(=O)N2CCC([C@H](C)C(=O)NCCCNC(=O)c3ccc(-c4c5nc(c(-c6c(F)cc(S(=O)(=O)[O-])cc6F)c6ccc([nH]6)c(-c6c(F)cc(S(=O)(=O)[O-])cc6F)c6nc(c(-c7c(F)cc(S(=O)(=O)[O-])cc7F)c7ccc4[nH]7)C=C6)C=C5)cc3)CC2)s1
REMARK SMILES IDX 19 1 18 2 17 3 15 4 16 5 13 7 14 8 12 9 7 10 8 11 9 12 10 13
REMARK SMILES IDX 91 14 11 15 90 16 6 17 1 18 2 19 3 20 92 21 4 22 5 23 20 24
REMARK SMILES IDX 21 25 22 26 23 28 24 29 25 30 89 31 26 32 88 33 27 34 28 35
REMARK SMILES IDX 29 36 82 37 30 38 87 39 81 40 83 41 31 42 86 43 80 44 79 45
REMARK SMILES IDX 32 47 66 48 45 49 65 50 46 51 49 52 64 53 84 54 47 55 48 56
REMARK SMILES IDX 63 58 85 59 50 60 33 61 34 62 43 63 35 64 36 65 42 66 44 67
REMARK SMILES IDX 37 68 38 69 39 70 40 71 41 72 67 73 68 74 77 75 69 76 70 77
REMARK SMILES IDX 76 78 78 79 71 80 72 81 73 82 74 83 75 84 51 85 52 86 61 87
REMARK SMILES IDX 53 88 54 89 60 90 62 91 55 92 56 93 57 94 58 95 59 96
REMARK H PARENT 17 6 21 27 83 46 49 57
REMARK Flexibility Score: inf
ROOT
ATOM      1  C   UNL A   1      37.393  23.575  25.329  1.00  0.00     0.042 C 
ENDROOT
BRANCH   1   2
ATOM      2  C   UNL A   1      36.946  22.133  25.407  1.00  0.00     0.117 C 
BRANCH   2   3
ATOM      3  N   UNL A   1      36.012  21.870  26.481  1.00  0.00    -0.356 N 
ATOM      4  C   UNL A   1      34.657  21.975  26.491  1.00  0.00     0.223 C 
ATOM      5  O   UNL A   1      34.058  21.519  27.470  1.00  0.00    -0.275 OA
ATOM      6  H   UNL A   1      36.417  21.570  27.326  1.00  0.00     0.163 HD
BRANCH   4   7
ATOM      7  C   UNL A   1      33.876  22.648  25.355  1.00  0.00     0.078 C 
ATOM      8  C   UNL A   1      32.917  21.642  24.712  1.00  0.00     0.018 C 
BRANCH   7   9
ATOM      9  C   UNL A   1      33.307  24.085  25.617  1.00  0.00     0.005 C 
ATOM     10  C   UNL A   1      32.826  27.895  23.955  1.00  0.00     0.265 C 
ATOM     11  O   UNL A   1      33.931  28.199  23.506  1.00  0.00    -0.268 OA
ATOM     12  N   UNL A   1      32.714  26.821  24.845  1.00  0.00    -0.338 N 
ATOM     13  C   UNL A   1      33.772  26.598  25.811  1.00  0.00     0.120 C 
ATOM     14  C   UNL A   1      31.604  25.880  24.892  1.00  0.00     0.120 C 
ATOM     15  C   UNL A   1      34.368  25.205  25.705  1.00  0.00     0.026 C 
ATOM     16  C   UNL A   1      32.107  24.448  24.712  1.00  0.00     0.026 C 
BRANCH  10  17
ATOM     17  C   UNL A   1      31.640  28.693  23.673  1.00  0.00     0.115 A 
ATOM     18  C   UNL A   1      28.215  29.689  22.122  1.00  0.00     0.079 C 
ATOM     19  C   UNL A   1      29.485  29.488  22.867  1.00  0.00     0.091 A 
ATOM     20  N   UNL A   1      29.831  30.160  23.940  1.00  0.00    -0.246 NA
ATOM     21  S   UNL A   1      30.589  28.286  22.370  1.00  0.00    -0.113 S 
ATOM     22  C   UNL A   1      31.045  29.690  24.436  1.00  0.00     0.061 A 
ATOM     23  C   UNL A   1      31.519  30.278  25.721  1.00  0.00     0.068 C 
ENDBRANCH  10  17
ENDBRANCH   7   9
ENDBRANCH   4   7
ENDBRANCH   2   3
ENDBRANCH   1   2
BRANCH   1  24
ATOM     24  C   UNL A   1      38.287  23.979  26.486  1.00  0.00     0.118 C 
BRANCH  24  25
ATOM     25  N   UNL A   1      39.708  23.888  26.164  1.00  0.00    -0.352 N 
ATOM     26  C   UNL A   1      40.746  24.719  26.513  1.00  0.00     0.251 C 
ATOM     27  H   UNL A   1      39.962  23.114  25.612  1.00  0.00     0.163 HD
ATOM     28  O   UNL A   1      41.850  24.572  25.996  1.00  0.00    -0.269 OA
BRANCH  26  29
ATOM     29  C   UNL A   1      40.517  25.798  27.495  1.00  0.00     0.039 A 
ATOM     30  C   UNL A   1      39.582  25.610  28.515  1.00  0.00     0.014 A 
ATOM     31  C   UNL A   1      41.250  26.983  27.420  1.00  0.00     0.014 A 
ATOM     32  C   UNL A   1      39.447  26.583  29.508  1.00  0.00     0.010 A 
ATOM     33  C   UNL A   1      41.197  27.891  28.466  1.00  0.00     0.010 A 
ATOM     34  C   UNL A   1      40.285  27.709  29.514  1.00  0.00    -0.014 A 
BRANCH  34  35
ATOM     35  C   UNL A   1      40.220  28.729  30.590  1.00  0.00     0.031 A 
ATOM     36  C   UNL A   1      41.123  28.605  31.788  1.00  0.00     0.074 A 
ATOM     37  C   UNL A   1      39.293  29.705  30.533  1.00  0.00     0.049 A 
ATOM     38  N   UNL A   1      41.150  29.321  32.881  1.00  0.00    -0.248 NA
ATOM     39  C   UNL A   1      42.099  27.503  31.770  1.00  0.00     0.031 C 
ATOM     40  C   UNL A   1      38.320  29.889  29.453  1.00  0.00     0.029 A 
ATOM     41  N   UNL A   1      39.009  30.720  31.410  1.00  0.00    -0.354 N 
ATOM     42  C   UNL A   1      42.119  28.740  33.689  1.00  0.00     0.074 A 
ATOM     43  C   UNL A   1      42.614  27.576  32.988  1.00  0.00     0.031 C 
ATOM     44  C   UNL A   1      37.570  30.972  29.716  1.00  0.00     0.029 A 
ATOM     45  C   UNL A   1      37.979  31.533  30.999  1.00  0.00     0.049 A 
ATOM     46  H   UNL A   1      39.498  30.855  32.254  1.00  0.00     0.167 HD
ATOM     47  C   UNL A   1      42.580  29.156  34.892  1.00  0.00     0.037 A 
ATOM     48  C   UNL A   1      37.427  32.608  31.593  1.00  0.00     0.037 A 
ATOM     49  C   UNL A   1      42.112  30.340  35.561  1.00  0.00     0.049 A 
ATOM     50  C   UNL A   1      37.970  33.069  32.918  1.00  0.00     0.074 A 
ATOM     51  C   UNL A   1      42.559  30.893  36.748  1.00  0.00     0.029 A 
ATOM     52  N   UNL A   1      41.092  31.158  35.096  1.00  0.00    -0.354 N 
ATOM     53  N   UNL A   1      38.932  32.545  33.640  1.00  0.00    -0.248 NA
ATOM     54  C   UNL A   1      37.358  34.267  33.506  1.00  0.00     0.031 C 
ATOM     55  C   UNL A   1      41.784  32.026  37.019  1.00  0.00     0.029 A 
ATOM     56  C   UNL A   1      40.882  32.203  35.980  1.00  0.00     0.049 A 
ATOM     57  H   UNL A   1      40.590  31.016  34.261  1.00  0.00     0.167 HD
ATOM     58  C   UNL A   1      39.057  33.363  34.757  1.00  0.00     0.074 A 
ATOM     59  C   UNL A   1      38.079  34.423  34.608  1.00  0.00     0.031 C 
ATOM     60  C   UNL A   1      39.905  33.249  35.810  1.00  0.00     0.037 A 
BRANCH  47  61
ATOM     61  C   UNL A   1      43.647  28.324  35.548  1.00  0.00     0.058 A 
ATOM     62  C   UNL A   1      43.332  27.317  36.477  1.00  0.00     0.135 A 
ATOM     63  C   UNL A   1      45.004  28.537  35.253  1.00  0.00     0.135 A 
ATOM     64  F   UNL A   1      42.052  27.082  36.810  1.00  0.00    -0.206 F 
ATOM     65  C   UNL A   1      44.322  26.583  37.121  1.00  0.00     0.059 A 
ATOM     66  C   UNL A   1      46.010  27.793  35.863  1.00  0.00     0.059 A 
ATOM     67  F   UNL A   1      45.363  29.485  34.374  1.00  0.00    -0.206 F 
ATOM     68  C   UNL A   1      45.660  26.834  36.812  1.00  0.00     0.060 A 
BRANCH  68  69
ATOM     69  S   UNL A   1      46.935  25.888  37.671  1.00  0.00     0.124 S 
ATOM     70  O   UNL A   1      47.717  25.375  36.551  1.00  0.00    -0.237 OA
ATOM     71  O   UNL A   1      47.589  26.909  38.485  1.00  0.00    -0.237 OA
ATOM     72  O   UNL A   1      46.174  24.891  38.416  1.00  0.00    -0.744 OA
ENDBRANCH  68  69
ENDBRANCH  47  61
BRANCH  48  73
ATOM     73  C   UNL A   1      36.327  33.343  30.914  1.00  0.00     0.058 A 
ATOM     74  C   UNL A   1      35.018  33.298  31.416  1.00  0.00     0.135 A 
ATOM     75  C   UNL A   1      36.565  34.134  29.779  1.00  0.00     0.135 A 
ATOM     76  F   UNL A   1      34.741  32.551  32.496  1.00  0.00    -0.206 F 
ATOM     77  C   UNL A   1      33.981  34.002  30.814  1.00  0.00     0.059 A 
ATOM     78  C   UNL A   1      35.549  34.865  29.172  1.00  0.00     0.059 A 
ATOM     79  F   UNL A   1      37.803  34.224  29.271  1.00  0.00    -0.206 F 
ATOM     80  C   UNL A   1      34.258  34.789  29.695  1.00  0.00     0.060 A 
BRANCH  80  81
ATOM     81  S   UNL A   1      32.918  35.752  28.962  1.00  0.00     0.124 S 
ATOM     82  O   UNL A   1      32.334  34.788  28.036  1.00  0.00    -0.237 OA
ATOM     83  O   UNL A   1      32.107  36.089  30.129  1.00  0.00    -0.237 OA
ATOM     84  O   UNL A   1      33.612  36.879  28.347  1.00  0.00    -0.744 OA
ENDBRANCH  80  81
ENDBRANCH  48  73
BRANCH  60  85
ATOM     85  C   UNL A   1      39.833  34.311  36.871  1.00  0.00     0.058 A 
ATOM     86  C   UNL A   1      40.526  35.523  36.745  1.00  0.00     0.135 A 
ATOM     87  C   UNL A   1      39.016  34.132  37.998  1.00  0.00     0.135 A 
ATOM     88  F   UNL A   1      41.325  35.739  35.688  1.00  0.00    -0.206 F 
ATOM     89  C   UNL A   1      40.428  36.518  37.712  1.00  0.00     0.059 A 
ATOM     90  C   UNL A   1      38.882  35.123  38.966  1.00  0.00     0.059 A 
ATOM     91  F   UNL A   1      38.324  32.993  38.160  1.00  0.00    -0.206 F 
ATOM     92  C   UNL A   1      39.602  36.308  38.818  1.00  0.00     0.060 A 
BRANCH  92  93
ATOM     93  S   UNL A   1      39.453  37.622  40.048  1.00  0.00     0.124 S 
ATOM     94  O   UNL A   1      38.275  38.339  39.570  1.00  0.00    -0.237 OA
ATOM     95  O   UNL A   1      39.278  36.872  41.288  1.00  0.00    -0.237 OA
ATOM     96  O   UNL A   1      40.717  38.341  39.930  1.00  0.00    -0.744 OA
ENDBRANCH  92  93
ENDBRANCH  60  85
ENDBRANCH  34  35
ENDBRANCH  26  29
ENDBRANCH  24  25
ENDBRANCH   1  24
TORSDOF 15
ENDMDL
MODEL 2
REMARK VINA RESULT:     -12.5      4.856     10.799
REMARK SMILES Cc1nc(C)c(C(=O)N2CCC([C@H](C)C(=O)NCCCNC(=O)c3ccc(-c4c5nc(c(-c6c(F)cc(S(=O)(=O)[O-])cc6F)c6ccc([nH]6)c(-c6c(F)cc(S(=O)(=O)[O-])cc6F)c6nc(c(-c7c(F)cc(S(=O)(=O)[O-])cc7F)c7ccc4[nH]7)C=C6)C=C5)cc3)CC2)s1
REMARK SMILES IDX 19 1 18 2 17 3 15 4 16 5 13 7 14 8 12 9 7 10 8 11 9 12 10 13
REMARK SMILES IDX 91 14 11 15 90 16 6 17 1 18 2 19 3 20 92 21 4 22 5 23 20 24
REMARK SMILES IDX 21 25 22 26 23 28 24 29 25 30 89 31 26 32 88 33 27 34 28 35
REMARK SMILES IDX 29 36 82 37 30 38 87 39 81 40 83 41 31 42 86 43 80 44 79 45
REMARK SMILES IDX 32 47 66 48 45 49 65 50 46 51 49 52 64 53 84 54 47 55 48 56
REMARK SMILES IDX 63 58 85 59 50 60 33 61 34 62 43 63 35 64 36 65 42 66 44 67
REMARK SMILES IDX 37 68 38 69 39 70 40 71 41 72 67 73 68 74 77 75 69 76 70 77
REMARK SMILES IDX 76 78 78 79 71 80 72 81 73 82 74 83 75 84 51 85 52 86 61 87
REMARK SMILES IDX 53 88 54 89 60 90 62 91 55 92 56 93 57 94 58 95 59 96
REMARK H PARENT 17 6 21 27 83 46 49 57
REMARK Flexibility Score: inf
ROOT
ATOM      1  C   UNL A   1      32.369  28.059  26.249  1.00  0.00     0.042 C 
ENDROOT
BRANCH   1   2
ATOM      2  C   UNL A   1      31.990  28.843  25.014  1.00  0.00     0.117 C 
BRANCH   2   3
ATOM      3  N   UNL A   1      33.042  28.912  24.022  1.00  0.00    -0.356 N 
ATOM      4  C   UNL A   1      33.378  28.015  23.057  1.00  0.00     0.223 C 
ATOM      5  O   UNL A   1      34.199  28.374  22.207  1.00  0.00    -0.275 OA
ATOM      6  H   UNL A   1      33.594  29.726  24.050  1.00  0.00     0.163 HD
BRANCH   4   7
ATOM      7  C   UNL A   1      32.794  26.597  23.013  1.00  0.00     0.078 C 
ATOM      8  C   UNL A   1      31.905  26.436  21.777  1.00  0.00     0.018 C 
BRANCH   7   9
ATOM      9  C   UNL A   1      33.758  25.404  23.339  1.00  0.00     0.005 C 
ATOM     10  C   UNL A   1      34.184  21.913  25.606  1.00  0.00     0.265 C 
ATOM     11  O   UNL A   1      33.861  22.225  26.753  1.00  0.00    -0.268 OA
ATOM     12  N   UNL A   1      34.450  22.916  24.667  1.00  0.00    -0.338 N 
ATOM     13  C   UNL A   1      35.109  24.130  25.106  1.00  0.00     0.120 C 
ATOM     14  C   UNL A   1      34.114  22.852  23.252  1.00  0.00     0.120 C 
ATOM     15  C   UNL A   1      34.301  25.375  24.786  1.00  0.00     0.026 C 
ATOM     16  C   UNL A   1      33.229  24.034  22.857  1.00  0.00     0.026 C 
BRANCH  10  17
ATOM     17  C   UNL A   1      34.407  20.525  25.226  1.00  0.00     0.115 A 
ATOM     18  C   UNL A   1      33.670  16.987  23.788  1.00  0.00     0.079 C 
ATOM     19  C   UNL A   1      34.181  18.272  24.333  1.00  0.00     0.091 A 
ATOM     20  N   UNL A   1      35.453  18.565  24.473  1.00  0.00    -0.246 NA
ATOM     21  S   UNL A   1      33.092  19.506  24.782  1.00  0.00    -0.113 S 
ATOM     22  C   UNL A   1      35.600  19.867  24.947  1.00  0.00     0.061 A 
ATOM     23  C   UNL A   1      36.991  20.391  25.053  1.00  0.00     0.068 C 
ENDBRANCH  10  17
ENDBRANCH   7   9
ENDBRANCH   4   7
ENDBRANCH   2   3
ENDBRANCH   1   2
BRANCH   1  24
ATOM     24  C   UNL A   1      33.672  28.525  26.868  1.00  0.00     0.118 C 
BRANCH  24  25
ATOM     25  N   UNL A   1      33.594  29.881  27.403  1.00  0.00    -0.352 N 
ATOM     26  C   UNL A   1      34.511  30.593  28.139  1.00  0.00     0.251 C 
ATOM     27  H   UNL A   1      32.755  30.359  27.208  1.00  0.00     0.163 HD
ATOM     28  O   UNL A   1      34.189  31.662  28.651  1.00  0.00    -0.269 OA
BRANCH  26  29
ATOM     29  C   UNL A   1      35.872  30.053  28.324  1.00  0.00     0.039 A 
ATOM     30  C   UNL A   1      36.799  30.156  27.285  1.00  0.00     0.014 A 
ATOM     31  C   UNL A   1      36.238  29.473  29.539  1.00  0.00     0.014 A 
ATOM     32  C   UNL A   1      38.117  29.749  27.499  1.00  0.00     0.010 A 
ATOM     33  C   UNL A   1      37.570  29.178  29.787  1.00  0.00     0.010 A 
ATOM     34  C   UNL A   1      38.522  29.298  28.766  1.00  0.00    -0.014 A 
BRANCH  34  35
ATOM     35  C   UNL A   1      39.929  28.924  29.052  1.00  0.00     0.031 A 
ATOM     36  C   UNL A   1      40.862  29.940  29.653  1.00  0.00     0.074 A 
ATOM     37  C   UNL A   1      40.386  27.709  28.690  1.00  0.00     0.049 A 
ATOM     38  N   UNL A   1      42.147  29.853  29.878  1.00  0.00    -0.248 NA
ATOM     39  C   UNL A   1      40.279  31.245  30.008  1.00  0.00     0.031 C 
ATOM     40  C   UNL A   1      39.591  26.662  28.042  1.00  0.00     0.029 A 
ATOM     41  N   UNL A   1      41.634  27.153  28.804  1.00  0.00    -0.354 N 
ATOM     42  C   UNL A   1      42.528  31.094  30.373  1.00  0.00     0.074 A 
ATOM     43  C   UNL A   1      41.354  31.937  30.355  1.00  0.00     0.031 C 
ATOM     44  C   UNL A   1      40.364  25.580  27.847  1.00  0.00     0.029 A 
ATOM     45  C   UNL A   1      41.714  25.870  28.317  1.00  0.00     0.049 A 
ATOM     46  H   UNL A   1      42.401  27.628  29.199  1.00  0.00     0.167 HD
ATOM     47  C   UNL A   1      43.740  31.487  30.830  1.00  0.00     0.037 A 
ATOM     48  C   UNL A   1      42.761  25.025  28.255  1.00  0.00     0.037 A 
ATOM     49  C   UNL A   1      44.892  30.627  30.884  1.00  0.00     0.049 A 
ATOM     50  C   UNL A   1      44.093  25.472  28.792  1.00  0.00     0.074 A 
ATOM     51  C   UNL A   1      46.149  30.900  31.394  1.00  0.00     0.029 A 
ATOM     52  N   UNL A   1      44.924  29.322  30.414  1.00  0.00    -0.354 N 
ATOM     53  N   UNL A   1      44.422  26.629  29.315  1.00  0.00    -0.248 NA
ATOM     54  C   UNL A   1      45.192  24.500  28.735  1.00  0.00     0.031 C 
ATOM     55  C   UNL A   1      46.951  29.771  31.200  1.00  0.00     0.029 A 
ATOM     56  C   UNL A   1      46.184  28.780  30.607  1.00  0.00     0.049 A 
ATOM     57  H   UNL A   1      44.164  28.850  30.003  1.00  0.00     0.167 HD
ATOM     58  C   UNL A   1      45.761  26.517  29.673  1.00  0.00     0.074 A 
ATOM     59  C   UNL A   1      46.176  25.175  29.314  1.00  0.00     0.031 C 
ATOM     60  C   UNL A   1      46.573  27.440  30.245  1.00  0.00     0.037 A 
BRANCH  47  61
ATOM     61  C   UNL A   1      43.869  32.906  31.313  1.00  0.00     0.058 A 
ATOM     62  C   UNL A   1      43.701  33.244  32.667  1.00  0.00     0.135 A 
ATOM     63  C   UNL A   1      44.158  33.945  30.412  1.00  0.00     0.135 A 
ATOM     64  F   UNL A   1      43.406  32.293  33.568  1.00  0.00    -0.206 F 
ATOM     65  C   UNL A   1      43.769  34.562  33.103  1.00  0.00     0.059 A 
ATOM     66  C   UNL A   1      44.261  35.268  30.832  1.00  0.00     0.059 A 
ATOM     67  F   UNL A   1      44.328  33.680  29.107  1.00  0.00    -0.206 F 
ATOM     68  C   UNL A   1      44.043  35.569  32.176  1.00  0.00     0.060 A 
BRANCH  68  69
ATOM     69  S   UNL A   1      44.109  37.278  32.753  1.00  0.00     0.124 S 
ATOM     70  O   UNL A   1      43.945  38.012  31.501  1.00  0.00    -0.237 OA
ATOM     71  O   UNL A   1      42.979  37.342  33.676  1.00  0.00    -0.237 OA
ATOM     72  O   UNL A   1      45.426  37.377  33.371  1.00  0.00    -0.744 OA
ENDBRANCH  68  69
ENDBRANCH  47  61
BRANCH  48  73
ATOM     73  C   UNL A   1      42.573  23.658  27.702  1.00  0.00     0.058 A 
ATOM     74  C   UNL A   1      42.639  23.429  26.320  1.00  0.00     0.135 A 
ATOM     75  C   UNL A   1      42.365  22.550  28.539  1.00  0.00     0.135 A 
ATOM     76  F   UNL A   1      42.831  24.457  25.479  1.00  0.00    -0.206 F 
ATOM     77  C   UNL A   1      42.497  22.153  25.784  1.00  0.00     0.059 A 
ATOM     78  C   UNL A   1      42.243  21.261  28.028  1.00  0.00     0.059 A 
ATOM     79  F   UNL A   1      42.312  22.714  29.869  1.00  0.00    -0.206 F 
ATOM     80  C   UNL A   1      42.305  21.074  26.647  1.00  0.00     0.060 A 
BRANCH  80  81
ATOM     81  S   UNL A   1      42.189  19.414  25.946  1.00  0.00     0.124 S 
ATOM     82  O   UNL A   1      40.756  19.295  25.705  1.00  0.00    -0.237 OA
ATOM     83  O   UNL A   1      43.030  19.524  24.757  1.00  0.00    -0.237 OA
ATOM     84  O   UNL A   1      42.726  18.564  27.004  1.00  0.00    -0.744 OA
ENDBRANCH  80  81
ENDBRANCH  48  73
BRANCH  60  85
ATOM     85  C   UNL A   1      47.985  27.023  30.546  1.00  0.00     0.058 A 
ATOM     86  C   UNL A   1      49.030  27.259  29.641  1.00  0.00     0.135 A 
ATOM     87  C   UNL A   1      48.302  26.430  31.778  1.00  0.00     0.135 A 
ATOM     88  F   UNL A   1      48.778  27.817  28.447  1.00  0.00    -0.206 F 
ATOM     89  C   UNL A   1      50.341  26.904  29.939  1.00  0.00     0.059 A 
ATOM     90  C   UNL A   1      49.610  26.090  32.109  1.00  0.00     0.059 A 
ATOM     91  F   UNL A   1      47.338  26.192  32.683  1.00  0.00    -0.206 F 
ATOM     92  C   UNL A   1      50.621  26.321  31.177  1.00  0.00     0.060 A 
BRANCH  92  93
ATOM     93  S   UNL A   1      52.332  25.899  31.568  1.00  0.00     0.124 S 
ATOM     94  O   UNL A   1      52.976  26.050  30.268  1.00  0.00    -0.237 OA
ATOM     95  O   UNL A   1      52.682  26.902  32.569  1.00  0.00    -0.237 OA
ATOM     96  O   UNL A   1      52.238  24.531  32.068  1.00  0.00    -0.744 OA
ENDBRANCH  92  93
ENDBRANCH  60  85
ENDBRANCH  34  35
ENDBRANCH  26  29
ENDBRANCH  24  25
ENDBRANCH   1  24
TORSDOF 15
ENDMDL
MODEL 3
REMARK VINA RESULT:     -12.5      6.677     12.372
REMARK SMILES Cc1nc(C)c(C(=O)N2CCC([C@H](C)C(=O)NCCCNC(=O)c3ccc(-c4c5nc(c(-c6c(F)cc(S(=O)(=O)[O-])cc6F)c6ccc([nH]6)c(-c6c(F)cc(S(=O)(=O)[O-])cc6F)c6nc(c(-c7c(F)cc(S(=O)(=O)[O-])cc7F)c7ccc4[nH]7)C=C6)C=C5)cc3)CC2)s1
REMARK SMILES IDX 19 1 18 2 17 3 15 4 16 5 13 7 14 8 12 9 7 10 8 11 9 12 10 13
REMARK SMILES IDX 91 14 11 15 90 16 6 17 1 18 2 19 3 20 92 21 4 22 5 23 20 24
REMARK SMILES IDX 21 25 22 26 23 28 24 29 25 30 89 31 26 32 88 33 27 34 28 35
REMARK SMILES IDX 29 36 82 37 30 38 87 39 81 40 83 41 31 42 86 43 80 44 79 45
REMARK SMILES IDX 32 47 66 48 45 49 65 50 46 51 49 52 64 53 84 54 47 55 48 56
REMARK SMILES IDX 63 58 85 59 50 60 33 61 34 62 43 63 35 64 36 65 42 66 44 67
REMARK SMILES IDX 37 68 38 69 39 70 40 71 41 72 67 73 68 74 77 75 69 76 70 77
REMARK SMILES IDX 76 78 78 79 71 80 72 81 73 82 74 83 75 84 51 85 52 86 61 87
REMARK SMILES IDX 53 88 54 89 60 90 62 91 55 92 56 93 57 94 58 95 59 96
REMARK H PARENT 17 6 21 27 83 46 49 57
REMARK Flexibility Score: inf
ROOT
ATOM      1  C   UNL A   1      33.903  29.192  27.249  1.00  0.00     0.042 C 
ENDROOT
BRANCH   1   2
ATOM      2  C   UNL A   1      32.973  29.922  26.307  1.00  0.00     0.117 C 
BRANCH   2   3
ATOM      3  N   UNL A   1      33.258  29.685  24.908  1.00  0.00    -0.356 N 
ATOM      4  C   UNL A   1      32.558  28.961  23.995  1.00  0.00     0.223 C 
ATOM      5  O   UNL A   1      32.900  29.053  22.812  1.00  0.00    -0.275 OA
ATOM      6  H   UNL A   1      34.078  30.111  24.568  1.00  0.00     0.163 HD
BRANCH   4   7
ATOM      7  C   UNL A   1      31.399  28.039  24.392  1.00  0.00     0.078 C 
ATOM      8  C   UNL A   1      30.157  28.370  23.557  1.00  0.00     0.018 C 
BRANCH   7   9
ATOM      9  C   UNL A   1      31.717  26.517  24.593  1.00  0.00     0.005 C 
ATOM     10  C   UNL A   1      34.005  23.316  23.168  1.00  0.00     0.265 C 
ATOM     11  O   UNL A   1      33.860  23.328  21.946  1.00  0.00    -0.268 OA
ATOM     12  N   UNL A   1      33.135  24.059  23.973  1.00  0.00    -0.338 N 
ATOM     13  C   UNL A   1      31.739  24.157  23.593  1.00  0.00     0.120 C 
ATOM     14  C   UNL A   1      33.511  24.765  25.190  1.00  0.00     0.120 C 
ATOM     15  C   UNL A   1      31.284  25.596  23.430  1.00  0.00     0.026 C 
ATOM     16  C   UNL A   1      33.160  26.247  25.082  1.00  0.00     0.026 C 
BRANCH  10  17
ATOM     17  C   UNL A   1      34.991  22.460  23.813  1.00  0.00     0.115 A 
ATOM     18  C   UNL A   1      38.376  21.355  25.380  1.00  0.00     0.079 C 
ATOM     19  C   UNL A   1      36.993  21.581  24.883  1.00  0.00     0.091 A 
ATOM     20  N   UNL A   1      35.959  20.835  25.200  1.00  0.00    -0.246 NA
ATOM     21  S   UNL A   1      36.653  22.908  23.868  1.00  0.00    -0.113 S 
ATOM     22  C   UNL A   1      34.799  21.349  24.626  1.00  0.00     0.061 A 
ATOM     23  C   UNL A   1      33.517  20.677  24.985  1.00  0.00     0.068 C 
ENDBRANCH  10  17
ENDBRANCH   7   9
ENDBRANCH   4   7
ENDBRANCH   2   3
ENDBRANCH   1   2
BRANCH   1  24
ATOM     24  C   UNL A   1      35.207  29.931  27.480  1.00  0.00     0.118 C 
BRANCH  24  25
ATOM     25  N   UNL A   1      35.288  30.540  28.805  1.00  0.00    -0.352 N 
ATOM     26  C   UNL A   1      36.297  30.493  29.737  1.00  0.00     0.251 C 
ATOM     27  H   UNL A   1      34.498  31.065  29.071  1.00  0.00     0.163 HD
ATOM     28  O   UNL A   1      36.105  30.925  30.870  1.00  0.00    -0.269 OA
BRANCH  26  29
ATOM     29  C   UNL A   1      37.599  29.902  29.371  1.00  0.00     0.039 A 
ATOM     30  C   UNL A   1      37.986  29.869  28.030  1.00  0.00     0.014 A 
ATOM     31  C   UNL A   1      38.448  29.408  30.362  1.00  0.00     0.014 A 
ATOM     32  C   UNL A   1      39.263  29.414  27.696  1.00  0.00     0.010 A 
ATOM     33  C   UNL A   1      39.754  29.067  30.041  1.00  0.00     0.010 A 
ATOM     34  C   UNL A   1      40.171  29.052  28.704  1.00  0.00    -0.014 A 
BRANCH  34  35
ATOM     35  C   UNL A   1      41.560  28.631  28.393  1.00  0.00     0.031 A 
ATOM     36  C   UNL A   1      42.660  29.657  28.364  1.00  0.00     0.074 A 
ATOM     37  C   UNL A   1      41.811  27.353  28.050  1.00  0.00     0.049 A 
ATOM     38  N   UNL A   1      43.911  29.520  28.012  1.00  0.00    -0.248 NA
ATOM     39  C   UNL A   1      42.292  31.032  28.744  1.00  0.00     0.031 C 
ATOM     40  C   UNL A   1      40.815  26.280  27.980  1.00  0.00     0.029 A 
ATOM     41  N   UNL A   1      42.982  26.739  27.684  1.00  0.00    -0.354 N 
ATOM     42  C   UNL A   1      44.469  30.789  28.099  1.00  0.00     0.074 A 
ATOM     43  C   UNL A   1      43.407  31.695  28.476  1.00  0.00     0.031 C 
ATOM     44  C   UNL A   1      41.424  25.136  27.627  1.00  0.00     0.029 A 
ATOM     45  C   UNL A   1      42.841  25.400  27.406  1.00  0.00     0.049 A 
ATOM     46  H   UNL A   1      43.843  27.213  27.626  1.00  0.00     0.167 HD
ATOM     47  C   UNL A   1      45.757  31.163  27.912  1.00  0.00     0.037 A 
ATOM     48  C   UNL A   1      43.753  24.490  27.015  1.00  0.00     0.037 A 
ATOM     49  C   UNL A   1      46.815  30.247  27.579  1.00  0.00     0.049 A 
ATOM     50  C   UNL A   1      45.184  24.920  26.838  1.00  0.00     0.074 A 
ATOM     51  C   UNL A   1      48.167  30.506  27.438  1.00  0.00     0.029 A 
ATOM     52  N   UNL A   1      46.639  28.892  27.342  1.00  0.00    -0.354 N 
ATOM     53  N   UNL A   1      45.708  26.113  26.986  1.00  0.00    -0.248 NA
ATOM     54  C   UNL A   1      46.145  23.882  26.447  1.00  0.00     0.031 C 
ATOM     55  C   UNL A   1      48.802  29.313  27.079  1.00  0.00     0.029 A 
ATOM     56  C   UNL A   1      47.854  28.302  27.038  1.00  0.00     0.049 A 
ATOM     57  H   UNL A   1      45.776  28.418  27.382  1.00  0.00     0.167 HD
ATOM     58  C   UNL A   1      47.066  25.966  26.730  1.00  0.00     0.074 A 
ATOM     59  C   UNL A   1      47.283  24.564  26.427  1.00  0.00     0.031 C 
ATOM     60  C   UNL A   1      48.046  26.904  26.743  1.00  0.00     0.037 A 
BRANCH  47  61
ATOM     61  C   UNL A   1      46.083  32.623  28.074  1.00  0.00     0.058 A 
ATOM     62  C   UNL A   1      45.976  33.526  27.003  1.00  0.00     0.135 A 
ATOM     63  C   UNL A   1      46.514  33.127  29.312  1.00  0.00     0.135 A 
ATOM     64  F   UNL A   1      45.585  33.095  25.792  1.00  0.00    -0.206 F 
ATOM     65  C   UNL A   1      46.326  34.865  27.140  1.00  0.00     0.059 A 
ATOM     66  C   UNL A   1      46.841  34.469  29.480  1.00  0.00     0.059 A 
ATOM     67  F   UNL A   1      46.635  32.309  30.370  1.00  0.00    -0.206 F 
ATOM     68  C   UNL A   1      46.765  35.326  28.383  1.00  0.00     0.060 A 
BRANCH  68  69
ATOM     69  S   UNL A   1      47.237  37.061  28.541  1.00  0.00     0.124 S 
ATOM     70  O   UNL A   1      47.069  37.276  29.975  1.00  0.00    -0.237 OA
ATOM     71  O   UNL A   1      48.615  37.058  28.058  1.00  0.00    -0.237 OA
ATOM     72  O   UNL A   1      46.278  37.753  27.686  1.00  0.00    -0.744 OA
ENDBRANCH  68  69
ENDBRANCH  47  61
BRANCH  48  73
ATOM     73  C   UNL A   1      43.343  23.076  26.809  1.00  0.00     0.058 A 
ATOM     74  C   UNL A   1      43.292  22.525  25.520  1.00  0.00     0.135 A 
ATOM     75  C   UNL A   1      43.033  22.236  27.891  1.00  0.00     0.135 A 
ATOM     76  F   UNL A   1      43.575  23.289  24.454  1.00  0.00    -0.206 F 
ATOM     77  C   UNL A   1      42.942  21.196  25.308  1.00  0.00     0.059 A 
ATOM     78  C   UNL A   1      42.701  20.898  27.706  1.00  0.00     0.059 A 
ATOM     79  F   UNL A   1      43.085  22.711  29.145  1.00  0.00    -0.206 F 
ATOM     80  C   UNL A   1      42.653  20.388  26.408  1.00  0.00     0.060 A 
BRANCH  80  81
ATOM     81  S   UNL A   1      42.264  18.648  26.126  1.00  0.00     0.124 S 
ATOM     82  O   UNL A   1      42.554  18.065  27.431  1.00  0.00    -0.237 OA
ATOM     83  O   UNL A   1      40.854  18.705  25.751  1.00  0.00    -0.237 OA
ATOM     84  O   UNL A   1      43.173  18.271  25.049  1.00  0.00    -0.744 OA
ENDBRANCH  80  81
ENDBRANCH  48  73
BRANCH  60  85
ATOM     85  C   UNL A   1      49.446  26.442  26.450  1.00  0.00     0.058 A 
ATOM     86  C   UNL A   1      49.993  26.528  25.161  1.00  0.00     0.135 A 
ATOM     87  C   UNL A   1      50.264  25.961  27.483  1.00  0.00     0.135 A 
ATOM     88  F   UNL A   1      49.248  26.976  24.139  1.00  0.00    -0.206 F 
ATOM     89  C   UNL A   1      51.301  26.134  24.902  1.00  0.00     0.059 A 
ATOM     90  C   UNL A   1      51.584  25.585  27.252  1.00  0.00     0.059 A 
ATOM     91  F   UNL A   1      49.791  25.868  28.736  1.00  0.00    -0.206 F 
ATOM     92  C   UNL A   1      52.089  25.664  25.955  1.00  0.00     0.060 A 
BRANCH  92  93
ATOM     93  S   UNL A   1      53.797  25.191  25.613  1.00  0.00     0.124 S 
ATOM     94  O   UNL A   1      53.662  23.757  25.376  1.00  0.00    -0.237 OA
ATOM     95  O   UNL A   1      54.119  26.000  24.442  1.00  0.00    -0.237 OA
ATOM     96  O   UNL A   1      54.503  25.562  26.836  1.00  0.00    -0.744 OA
ENDBRANCH  92  93
ENDBRANCH  60  85
ENDBRANCH  34  35
ENDBRANCH  26  29
ENDBRANCH  24  25
ENDBRANCH   1  24
TORSDOF 15
ENDMDL
