MODEL 1
REMARK VINA RESULT:     -12.5      0.000      0.000
REMARK SMILES O=C(NCc1ccsc1)NC[C@H]1CC[C@@H](C(=O)NCCCNC(=O)c2ccc(-c3c4nc(c(-c5c(F)cc(S(=O)(=O)[O-])cc5F)c5ccc([nH]5)c(-c5c(F)cc(S(=O)(=O)[O-])cc5F)c5nc(c(-c6c(F)cc(S(=O)(=O)[O-])cc6F)c6ccc3[nH]6)C=C5)C=C4)cc2)CC1
REMARK SMILES IDX 19 1 18 2 16 3 17 4 15 6 12 7 13 8 92 9 14 10 91 11 11 12
REMARK SMILES IDX 10 13 1 14 2 15 3 16 4 19 5 20 6 21 9 22 7 23 8 24 20 25
REMARK SMILES IDX 21 26 22 27 23 28 24 30 25 31 26 32 90 33 27 34 89 35 28 36
REMARK SMILES IDX 29 37 30 38 83 39 31 40 88 41 82 42 84 43 32 44 87 45 81 46
REMARK SMILES IDX 80 47 33 49 67 50 46 51 66 52 47 53 50 54 65 55 85 56 48 57
REMARK SMILES IDX 49 58 64 60 86 61 51 62 34 63 35 64 44 65 36 66 37 67 43 68
REMARK SMILES IDX 45 69 38 70 39 71 40 72 41 73 42 74 68 75 69 76 78 77 70 78
REMARK SMILES IDX 71 79 77 80 79 81 72 82 73 83 74 84 75 85 76 86 52 87 53 88
REMARK SMILES IDX 62 89 54 90 55 91 61 92 63 93 56 94 57 95 58 96 59 97 60 98
REMARK H PARENT 18 5 3 17 10 18 22 29 84 48 50 59
REMARK Flexibility Score: inf
ROOT
ATOM      1  C   UNL A   1      39.693  21.098  25.983  1.00  0.00     0.117 C 
ENDROOT
BRANCH   1   2
ATOM      2  N   UNL A   1      38.802  22.181  26.357  1.00  0.00    -0.356 N 
ATOM      3  C   UNL A   1      37.737  22.745  25.737  1.00  0.00     0.223 C 
ATOM      4  O   UNL A   1      37.337  23.816  26.216  1.00  0.00    -0.275 OA
ATOM      5  H   UNL A   1      39.012  22.584  27.231  1.00  0.00     0.163 HD
BRANCH   3   6
ATOM      6  C   UNL A   1      37.010  22.156  24.519  1.00  0.00     0.078 C 
ATOM      7  C   UNL A   1      33.983  21.948  24.543  1.00  0.00     0.008 C 
ATOM      8  C   UNL A   1      34.684  23.186  23.910  1.00  0.00     0.006 C 
ATOM      9  C   UNL A   1      34.895  20.933  25.245  1.00  0.00     0.006 C 
ATOM     10  C   UNL A   1      36.194  23.106  23.651  1.00  0.00     0.014 C 
ATOM     11  C   UNL A   1      36.317  20.821  24.745  1.00  0.00     0.014 C 
BRANCH   7  12
ATOM     12  C   UNL A   1      32.745  22.324  25.446  1.00  0.00     0.121 C 
BRANCH  12  13
ATOM     13  N   UNL A   1      32.478  23.774  25.629  1.00  0.00    -0.338 N 
ATOM     14  O   UNL A   1      31.389  23.527  27.587  1.00  0.00    -0.249 OA
ATOM     15  C   UNL A   1      31.748  24.263  26.666  1.00  0.00     0.315 C 
ATOM     16  N   UNL A   1      31.328  25.563  26.654  1.00  0.00    -0.334 N 
ATOM     17  H   UNL A   1      30.763  25.738  27.442  1.00  0.00     0.165 HD
ATOM     18  H   UNL A   1      32.844  24.408  24.971  1.00  0.00     0.165 HD
BRANCH  16  19
ATOM     19  C   UNL A   1      31.447  26.787  25.841  1.00  0.00     0.154 C 
BRANCH  19  20
ATOM     20  C   UNL A   1      32.326  27.984  26.347  1.00  0.00    -0.018 A 
ATOM     21  C   UNL A   1      33.778  27.912  26.403  1.00  0.00     0.017 A 
ATOM     22  C   UNL A   1      32.021  29.224  26.871  1.00  0.00     0.070 A 
ATOM     23  C   UNL A   1      34.418  29.062  26.835  1.00  0.00     0.065 A 
ATOM     24  S   UNL A   1      33.317  30.302  27.175  1.00  0.00    -0.152 S 
ENDBRANCH  19  20
ENDBRANCH  16  19
ENDBRANCH  12  13
ENDBRANCH   7  12
ENDBRANCH   3   6
ENDBRANCH   1   2
BRANCH   1  25
ATOM     25  C   UNL A   1      41.043  21.199  26.692  1.00  0.00     0.042 C 
BRANCH  25  26
ATOM     26  C   UNL A   1      42.164  21.938  25.903  1.00  0.00     0.118 C 
BRANCH  26  27
ATOM     27  N   UNL A   1      41.936  23.400  25.542  1.00  0.00    -0.352 N 
ATOM     28  C   UNL A   1      42.619  24.610  25.846  1.00  0.00     0.251 C 
ATOM     29  H   UNL A   1      41.142  23.538  24.975  1.00  0.00     0.163 HD
ATOM     30  O   UNL A   1      43.506  24.992  25.084  1.00  0.00    -0.269 OA
BRANCH  28  31
ATOM     31  C   UNL A   1      42.074  25.644  26.865  1.00  0.00     0.039 A 
ATOM     32  C   UNL A   1      41.089  25.347  27.823  1.00  0.00     0.014 A 
ATOM     33  C   UNL A   1      42.534  26.954  26.913  1.00  0.00     0.014 A 
ATOM     34  C   UNL A   1      40.728  26.277  28.870  1.00  0.00     0.010 A 
ATOM     35  C   UNL A   1      42.318  27.792  28.047  1.00  0.00     0.010 A 
ATOM     36  C   UNL A   1      41.390  27.507  29.064  1.00  0.00    -0.014 A 
BRANCH  36  37
ATOM     37  C   UNL A   1      41.123  28.505  30.225  1.00  0.00     0.031 A 
ATOM     38  C   UNL A   1      41.943  28.460  31.534  1.00  0.00     0.074 A 
ATOM     39  C   UNL A   1      40.113  29.422  30.234  1.00  0.00     0.049 A 
ATOM     40  N   UNL A   1      41.750  29.084  32.681  1.00  0.00    -0.248 NA
ATOM     41  C   UNL A   1      43.088  27.543  31.574  1.00  0.00     0.031 C 
ATOM     42  C   UNL A   1      39.128  29.630  29.174  1.00  0.00     0.029 A 
ATOM     43  N   UNL A   1      39.734  30.354  31.196  1.00  0.00    -0.354 N 
ATOM     44  C   UNL A   1      42.691  28.567  33.577  1.00  0.00     0.074 A 
ATOM     45  C   UNL A   1      43.373  27.508  32.867  1.00  0.00     0.031 C 
ATOM     46  C   UNL A   1      38.296  30.631  29.519  1.00  0.00     0.029 A 
ATOM     47  C   UNL A   1      38.645  31.133  30.849  1.00  0.00     0.049 A 
ATOM     48  H   UNL A   1      40.205  30.452  32.056  1.00  0.00     0.167 HD
ATOM     49  C   UNL A   1      43.031  28.947  34.839  1.00  0.00     0.037 A 
ATOM     50  C   UNL A   1      37.984  32.128  31.493  1.00  0.00     0.037 A 
ATOM     51  C   UNL A   1      42.483  30.075  35.550  1.00  0.00     0.049 A 
ATOM     52  C   UNL A   1      38.409  32.601  32.868  1.00  0.00     0.074 A 
ATOM     53  C   UNL A   1      42.877  30.594  36.775  1.00  0.00     0.029 A 
ATOM     54  N   UNL A   1      41.442  30.871  35.104  1.00  0.00    -0.354 N 
ATOM     55  N   UNL A   1      39.358  32.139  33.645  1.00  0.00    -0.248 NA
ATOM     56  C   UNL A   1      37.672  33.740  33.451  1.00  0.00     0.031 C 
ATOM     57  C   UNL A   1      42.048  31.677  37.089  1.00  0.00     0.029 A 
ATOM     58  C   UNL A   1      41.171  31.865  36.035  1.00  0.00     0.049 A 
ATOM     59  H   UNL A   1      40.964  30.749  34.253  1.00  0.00     0.167 HD
ATOM     60  C   UNL A   1      39.354  32.949  34.782  1.00  0.00     0.074 A 
ATOM     61  C   UNL A   1      38.313  33.933  34.596  1.00  0.00     0.031 C 
ATOM     62  C   UNL A   1      40.154  32.873  35.874  1.00  0.00     0.037 A 
BRANCH  49  63
ATOM     63  C   UNL A   1      44.108  28.145  35.542  1.00  0.00     0.058 A 
ATOM     64  C   UNL A   1      45.473  28.429  35.372  1.00  0.00     0.135 A 
ATOM     65  C   UNL A   1      43.772  27.082  36.399  1.00  0.00     0.135 A 
ATOM     66  F   UNL A   1      45.860  29.440  34.576  1.00  0.00    -0.206 F 
ATOM     67  C   UNL A   1      46.463  27.634  35.942  1.00  0.00     0.059 A 
ATOM     68  C   UNL A   1      44.746  26.303  37.021  1.00  0.00     0.059 A 
ATOM     69  F   UNL A   1      42.484  26.782  36.635  1.00  0.00    -0.206 F 
ATOM     70  C   UNL A   1      46.089  26.565  36.755  1.00  0.00     0.060 A 
BRANCH  70  71
ATOM     71  S   UNL A   1      47.384  25.508  37.436  1.00  0.00     0.124 S 
ATOM     72  O   UNL A   1      46.829  24.180  37.195  1.00  0.00    -0.237 OA
ATOM     73  O   UNL A   1      48.543  25.867  36.623  1.00  0.00    -0.237 OA
ATOM     74  O   UNL A   1      47.453  25.916  38.836  1.00  0.00    -0.744 OA
ENDBRANCH  70  71
ENDBRANCH  49  63
BRANCH  50  75
ATOM     75  C   UNL A   1      36.835  32.814  30.821  1.00  0.00     0.058 A 
ATOM     76  C   UNL A   1      35.508  32.531  31.191  1.00  0.00     0.135 A 
ATOM     77  C   UNL A   1      37.033  33.754  29.798  1.00  0.00     0.135 A 
ATOM     78  F   UNL A   1      35.259  31.612  32.135  1.00  0.00    -0.206 F 
ATOM     79  C   UNL A   1      34.425  33.162  30.583  1.00  0.00     0.059 A 
ATOM     80  C   UNL A   1      35.967  34.416  29.193  1.00  0.00     0.059 A 
ATOM     81  F   UNL A   1      38.277  34.057  29.396  1.00  0.00    -0.206 F 
ATOM     82  C   UNL A   1      34.666  34.117  29.594  1.00  0.00     0.060 A 
BRANCH  82  83
ATOM     83  S   UNL A   1      33.256  35.006  28.895  1.00  0.00     0.124 S 
ATOM     84  O   UNL A   1      32.445  35.261  30.075  1.00  0.00    -0.237 OA
ATOM     85  O   UNL A   1      33.896  36.167  28.290  1.00  0.00    -0.237 OA
ATOM     86  O   UNL A   1      32.696  34.044  27.939  1.00  0.00    -0.744 OA
ENDBRANCH  82  83
ENDBRANCH  50  75
BRANCH  62  87
ATOM     87  C   UNL A   1      39.996  33.905  36.966  1.00  0.00     0.058 A 
ATOM     88  C   UNL A   1      40.664  35.139  36.929  1.00  0.00     0.135 A 
ATOM     89  C   UNL A   1      39.098  33.688  38.026  1.00  0.00     0.135 A 
ATOM     90  F   UNL A   1      41.536  35.407  35.943  1.00  0.00    -0.206 F 
ATOM     91  C   UNL A   1      40.461  36.112  37.908  1.00  0.00     0.059 A 
ATOM     92  C   UNL A   1      38.860  34.654  39.002  1.00  0.00     0.059 A 
ATOM     93  F   UNL A   1      38.420  32.532  38.110  1.00  0.00    -0.206 F 
ATOM     94  C   UNL A   1      39.553  35.862  38.939  1.00  0.00     0.060 A 
BRANCH  94  95
ATOM     95  S   UNL A   1      39.268  37.146  40.178  1.00  0.00     0.124 S 
ATOM     96  O   UNL A   1      38.501  38.127  39.418  1.00  0.00    -0.237 OA
ATOM     97  O   UNL A   1      38.528  36.426  41.210  1.00  0.00    -0.237 OA
ATOM     98  O   UNL A   1      40.615  37.561  40.557  1.00  0.00    -0.744 OA
ENDBRANCH  94  95
ENDBRANCH  62  87
ENDBRANCH  36  37
ENDBRANCH  28  31
ENDBRANCH  26  27
ENDBRANCH  25  26
ENDBRANCH   1  25
TORSDOF 17
ENDMDL
MODEL 2
REMARK VINA RESULT:     -11.8      6.251     12.098
REMARK SMILES O=C(NCc1ccsc1)NC[C@H]1CC[C@@H](C(=O)NCCCNC(=O)c2ccc(-c3c4nc(c(-c5c(F)cc(S(=O)(=O)[O-])cc5F)c5ccc([nH]5)c(-c5c(F)cc(S(=O)(=O)[O-])cc5F)c5nc(c(-c6c(F)cc(S(=O)(=O)[O-])cc6F)c6ccc3[nH]6)C=C5)C=C4)cc2)CC1
REMARK SMILES IDX 19 1 18 2 16 3 17 4 15 6 12 7 13 8 92 9 14 10 91 11 11 12
REMARK SMILES IDX 10 13 1 14 2 15 3 16 4 19 5 20 6 21 9 22 7 23 8 24 20 25
REMARK SMILES IDX 21 26 22 27 23 28 24 30 25 31 26 32 90 33 27 34 89 35 28 36
REMARK SMILES IDX 29 37 30 38 83 39 31 40 88 41 82 42 84 43 32 44 87 45 81 46
REMARK SMILES IDX 80 47 33 49 67 50 46 51 66 52 47 53 50 54 65 55 85 56 48 57
REMARK SMILES IDX 49 58 64 60 86 61 51 62 34 63 35 64 44 65 36 66 37 67 43 68
REMARK SMILES IDX 45 69 38 70 39 71 40 72 41 73 42 74 68 75 69 76 78 77 70 78
REMARK SMILES IDX 71 79 77 80 79 81 72 82 73 83 74 84 75 85 76 86 52 87 53 88
REMARK SMILES IDX 62 89 54 90 55 91 61 92 63 93 56 94 57 95 58 96 59 97 60 98
REMARK H PARENT 18 5 3 17 10 18 22 29 84 48 50 59
REMARK Flexibility Score: inf
ROOT
ATOM      1  C   UNL A   1      34.261  31.006  27.416  1.00  0.00     0.117 C 
ENDROOT
BRANCH   1   2
ATOM      2  N   UNL A   1      33.277  30.027  27.839  1.00  0.00    -0.356 N 
ATOM      3  C   UNL A   1      32.546  29.112  27.157  1.00  0.00     0.223 C 
ATOM      4  O   UNL A   1      31.614  28.589  27.784  1.00  0.00    -0.275 OA
ATOM      5  H   UNL A   1      33.108  30.027  28.809  1.00  0.00     0.163 HD
BRANCH   3   6
ATOM      6  C   UNL A   1      32.794  28.689  25.701  1.00  0.00     0.078 C 
ATOM      7  C   UNL A   1      31.745  26.016  24.722  1.00  0.00     0.008 C 
ATOM      8  C   UNL A   1      30.906  27.313  24.524  1.00  0.00     0.006 C 
ATOM      9  C   UNL A   1      33.038  26.157  25.535  1.00  0.00     0.006 C 
ATOM     10  C   UNL A   1      31.600  28.663  24.755  1.00  0.00     0.014 C 
ATOM     11  C   UNL A   1      33.727  27.503  25.507  1.00  0.00     0.014 C 
BRANCH   7  12
ATOM     12  C   UNL A   1      30.888  24.789  25.223  1.00  0.00     0.121 C 
BRANCH  12  13
ATOM     13  N   UNL A   1      31.613  23.502  25.385  1.00  0.00    -0.338 N 
ATOM     14  O   UNL A   1      31.279  23.370  27.611  1.00  0.00    -0.249 OA
ATOM     15  C   UNL A   1      31.815  22.919  26.597  1.00  0.00     0.315 C 
ATOM     16  N   UNL A   1      32.689  21.876  26.717  1.00  0.00    -0.334 N 
ATOM     17  H   UNL A   1      32.766  21.612  27.663  1.00  0.00     0.165 HD
ATOM     18  H   UNL A   1      31.961  23.051  24.583  1.00  0.00     0.165 HD
BRANCH  16  19
ATOM     19  C   UNL A   1      33.554  21.018  25.886  1.00  0.00     0.154 C 
BRANCH  19  20
ATOM     20  C   UNL A   1      34.821  21.622  25.186  1.00  0.00    -0.018 A 
ATOM     21  C   UNL A   1      36.096  20.922  25.149  1.00  0.00     0.017 A 
ATOM     22  C   UNL A   1      35.071  22.830  24.567  1.00  0.00     0.070 A 
ATOM     23  C   UNL A   1      37.111  21.565  24.461  1.00  0.00     0.065 A 
ATOM     24  S   UNL A   1      36.589  23.032  23.797  1.00  0.00    -0.152 S 
ENDBRANCH  19  20
ENDBRANCH  16  19
ENDBRANCH  12  13
ENDBRANCH   7  12
ENDBRANCH   3   6
ENDBRANCH   1   2
BRANCH   1  25
ATOM     25  C   UNL A   1      34.001  32.380  28.032  1.00  0.00     0.042 C 
BRANCH  25  26
ATOM     26  C   UNL A   1      34.453  32.551  29.513  1.00  0.00     0.118 C 
BRANCH  26  27
ATOM     27  N   UNL A   1      35.261  31.424  30.145  1.00  0.00    -0.352 N 
ATOM     28  C   UNL A   1      36.331  31.382  31.080  1.00  0.00     0.251 C 
ATOM     29  H   UNL A   1      34.980  30.531  29.840  1.00  0.00     0.163 HD
ATOM     30  O   UNL A   1      36.063  31.302  32.278  1.00  0.00    -0.269 OA
BRANCH  28  31
ATOM     31  C   UNL A   1      37.792  31.069  30.665  1.00  0.00     0.039 A 
ATOM     32  C   UNL A   1      38.797  30.700  31.576  1.00  0.00     0.014 A 
ATOM     33  C   UNL A   1      38.215  31.119  29.342  1.00  0.00     0.014 A 
ATOM     34  C   UNL A   1      40.100  30.245  31.142  1.00  0.00     0.010 A 
ATOM     35  C   UNL A   1      39.424  30.496  28.910  1.00  0.00     0.010 A 
ATOM     36  C   UNL A   1      40.431  30.053  29.784  1.00  0.00    -0.014 A 
BRANCH  36  37
ATOM     37  C   UNL A   1      41.772  29.473  29.254  1.00  0.00     0.031 A 
ATOM     38  C   UNL A   1      43.028  30.359  29.095  1.00  0.00     0.074 A 
ATOM     39  C   UNL A   1      41.934  28.194  28.810  1.00  0.00     0.049 A 
ATOM     40  N   UNL A   1      44.180  30.104  28.502  1.00  0.00    -0.248 NA
ATOM     41  C   UNL A   1      42.949  31.730  29.611  1.00  0.00     0.031 C 
ATOM     42  C   UNL A   1      40.902  27.160  28.759  1.00  0.00     0.029 A 
ATOM     43  N   UNL A   1      43.050  27.542  28.289  1.00  0.00    -0.354 N 
ATOM     44  C   UNL A   1      44.902  31.301  28.509  1.00  0.00     0.074 A 
ATOM     45  C   UNL A   1      44.015  32.297  29.066  1.00  0.00     0.031 C 
ATOM     46  C   UNL A   1      41.428  26.017  28.282  1.00  0.00     0.029 A 
ATOM     47  C   UNL A   1      42.838  26.220  27.944  1.00  0.00     0.049 A 
ATOM     48  H   UNL A   1      43.921  27.988  28.177  1.00  0.00     0.167 HD
ATOM     49  C   UNL A   1      46.191  31.572  28.163  1.00  0.00     0.037 A 
ATOM     50  C   UNL A   1      43.648  25.266  27.419  1.00  0.00     0.037 A 
ATOM     51  C   UNL A   1      47.163  30.601  27.728  1.00  0.00     0.049 A 
ATOM     52  C   UNL A   1      45.102  25.548  27.102  1.00  0.00     0.074 A 
ATOM     53  C   UNL A   1      48.518  30.786  27.491  1.00  0.00     0.029 A 
ATOM     54  N   UNL A   1      46.902  29.265  27.482  1.00  0.00    -0.354 N 
ATOM     55  N   UNL A   1      45.768  26.672  27.203  1.00  0.00    -0.248 NA
ATOM     56  C   UNL A   1      45.918  24.423  26.605  1.00  0.00     0.031 C 
ATOM     57  C   UNL A   1      49.066  29.573  27.061  1.00  0.00     0.029 A 
ATOM     58  C   UNL A   1      48.064  28.619  27.081  1.00  0.00     0.049 A 
ATOM     59  H   UNL A   1      46.022  28.835  27.576  1.00  0.00     0.167 HD
ATOM     60  C   UNL A   1      47.078  26.381  26.820  1.00  0.00     0.074 A 
ATOM     61  C   UNL A   1      47.119  24.976  26.487  1.00  0.00     0.031 C 
ATOM     62  C   UNL A   1      48.144  27.217  26.759  1.00  0.00     0.037 A 
BRANCH  49  63
ATOM     63  C   UNL A   1      46.658  33.009  28.286  1.00  0.00     0.058 A 
ATOM     64  C   UNL A   1      47.215  33.507  29.476  1.00  0.00     0.135 A 
ATOM     65  C   UNL A   1      46.551  33.898  27.202  1.00  0.00     0.135 A 
ATOM     66  F   UNL A   1      47.356  32.706  30.545  1.00  0.00    -0.206 F 
ATOM     67  C   UNL A   1      47.556  34.849  29.619  1.00  0.00     0.059 A 
ATOM     68  C   UNL A   1      46.932  35.234  27.307  1.00  0.00     0.059 A 
ATOM     69  F   UNL A   1      46.063  33.475  26.025  1.00  0.00    -0.206 F 
ATOM     70  C   UNL A   1      47.398  35.707  28.532  1.00  0.00     0.060 A 
BRANCH  70  71
ATOM     71  S   UNL A   1      47.788  37.456  28.754  1.00  0.00     0.124 S 
ATOM     72  O   UNL A   1      46.458  38.024  28.955  1.00  0.00    -0.237 OA
ATOM     73  O   UNL A   1      48.652  37.439  29.930  1.00  0.00    -0.237 OA
ATOM     74  O   UNL A   1      48.444  37.819  27.502  1.00  0.00    -0.744 OA
ENDBRANCH  70  71
ENDBRANCH  49  63
BRANCH  50  75
ATOM     75  C   UNL A   1      43.117  23.886  27.184  1.00  0.00     0.058 A 
ATOM     76  C   UNL A   1      42.594  23.516  25.933  1.00  0.00     0.135 A 
ATOM     77  C   UNL A   1      43.112  22.915  28.198  1.00  0.00     0.135 A 
ATOM     78  F   UNL A   1      42.537  24.415  24.940  1.00  0.00    -0.206 F 
ATOM     79  C   UNL A   1      42.100  22.236  25.691  1.00  0.00     0.059 A 
ATOM     80  C   UNL A   1      42.647  21.621  27.973  1.00  0.00     0.059 A 
ATOM     81  F   UNL A   1      43.590  23.214  29.416  1.00  0.00    -0.206 F 
ATOM     82  C   UNL A   1      42.146  21.288  26.716  1.00  0.00     0.060 A 
BRANCH  82  83
ATOM     83  S   UNL A   1      41.605  19.602  26.353  1.00  0.00     0.124 S 
ATOM     84  O   UNL A   1      42.446  19.253  25.220  1.00  0.00    -0.237 OA
ATOM     85  O   UNL A   1      41.892  18.913  27.605  1.00  0.00    -0.237 OA
ATOM     86  O   UNL A   1      40.178  19.767  26.054  1.00  0.00    -0.744 OA
ENDBRANCH  82  83
ENDBRANCH  50  75
BRANCH  62  87
ATOM     87  C   UNL A   1      49.489  26.653  26.362  1.00  0.00     0.058 A 
ATOM     88  C   UNL A   1      49.994  26.772  25.058  1.00  0.00     0.135 A 
ATOM     89  C   UNL A   1      50.321  26.054  27.326  1.00  0.00     0.135 A 
ATOM     90  F   UNL A   1      49.248  27.333  24.094  1.00  0.00    -0.206 F 
ATOM     91  C   UNL A   1      51.264  26.306  24.719  1.00  0.00     0.059 A 
ATOM     92  C   UNL A   1      51.603  25.603  27.016  1.00  0.00     0.059 A 
ATOM     93  F   UNL A   1      49.899  25.921  28.593  1.00  0.00    -0.206 F 
ATOM     94  C   UNL A   1      52.064  25.726  25.706  1.00  0.00     0.060 A 
BRANCH  94  95
ATOM     95  S   UNL A   1      53.723  25.164  25.264  1.00  0.00     0.124 S 
ATOM     96  O   UNL A   1      54.533  25.775  26.312  1.00  0.00    -0.237 OA
ATOM     97  O   UNL A   1      53.591  23.713  25.331  1.00  0.00    -0.237 OA
ATOM     98  O   UNL A   1      53.922  25.707  23.923  1.00  0.00    -0.744 OA
ENDBRANCH  94  95
ENDBRANCH  62  87
ENDBRANCH  36  37
ENDBRANCH  28  31
ENDBRANCH  26  27
ENDBRANCH  25  26
ENDBRANCH   1  25
TORSDOF 17
ENDMDL
MODEL 3
REMARK VINA RESULT:     -11.5      1.661      2.401
REMARK SMILES O=C(NCc1ccsc1)NC[C@H]1CC[C@@H](C(=O)NCCCNC(=O)c2ccc(-c3c4nc(c(-c5c(F)cc(S(=O)(=O)[O-])cc5F)c5ccc([nH]5)c(-c5c(F)cc(S(=O)(=O)[O-])cc5F)c5nc(c(-c6c(F)cc(S(=O)(=O)[O-])cc6F)c6ccc3[nH]6)C=C5)C=C4)cc2)CC1
REMARK SMILES IDX 19 1 18 2 16 3 17 4 15 6 12 7 13 8 92 9 14 10 91 11 11 12
REMARK SMILES IDX 10 13 1 14 2 15 3 16 4 19 5 20 6 21 9 22 7 23 8 24 20 25
REMARK SMILES IDX 21 26 22 27 23 28 24 30 25 31 26 32 90 33 27 34 89 35 28 36
REMARK SMILES IDX 29 37 30 38 83 39 31 40 88 41 82 42 84 43 32 44 87 45 81 46
REMARK SMILES IDX 80 47 33 49 67 50 46 51 66 52 47 53 50 54 65 55 85 56 48 57
REMARK SMILES IDX 49 58 64 60 86 61 51 62 34 63 35 64 44 65 36 66 37 67 43 68
REMARK SMILES IDX 45 69 38 70 39 71 40 72 41 73 42 74 68 75 69 76 78 77 70 78
REMARK SMILES IDX 71 79 77 80 79 81 72 82 73 83 74 84 75 85 76 86 52 87 53 88
REMARK SMILES IDX 62 89 54 90 55 91 61 92 63 93 56 94 57 95 58 96 59 97 60 98
REMARK H PARENT 18 5 3 17 10 18 22 29 84 48 50 59
REMARK Flexibility Score: inf
ROOT
ATOM      1  C   UNL A   1      39.512  20.102  25.371  1.00  0.00     0.117 C 
ENDROOT
BRANCH   1   2
ATOM      2  N   UNL A   1      38.074  19.960  25.232  1.00  0.00    -0.356 N 
ATOM      3  C   UNL A   1      37.082  20.860  25.028  1.00  0.00     0.223 C 
ATOM      4  O   UNL A   1      35.928  20.441  25.197  1.00  0.00    -0.275 OA
ATOM      5  H   UNL A   1      37.759  19.030  25.301  1.00  0.00     0.163 HD
BRANCH   3   6
ATOM      6  C   UNL A   1      37.289  22.322  24.604  1.00  0.00     0.078 C 
ATOM      7  C   UNL A   1      34.878  24.133  24.263  1.00  0.00     0.008 C 
ATOM      8  C   UNL A   1      35.651  24.095  25.614  1.00  0.00     0.006 C 
ATOM      9  C   UNL A   1      35.326  23.130  23.192  1.00  0.00     0.006 C 
ATOM     10  C   UNL A   1      37.022  23.407  25.641  1.00  0.00     0.014 C 
ATOM     11  C   UNL A   1      36.772  22.689  23.221  1.00  0.00     0.014 C 
BRANCH   7  12
ATOM     12  C   UNL A   1      33.310  24.117  24.439  1.00  0.00     0.121 C 
BRANCH  12  13
ATOM     13  N   UNL A   1      32.588  25.351  24.036  1.00  0.00    -0.338 N 
ATOM     14  O   UNL A   1      30.541  24.554  24.542  1.00  0.00    -0.249 OA
ATOM     15  C   UNL A   1      31.232  25.450  24.053  1.00  0.00     0.315 C 
ATOM     16  N   UNL A   1      30.615  26.507  23.447  1.00  0.00    -0.334 N 
ATOM     17  H   UNL A   1      29.638  26.396  23.496  1.00  0.00     0.165 HD
ATOM     18  H   UNL A   1      33.113  26.131  23.743  1.00  0.00     0.165 HD
BRANCH  16  19
ATOM     19  C   UNL A   1      30.942  27.761  22.742  1.00  0.00     0.154 C 
BRANCH  19  20
ATOM     20  C   UNL A   1      29.834  28.849  22.522  1.00  0.00    -0.018 A 
ATOM     21  C   UNL A   1      28.484  28.701  23.045  1.00  0.00     0.017 A 
ATOM     22  C   UNL A   1      29.805  30.037  21.819  1.00  0.00     0.070 A 
ATOM     23  C   UNL A   1      27.630  29.764  22.802  1.00  0.00     0.065 A 
ATOM     24  S   UNL A   1      28.402  31.011  21.957  1.00  0.00    -0.152 S 
ENDBRANCH  19  20
ENDBRANCH  16  19
ENDBRANCH  12  13
ENDBRANCH   7  12
ENDBRANCH   3   6
ENDBRANCH   1   2
BRANCH   1  25
ATOM     25  C   UNL A   1      39.884  21.146  26.422  1.00  0.00     0.042 C 
BRANCH  25  26
ATOM     26  C   UNL A   1      41.205  21.928  26.157  1.00  0.00     0.118 C 
BRANCH  26  27
ATOM     27  N   UNL A   1      41.114  23.438  25.972  1.00  0.00    -0.352 N 
ATOM     28  C   UNL A   1      42.041  24.507  26.113  1.00  0.00     0.251 C 
ATOM     29  H   UNL A   1      40.218  23.738  25.693  1.00  0.00     0.163 HD
ATOM     30  O   UNL A   1      42.703  24.845  25.133  1.00  0.00    -0.269 OA
BRANCH  28  31
ATOM     31  C   UNL A   1      42.003  25.493  27.309  1.00  0.00     0.039 A 
ATOM     32  C   UNL A   1      42.678  26.726  27.322  1.00  0.00     0.014 A 
ATOM     33  C   UNL A   1      41.279  25.230  28.466  1.00  0.00     0.014 A 
ATOM     34  C   UNL A   1      42.484  27.699  28.374  1.00  0.00     0.010 A 
ATOM     35  C   UNL A   1      40.944  26.257  29.399  1.00  0.00     0.010 A 
ATOM     36  C   UNL A   1      41.545  27.527  29.413  1.00  0.00    -0.014 A 
BRANCH  36  37
ATOM     37  C   UNL A   1      41.214  28.572  30.515  1.00  0.00     0.031 A 
ATOM     38  C   UNL A   1      41.988  28.608  31.852  1.00  0.00     0.074 A 
ATOM     39  C   UNL A   1      40.186  29.464  30.443  1.00  0.00     0.049 A 
ATOM     40  N   UNL A   1      41.741  29.282  32.960  1.00  0.00    -0.248 NA
ATOM     41  C   UNL A   1      43.150  27.721  31.976  1.00  0.00     0.031 C 
ATOM     42  C   UNL A   1      39.235  29.600  29.342  1.00  0.00     0.029 A 
ATOM     43  N   UNL A   1      39.752  30.432  31.347  1.00  0.00    -0.354 N 
ATOM     44  C   UNL A   1      42.659  28.829  33.912  1.00  0.00     0.074 A 
ATOM     45  C   UNL A   1      43.390  27.754  33.278  1.00  0.00     0.031 C 
ATOM     46  C   UNL A   1      38.369  30.596  29.609  1.00  0.00     0.029 A 
ATOM     47  C   UNL A   1      38.659  31.167  30.924  1.00  0.00     0.049 A 
ATOM     48  H   UNL A   1      40.189  30.581  32.216  1.00  0.00     0.167 HD
ATOM     49  C   UNL A   1      42.945  29.276  35.165  1.00  0.00     0.037 A 
ATOM     50  C   UNL A   1      37.954  32.177  31.497  1.00  0.00     0.037 A 
ATOM     51  C   UNL A   1      42.347  30.423  35.802  1.00  0.00     0.049 A 
ATOM     52  C   UNL A   1      38.319  32.723  32.862  1.00  0.00     0.074 A 
ATOM     53  C   UNL A   1      42.686  31.009  37.014  1.00  0.00     0.029 A 
ATOM     54  N   UNL A   1      41.307  31.173  35.282  1.00  0.00    -0.354 N 
ATOM     55  N   UNL A   1      39.249  32.322  33.692  1.00  0.00    -0.248 NA
ATOM     56  C   UNL A   1      37.537  33.871  33.363  1.00  0.00     0.031 C 
ATOM     57  C   UNL A   1      41.823  32.086  37.246  1.00  0.00     0.029 A 
ATOM     58  C   UNL A   1      40.981  32.203  36.154  1.00  0.00     0.049 A 
ATOM     59  H   UNL A   1      40.862  31.000  34.422  1.00  0.00     0.167 HD
ATOM     60  C   UNL A   1      39.187  33.184  34.788  1.00  0.00     0.074 A 
ATOM     61  C   UNL A   1      38.132  34.133  34.519  1.00  0.00     0.031 C 
ATOM     62  C   UNL A   1      39.948  33.178  35.910  1.00  0.00     0.037 A 
BRANCH  49  63
ATOM     63  C   UNL A   1      44.013  28.534  35.943  1.00  0.00     0.058 A 
ATOM     64  C   UNL A   1      43.696  27.485  36.823  1.00  0.00     0.135 A 
ATOM     65  C   UNL A   1      45.372  28.872  35.807  1.00  0.00     0.135 A 
ATOM     66  F   UNL A   1      42.418  27.104  36.988  1.00  0.00    -0.206 F 
ATOM     67  C   UNL A   1      44.666  26.867  37.606  1.00  0.00     0.059 A 
ATOM     68  C   UNL A   1      46.366  28.233  36.546  1.00  0.00     0.059 A 
ATOM     69  F   UNL A   1      45.747  29.840  34.955  1.00  0.00    -0.206 F 
ATOM     70  C   UNL A   1      45.997  27.258  37.470  1.00  0.00     0.060 A 
BRANCH  70  71
ATOM     71  S   UNL A   1      47.232  26.490  38.538  1.00  0.00     0.124 S 
ATOM     72  O   UNL A   1      46.662  26.733  39.860  1.00  0.00    -0.237 OA
ATOM     73  O   UNL A   1      47.216  25.101  38.090  1.00  0.00    -0.237 OA
ATOM     74  O   UNL A   1      48.453  27.231  38.234  1.00  0.00    -0.744 OA
ENDBRANCH  70  71
ENDBRANCH  49  63
BRANCH  50  75
ATOM     75  C   UNL A   1      36.815  32.802  30.753  1.00  0.00     0.058 A 
ATOM     76  C   UNL A   1      35.484  32.461  31.049  1.00  0.00     0.135 A 
ATOM     77  C   UNL A   1      37.028  33.744  29.733  1.00  0.00     0.135 A 
ATOM     78  F   UNL A   1      35.223  31.537  31.986  1.00  0.00    -0.206 F 
ATOM     79  C   UNL A   1      34.409  33.035  30.374  1.00  0.00     0.059 A 
ATOM     80  C   UNL A   1      35.969  34.350  29.061  1.00  0.00     0.059 A 
ATOM     81  F   UNL A   1      38.278  34.101  29.401  1.00  0.00    -0.206 F 
ATOM     82  C   UNL A   1      34.662  33.993  29.390  1.00  0.00     0.060 A 
BRANCH  82  83
ATOM     83  S   UNL A   1      33.255  34.810  28.602  1.00  0.00     0.124 S 
ATOM     84  O   UNL A   1      32.419  35.139  29.746  1.00  0.00    -0.237 OA
ATOM     85  O   UNL A   1      33.893  35.933  27.927  1.00  0.00    -0.237 OA
ATOM     86  O   UNL A   1      32.726  33.773  27.709  1.00  0.00    -0.744 OA
ENDBRANCH  82  83
ENDBRANCH  50  75
BRANCH  62  87
ATOM     87  C   UNL A   1      39.729  34.257  36.944  1.00  0.00     0.058 A 
ATOM     88  C   UNL A   1      38.961  34.040  38.099  1.00  0.00     0.135 A 
ATOM     89  C   UNL A   1      40.367  35.505  36.817  1.00  0.00     0.135 A 
ATOM     90  F   UNL A   1      38.326  32.871  38.278  1.00  0.00    -0.206 F 
ATOM     91  C   UNL A   1      38.818  35.022  39.079  1.00  0.00     0.059 A 
ATOM     92  C   UNL A   1      40.259  36.491  37.795  1.00  0.00     0.059 A 
ATOM     93  F   UNL A   1      41.125  35.768  35.741  1.00  0.00    -0.206 F 
ATOM     94  C   UNL A   1      39.475  36.244  38.920  1.00  0.00     0.060 A 
BRANCH  94  95
ATOM     95  S   UNL A   1      39.317  37.493  40.217  1.00  0.00     0.124 S 
ATOM     96  O   UNL A   1      40.685  37.986  40.323  1.00  0.00    -0.237 OA
ATOM     97  O   UNL A   1      38.351  38.423  39.640  1.00  0.00    -0.237 OA
ATOM     98  O   UNL A   1      38.835  36.732  41.367  1.00  0.00    -0.744 OA
ENDBRANCH  94  95
ENDBRANCH  62  87
ENDBRANCH  36  37
ENDBRANCH  28  31
ENDBRANCH  26  27
ENDBRANCH  25  26
ENDBRANCH   1  25
TORSDOF 17
ENDMDL
