MODEL 1
REMARK VINA RESULT:     -11.9      0.000      0.000
REMARK SMILES Cc1nn(C)c(=O)c(C(=O)N2CCCC[C@H]2C(=O)NCCCNC(=O)c2ccc(-c3c4nc(c(-c5c(F)cc(S(=O)(=O)[O-])cc5F)c5ccc([nH]5)c(-c5c(F)cc(S(=O)(=O)[O-])cc5F)c5nc(c(-c6c(F)cc(S(=O)(=O)[O-])cc6F)c6ccc3[nH]6)C=C5)C=C4)cc2)c1C
REMARK SMILES IDX 21 1 20 2 19 3 17 4 18 5 16 7 11 8 12 9 13 10 15 11 14 12
REMARK SMILES IDX 9 13 10 14 8 15 1 16 2 17 3 18 92 19 4 20 93 21 5 22 6 23
REMARK SMILES IDX 7 24 22 25 23 26 24 27 25 29 26 30 27 31 91 32 28 33 90 34
REMARK SMILES IDX 29 35 30 36 31 37 84 38 32 39 89 40 83 41 85 42 33 43 88 44
REMARK SMILES IDX 82 45 81 46 34 48 68 49 47 50 67 51 48 52 51 53 66 54 86 55
REMARK SMILES IDX 49 56 50 57 65 59 87 60 52 61 35 62 36 63 45 64 37 65 38 66
REMARK SMILES IDX 44 67 46 68 39 69 40 70 41 71 42 72 43 73 69 74 70 75 79 76
REMARK SMILES IDX 71 77 72 78 78 79 80 80 73 81 74 82 75 83 76 84 77 85 53 86
REMARK SMILES IDX 54 87 63 88 55 89 56 90 62 91 64 92 57 93 58 94 59 95 60 96
REMARK SMILES IDX 61 97
REMARK H PARENT 19 6 23 28 85 47 51 58
REMARK Flexibility Score: inf
ROOT
ATOM      1  C   UNL A   1      32.755  28.067  25.665  1.00  0.00     0.042 C 
ENDROOT
BRANCH   1   2
ATOM      2  C   UNL A   1      33.466  27.699  24.365  1.00  0.00     0.117 C 
BRANCH   2   3
ATOM      3  N   UNL A   1      32.620  27.629  23.185  1.00  0.00    -0.354 N 
ATOM      4  C   UNL A   1      31.788  26.698  22.652  1.00  0.00     0.242 C 
ATOM      5  O   UNL A   1      31.049  27.127  21.750  1.00  0.00    -0.273 OA
ATOM      6  H   UNL A   1      32.659  28.451  22.646  1.00  0.00     0.163 HD
BRANCH   4   7
ATOM      7  C   UNL A   1      31.586  25.226  23.132  1.00  0.00     0.174 C 
ATOM      8  N   UNL A   1      32.538  24.574  24.051  1.00  0.00    -0.326 N 
ATOM      9  C   UNL A   1      32.293  24.669  25.500  1.00  0.00     0.120 C 
ATOM     10  C   UNL A   1      30.865  24.933  25.984  1.00  0.00     0.022 C 
ATOM     11  C   UNL A   1      30.133  25.085  23.614  1.00  0.00     0.035 C 
ATOM     12  C   UNL A   1      29.955  25.657  25.008  1.00  0.00     0.004 C 
BRANCH   8  13
ATOM     13  C   UNL A   1      33.685  23.845  23.699  1.00  0.00     0.260 C 
ATOM     14  O   UNL A   1      34.346  24.182  22.709  1.00  0.00    -0.269 OA
BRANCH  13  15
ATOM     15  C   UNL A   1      34.192  22.626  24.426  1.00  0.00     0.111 A 
ATOM     16  C   UNL A   1      33.892  18.849  24.683  1.00  0.00     0.069 C 
ATOM     17  C   UNL A   1      34.506  20.234  24.685  1.00  0.00     0.062 A 
ATOM     18  N   UNL A   1      35.746  20.313  25.039  1.00  0.00    -0.175 NA
ATOM     19  C   UNL A   1      33.682  21.393  24.231  1.00  0.00    -0.010 A 
ATOM     20  N   UNL A   1      36.304  21.557  25.103  1.00  0.00    -0.232 N 
ATOM     21  C   UNL A   1      32.477  21.034  23.439  1.00  0.00     0.047 C 
ATOM     22  C   UNL A   1      37.738  21.571  25.342  1.00  0.00     0.178 C 
ATOM     23  C   UNL A   1      35.567  22.736  25.033  1.00  0.00     0.279 A 
ATOM     24  O   UNL A   1      35.996  23.823  25.414  1.00  0.00    -0.267 OA
ENDBRANCH  13  15
ENDBRANCH   8  13
ENDBRANCH   4   7
ENDBRANCH   2   3
ENDBRANCH   1   2
BRANCH   1  25
ATOM     25  C   UNL A   1      33.688  28.349  26.838  1.00  0.00     0.118 C 
BRANCH  25  26
ATOM     26  N   UNL A   1      33.582  29.723  27.303  1.00  0.00    -0.352 N 
ATOM     27  C   UNL A   1      34.439  30.476  28.067  1.00  0.00     0.251 C 
ATOM     28  H   UNL A   1      32.761  30.190  27.023  1.00  0.00     0.163 HD
ATOM     29  O   UNL A   1      34.016  31.511  28.579  1.00  0.00    -0.269 OA
BRANCH  27  30
ATOM     30  C   UNL A   1      35.848  30.070  28.283  1.00  0.00     0.039 A 
ATOM     31  C   UNL A   1      36.247  29.675  29.565  1.00  0.00     0.014 A 
ATOM     32  C   UNL A   1      36.800  30.160  27.265  1.00  0.00     0.014 A 
ATOM     33  C   UNL A   1      37.581  29.335  29.812  1.00  0.00     0.010 A 
ATOM     34  C   UNL A   1      38.114  29.749  27.491  1.00  0.00     0.010 A 
ATOM     35  C   UNL A   1      38.523  29.349  28.771  1.00  0.00    -0.014 A 
BRANCH  35  36
ATOM     36  C   UNL A   1      39.945  28.989  29.012  1.00  0.00     0.031 A 
ATOM     37  C   UNL A   1      40.889  30.000  29.607  1.00  0.00     0.074 A 
ATOM     38  C   UNL A   1      40.398  27.770  28.660  1.00  0.00     0.049 A 
ATOM     39  N   UNL A   1      42.174  29.899  29.837  1.00  0.00    -0.248 NA
ATOM     40  C   UNL A   1      40.319  31.308  29.973  1.00  0.00     0.031 C 
ATOM     41  C   UNL A   1      39.589  26.714  28.048  1.00  0.00     0.029 A 
ATOM     42  N   UNL A   1      41.648  27.213  28.760  1.00  0.00    -0.354 N 
ATOM     43  C   UNL A   1      42.564  31.125  30.364  1.00  0.00     0.074 A 
ATOM     44  C   UNL A   1      41.394  31.975  30.368  1.00  0.00     0.031 C 
ATOM     45  C   UNL A   1      40.356  25.628  27.855  1.00  0.00     0.029 A 
ATOM     46  C   UNL A   1      41.717  25.922  28.293  1.00  0.00     0.049 A 
ATOM     47  H   UNL A   1      42.423  27.693  29.133  1.00  0.00     0.167 HD
ATOM     48  C   UNL A   1      43.781  31.499  30.828  1.00  0.00     0.037 A 
ATOM     49  C   UNL A   1      42.760  25.070  28.222  1.00  0.00     0.037 A 
ATOM     50  C   UNL A   1      44.936  30.641  30.845  1.00  0.00     0.049 A 
ATOM     51  C   UNL A   1      44.106  25.515  28.723  1.00  0.00     0.074 A 
ATOM     52  C   UNL A   1      46.202  30.913  31.332  1.00  0.00     0.029 A 
ATOM     53  N   UNL A   1      44.966  29.343  30.356  1.00  0.00    -0.354 N 
ATOM     54  N   UNL A   1      44.448  26.666  29.254  1.00  0.00    -0.248 NA
ATOM     55  C   UNL A   1      45.209  24.549  28.618  1.00  0.00     0.031 C 
ATOM     56  C   UNL A   1      47.009  29.793  31.103  1.00  0.00     0.029 A 
ATOM     57  C   UNL A   1      46.234  28.808  30.512  1.00  0.00     0.049 A 
ATOM     58  H   UNL A   1      44.200  28.872  29.956  1.00  0.00     0.167 HD
ATOM     59  C   UNL A   1      45.799  26.556  29.563  1.00  0.00     0.074 A 
ATOM     60  C   UNL A   1      46.210  25.222  29.172  1.00  0.00     0.031 C 
ATOM     61  C   UNL A   1      46.625  27.476  30.117  1.00  0.00     0.037 A 
BRANCH  48  62
ATOM     62  C   UNL A   1      43.921  32.897  31.368  1.00  0.00     0.058 A 
ATOM     63  C   UNL A   1      44.283  33.970  30.538  1.00  0.00     0.135 A 
ATOM     64  C   UNL A   1      43.655  33.176  32.718  1.00  0.00     0.135 A 
ATOM     65  F   UNL A   1      44.563  33.760  29.243  1.00  0.00    -0.206 F 
ATOM     66  C   UNL A   1      44.405  35.265  31.034  1.00  0.00     0.059 A 
ATOM     67  C   UNL A   1      43.744  34.468  33.230  1.00  0.00     0.059 A 
ATOM     68  F   UNL A   1      43.305  32.188  33.557  1.00  0.00    -0.206 F 
ATOM     69  C   UNL A   1      44.134  35.503  32.381  1.00  0.00     0.060 A 
BRANCH  69  70
ATOM     70  S   UNL A   1      44.299  37.190  33.003  1.00  0.00     0.124 S 
ATOM     71  O   UNL A   1      43.146  37.285  33.895  1.00  0.00    -0.237 OA
ATOM     72  O   UNL A   1      45.603  37.157  33.654  1.00  0.00    -0.237 OA
ATOM     73  O   UNL A   1      44.224  38.008  31.795  1.00  0.00    -0.744 OA
ENDBRANCH  69  70
ENDBRANCH  48  62
BRANCH  49  74
ATOM     74  C   UNL A   1      42.556  23.697  27.688  1.00  0.00     0.058 A 
ATOM     75  C   UNL A   1      42.574  23.455  26.307  1.00  0.00     0.135 A 
ATOM     76  C   UNL A   1      42.382  22.597  28.542  1.00  0.00     0.135 A 
ATOM     77  F   UNL A   1      42.727  24.477  25.449  1.00  0.00    -0.206 F 
ATOM     78  C   UNL A   1      42.427  22.174  25.789  1.00  0.00     0.059 A 
ATOM     79  C   UNL A   1      42.256  21.301  28.048  1.00  0.00     0.059 A 
ATOM     80  F   UNL A   1      42.371  22.773  29.872  1.00  0.00    -0.206 F 
ATOM     81  C   UNL A   1      42.276  21.101  26.669  1.00  0.00     0.060 A 
BRANCH  81  82
ATOM     82  S   UNL A   1      42.160  19.434  25.983  1.00  0.00     0.124 S 
ATOM     83  O   UNL A   1      43.040  19.529  24.824  1.00  0.00    -0.237 OA
ATOM     84  O   UNL A   1      42.648  18.615  27.090  1.00  0.00    -0.237 OA
ATOM     85  O   UNL A   1      40.738  19.290  25.686  1.00  0.00    -0.744 OA
ENDBRANCH  81  82
ENDBRANCH  49  74
BRANCH  61  86
ATOM     86  C   UNL A   1      48.056  27.078  30.350  1.00  0.00     0.058 A 
ATOM     87  C   UNL A   1      49.060  27.378  29.418  1.00  0.00     0.135 A 
ATOM     88  C   UNL A   1      48.438  26.460  31.552  1.00  0.00     0.135 A 
ATOM     89  F   UNL A   1      48.747  27.962  28.250  1.00  0.00    -0.206 F 
ATOM     90  C   UNL A   1      50.394  27.069  29.664  1.00  0.00     0.059 A 
ATOM     91  C   UNL A   1      49.768  26.165  31.830  1.00  0.00     0.059 A 
ATOM     92  F   UNL A   1      47.516  26.161  32.481  1.00  0.00    -0.206 F 
ATOM     93  C   UNL A   1      50.740  26.468  30.876  1.00  0.00     0.060 A 
BRANCH  93  94
ATOM     94  S   UNL A   1      52.481  26.122  31.202  1.00  0.00     0.124 S 
ATOM     95  O   UNL A   1      52.859  27.267  32.024  1.00  0.00    -0.237 OA
ATOM     96  O   UNL A   1      52.419  24.838  31.893  1.00  0.00    -0.237 OA
ATOM     97  O   UNL A   1      53.077  26.083  29.870  1.00  0.00    -0.744 OA
ENDBRANCH  93  94
ENDBRANCH  61  86
ENDBRANCH  35  36
ENDBRANCH  27  30
ENDBRANCH  25  26
ENDBRANCH   1  25
TORSDOF 15
ENDMDL
MODEL 2
REMARK VINA RESULT:     -11.9      4.809     10.618
REMARK SMILES Cc1nn(C)c(=O)c(C(=O)N2CCCC[C@H]2C(=O)NCCCNC(=O)c2ccc(-c3c4nc(c(-c5c(F)cc(S(=O)(=O)[O-])cc5F)c5ccc([nH]5)c(-c5c(F)cc(S(=O)(=O)[O-])cc5F)c5nc(c(-c6c(F)cc(S(=O)(=O)[O-])cc6F)c6ccc3[nH]6)C=C5)C=C4)cc2)c1C
REMARK SMILES IDX 21 1 20 2 19 3 17 4 18 5 16 7 11 8 12 9 13 10 15 11 14 12
REMARK SMILES IDX 9 13 10 14 8 15 1 16 2 17 3 18 92 19 4 20 93 21 5 22 6 23
REMARK SMILES IDX 7 24 22 25 23 26 24 27 25 29 26 30 27 31 91 32 28 33 90 34
REMARK SMILES IDX 29 35 30 36 31 37 84 38 32 39 89 40 83 41 85 42 33 43 88 44
REMARK SMILES IDX 82 45 81 46 34 48 68 49 47 50 67 51 48 52 51 53 66 54 86 55
REMARK SMILES IDX 49 56 50 57 65 59 87 60 52 61 35 62 36 63 45 64 37 65 38 66
REMARK SMILES IDX 44 67 46 68 39 69 40 70 41 71 42 72 43 73 69 74 70 75 79 76
REMARK SMILES IDX 71 77 72 78 78 79 80 80 73 81 74 82 75 83 76 84 77 85 53 86
REMARK SMILES IDX 54 87 63 88 55 89 56 90 62 91 64 92 57 93 58 94 59 95 60 96
REMARK SMILES IDX 61 97
REMARK H PARENT 19 6 23 28 85 47 51 58
REMARK Flexibility Score: inf
ROOT
ATOM      1  C   UNL A   1      37.479  22.907  25.863  1.00  0.00     0.042 C 
ENDROOT
BRANCH   1   2
ATOM      2  C   UNL A   1      37.078  22.923  24.391  1.00  0.00     0.117 C 
BRANCH   2   3
ATOM      3  N   UNL A   1      35.743  22.424  24.098  1.00  0.00    -0.354 N 
ATOM      4  C   UNL A   1      34.482  22.813  24.414  1.00  0.00     0.242 C 
ATOM      5  O   UNL A   1      33.592  22.251  23.753  1.00  0.00    -0.273 OA
ATOM      6  H   UNL A   1      35.759  21.615  23.541  1.00  0.00     0.163 HD
BRANCH   4   7
ATOM      7  C   UNL A   1      34.061  23.949  25.400  1.00  0.00     0.174 C 
ATOM      8  N   UNL A   1      32.893  24.809  25.136  1.00  0.00    -0.326 N 
ATOM      9  C   UNL A   1      31.582  24.398  25.664  1.00  0.00     0.120 C 
ATOM     10  C   UNL A   1      31.544  23.454  26.868  1.00  0.00     0.022 C 
ATOM     11  C   UNL A   1      34.026  23.351  26.816  1.00  0.00     0.035 C 
ATOM     12  C   UNL A   1      32.754  22.556  27.049  1.00  0.00     0.004 C 
BRANCH   8  13
ATOM     13  C   UNL A   1      32.881  26.018  24.422  1.00  0.00     0.260 C 
ATOM     14  O   UNL A   1      33.613  26.154  23.433  1.00  0.00    -0.269 OA
BRANCH  13  15
ATOM     15  C   UNL A   1      32.050  27.225  24.776  1.00  0.00     0.111 A 
ATOM     16  C   UNL A   1      31.999  30.444  26.788  1.00  0.00     0.069 C 
ATOM     17  C   UNL A   1      31.750  29.464  25.661  1.00  0.00     0.062 A 
ATOM     18  N   UNL A   1      30.982  29.869  24.706  1.00  0.00    -0.175 NA
ATOM     19  C   UNL A   1      32.439  28.140  25.686  1.00  0.00    -0.010 A 
ATOM     20  N   UNL A   1      30.697  28.983  23.707  1.00  0.00    -0.232 N 
ATOM     21  C   UNL A   1      33.612  28.061  26.595  1.00  0.00     0.047 C 
ATOM     22  C   UNL A   1      29.970  29.544  22.581  1.00  0.00     0.178 C 
ATOM     23  C   UNL A   1      30.997  27.624  23.776  1.00  0.00     0.279 A 
ATOM     24  O   UNL A   1      30.465  26.780  23.057  1.00  0.00    -0.267 OA
ENDBRANCH  13  15
ENDBRANCH   8  13
ENDBRANCH   4   7
ENDBRANCH   2   3
ENDBRANCH   1   2
BRANCH   1  25
ATOM     25  C   UNL A   1      38.266  24.132  26.318  1.00  0.00     0.118 C 
BRANCH  25  26
ATOM     26  N   UNL A   1      39.696  23.971  26.109  1.00  0.00    -0.352 N 
ATOM     27  C   UNL A   1      40.752  24.747  26.521  1.00  0.00     0.251 C 
ATOM     28  H   UNL A   1      39.949  23.175  25.588  1.00  0.00     0.163 HD
ATOM     29  O   UNL A   1      41.847  24.582  25.987  1.00  0.00    -0.269 OA
BRANCH  27  30
ATOM     30  C   UNL A   1      40.597  25.768  27.584  1.00  0.00     0.039 A 
ATOM     31  C   UNL A   1      41.504  26.832  27.635  1.00  0.00     0.014 A 
ATOM     32  C   UNL A   1      39.629  25.642  28.584  1.00  0.00     0.014 A 
ATOM     33  C   UNL A   1      41.415  27.783  28.656  1.00  0.00     0.010 A 
ATOM     34  C   UNL A   1      39.492  26.630  29.559  1.00  0.00     0.010 A 
ATOM     35  C   UNL A   1      40.395  27.702  29.617  1.00  0.00    -0.014 A 
BRANCH  35  36
ATOM     36  C   UNL A   1      40.281  28.704  30.710  1.00  0.00     0.031 A 
ATOM     37  C   UNL A   1      41.171  28.604  31.920  1.00  0.00     0.074 A 
ATOM     38  C   UNL A   1      39.352  29.677  30.634  1.00  0.00     0.049 A 
ATOM     39  N   UNL A   1      41.184  29.342  33.001  1.00  0.00    -0.248 NA
ATOM     40  C   UNL A   1      42.165  27.518  31.927  1.00  0.00     0.031 C 
ATOM     41  C   UNL A   1      38.412  29.862  29.527  1.00  0.00     0.029 A 
ATOM     42  N   UNL A   1      39.043  30.692  31.504  1.00  0.00    -0.354 N 
ATOM     43  C   UNL A   1      42.175  28.807  33.816  1.00  0.00     0.074 A 
ATOM     44  C   UNL A   1      42.705  27.648  33.131  1.00  0.00     0.031 C 
ATOM     45  C   UNL A   1      37.651  30.941  29.772  1.00  0.00     0.029 A 
ATOM     46  C   UNL A   1      38.022  31.503  31.067  1.00  0.00     0.049 A 
ATOM     47  H   UNL A   1      39.509  30.827  32.361  1.00  0.00     0.167 HD
ATOM     48  C   UNL A   1      42.623  29.255  35.013  1.00  0.00     0.037 A 
ATOM     49  C   UNL A   1      37.447  32.576  31.645  1.00  0.00     0.037 A 
ATOM     50  C   UNL A   1      42.110  30.424  35.679  1.00  0.00     0.049 A 
ATOM     51  C   UNL A   1      37.946  33.045  32.984  1.00  0.00     0.074 A 
ATOM     52  C   UNL A   1      42.525  30.985  36.874  1.00  0.00     0.029 A 
ATOM     53  N   UNL A   1      41.071  31.213  35.206  1.00  0.00    -0.354 N 
ATOM     54  N   UNL A   1      38.912  32.549  33.722  1.00  0.00    -0.248 NA
ATOM     55  C   UNL A   1      37.281  34.217  33.570  1.00  0.00     0.031 C 
ATOM     56  C   UNL A   1      41.712  32.091  37.143  1.00  0.00     0.029 A 
ATOM     57  C   UNL A   1      40.819  32.245  36.095  1.00  0.00     0.049 A 
ATOM     58  H   UNL A   1      40.585  31.062  34.364  1.00  0.00     0.167 HD
ATOM     59  C   UNL A   1      38.982  33.358  34.850  1.00  0.00     0.074 A 
ATOM     60  C   UNL A   1      37.972  34.384  34.692  1.00  0.00     0.031 C 
ATOM     61  C   UNL A   1      39.808  33.259  35.921  1.00  0.00     0.037 A 
BRANCH  48  62
ATOM     62  C   UNL A   1      43.735  28.486  35.674  1.00  0.00     0.058 A 
ATOM     63  C   UNL A   1      43.468  27.446  36.580  1.00  0.00     0.135 A 
ATOM     64  C   UNL A   1      45.078  28.763  35.375  1.00  0.00     0.135 A 
ATOM     65  F   UNL A   1      42.203  27.148  36.914  1.00  0.00    -0.206 F 
ATOM     66  C   UNL A   1      44.494  26.728  37.187  1.00  0.00     0.059 A 
ATOM     67  C   UNL A   1      46.120  28.040  35.950  1.00  0.00     0.059 A 
ATOM     68  F   UNL A   1      45.391  29.747  34.517  1.00  0.00    -0.206 F 
ATOM     69  C   UNL A   1      45.817  27.033  36.866  1.00  0.00     0.060 A 
BRANCH  69  70
ATOM     70  S   UNL A   1      47.132  26.089  37.664  1.00  0.00     0.124 S 
ATOM     71  O   UNL A   1      47.157  24.877  36.849  1.00  0.00    -0.237 OA
ATOM     72  O   UNL A   1      48.282  26.973  37.521  1.00  0.00    -0.237 OA
ATOM     73  O   UNL A   1      46.645  25.914  39.030  1.00  0.00    -0.744 OA
ENDBRANCH  69  70
ENDBRANCH  48  62
BRANCH  49  74
ATOM     74  C   UNL A   1      36.360  33.302  30.936  1.00  0.00     0.058 A 
ATOM     75  C   UNL A   1      35.035  33.227  31.387  1.00  0.00     0.135 A 
ATOM     76  C   UNL A   1      36.626  34.116  29.823  1.00  0.00     0.135 A 
ATOM     77  F   UNL A   1      34.729  32.454  32.442  1.00  0.00    -0.206 F 
ATOM     78  C   UNL A   1      34.010  33.931  30.764  1.00  0.00     0.059 A 
ATOM     79  C   UNL A   1      35.622  34.849  29.197  1.00  0.00     0.059 A 
ATOM     80  F   UNL A   1      37.880  34.232  29.359  1.00  0.00    -0.206 F 
ATOM     81  C   UNL A   1      34.316  34.746  29.673  1.00  0.00     0.060 A 
BRANCH  81  82
ATOM     82  S   UNL A   1      32.987  35.710  28.920  1.00  0.00     0.124 S 
ATOM     83  O   UNL A   1      32.351  34.717  28.061  1.00  0.00    -0.237 OA
ATOM     84  O   UNL A   1      32.217  36.130  30.088  1.00  0.00    -0.237 OA
ATOM     85  O   UNL A   1      33.697  36.782  28.228  1.00  0.00    -0.744 OA
ENDBRANCH  81  82
ENDBRANCH  49  74
BRANCH  61  86
ATOM     86  C   UNL A   1      39.669  34.290  37.006  1.00  0.00     0.058 A 
ATOM     87  C   UNL A   1      38.901  34.045  38.154  1.00  0.00     0.135 A 
ATOM     88  C   UNL A   1      40.372  35.503  36.931  1.00  0.00     0.135 A 
ATOM     89  F   UNL A   1      38.203  32.904  38.271  1.00  0.00    -0.206 F 
ATOM     90  C   UNL A   1      38.826  34.973  39.188  1.00  0.00     0.059 A 
ATOM     91  C   UNL A   1      40.332  36.434  37.964  1.00  0.00     0.059 A 
ATOM     92  F   UNL A   1      41.129  35.781  35.858  1.00  0.00    -0.206 F 
ATOM     93  C   UNL A   1      39.550  36.163  39.087  1.00  0.00     0.060 A 
BRANCH  93  94
ATOM     94  S   UNL A   1      39.485  37.332  40.460  1.00  0.00     0.124 S 
ATOM     95  O   UNL A   1      40.896  37.661  40.634  1.00  0.00    -0.237 OA
ATOM     96  O   UNL A   1      38.647  38.398  39.922  1.00  0.00    -0.237 OA
ATOM     97  O   UNL A   1      38.886  36.556  41.542  1.00  0.00    -0.744 OA
ENDBRANCH  93  94
ENDBRANCH  61  86
ENDBRANCH  35  36
ENDBRANCH  27  30
ENDBRANCH  25  26
ENDBRANCH   1  25
TORSDOF 15
ENDMDL
MODEL 3
REMARK VINA RESULT:     -11.8      2.637      3.526
REMARK SMILES Cc1nn(C)c(=O)c(C(=O)N2CCCC[C@H]2C(=O)NCCCNC(=O)c2ccc(-c3c4nc(c(-c5c(F)cc(S(=O)(=O)[O-])cc5F)c5ccc([nH]5)c(-c5c(F)cc(S(=O)(=O)[O-])cc5F)c5nc(c(-c6c(F)cc(S(=O)(=O)[O-])cc6F)c6ccc3[nH]6)C=C5)C=C4)cc2)c1C
REMARK SMILES IDX 21 1 20 2 19 3 17 4 18 5 16 7 11 8 12 9 13 10 15 11 14 12
REMARK SMILES IDX 9 13 10 14 8 15 1 16 2 17 3 18 92 19 4 20 93 21 5 22 6 23
REMARK SMILES IDX 7 24 22 25 23 26 24 27 25 29 26 30 27 31 91 32 28 33 90 34
REMARK SMILES IDX 29 35 30 36 31 37 84 38 32 39 89 40 83 41 85 42 33 43 88 44
REMARK SMILES IDX 82 45 81 46 34 48 68 49 47 50 67 51 48 52 51 53 66 54 86 55
REMARK SMILES IDX 49 56 50 57 65 59 87 60 52 61 35 62 36 63 45 64 37 65 38 66
REMARK SMILES IDX 44 67 46 68 39 69 40 70 41 71 42 72 43 73 69 74 70 75 79 76
REMARK SMILES IDX 71 77 72 78 78 79 80 80 73 81 74 82 75 83 76 84 77 85 53 86
REMARK SMILES IDX 54 87 63 88 55 89 56 90 62 91 64 92 57 93 58 94 59 95 60 96
REMARK SMILES IDX 61 97
REMARK H PARENT 19 6 23 28 85 47 51 58
REMARK Flexibility Score: inf
ROOT
ATOM      1  C   UNL A   1      33.613  29.586  26.907  1.00  0.00     0.042 C 
ENDROOT
BRANCH   1   2
ATOM      2  C   UNL A   1      32.502  28.638  27.350  1.00  0.00     0.117 C 
BRANCH   2   3
ATOM      3  N   UNL A   1      31.650  28.129  26.286  1.00  0.00    -0.354 N 
ATOM      4  C   UNL A   1      31.809  27.246  25.268  1.00  0.00     0.242 C 
ATOM      5  O   UNL A   1      30.748  26.897  24.722  1.00  0.00    -0.273 OA
ATOM      6  H   UNL A   1      30.747  28.516  26.311  1.00  0.00     0.163 HD
BRANCH   4   7
ATOM      7  C   UNL A   1      33.133  26.553  24.815  1.00  0.00     0.174 C 
ATOM      8  N   UNL A   1      33.157  25.147  24.371  1.00  0.00    -0.326 N 
ATOM      9  C   UNL A   1      32.974  24.858  22.939  1.00  0.00     0.120 C 
ATOM     10  C   UNL A   1      33.301  25.957  21.924  1.00  0.00     0.022 C 
ATOM     11  C   UNL A   1      33.830  27.485  23.811  1.00  0.00     0.035 C 
ATOM     12  C   UNL A   1      33.202  27.383  22.434  1.00  0.00     0.004 C 
BRANCH   8  13
ATOM     13  C   UNL A   1      33.347  24.012  25.175  1.00  0.00     0.260 C 
ATOM     14  O   UNL A   1      32.914  24.003  26.335  1.00  0.00    -0.269 OA
BRANCH  13  15
ATOM     15  C   UNL A   1      34.083  22.765  24.754  1.00  0.00     0.111 A 
ATOM     16  C   UNL A   1      37.442  20.998  24.835  1.00  0.00     0.069 C 
ATOM     17  C   UNL A   1      35.942  21.211  24.853  1.00  0.00     0.062 A 
ATOM     18  N   UNL A   1      35.210  20.147  24.849  1.00  0.00    -0.175 NA
ATOM     19  C   UNL A   1      35.409  22.602  24.932  1.00  0.00    -0.010 A 
ATOM     20  N   UNL A   1      33.856  20.314  24.807  1.00  0.00    -0.232 N 
ATOM     21  C   UNL A   1      36.385  23.623  25.394  1.00  0.00     0.047 C 
ATOM     22  C   UNL A   1      33.084  19.094  24.975  1.00  0.00     0.178 C 
ATOM     23  C   UNL A   1      33.239  21.535  24.543  1.00  0.00     0.279 A 
ATOM     24  O   UNL A   1      32.069  21.633  24.180  1.00  0.00    -0.267 OA
ENDBRANCH  13  15
ENDBRANCH   8  13
ENDBRANCH   4   7
ENDBRANCH   2   3
ENDBRANCH   1   2
BRANCH   1  25
ATOM     25  C   UNL A   1      34.945  29.375  27.622  1.00  0.00     0.118 C 
BRANCH  25  26
ATOM     26  N   UNL A   1      35.070  30.216  28.802  1.00  0.00    -0.352 N 
ATOM     27  C   UNL A   1      36.122  30.389  29.668  1.00  0.00     0.251 C 
ATOM     28  H   UNL A   1      34.270  30.750  29.014  1.00  0.00     0.163 HD
ATOM     29  O   UNL A   1      35.908  30.924  30.754  1.00  0.00    -0.269 OA
BRANCH  27  30
ATOM     30  C   UNL A   1      37.494  29.949  29.320  1.00  0.00     0.039 A 
ATOM     31  C   UNL A   1      38.417  29.740  30.352  1.00  0.00     0.014 A 
ATOM     32  C   UNL A   1      37.909  29.828  27.992  1.00  0.00     0.014 A 
ATOM     33  C   UNL A   1      39.733  29.374  30.053  1.00  0.00     0.010 A 
ATOM     34  C   UNL A   1      39.200  29.389  27.695  1.00  0.00     0.010 A 
ATOM     35  C   UNL A   1      40.132  29.175  28.721  1.00  0.00    -0.014 A 
BRANCH  35  36
ATOM     36  C   UNL A   1      41.525  28.783  28.383  1.00  0.00     0.031 A 
ATOM     37  C   UNL A   1      42.621  29.817  28.384  1.00  0.00     0.074 A 
ATOM     38  C   UNL A   1      41.799  27.511  28.035  1.00  0.00     0.049 A 
ATOM     39  N   UNL A   1      43.882  29.686  28.060  1.00  0.00    -0.248 NA
ATOM     40  C   UNL A   1      42.245  31.184  28.781  1.00  0.00     0.031 C 
ATOM     41  C   UNL A   1      40.819  26.425  27.968  1.00  0.00     0.029 A 
ATOM     42  N   UNL A   1      42.980  26.914  27.670  1.00  0.00    -0.354 N 
ATOM     43  C   UNL A   1      44.445  30.949  28.206  1.00  0.00     0.074 A 
ATOM     44  C   UNL A   1      43.378  31.845  28.592  1.00  0.00     0.031 C 
ATOM     45  C   UNL A   1      41.444  25.290  27.613  1.00  0.00     0.029 A 
ATOM     46  C   UNL A   1      42.859  25.573  27.391  1.00  0.00     0.049 A 
ATOM     47  H   UNL A   1      43.834  27.402  27.613  1.00  0.00     0.167 HD
ATOM     48  C   UNL A   1      45.739  31.323  28.057  1.00  0.00     0.037 A 
ATOM     49  C   UNL A   1      43.782  24.673  26.998  1.00  0.00     0.037 A 
ATOM     50  C   UNL A   1      46.802  30.422  27.696  1.00  0.00     0.049 A 
ATOM     51  C   UNL A   1      45.209  25.115  26.819  1.00  0.00     0.074 A 
ATOM     52  C   UNL A   1      48.152  30.694  27.562  1.00  0.00     0.029 A 
ATOM     53  N   UNL A   1      46.636  29.073  27.416  1.00  0.00    -0.354 N 
ATOM     54  N   UNL A   1      45.730  26.306  27.000  1.00  0.00    -0.248 NA
ATOM     55  C   UNL A   1      46.173  24.094  26.386  1.00  0.00     0.031 C 
ATOM     56  C   UNL A   1      48.797  29.519  27.162  1.00  0.00     0.029 A 
ATOM     57  C   UNL A   1      47.856  28.504  27.090  1.00  0.00     0.049 A 
ATOM     58  H   UNL A   1      45.778  28.592  27.443  1.00  0.00     0.167 HD
ATOM     59  C   UNL A   1      47.085  26.174  26.719  1.00  0.00     0.074 A 
ATOM     60  C   UNL A   1      47.307  24.785  26.370  1.00  0.00     0.031 C 
ATOM     61  C   UNL A   1      48.058  27.118  26.745  1.00  0.00     0.037 A 
BRANCH  48  62
ATOM     62  C   UNL A   1      46.079  32.769  28.299  1.00  0.00     0.058 A 
ATOM     63  C   UNL A   1      46.015  33.719  27.267  1.00  0.00     0.135 A 
ATOM     64  C   UNL A   1      46.436  33.219  29.580  1.00  0.00     0.135 A 
ATOM     65  F   UNL A   1      45.694  33.342  26.019  1.00  0.00    -0.206 F 
ATOM     66  C   UNL A   1      46.321  35.058  27.489  1.00  0.00     0.059 A 
ATOM     67  C   UNL A   1      46.720  34.559  29.832  1.00  0.00     0.059 A 
ATOM     68  F   UNL A   1      46.513  32.354  30.604  1.00  0.00    -0.206 F 
ATOM     69  C   UNL A   1      46.673  35.468  28.775  1.00  0.00     0.060 A 
BRANCH  69  70
ATOM     70  S   UNL A   1      47.066  37.209  29.042  1.00  0.00     0.124 S 
ATOM     71  O   UNL A   1      46.333  37.488  30.274  1.00  0.00    -0.237 OA
ATOM     72  O   UNL A   1      48.519  37.187  29.160  1.00  0.00    -0.237 OA
ATOM     73  O   UNL A   1      46.546  37.864  27.844  1.00  0.00    -0.744 OA
ENDBRANCH  69  70
ENDBRANCH  48  62
BRANCH  49  74
ATOM     74  C   UNL A   1      43.386  23.255  26.786  1.00  0.00     0.058 A 
ATOM     75  C   UNL A   1      43.336  22.711  25.495  1.00  0.00     0.135 A 
ATOM     76  C   UNL A   1      43.093  22.407  27.865  1.00  0.00     0.135 A 
ATOM     77  F   UNL A   1      43.599  23.485  24.430  1.00  0.00    -0.206 F 
ATOM     78  C   UNL A   1      43.009  21.377  25.278  1.00  0.00     0.059 A 
ATOM     79  C   UNL A   1      42.786  21.062  27.676  1.00  0.00     0.059 A 
ATOM     80  F   UNL A   1      43.140  22.876  29.122  1.00  0.00    -0.206 F 
ATOM     81  C   UNL A   1      42.743  20.558  26.377  1.00  0.00     0.060 A 
BRANCH  81  82
ATOM     82  S   UNL A   1      42.392  18.811  26.083  1.00  0.00     0.124 S 
ATOM     83  O   UNL A   1      42.668  18.229  27.392  1.00  0.00    -0.237 OA
ATOM     84  O   UNL A   1      40.988  18.846  25.684  1.00  0.00    -0.237 OA
ATOM     85  O   UNL A   1      43.328  18.451  25.022  1.00  0.00    -0.744 OA
ENDBRANCH  81  82
ENDBRANCH  49  74
BRANCH  61  86
ATOM     86  C   UNL A   1      49.456  26.688  26.401  1.00  0.00     0.058 A 
ATOM     87  C   UNL A   1      50.275  26.040  27.338  1.00  0.00     0.135 A 
ATOM     88  C   UNL A   1      49.955  26.856  25.099  1.00  0.00     0.135 A 
ATOM     89  F   UNL A   1      49.848  25.861  28.599  1.00  0.00    -0.206 F 
ATOM     90  C   UNL A   1      51.543  25.582  27.000  1.00  0.00     0.059 A 
ATOM     91  C   UNL A   1      51.210  26.384  24.731  1.00  0.00     0.059 A 
ATOM     92  F   UNL A   1      49.207  27.461  24.162  1.00  0.00    -0.206 F 
ATOM     93  C   UNL A   1      52.001  25.752  25.691  1.00  0.00     0.060 A 
BRANCH  93  94
ATOM     94  S   UNL A   1      53.628  25.105  25.255  1.00  0.00     0.124 S 
ATOM     95  O   UNL A   1      53.667  25.353  23.817  1.00  0.00    -0.237 OA
ATOM     96  O   UNL A   1      54.519  25.930  26.064  1.00  0.00    -0.237 OA
ATOM     97  O   UNL A   1      53.554  23.701  25.646  1.00  0.00    -0.744 OA
ENDBRANCH  93  94
ENDBRANCH  61  86
ENDBRANCH  35  36
ENDBRANCH  27  30
ENDBRANCH  25  26
ENDBRANCH   1  25
TORSDOF 15
ENDMDL
