MODEL 1
REMARK VINA RESULT:     -11.6      0.000      0.000
REMARK SMILES CC(=O)N[C@H](CC(=O)NCC(=O)NCCCNC(=O)c1ccc(-c2c3nc(c(-c4c(F)cc(S(=O)(=O)[O-])cc4F)c4ccc([nH]4)c(-c4c(F)cc(S(=O)(=O)[O-])cc4F)c4nc(c(-c5c(F)cc(S(=O)(=O)[O-])cc5F)c5ccc2[nH]5)C=C4)C=C3)cc1)c1cccs1
REMARK SMILES IDX 14 1 13 2 11 3 12 4 10 6 9 7 7 8 8 9 6 11 5 12 4 13 1 14
REMARK SMILES IDX 2 15 3 16 86 18 87 19 90 20 88 21 89 22 15 23 16 24 17 25
REMARK SMILES IDX 18 26 19 28 20 29 21 30 85 31 22 32 84 33 23 34 24 35 25 36
REMARK SMILES IDX 78 37 26 38 83 39 77 40 79 41 27 42 82 43 76 44 75 45 28 47
REMARK SMILES IDX 62 48 41 49 61 50 42 51 45 52 60 53 80 54 43 55 44 56 59 58
REMARK SMILES IDX 81 59 46 60 29 61 30 62 39 63 31 64 32 65 38 66 40 67 33 68
REMARK SMILES IDX 34 69 35 70 36 71 37 72 63 73 64 74 73 75 65 76 66 77 72 78
REMARK SMILES IDX 74 79 67 80 68 81 69 82 70 83 71 84 47 85 48 86 57 87 49 88
REMARK SMILES IDX 50 89 56 90 58 91 51 92 52 93 53 94 54 95 55 96
REMARK H PARENT 13 5 9 10 4 17 17 27 79 46 45 57
REMARK Flexibility Score: inf
ROOT
ATOM      1  C   UNL A   1      38.840  21.510  25.852  1.00  0.00     0.117 C 
ENDROOT
BRANCH   1   2
ATOM      2  N   UNL A   1      37.638  22.256  26.134  1.00  0.00    -0.355 N 
ATOM      3  C   UNL A   1      36.338  21.967  25.824  1.00  0.00     0.239 C 
ATOM      4  O   UNL A   1      35.470  22.652  26.375  1.00  0.00    -0.273 OA
ATOM      5  H   UNL A   1      37.774  23.101  26.620  1.00  0.00     0.163 HD
BRANCH   3   6
ATOM      6  C   UNL A   1      35.928  20.738  24.975  1.00  0.00     0.216 C 
BRANCH   6   7
ATOM      7  N   UNL A   1      34.648  20.116  25.281  1.00  0.00    -0.347 N 
ATOM      8  C   UNL A   1      33.394  20.353  24.806  1.00  0.00     0.222 C 
ATOM      9  O   UNL A   1      32.474  19.687  25.285  1.00  0.00    -0.275 OA
ATOM     10  H   UNL A   1      34.697  19.395  25.951  1.00  0.00     0.164 HD
BRANCH   8  11
ATOM     11  C   UNL A   1      33.102  21.437  23.773  1.00  0.00     0.130 C 
BRANCH  11  12
ATOM     12  C   UNL A   1      32.538  22.685  24.455  1.00  0.00     0.131 C 
BRANCH  12  13
ATOM     13  N   UNL A   1      32.621  22.629  25.921  1.00  0.00    -0.348 N 
ATOM     14  C   UNL A   1      30.269  22.899  26.664  1.00  0.00     0.114 C 
ATOM     15  C   UNL A   1      31.738  22.846  26.924  1.00  0.00     0.217 C 
ATOM     16  O   UNL A   1      32.192  22.973  28.062  1.00  0.00    -0.275 OA
ATOM     17  H   UNL A   1      33.516  22.379  26.245  1.00  0.00     0.164 HD
ENDBRANCH  12  13
BRANCH  12  18
ATOM     18  C   UNL A   1      32.909  24.058  23.956  1.00  0.00     0.027 A 
ATOM     19  C   UNL A   1      33.459  25.067  24.734  1.00  0.00     0.017 A 
ATOM     20  S   UNL A   1      32.678  24.598  22.348  1.00  0.00    -0.147 S 
ATOM     21  C   UNL A   1      33.843  26.203  23.973  1.00  0.00     0.012 A 
ATOM     22  C   UNL A   1      33.534  26.049  22.642  1.00  0.00     0.065 A 
ENDBRANCH  12  18
ENDBRANCH  11  12
ENDBRANCH   8  11
ENDBRANCH   6   7
ENDBRANCH   3   6
ENDBRANCH   1   2
BRANCH   1  23
ATOM     23  C   UNL A   1      40.002  21.763  26.785  1.00  0.00     0.042 C 
BRANCH  23  24
ATOM     24  C   UNL A   1      40.135  23.217  27.198  1.00  0.00     0.118 C 
BRANCH  24  25
ATOM     25  N   UNL A   1      40.696  24.071  26.152  1.00  0.00    -0.352 N 
ATOM     26  C   UNL A   1      41.052  25.399  26.173  1.00  0.00     0.251 C 
ATOM     27  H   UNL A   1      40.843  23.620  25.289  1.00  0.00     0.163 HD
ATOM     28  O   UNL A   1      41.382  25.945  25.122  1.00  0.00    -0.269 OA
BRANCH  26  29
ATOM     29  C   UNL A   1      41.003  26.173  27.433  1.00  0.00     0.039 A 
ATOM     30  C   UNL A   1      42.040  27.065  27.724  1.00  0.00     0.014 A 
ATOM     31  C   UNL A   1      39.933  26.044  28.318  1.00  0.00     0.014 A 
ATOM     32  C   UNL A   1      41.946  27.890  28.849  1.00  0.00     0.010 A 
ATOM     33  C   UNL A   1      39.779  26.951  29.358  1.00  0.00     0.010 A 
ATOM     34  C   UNL A   1      40.787  27.880  29.642  1.00  0.00    -0.014 A 
BRANCH  34  35
ATOM     35  C   UNL A   1      40.608  28.833  30.767  1.00  0.00     0.031 A 
ATOM     36  C   UNL A   1      41.455  28.714  32.007  1.00  0.00     0.074 A 
ATOM     37  C   UNL A   1      39.631  29.761  30.700  1.00  0.00     0.049 A 
ATOM     38  N   UNL A   1      41.411  29.419  33.108  1.00  0.00    -0.248 NA
ATOM     39  C   UNL A   1      42.456  27.635  32.032  1.00  0.00     0.031 C 
ATOM     40  C   UNL A   1      38.690  29.924  29.588  1.00  0.00     0.029 A 
ATOM     41  N   UNL A   1      39.264  30.742  31.587  1.00  0.00    -0.354 N 
ATOM     42  C   UNL A   1      42.360  28.861  33.956  1.00  0.00     0.074 A 
ATOM     43  C   UNL A   1      42.917  27.717  33.272  1.00  0.00     0.031 C 
ATOM     44  C   UNL A   1      37.884  30.967  29.840  1.00  0.00     0.029 A 
ATOM     45  C   UNL A   1      38.223  31.525  31.144  1.00  0.00     0.049 A 
ATOM     46  H   UNL A   1      39.704  30.873  32.457  1.00  0.00     0.167 HD
ATOM     47  C   UNL A   1      42.757  29.283  35.180  1.00  0.00     0.037 A 
ATOM     48  C   UNL A   1      37.614  32.578  31.723  1.00  0.00     0.037 A 
ATOM     49  C   UNL A   1      42.226  30.446  35.840  1.00  0.00     0.049 A 
ATOM     50  C   UNL A   1      38.102  33.054  33.063  1.00  0.00     0.074 A 
ATOM     51  C   UNL A   1      42.603  31.000  37.050  1.00  0.00     0.029 A 
ATOM     52  N   UNL A   1      41.202  31.239  35.340  1.00  0.00    -0.354 N 
ATOM     53  N   UNL A   1      39.052  32.556  33.819  1.00  0.00    -0.248 NA
ATOM     54  C   UNL A   1      37.444  34.241  33.623  1.00  0.00     0.031 C 
ATOM     55  C   UNL A   1      41.784  32.106  37.301  1.00  0.00     0.029 A 
ATOM     56  C   UNL A   1      40.926  32.270  36.224  1.00  0.00     0.049 A 
ATOM     57  H   UNL A   1      40.739  31.091  34.484  1.00  0.00     0.167 HD
ATOM     58  C   UNL A   1      39.124  33.385  34.932  1.00  0.00     0.074 A 
ATOM     59  C   UNL A   1      38.134  34.426  34.741  1.00  0.00     0.031 C 
ATOM     60  C   UNL A   1      39.937  33.296  36.015  1.00  0.00     0.037 A 
BRANCH  47  61
ATOM     61  C   UNL A   1      43.831  28.489  35.876  1.00  0.00     0.058 A 
ATOM     62  C   UNL A   1      45.194  28.772  35.689  1.00  0.00     0.135 A 
ATOM     63  C   UNL A   1      43.495  27.452  36.760  1.00  0.00     0.135 A 
ATOM     64  F   UNL A   1      45.574  29.741  34.841  1.00  0.00    -0.206 F 
ATOM     65  C   UNL A   1      46.185  28.035  36.328  1.00  0.00     0.059 A 
ATOM     66  C   UNL A   1      44.469  26.720  37.434  1.00  0.00     0.059 A 
ATOM     67  F   UNL A   1      42.208  27.136  36.975  1.00  0.00    -0.206 F 
ATOM     68  C   UNL A   1      45.813  27.011  37.199  1.00  0.00     0.060 A 
BRANCH  68  69
ATOM     69  S   UNL A   1      47.113  26.068  38.026  1.00  0.00     0.124 S 
ATOM     70  O   UNL A   1      48.187  26.129  37.040  1.00  0.00    -0.237 OA
ATOM     71  O   UNL A   1      47.328  26.840  39.246  1.00  0.00    -0.237 OA
ATOM     72  O   UNL A   1      46.510  24.754  38.218  1.00  0.00    -0.744 OA
ENDBRANCH  68  69
ENDBRANCH  47  61
BRANCH  48  73
ATOM     73  C   UNL A   1      36.509  33.279  31.015  1.00  0.00     0.058 A 
ATOM     74  C   UNL A   1      35.183  33.161  31.458  1.00  0.00     0.135 A 
ATOM     75  C   UNL A   1      36.756  34.093  29.900  1.00  0.00     0.135 A 
ATOM     76  F   UNL A   1      34.896  32.392  32.519  1.00  0.00    -0.206 F 
ATOM     77  C   UNL A   1      34.137  33.807  30.807  1.00  0.00     0.059 A 
ATOM     78  C   UNL A   1      35.729  34.770  29.248  1.00  0.00     0.059 A 
ATOM     79  F   UNL A   1      38.009  34.256  29.450  1.00  0.00    -0.206 F 
ATOM     80  C   UNL A   1      34.421  34.612  29.702  1.00  0.00     0.060 A 
BRANCH  80  81
ATOM     81  S   UNL A   1      33.062  35.484  28.895  1.00  0.00     0.124 S 
ATOM     82  O   UNL A   1      33.778  36.485  28.112  1.00  0.00    -0.237 OA
ATOM     83  O   UNL A   1      32.421  34.416  28.133  1.00  0.00    -0.237 OA
ATOM     84  O   UNL A   1      32.281  35.999  30.016  1.00  0.00    -0.744 OA
ENDBRANCH  80  81
ENDBRANCH  48  73
BRANCH  60  85
ATOM     85  C   UNL A   1      39.809  34.373  37.057  1.00  0.00     0.058 A 
ATOM     86  C   UNL A   1      38.940  34.244  38.150  1.00  0.00     0.135 A 
ATOM     87  C   UNL A   1      40.582  35.542  36.966  1.00  0.00     0.135 A 
ATOM     88  F   UNL A   1      38.177  33.148  38.282  1.00  0.00    -0.206 F 
ATOM     89  C   UNL A   1      38.811  35.254  39.097  1.00  0.00     0.059 A 
ATOM     90  C   UNL A   1      40.491  36.552  37.917  1.00  0.00     0.059 A 
ATOM     91  F   UNL A   1      41.440  35.709  35.947  1.00  0.00    -0.206 F 
ATOM     92  C   UNL A   1      39.587  36.408  38.969  1.00  0.00     0.060 A 
BRANCH  92  93
ATOM     93  S   UNL A   1      39.410  37.714  40.202  1.00  0.00     0.124 S 
ATOM     94  O   UNL A   1      38.274  38.461  39.676  1.00  0.00    -0.237 OA
ATOM     95  O   UNL A   1      39.162  36.957  41.426  1.00  0.00    -0.237 OA
ATOM     96  O   UNL A   1      40.696  38.404  40.151  1.00  0.00    -0.744 OA
ENDBRANCH  92  93
ENDBRANCH  60  85
ENDBRANCH  34  35
ENDBRANCH  26  29
ENDBRANCH  24  25
ENDBRANCH  23  24
ENDBRANCH   1  23
TORSDOF 18
ENDMDL
MODEL 2
REMARK VINA RESULT:     -11.3      5.570     12.089
REMARK SMILES CC(=O)N[C@H](CC(=O)NCC(=O)NCCCNC(=O)c1ccc(-c2c3nc(c(-c4c(F)cc(S(=O)(=O)[O-])cc4F)c4ccc([nH]4)c(-c4c(F)cc(S(=O)(=O)[O-])cc4F)c4nc(c(-c5c(F)cc(S(=O)(=O)[O-])cc5F)c5ccc2[nH]5)C=C4)C=C3)cc1)c1cccs1
REMARK SMILES IDX 14 1 13 2 11 3 12 4 10 6 9 7 7 8 8 9 6 11 5 12 4 13 1 14
REMARK SMILES IDX 2 15 3 16 86 18 87 19 90 20 88 21 89 22 15 23 16 24 17 25
REMARK SMILES IDX 18 26 19 28 20 29 21 30 85 31 22 32 84 33 23 34 24 35 25 36
REMARK SMILES IDX 78 37 26 38 83 39 77 40 79 41 27 42 82 43 76 44 75 45 28 47
REMARK SMILES IDX 62 48 41 49 61 50 42 51 45 52 60 53 80 54 43 55 44 56 59 58
REMARK SMILES IDX 81 59 46 60 29 61 30 62 39 63 31 64 32 65 38 66 40 67 33 68
REMARK SMILES IDX 34 69 35 70 36 71 37 72 63 73 64 74 73 75 65 76 66 77 72 78
REMARK SMILES IDX 74 79 67 80 68 81 69 82 70 83 71 84 47 85 48 86 57 87 49 88
REMARK SMILES IDX 50 89 56 90 58 91 51 92 52 93 53 94 54 95 55 96
REMARK H PARENT 13 5 9 10 4 17 17 27 79 46 45 57
REMARK Flexibility Score: inf
ROOT
ATOM      1  C   UNL A   1      35.096  34.490  28.288  1.00  0.00     0.117 C 
ENDROOT
BRANCH   1   2
ATOM      2  N   UNL A   1      33.810  35.134  28.180  1.00  0.00    -0.355 N 
ATOM      3  C   UNL A   1      33.085  35.802  29.128  1.00  0.00     0.239 C 
ATOM      4  O   UNL A   1      32.119  36.459  28.728  1.00  0.00    -0.273 OA
ATOM      5  H   UNL A   1      33.391  35.085  27.291  1.00  0.00     0.163 HD
BRANCH   3   6
ATOM      6  C   UNL A   1      33.526  35.900  30.610  1.00  0.00     0.216 C 
BRANCH   6   7
ATOM      7  N   UNL A   1      33.334  34.720  31.440  1.00  0.00    -0.347 N 
ATOM      8  C   UNL A   1      34.048  34.232  32.492  1.00  0.00     0.222 C 
ATOM      9  O   UNL A   1      33.669  33.168  32.986  1.00  0.00    -0.275 OA
ATOM     10  H   UNL A   1      32.548  34.178  31.199  1.00  0.00     0.164 HD
BRANCH   8  11
ATOM     11  C   UNL A   1      35.308  34.917  33.013  1.00  0.00     0.130 C 
BRANCH  11  12
ATOM     12  C   UNL A   1      36.545  34.076  32.689  1.00  0.00     0.131 C 
BRANCH  12  13
ATOM     13  N   UNL A   1      37.426  34.706  31.697  1.00  0.00    -0.348 N 
ATOM     14  C   UNL A   1      37.953  32.870  30.113  1.00  0.00     0.114 C 
ATOM     15  C   UNL A   1      38.168  34.241  30.665  1.00  0.00     0.217 C 
ATOM     16  O   UNL A   1      39.009  35.000  30.183  1.00  0.00    -0.275 OA
ATOM     17  H   UNL A   1      37.492  35.682  31.808  1.00  0.00     0.164 HD
ENDBRANCH  12  13
BRANCH  12  18
ATOM     18  C   UNL A   1      37.354  33.456  33.799  1.00  0.00     0.027 A 
ATOM     19  C   UNL A   1      37.261  32.133  34.209  1.00  0.00     0.017 A 
ATOM     20  S   UNL A   1      38.495  34.301  34.753  1.00  0.00    -0.147 S 
ATOM     21  C   UNL A   1      38.241  31.785  35.176  1.00  0.00     0.012 A 
ATOM     22  C   UNL A   1      39.027  32.863  35.511  1.00  0.00     0.065 A 
ENDBRANCH  12  18
ENDBRANCH  11  12
ENDBRANCH   8  11
ENDBRANCH   6   7
ENDBRANCH   3   6
ENDBRANCH   1   2
BRANCH   1  23
ATOM     23  C   UNL A   1      35.134  33.032  27.897  1.00  0.00     0.042 C 
BRANCH  23  24
ATOM     24  C   UNL A   1      34.525  32.114  28.940  1.00  0.00     0.118 C 
BRANCH  24  25
ATOM     25  N   UNL A   1      34.123  30.812  28.409  1.00  0.00    -0.352 N 
ATOM     26  C   UNL A   1      34.874  29.712  28.067  1.00  0.00     0.251 C 
ATOM     27  H   UNL A   1      33.154  30.706  28.273  1.00  0.00     0.163 HD
ATOM     28  O   UNL A   1      34.324  28.765  27.508  1.00  0.00    -0.269 OA
BRANCH  26  29
ATOM     29  C   UNL A   1      36.329  29.679  28.332  1.00  0.00     0.039 A 
ATOM     30  C   UNL A   1      36.781  29.302  29.600  1.00  0.00     0.014 A 
ATOM     31  C   UNL A   1      37.251  29.996  27.335  1.00  0.00     0.014 A 
ATOM     32  C   UNL A   1      38.152  29.150  29.827  1.00  0.00     0.010 A 
ATOM     33  C   UNL A   1      38.598  29.720  27.522  1.00  0.00     0.010 A 
ATOM     34  C   UNL A   1      39.068  29.301  28.773  1.00  0.00    -0.014 A 
BRANCH  34  35
ATOM     35  C   UNL A   1      40.516  29.022  28.956  1.00  0.00     0.031 A 
ATOM     36  C   UNL A   1      41.084  27.677  28.589  1.00  0.00     0.074 A 
ATOM     37  C   UNL A   1      41.304  29.960  29.521  1.00  0.00     0.049 A 
ATOM     38  N   UNL A   1      42.307  27.233  28.722  1.00  0.00    -0.248 NA
ATOM     39  C   UNL A   1      40.147  26.683  28.038  1.00  0.00     0.031 C 
ATOM     40  C   UNL A   1      40.855  31.272  29.996  1.00  0.00     0.029 A 
ATOM     41  N   UNL A   1      42.648  29.954  29.795  1.00  0.00    -0.354 N 
ATOM     42  C   UNL A   1      42.283  25.912  28.290  1.00  0.00     0.074 A 
ATOM     43  C   UNL A   1      40.911  25.603  27.955  1.00  0.00     0.031 C 
ATOM     44  C   UNL A   1      41.910  31.958  30.462  1.00  0.00     0.029 A 
ATOM     45  C   UNL A   1      43.103  31.125  30.356  1.00  0.00     0.049 A 
ATOM     46  H   UNL A   1      43.233  29.184  29.608  1.00  0.00     0.167 HD
ATOM     47  C   UNL A   1      43.313  25.045  28.151  1.00  0.00     0.037 A 
ATOM     48  C   UNL A   1      44.343  31.489  30.736  1.00  0.00     0.037 A 
ATOM     49  C   UNL A   1      44.682  25.372  28.450  1.00  0.00     0.049 A 
ATOM     50  C   UNL A   1      45.478  30.524  30.532  1.00  0.00     0.074 A 
ATOM     51  C   UNL A   1      45.812  24.590  28.282  1.00  0.00     0.029 A 
ATOM     52  N   UNL A   1      45.109  26.583  28.975  1.00  0.00    -0.354 N 
ATOM     53  N   UNL A   1      45.446  29.303  30.052  1.00  0.00    -0.248 NA
ATOM     54  C   UNL A   1      46.819  30.990  30.907  1.00  0.00     0.031 C 
ATOM     55  C   UNL A   1      46.917  25.315  28.741  1.00  0.00     0.029 A 
ATOM     56  C   UNL A   1      46.483  26.566  29.150  1.00  0.00     0.049 A 
ATOM     57  H   UNL A   1      44.523  27.343  29.192  1.00  0.00     0.167 HD
ATOM     58  C   UNL A   1      46.765  28.864  30.045  1.00  0.00     0.074 A 
ATOM     59  C   UNL A   1      47.571  29.958  30.550  1.00  0.00     0.031 C 
ATOM     60  C   UNL A   1      47.267  27.666  29.654  1.00  0.00     0.037 A 
BRANCH  47  61
ATOM     61  C   UNL A   1      42.998  23.665  27.637  1.00  0.00     0.058 A 
ATOM     62  C   UNL A   1      42.652  22.616  28.505  1.00  0.00     0.135 A 
ATOM     63  C   UNL A   1      43.016  23.393  26.260  1.00  0.00     0.135 A 
ATOM     64  F   UNL A   1      42.637  22.815  29.833  1.00  0.00    -0.206 F 
ATOM     65  C   UNL A   1      42.366  21.342  28.030  1.00  0.00     0.059 A 
ATOM     66  C   UNL A   1      42.704  22.132  25.760  1.00  0.00     0.059 A 
ATOM     67  F   UNL A   1      43.342  24.356  25.384  1.00  0.00    -0.206 F 
ATOM     68  C   UNL A   1      42.395  21.108  26.655  1.00  0.00     0.060 A 
BRANCH  68  69
ATOM     69  S   UNL A   1      42.014  19.449  26.054  1.00  0.00     0.124 S 
ATOM     70  O   UNL A   1      42.402  18.630  27.199  1.00  0.00    -0.237 OA
ATOM     71  O   UNL A   1      40.581  19.533  25.792  1.00  0.00    -0.237 OA
ATOM     72  O   UNL A   1      42.857  19.313  24.871  1.00  0.00    -0.744 OA
ENDBRANCH  68  69
ENDBRANCH  47  61
BRANCH  48  73
ATOM     73  C   UNL A   1      44.580  32.843  31.304  1.00  0.00     0.058 A 
ATOM     74  C   UNL A   1      44.857  33.935  30.467  1.00  0.00     0.135 A 
ATOM     75  C   UNL A   1      44.515  33.077  32.685  1.00  0.00     0.135 A 
ATOM     76  F   UNL A   1      44.931  33.761  29.139  1.00  0.00    -0.206 F 
ATOM     77  C   UNL A   1      45.083  35.208  30.982  1.00  0.00     0.059 A 
ATOM     78  C   UNL A   1      44.712  34.347  33.221  1.00  0.00     0.059 A 
ATOM     79  F   UNL A   1      44.232  32.071  33.526  1.00  0.00    -0.206 F 
ATOM     80  C   UNL A   1      45.006  35.404  32.361  1.00  0.00     0.060 A 
BRANCH  80  81
ATOM     81  S   UNL A   1      45.254  37.070  33.013  1.00  0.00     0.124 S 
ATOM     82  O   UNL A   1      46.685  37.067  33.291  1.00  0.00    -0.237 OA
ATOM     83  O   UNL A   1      44.822  37.905  31.897  1.00  0.00    -0.237 OA
ATOM     84  O   UNL A   1      44.383  37.104  34.185  1.00  0.00    -0.744 OA
ENDBRANCH  80  81
ENDBRANCH  48  73
BRANCH  60  85
ATOM     85  C   UNL A   1      48.758  27.492  29.726  1.00  0.00     0.058 A 
ATOM     86  C   UNL A   1      49.605  27.941  28.702  1.00  0.00     0.135 A 
ATOM     87  C   UNL A   1      49.347  26.881  30.845  1.00  0.00     0.135 A 
ATOM     88  F   UNL A   1      49.092  28.528  27.609  1.00  0.00    -0.206 F 
ATOM     89  C   UNL A   1      50.982  27.756  28.765  1.00  0.00     0.059 A 
ATOM     90  C   UNL A   1      50.725  26.712  30.943  1.00  0.00     0.059 A 
ATOM     91  F   UNL A   1      48.583  26.446  31.860  1.00  0.00    -0.206 F 
ATOM     92  C   UNL A   1      51.532  27.135  29.888  1.00  0.00     0.060 A 
BRANCH  92  93
ATOM     93  S   UNL A   1      53.320  26.898  29.960  1.00  0.00     0.124 S 
ATOM     94  O   UNL A   1      53.462  26.107  31.177  1.00  0.00    -0.237 OA
ATOM     95  O   UNL A   1      53.593  26.194  28.710  1.00  0.00    -0.237 OA
ATOM     96  O   UNL A   1      53.840  28.260  30.030  1.00  0.00    -0.744 OA
ENDBRANCH  92  93
ENDBRANCH  60  85
ENDBRANCH  34  35
ENDBRANCH  26  29
ENDBRANCH  24  25
ENDBRANCH  23  24
ENDBRANCH   1  23
TORSDOF 18
ENDMDL
MODEL 3
REMARK VINA RESULT:     -11.1      4.069      7.075
REMARK SMILES CC(=O)N[C@H](CC(=O)NCC(=O)NCCCNC(=O)c1ccc(-c2c3nc(c(-c4c(F)cc(S(=O)(=O)[O-])cc4F)c4ccc([nH]4)c(-c4c(F)cc(S(=O)(=O)[O-])cc4F)c4nc(c(-c5c(F)cc(S(=O)(=O)[O-])cc5F)c5ccc2[nH]5)C=C4)C=C3)cc1)c1cccs1
REMARK SMILES IDX 14 1 13 2 11 3 12 4 10 6 9 7 7 8 8 9 6 11 5 12 4 13 1 14
REMARK SMILES IDX 2 15 3 16 86 18 87 19 90 20 88 21 89 22 15 23 16 24 17 25
REMARK SMILES IDX 18 26 19 28 20 29 21 30 85 31 22 32 84 33 23 34 24 35 25 36
REMARK SMILES IDX 78 37 26 38 83 39 77 40 79 41 27 42 82 43 76 44 75 45 28 47
REMARK SMILES IDX 62 48 41 49 61 50 42 51 45 52 60 53 80 54 43 55 44 56 59 58
REMARK SMILES IDX 81 59 46 60 29 61 30 62 39 63 31 64 32 65 38 66 40 67 33 68
REMARK SMILES IDX 34 69 35 70 36 71 37 72 63 73 64 74 73 75 65 76 66 77 72 78
REMARK SMILES IDX 74 79 67 80 68 81 69 82 70 83 71 84 47 85 48 86 57 87 49 88
REMARK SMILES IDX 50 89 56 90 58 91 51 92 52 93 53 94 54 95 55 96
REMARK H PARENT 13 5 9 10 4 17 17 27 79 46 45 57
REMARK Flexibility Score: inf
ROOT
ATOM      1  C   UNL A   1      42.237  22.745  25.822  1.00  0.00     0.117 C 
ENDROOT
BRANCH   1   2
ATOM      2  N   UNL A   1      43.241  22.670  24.789  1.00  0.00    -0.355 N 
ATOM      3  C   UNL A   1      44.238  23.551  24.476  1.00  0.00     0.239 C 
ATOM      4  O   UNL A   1      45.107  23.150  23.694  1.00  0.00    -0.273 OA
ATOM      5  H   UNL A   1      43.201  21.865  24.224  1.00  0.00     0.163 HD
BRANCH   3   6
ATOM      6  C   UNL A   1      44.404  24.921  25.179  1.00  0.00     0.216 C 
BRANCH   6   7
ATOM      7  N   UNL A   1      43.570  26.017  24.705  1.00  0.00    -0.347 N 
ATOM      8  C   UNL A   1      43.399  27.285  25.170  1.00  0.00     0.222 C 
ATOM      9  O   UNL A   1      42.580  27.995  24.583  1.00  0.00    -0.275 OA
ATOM     10  H   UNL A   1      43.035  25.803  23.907  1.00  0.00     0.164 HD
BRANCH   8  11
ATOM     11  C   UNL A   1      44.126  27.808  26.405  1.00  0.00     0.130 C 
BRANCH  11  12
ATOM     12  C   UNL A   1      45.587  28.118  26.072  1.00  0.00     0.131 C 
BRANCH  12  13
ATOM     13  N   UNL A   1      45.833  29.545  25.830  1.00  0.00    -0.348 N 
ATOM     14  C   UNL A   1      45.069  30.648  27.917  1.00  0.00     0.114 C 
ATOM     15  C   UNL A   1      45.520  30.682  26.494  1.00  0.00     0.217 C 
ATOM     16  O   UNL A   1      45.646  31.747  25.889  1.00  0.00    -0.275 OA
ATOM     17  H   UNL A   1      46.337  29.712  25.000  1.00  0.00     0.164 HD
ENDBRANCH  12  13
BRANCH  12  18
ATOM     18  C   UNL A   1      46.697  27.522  26.899  1.00  0.00     0.027 A 
ATOM     19  C   UNL A   1      46.557  26.443  27.761  1.00  0.00     0.017 A 
ATOM     20  S   UNL A   1      48.305  28.107  26.927  1.00  0.00    -0.147 S 
ATOM     21  C   UNL A   1      47.795  26.002  28.299  1.00  0.00     0.012 A 
ATOM     22  C   UNL A   1      48.841  26.784  27.869  1.00  0.00     0.065 A 
ENDBRANCH  12  18
ENDBRANCH  11  12
ENDBRANCH   8  11
ENDBRANCH   6   7
ENDBRANCH   3   6
ENDBRANCH   1   2
BRANCH   1  23
ATOM     23  C   UNL A   1      41.450  21.479  26.065  1.00  0.00     0.042 C 
BRANCH  23  24
ATOM     24  C   UNL A   1      40.177  21.705  26.859  1.00  0.00     0.118 C 
BRANCH  24  25
ATOM     25  N   UNL A   1      39.108  22.330  26.081  1.00  0.00    -0.352 N 
ATOM     26  C   UNL A   1      38.609  23.612  26.110  1.00  0.00     0.251 C 
ATOM     27  H   UNL A   1      38.674  21.736  25.428  1.00  0.00     0.163 HD
ATOM     28  O   UNL A   1      37.607  23.877  25.450  1.00  0.00    -0.269 OA
BRANCH  26  29
ATOM     29  C   UNL A   1      39.244  24.650  26.952  1.00  0.00     0.039 A 
ATOM     30  C   UNL A   1      40.104  25.576  26.357  1.00  0.00     0.014 A 
ATOM     31  C   UNL A   1      38.980  24.730  28.319  1.00  0.00     0.014 A 
ATOM     32  C   UNL A   1      40.613  26.634  27.116  1.00  0.00     0.010 A 
ATOM     33  C   UNL A   1      39.379  25.848  29.039  1.00  0.00     0.010 A 
ATOM     34  C   UNL A   1      40.207  26.811  28.449  1.00  0.00    -0.014 A 
BRANCH  34  35
ATOM     35  C   UNL A   1      40.633  27.994  29.240  1.00  0.00     0.031 A 
ATOM     36  C   UNL A   1      41.984  28.017  29.906  1.00  0.00     0.074 A 
ATOM     37  C   UNL A   1      39.772  29.017  29.418  1.00  0.00     0.049 A 
ATOM     38  N   UNL A   1      42.510  28.936  30.675  1.00  0.00    -0.248 NA
ATOM     39  C   UNL A   1      42.843  26.836  29.719  1.00  0.00     0.031 C 
ATOM     40  C   UNL A   1      38.404  29.075  28.894  1.00  0.00     0.029 A 
ATOM     41  N   UNL A   1      39.916  30.203  30.092  1.00  0.00    -0.354 N 
ATOM     42  C   UNL A   1      43.745  28.439  31.073  1.00  0.00     0.074 A 
ATOM     43  C   UNL A   1      43.862  27.109  30.520  1.00  0.00     0.031 C 
ATOM     44  C   UNL A   1      37.852  30.252  29.228  1.00  0.00     0.029 A 
ATOM     45  C   UNL A   1      38.808  31.016  30.022  1.00  0.00     0.049 A 
ATOM     46  H   UNL A   1      40.735  30.450  30.579  1.00  0.00     0.167 HD
ATOM     47  C   UNL A   1      44.708  29.046  31.805  1.00  0.00     0.037 A 
ATOM     48  C   UNL A   1      38.591  32.243  30.534  1.00  0.00     0.037 A 
ATOM     49  C   UNL A   1      44.600  30.385  32.321  1.00  0.00     0.049 A 
ATOM     50  C   UNL A   1      39.692  32.914  31.307  1.00  0.00     0.074 A 
ATOM     51  C   UNL A   1      45.543  31.120  33.017  1.00  0.00     0.029 A 
ATOM     52  N   UNL A   1      43.480  31.193  32.192  1.00  0.00    -0.354 N 
ATOM     53  N   UNL A   1      40.883  32.455  31.612  1.00  0.00    -0.248 NA
ATOM     54  C   UNL A   1      39.426  34.273  31.794  1.00  0.00     0.031 C 
ATOM     55  C   UNL A   1      44.980  32.358  33.342  1.00  0.00     0.029 A 
ATOM     56  C   UNL A   1      43.703  32.414  32.807  1.00  0.00     0.049 A 
ATOM     57  H   UNL A   1      42.648  30.937  31.732  1.00  0.00     0.167 HD
ATOM     58  C   UNL A   1      41.518  33.480  32.304  1.00  0.00     0.074 A 
ATOM     59  C   UNL A   1      40.585  34.588  32.356  1.00  0.00     0.031 C 
ATOM     60  C   UNL A   1      42.761  33.505  32.847  1.00  0.00     0.037 A 
BRANCH  47  61
ATOM     61  C   UNL A   1      45.971  28.270  32.075  1.00  0.00     0.058 A 
ATOM     62  C   UNL A   1      47.072  28.329  31.205  1.00  0.00     0.135 A 
ATOM     63  C   UNL A   1      46.092  27.480  33.229  1.00  0.00     0.135 A 
ATOM     64  F   UNL A   1      47.005  29.055  30.077  1.00  0.00    -0.206 F 
ATOM     65  C   UNL A   1      48.235  27.609  31.453  1.00  0.00     0.059 A 
ATOM     66  C   UNL A   1      47.259  26.774  33.513  1.00  0.00     0.059 A 
ATOM     67  F   UNL A   1      45.071  27.385  34.095  1.00  0.00    -0.206 F 
ATOM     68  C   UNL A   1      48.320  26.834  32.609  1.00  0.00     0.060 A 
BRANCH  68  69
ATOM     69  S   UNL A   1      49.840  25.910  32.919  1.00  0.00     0.124 S 
ATOM     70  O   UNL A   1      50.283  26.496  34.181  1.00  0.00    -0.237 OA
ATOM     71  O   UNL A   1      49.359  24.534  32.994  1.00  0.00    -0.237 OA
ATOM     72  O   UNL A   1      50.668  26.218  31.759  1.00  0.00    -0.744 OA
ENDBRANCH  68  69
ENDBRANCH  47  61
BRANCH  48  73
ATOM     73  C   UNL A   1      37.294  32.930  30.293  1.00  0.00     0.058 A 
ATOM     74  C   UNL A   1      37.060  33.624  29.096  1.00  0.00     0.135 A 
ATOM     75  C   UNL A   1      36.259  32.892  31.240  1.00  0.00     0.135 A 
ATOM     76  F   UNL A   1      38.019  33.690  28.160  1.00  0.00    -0.206 F 
ATOM     77  C   UNL A   1      35.854  34.274  28.855  1.00  0.00     0.059 A 
ATOM     78  C   UNL A   1      35.035  33.513  31.010  1.00  0.00     0.059 A 
ATOM     79  F   UNL A   1      36.425  32.224  32.391  1.00  0.00    -0.206 F 
ATOM     80  C   UNL A   1      34.845  34.211  29.818  1.00  0.00     0.060 A 
BRANCH  80  81
ATOM     81  S   UNL A   1      33.268  35.018  29.473  1.00  0.00     0.124 S 
ATOM     82  O   UNL A   1      33.701  36.345  29.053  1.00  0.00    -0.237 OA
ATOM     83  O   UNL A   1      32.709  34.167  28.427  1.00  0.00    -0.237 OA
ATOM     84  O   UNL A   1      32.573  34.958  30.757  1.00  0.00    -0.744 OA
ENDBRANCH  80  81
ENDBRANCH  48  73
BRANCH  60  85
ATOM     85  C   UNL A   1      43.193  34.782  33.512  1.00  0.00     0.058 A 
ATOM     86  C   UNL A   1      43.812  35.816  32.794  1.00  0.00     0.135 A 
ATOM     87  C   UNL A   1      42.966  34.979  34.884  1.00  0.00     0.135 A 
ATOM     88  F   UNL A   1      44.055  35.677  31.482  1.00  0.00    -0.206 F 
ATOM     89  C   UNL A   1      44.230  36.985  33.421  1.00  0.00     0.059 A 
ATOM     90  C   UNL A   1      43.348  36.152  35.526  1.00  0.00     0.059 A 
ATOM     91  F   UNL A   1      42.363  34.027  35.614  1.00  0.00    -0.206 F 
ATOM     92  C   UNL A   1      43.997  37.142  34.789  1.00  0.00     0.060 A 
BRANCH  92  93
ATOM     93  S   UNL A   1      44.544  38.663  35.593  1.00  0.00     0.124 S 
ATOM     94  O   UNL A   1      45.993  38.555  35.468  1.00  0.00    -0.237 OA
ATOM     95  O   UNL A   1      43.911  39.694  34.776  1.00  0.00    -0.237 OA
ATOM     96  O   UNL A   1      44.018  38.536  36.949  1.00  0.00    -0.744 OA
ENDBRANCH  92  93
ENDBRANCH  60  85
ENDBRANCH  34  35
ENDBRANCH  26  29
ENDBRANCH  24  25
ENDBRANCH  23  24
ENDBRANCH   1  23
TORSDOF 18
ENDMDL
