MODEL 1
REMARK VINA RESULT:     -12.5      0.000      0.000
REMARK SMILES CC1(C)CCN(S(=O)(=O)c2ccc(O)c(C(=O)NCCCNC(=O)c3ccc(-c4c5nc(c(-c6c(F)cc(S(=O)(=O)[O-])cc6F)c6ccc([nH]6)c(-c6c(F)cc(S(=O)(=O)[O-])cc6F)c6nc(c(-c7c(F)cc(S(=O)(=O)[O-])cc7F)c7ccc4[nH]7)C=C6)C=C5)cc3)c2)C1
REMARK SMILES IDX 20 1 19 2 18 3 16 4 17 5 15 7 10 8 11 9 91 10 12 11 13 12
REMARK SMILES IDX 7 13 8 14 9 15 6 16 1 17 2 18 3 19 4 20 92 21 5 22 14 23
REMARK SMILES IDX 21 25 22 26 23 27 24 29 25 30 26 31 90 32 27 33 89 34 28 35
REMARK SMILES IDX 29 36 30 37 83 38 31 39 88 40 82 41 84 42 32 43 87 44 81 45
REMARK SMILES IDX 80 46 33 48 67 49 46 50 66 51 47 52 50 53 65 54 85 55 48 56
REMARK SMILES IDX 49 57 64 59 86 60 51 61 34 62 35 63 44 64 36 65 37 66 43 67
REMARK SMILES IDX 45 68 38 69 39 70 40 71 41 72 42 73 68 74 69 75 78 76 70 77
REMARK SMILES IDX 71 78 77 79 79 80 72 81 73 82 74 83 75 84 76 85 52 86 53 87
REMARK SMILES IDX 62 88 54 89 55 90 61 91 63 92 56 93 57 94 58 95 59 96 60 97
REMARK H PARENT 18 6 14 24 22 28 84 47 50 58
REMARK Flexibility Score: inf
ROOT
ATOM      1  C   UNL A   1      40.948  21.627  26.935  1.00  0.00     0.042 C 
ENDROOT
BRANCH   1   2
ATOM      2  C   UNL A   1      41.796  20.613  27.705  1.00  0.00     0.118 C 
BRANCH   2   3
ATOM      3  N   UNL A   1      41.844  19.334  27.029  1.00  0.00    -0.352 N 
ATOM      4  C   UNL A   1      42.718  18.778  26.135  1.00  0.00     0.255 C 
ATOM      5  O   UNL A   1      42.461  17.617  25.798  1.00  0.00    -0.269 OA
ATOM      6  H   UNL A   1      41.091  18.742  27.259  1.00  0.00     0.163 HD
BRANCH   4   7
ATOM      7  C   UNL A   1      43.951  19.413  25.563  1.00  0.00     0.082 A 
ATOM      8  C   UNL A   1      44.918  21.566  24.888  1.00  0.00     0.083 A 
ATOM      9  C   UNL A   1      46.178  20.982  24.793  1.00  0.00     0.025 A 
ATOM     10  C   UNL A   1      43.815  20.792  25.269  1.00  0.00     0.039 A 
ATOM     11  C   UNL A   1      46.326  19.621  25.021  1.00  0.00     0.048 A 
ATOM     12  C   UNL A   1      45.229  18.848  25.423  1.00  0.00     0.128 A 
BRANCH   8  13
ATOM     13  S   UNL A   1      44.770  23.332  24.726  1.00  0.00     0.243 S 
ATOM     14  O   UNL A   1      43.489  23.601  24.095  1.00  0.00    -0.207 OA
ATOM     15  O   UNL A   1      45.995  23.847  24.165  1.00  0.00    -0.207 OA
BRANCH  13  16
ATOM     16  N   UNL A   1      44.671  23.907  26.332  1.00  0.00    -0.197 NA
ATOM     17  C   UNL A   1      44.561  25.493  29.066  1.00  0.00     0.012 C 
ATOM     18  C   UNL A   1      45.510  25.579  27.861  1.00  0.00    -0.020 C 
ATOM     19  C   UNL A   1      46.236  26.927  27.883  1.00  0.00     0.012 C 
ATOM     20  C   UNL A   1      46.487  24.406  27.825  1.00  0.00     0.024 C 
ATOM     21  C   UNL A   1      44.761  25.380  26.537  1.00  0.00     0.109 C 
ATOM     22  C   UNL A   1      45.661  23.260  27.249  1.00  0.00     0.103 C 
ENDBRANCH  13  16
ENDBRANCH   8  13
BRANCH  12  23
ATOM     23  O   UNL A   1      45.503  17.551  25.728  1.00  0.00    -0.507 OA
ATOM     24  H   UNL A   1      45.242  17.199  26.556  1.00  0.00     0.293 HD
ENDBRANCH  12  23
ENDBRANCH   4   7
ENDBRANCH   2   3
ENDBRANCH   1   2
BRANCH   1  25
ATOM     25  C   UNL A   1      41.129  23.071  27.383  1.00  0.00     0.118 C 
BRANCH  25  26
ATOM     26  N   UNL A   1      41.336  23.964  26.257  1.00  0.00    -0.352 N 
ATOM     27  C   UNL A   1      41.234  25.329  26.172  1.00  0.00     0.251 C 
ATOM     28  H   UNL A   1      41.591  23.518  25.417  1.00  0.00     0.163 HD
ATOM     29  O   UNL A   1      41.211  25.845  25.057  1.00  0.00    -0.269 OA
BRANCH  27  30
ATOM     30  C   UNL A   1      41.153  26.187  27.381  1.00  0.00     0.039 A 
ATOM     31  C   UNL A   1      40.160  25.904  28.326  1.00  0.00     0.014 A 
ATOM     32  C   UNL A   1      41.964  27.314  27.555  1.00  0.00     0.014 A 
ATOM     33  C   UNL A   1      39.985  26.737  29.435  1.00  0.00     0.010 A 
ATOM     34  C   UNL A   1      41.840  28.102  28.701  1.00  0.00     0.010 A 
ATOM     35  C   UNL A   1      40.827  27.842  29.635  1.00  0.00    -0.014 A 
BRANCH  35  36
ATOM     36  C   UNL A   1      40.608  28.764  30.780  1.00  0.00     0.031 A 
ATOM     37  C   UNL A   1      41.456  28.643  32.020  1.00  0.00     0.074 A 
ATOM     38  C   UNL A   1      39.641  29.699  30.711  1.00  0.00     0.049 A 
ATOM     39  N   UNL A   1      41.420  29.352  33.120  1.00  0.00    -0.248 NA
ATOM     40  C   UNL A   1      42.459  27.566  32.039  1.00  0.00     0.031 C 
ATOM     41  C   UNL A   1      38.721  29.884  29.587  1.00  0.00     0.029 A 
ATOM     42  N   UNL A   1      39.272  30.672  31.605  1.00  0.00    -0.354 N 
ATOM     43  C   UNL A   1      42.380  28.800  33.961  1.00  0.00     0.074 A 
ATOM     44  C   UNL A   1      42.945  27.664  33.267  1.00  0.00     0.031 C 
ATOM     45  C   UNL A   1      37.913  30.924  29.847  1.00  0.00     0.029 A 
ATOM     46  C   UNL A   1      38.241  31.466  31.162  1.00  0.00     0.049 A 
ATOM     47  H   UNL A   1      39.704  30.790  32.482  1.00  0.00     0.167 HD
ATOM     48  C   UNL A   1      42.774  29.213  35.190  1.00  0.00     0.037 A 
ATOM     49  C   UNL A   1      37.637  32.520  31.745  1.00  0.00     0.037 A 
ATOM     50  C   UNL A   1      42.233  30.366  35.863  1.00  0.00     0.049 A 
ATOM     51  C   UNL A   1      38.128  32.994  33.086  1.00  0.00     0.074 A 
ATOM     52  C   UNL A   1      42.592  30.898  37.090  1.00  0.00     0.029 A 
ATOM     53  N   UNL A   1      41.222  31.171  35.360  1.00  0.00    -0.354 N 
ATOM     54  N   UNL A   1      39.071  32.489  33.845  1.00  0.00    -0.248 NA
ATOM     55  C   UNL A   1      37.484  34.192  33.640  1.00  0.00     0.031 C 
ATOM     56  C   UNL A   1      41.781  32.012  37.338  1.00  0.00     0.029 A 
ATOM     57  C   UNL A   1      40.944  32.194  36.250  1.00  0.00     0.049 A 
ATOM     58  H   UNL A   1      40.769  31.035  34.496  1.00  0.00     0.167 HD
ATOM     59  C   UNL A   1      39.155  33.325  34.953  1.00  0.00     0.074 A 
ATOM     60  C   UNL A   1      38.174  34.374  34.758  1.00  0.00     0.031 C 
ATOM     61  C   UNL A   1      39.969  33.234  36.033  1.00  0.00     0.037 A 
BRANCH  48  62
ATOM     62  C   UNL A   1      43.850  28.418  35.879  1.00  0.00     0.058 A 
ATOM     63  C   UNL A   1      43.538  27.362  36.753  1.00  0.00     0.135 A 
ATOM     64  C   UNL A   1      45.206  28.699  35.653  1.00  0.00     0.135 A 
ATOM     65  F   UNL A   1      42.258  27.060  37.019  1.00  0.00    -0.206 F 
ATOM     66  C   UNL A   1      44.533  26.637  37.401  1.00  0.00     0.059 A 
ATOM     67  C   UNL A   1      46.218  27.969  36.271  1.00  0.00     0.059 A 
ATOM     68  F   UNL A   1      45.561  29.697  34.827  1.00  0.00    -0.206 F 
ATOM     69  C   UNL A   1      45.870  26.950  37.158  1.00  0.00     0.060 A 
BRANCH  69  70
ATOM     70  S   UNL A   1      47.150  26.002  38.008  1.00  0.00     0.124 S 
ATOM     71  O   UNL A   1      47.805  27.041  38.797  1.00  0.00    -0.237 OA
ATOM     72  O   UNL A   1      46.369  25.030  38.766  1.00  0.00    -0.237 OA
ATOM     73  O   UNL A   1      47.944  25.448  36.916  1.00  0.00    -0.744 OA
ENDBRANCH  69  70
ENDBRANCH  48  62
BRANCH  49  74
ATOM     74  C   UNL A   1      36.538  33.229  31.039  1.00  0.00     0.058 A 
ATOM     75  C   UNL A   1      36.800  34.030  29.918  1.00  0.00     0.135 A 
ATOM     76  C   UNL A   1      35.205  33.105  31.459  1.00  0.00     0.135 A 
ATOM     77  F   UNL A   1      38.059  34.181  29.481  1.00  0.00    -0.206 F 
ATOM     78  C   UNL A   1      35.782  34.701  29.248  1.00  0.00     0.059 A 
ATOM     79  C   UNL A   1      34.167  33.748  30.791  1.00  0.00     0.059 A 
ATOM     80  F   UNL A   1      34.900  32.334  32.514  1.00  0.00    -0.206 F 
ATOM     81  C   UNL A   1      34.467  34.552  29.692  1.00  0.00     0.060 A 
BRANCH  81  82
ATOM     82  S   UNL A   1      33.144  35.381  28.783  1.00  0.00     0.124 S 
ATOM     83  O   UNL A   1      33.894  36.345  27.988  1.00  0.00    -0.237 OA
ATOM     84  O   UNL A   1      32.538  34.278  28.045  1.00  0.00    -0.237 OA
ATOM     85  O   UNL A   1      32.314  35.945  29.844  1.00  0.00    -0.744 OA
ENDBRANCH  81  82
ENDBRANCH  49  74
BRANCH  61  86
ATOM     86  C   UNL A   1      39.859  34.323  37.063  1.00  0.00     0.058 A 
ATOM     87  C   UNL A   1      39.032  34.193  38.190  1.00  0.00     0.135 A 
ATOM     88  C   UNL A   1      40.600  35.507  36.925  1.00  0.00     0.135 A 
ATOM     89  F   UNL A   1      38.301  33.081  38.367  1.00  0.00    -0.206 F 
ATOM     90  C   UNL A   1      38.910  35.218  39.123  1.00  0.00     0.059 A 
ATOM     91  C   UNL A   1      40.513  36.535  37.858  1.00  0.00     0.059 A 
ATOM     92  F   UNL A   1      41.416  35.675  35.873  1.00  0.00    -0.206 F 
ATOM     93  C   UNL A   1      39.649  36.389  38.944  1.00  0.00     0.060 A 
BRANCH  93  94
ATOM     94  S   UNL A   1      39.481  37.718  40.153  1.00  0.00     0.124 S 
ATOM     95  O   UNL A   1      38.315  38.431  39.643  1.00  0.00    -0.237 OA
ATOM     96  O   UNL A   1      39.282  36.988  41.401  1.00  0.00    -0.237 OA
ATOM     97  O   UNL A   1      40.750  38.432  40.049  1.00  0.00    -0.744 OA
ENDBRANCH  93  94
ENDBRANCH  61  86
ENDBRANCH  35  36
ENDBRANCH  27  30
ENDBRANCH  25  26
ENDBRANCH   1  25
TORSDOF 16
ENDMDL
MODEL 2
REMARK VINA RESULT:     -12.1      2.112      8.479
REMARK SMILES CC1(C)CCN(S(=O)(=O)c2ccc(O)c(C(=O)NCCCNC(=O)c3ccc(-c4c5nc(c(-c6c(F)cc(S(=O)(=O)[O-])cc6F)c6ccc([nH]6)c(-c6c(F)cc(S(=O)(=O)[O-])cc6F)c6nc(c(-c7c(F)cc(S(=O)(=O)[O-])cc7F)c7ccc4[nH]7)C=C6)C=C5)cc3)c2)C1
REMARK SMILES IDX 20 1 19 2 18 3 16 4 17 5 15 7 10 8 11 9 91 10 12 11 13 12
REMARK SMILES IDX 7 13 8 14 9 15 6 16 1 17 2 18 3 19 4 20 92 21 5 22 14 23
REMARK SMILES IDX 21 25 22 26 23 27 24 29 25 30 26 31 90 32 27 33 89 34 28 35
REMARK SMILES IDX 29 36 30 37 83 38 31 39 88 40 82 41 84 42 32 43 87 44 81 45
REMARK SMILES IDX 80 46 33 48 67 49 46 50 66 51 47 52 50 53 65 54 85 55 48 56
REMARK SMILES IDX 49 57 64 59 86 60 51 61 34 62 35 63 44 64 36 65 37 66 43 67
REMARK SMILES IDX 45 68 38 69 39 70 40 71 41 72 42 73 68 74 69 75 78 76 70 77
REMARK SMILES IDX 71 78 77 79 79 80 72 81 73 82 74 83 75 84 76 85 52 86 53 87
REMARK SMILES IDX 62 88 54 89 55 90 61 91 63 92 56 93 57 94 58 95 59 96 60 97
REMARK H PARENT 18 6 14 24 22 28 84 47 50 58
REMARK Flexibility Score: inf
ROOT
ATOM      1  C   UNL A   1      40.462  20.837  26.909  1.00  0.00     0.042 C 
ENDROOT
BRANCH   1   2
ATOM      2  C   UNL A   1      41.684  20.157  27.531  1.00  0.00     0.118 C 
BRANCH   2   3
ATOM      3  N   UNL A   1      41.907  18.843  26.967  1.00  0.00    -0.352 N 
ATOM      4  C   UNL A   1      42.875  18.325  26.149  1.00  0.00     0.255 C 
ATOM      5  O   UNL A   1      42.769  17.118  25.904  1.00  0.00    -0.269 OA
ATOM      6  H   UNL A   1      41.222  18.185  27.226  1.00  0.00     0.163 HD
BRANCH   4   7
ATOM      7  C   UNL A   1      44.045  19.057  25.560  1.00  0.00     0.082 A 
ATOM      8  C   UNL A   1      44.810  21.272  24.827  1.00  0.00     0.083 A 
ATOM      9  C   UNL A   1      46.119  20.804  24.746  1.00  0.00     0.025 A 
ATOM     10  C   UNL A   1      43.783  20.409  25.229  1.00  0.00     0.039 A 
ATOM     11  C   UNL A   1      46.392  19.468  25.010  1.00  0.00     0.048 A 
ATOM     12  C   UNL A   1      45.370  18.608  25.433  1.00  0.00     0.128 A 
BRANCH   8  13
ATOM     13  S   UNL A   1      44.500  23.011  24.620  1.00  0.00     0.243 S 
ATOM     14  O   UNL A   1      43.081  23.167  24.351  1.00  0.00    -0.207 OA
ATOM     15  O   UNL A   1      45.489  23.551  23.717  1.00  0.00    -0.207 OA
BRANCH  13  16
ATOM     16  N   UNL A   1      44.799  23.691  26.159  1.00  0.00    -0.197 NA
ATOM     17  C   UNL A   1      45.120  24.461  29.209  1.00  0.00     0.012 C 
ATOM     18  C   UNL A   1      43.950  23.862  28.414  1.00  0.00    -0.020 C 
ATOM     19  C   UNL A   1      42.972  23.190  29.381  1.00  0.00     0.012 C 
ATOM     20  C   UNL A   1      43.260  24.912  27.544  1.00  0.00     0.024 C 
ATOM     21  C   UNL A   1      44.439  22.871  27.350  1.00  0.00     0.109 C 
ATOM     22  C   UNL A   1      44.178  25.042  26.333  1.00  0.00     0.103 C 
ENDBRANCH  13  16
ENDBRANCH   8  13
BRANCH  12  23
ATOM     23  O   UNL A   1      45.762  17.350  25.772  1.00  0.00    -0.507 OA
ATOM     24  H   UNL A   1      45.349  16.609  25.375  1.00  0.00     0.293 HD
ENDBRANCH  12  23
ENDBRANCH   4   7
ENDBRANCH   2   3
ENDBRANCH   1   2
BRANCH   1  25
ATOM     25  C   UNL A   1      40.638  22.325  26.637  1.00  0.00     0.118 C 
BRANCH  25  26
ATOM     26  N   UNL A   1      39.480  22.893  25.972  1.00  0.00    -0.352 N 
ATOM     27  C   UNL A   1      38.789  24.052  26.220  1.00  0.00     0.251 C 
ATOM     28  H   UNL A   1      39.133  22.360  25.220  1.00  0.00     0.163 HD
ATOM     29  O   UNL A   1      37.692  24.203  25.687  1.00  0.00    -0.269 OA
BRANCH  27  30
ATOM     30  C   UNL A   1      39.330  25.114  27.105  1.00  0.00     0.039 A 
ATOM     31  C   UNL A   1      39.000  25.071  28.465  1.00  0.00     0.014 A 
ATOM     32  C   UNL A   1      40.067  26.196  26.612  1.00  0.00     0.014 A 
ATOM     33  C   UNL A   1      39.409  26.098  29.322  1.00  0.00     0.010 A 
ATOM     34  C   UNL A   1      40.540  27.181  27.481  1.00  0.00     0.010 A 
ATOM     35  C   UNL A   1      40.187  27.161  28.837  1.00  0.00    -0.014 A 
BRANCH  35  36
ATOM     36  C   UNL A   1      40.574  28.284  29.731  1.00  0.00     0.031 A 
ATOM     37  C   UNL A   1      39.653  29.464  29.904  1.00  0.00     0.074 A 
ATOM     38  C   UNL A   1      41.757  28.248  30.375  1.00  0.00     0.049 A 
ATOM     39  N   UNL A   1      39.811  30.535  30.639  1.00  0.00    -0.248 NA
ATOM     40  C   UNL A   1      38.401  29.451  29.131  1.00  0.00     0.031 C 
ATOM     41  C   UNL A   1      42.757  27.187  30.250  1.00  0.00     0.029 A 
ATOM     42  N   UNL A   1      42.318  29.130  31.264  1.00  0.00    -0.354 N 
ATOM     43  C   UNL A   1      38.691  31.327  30.405  1.00  0.00     0.074 A 
ATOM     44  C   UNL A   1      37.886  30.637  29.420  1.00  0.00     0.031 C 
ATOM     45  C   UNL A   1      43.796  27.465  31.055  1.00  0.00     0.029 A 
ATOM     46  C   UNL A   1      43.546  28.731  31.735  1.00  0.00     0.049 A 
ATOM     47  H   UNL A   1      41.881  29.968  31.540  1.00  0.00     0.167 HD
ATOM     48  C   UNL A   1      38.348  32.508  30.974  1.00  0.00     0.037 A 
ATOM     49  C   UNL A   1      44.373  29.316  32.625  1.00  0.00     0.037 A 
ATOM     50  C   UNL A   1      39.135  33.174  31.980  1.00  0.00     0.049 A 
ATOM     51  C   UNL A   1      43.947  30.600  33.283  1.00  0.00     0.074 A 
ATOM     52  C   UNL A   1      38.859  34.351  32.654  1.00  0.00     0.029 A 
ATOM     53  N   UNL A   1      40.352  32.714  32.463  1.00  0.00    -0.354 N 
ATOM     54  N   UNL A   1      42.860  31.308  33.086  1.00  0.00    -0.248 NA
ATOM     55  C   UNL A   1      44.851  31.153  34.300  1.00  0.00     0.031 C 
ATOM     56  C   UNL A   1      39.920  34.615  33.529  1.00  0.00     0.029 A 
ATOM     57  C   UNL A   1      40.838  33.583  33.425  1.00  0.00     0.049 A 
ATOM     58  H   UNL A   1      40.802  31.891  32.166  1.00  0.00     0.167 HD
ATOM     59  C   UNL A   1      42.936  32.375  33.975  1.00  0.00     0.074 A 
ATOM     60  C   UNL A   1      44.169  32.211  34.718  1.00  0.00     0.031 C 
ATOM     61  C   UNL A   1      42.065  33.397  34.160  1.00  0.00     0.037 A 
BRANCH  48  62
ATOM     62  C   UNL A   1      37.062  33.148  30.528  1.00  0.00     0.058 A 
ATOM     63  C   UNL A   1      35.871  32.991  31.256  1.00  0.00     0.135 A 
ATOM     64  C   UNL A   1      37.019  33.941  29.371  1.00  0.00     0.135 A 
ATOM     65  F   UNL A   1      35.850  32.229  32.362  1.00  0.00    -0.206 F 
ATOM     66  C   UNL A   1      34.678  33.570  30.836  1.00  0.00     0.059 A 
ATOM     67  C   UNL A   1      35.842  34.552  28.946  1.00  0.00     0.059 A 
ATOM     68  F   UNL A   1      38.128  34.126  28.636  1.00  0.00    -0.206 F 
ATOM     69  C   UNL A   1      34.672  34.346  29.676  1.00  0.00     0.060 A 
BRANCH  69  70
ATOM     70  S   UNL A   1      33.117  35.090  29.140  1.00  0.00     0.124 S 
ATOM     71  O   UNL A   1      32.632  34.094  28.189  1.00  0.00    -0.237 OA
ATOM     72  O   UNL A   1      32.369  35.188  30.389  1.00  0.00    -0.237 OA
ATOM     73  O   UNL A   1      33.532  36.363  28.561  1.00  0.00    -0.744 OA
ENDBRANCH  69  70
ENDBRANCH  48  62
BRANCH  49  74
ATOM     74  C   UNL A   1      45.660  28.664  32.980  1.00  0.00     0.058 A 
ATOM     75  C   UNL A   1      46.822  28.908  32.234  1.00  0.00     0.135 A 
ATOM     76  C   UNL A   1      45.758  27.800  34.081  1.00  0.00     0.135 A 
ATOM     77  F   UNL A   1      46.777  29.724  31.170  1.00  0.00    -0.206 F 
ATOM     78  C   UNL A   1      48.034  28.304  32.553  1.00  0.00     0.059 A 
ATOM     79  C   UNL A   1      46.963  27.202  34.434  1.00  0.00     0.059 A 
ATOM     80  F   UNL A   1      44.679  27.551  34.839  1.00  0.00    -0.206 F 
ATOM     81  C   UNL A   1      48.095  27.452  33.658  1.00  0.00     0.060 A 
BRANCH  81  82
ATOM     82  S   UNL A   1      49.683  26.715  34.100  1.00  0.00     0.124 S 
ATOM     83  O   UNL A   1      49.353  25.295  34.114  1.00  0.00    -0.237 OA
ATOM     84  O   UNL A   1      50.545  27.160  33.011  1.00  0.00    -0.237 OA
ATOM     85  O   UNL A   1      49.975  27.310  35.402  1.00  0.00    -0.744 OA
ENDBRANCH  81  82
ENDBRANCH  49  74
BRANCH  61  86
ATOM     86  C   UNL A   1      42.399  34.391  35.237  1.00  0.00     0.058 A 
ATOM     87  C   UNL A   1      43.163  35.538  34.972  1.00  0.00     0.135 A 
ATOM     88  C   UNL A   1      41.937  34.197  36.549  1.00  0.00     0.135 A 
ATOM     89  F   UNL A   1      43.629  35.769  33.735  1.00  0.00    -0.206 F 
ATOM     90  C   UNL A   1      43.495  36.437  35.981  1.00  0.00     0.059 A 
ATOM     91  C   UNL A   1      42.237  35.095  37.567  1.00  0.00     0.059 A 
ATOM     92  F   UNL A   1      41.191  33.122  36.850  1.00  0.00    -0.206 F 
ATOM     93  C   UNL A   1      43.034  36.202  37.277  1.00  0.00     0.060 A 
BRANCH  93  94
ATOM     94  S   UNL A   1      43.475  37.367  38.583  1.00  0.00     0.124 S 
ATOM     95  O   UNL A   1      44.241  36.517  39.487  1.00  0.00    -0.237 OA
ATOM     96  O   UNL A   1      44.241  38.377  37.860  1.00  0.00    -0.237 OA
ATOM     97  O   UNL A   1      42.180  37.817  39.087  1.00  0.00    -0.744 OA
ENDBRANCH  93  94
ENDBRANCH  61  86
ENDBRANCH  35  36
ENDBRANCH  27  30
ENDBRANCH  25  26
ENDBRANCH   1  25
TORSDOF 16
ENDMDL
MODEL 3
REMARK VINA RESULT:     -11.8      5.525     14.604
REMARK SMILES CC1(C)CCN(S(=O)(=O)c2ccc(O)c(C(=O)NCCCNC(=O)c3ccc(-c4c5nc(c(-c6c(F)cc(S(=O)(=O)[O-])cc6F)c6ccc([nH]6)c(-c6c(F)cc(S(=O)(=O)[O-])cc6F)c6nc(c(-c7c(F)cc(S(=O)(=O)[O-])cc7F)c7ccc4[nH]7)C=C6)C=C5)cc3)c2)C1
REMARK SMILES IDX 20 1 19 2 18 3 16 4 17 5 15 7 10 8 11 9 91 10 12 11 13 12
REMARK SMILES IDX 7 13 8 14 9 15 6 16 1 17 2 18 3 19 4 20 92 21 5 22 14 23
REMARK SMILES IDX 21 25 22 26 23 27 24 29 25 30 26 31 90 32 27 33 89 34 28 35
REMARK SMILES IDX 29 36 30 37 83 38 31 39 88 40 82 41 84 42 32 43 87 44 81 45
REMARK SMILES IDX 80 46 33 48 67 49 46 50 66 51 47 52 50 53 65 54 85 55 48 56
REMARK SMILES IDX 49 57 64 59 86 60 51 61 34 62 35 63 44 64 36 65 37 66 43 67
REMARK SMILES IDX 45 68 38 69 39 70 40 71 41 72 42 73 68 74 69 75 78 76 70 77
REMARK SMILES IDX 71 78 77 79 79 80 72 81 73 82 74 83 75 84 76 85 52 86 53 87
REMARK SMILES IDX 62 88 54 89 55 90 61 91 63 92 56 93 57 94 58 95 59 96 60 97
REMARK H PARENT 18 6 14 24 22 28 84 47 50 58
REMARK Flexibility Score: inf
ROOT
ATOM      1  C   UNL A   1      35.267  33.361  28.018  1.00  0.00     0.042 C 
ENDROOT
BRANCH   1   2
ATOM      2  C   UNL A   1      34.056  33.351  28.954  1.00  0.00     0.118 C 
BRANCH   2   3
ATOM      3  N   UNL A   1      33.229  34.524  28.769  1.00  0.00    -0.352 N 
ATOM      4  C   UNL A   1      32.923  35.592  29.569  1.00  0.00     0.255 C 
ATOM      5  O   UNL A   1      32.204  36.452  29.050  1.00  0.00    -0.269 OA
ATOM      6  H   UNL A   1      32.797  34.562  27.885  1.00  0.00     0.163 HD
BRANCH   4   7
ATOM      7  C   UNL A   1      33.395  35.832  30.973  1.00  0.00     0.082 A 
ATOM      8  C   UNL A   1      34.615  34.801  32.838  1.00  0.00     0.083 A 
ATOM      9  C   UNL A   1      34.684  36.032  33.486  1.00  0.00     0.025 A 
ATOM     10  C   UNL A   1      33.978  34.700  31.595  1.00  0.00     0.039 A 
ATOM     11  C   UNL A   1      34.071  37.143  32.923  1.00  0.00     0.048 A 
ATOM     12  C   UNL A   1      33.451  37.050  31.670  1.00  0.00     0.128 A 
BRANCH   8  13
ATOM     13  S   UNL A   1      35.521  33.423  33.504  1.00  0.00     0.243 S 
ATOM     14  O   UNL A   1      35.209  32.265  32.683  1.00  0.00    -0.207 OA
ATOM     15  O   UNL A   1      35.325  33.391  34.934  1.00  0.00    -0.207 OA
BRANCH  13  16
ATOM     16  N   UNL A   1      37.163  33.809  33.229  1.00  0.00    -0.197 NA
ATOM     17  C   UNL A   1      40.042  34.570  32.166  1.00  0.00     0.012 C 
ATOM     18  C   UNL A   1      38.983  33.580  31.658  1.00  0.00    -0.020 C 
ATOM     19  C   UNL A   1      39.267  33.244  30.191  1.00  0.00     0.012 C 
ATOM     20  C   UNL A   1      38.918  32.325  32.527  1.00  0.00     0.024 C 
ATOM     21  C   UNL A   1      37.563  34.133  31.831  1.00  0.00     0.109 C 
ATOM     22  C   UNL A   1      38.104  32.763  33.740  1.00  0.00     0.103 C 
ENDBRANCH  13  16
ENDBRANCH   8  13
BRANCH  12  23
ATOM     23  O   UNL A   1      32.979  38.218  31.159  1.00  0.00    -0.507 OA
ATOM     24  H   UNL A   1      32.198  38.221  30.641  1.00  0.00     0.293 HD
ENDBRANCH  12  23
ENDBRANCH   4   7
ENDBRANCH   2   3
ENDBRANCH   1   2
BRANCH   1  25
ATOM     25  C   UNL A   1      36.277  32.252  28.282  1.00  0.00     0.118 C 
BRANCH  25  26
ATOM     26  N   UNL A   1      35.973  31.523  29.499  1.00  0.00    -0.352 N 
ATOM     27  C   UNL A   1      36.562  30.408  30.040  1.00  0.00     0.251 C 
ATOM     28  H   UNL A   1      35.222  31.886  30.022  1.00  0.00     0.163 HD
ATOM     29  O   UNL A   1      35.978  29.822  30.949  1.00  0.00    -0.269 OA
BRANCH  27  30
ATOM     30  C   UNL A   1      37.873  29.902  29.562  1.00  0.00     0.039 A 
ATOM     31  C   UNL A   1      38.858  29.619  30.515  1.00  0.00     0.014 A 
ATOM     32  C   UNL A   1      38.184  29.795  28.202  1.00  0.00     0.014 A 
ATOM     33  C   UNL A   1      40.138  29.228  30.110  1.00  0.00     0.010 A 
ATOM     34  C   UNL A   1      39.437  29.331  27.800  1.00  0.00     0.010 A 
ATOM     35  C   UNL A   1      40.438  29.076  28.747  1.00  0.00    -0.014 A 
BRANCH  35  36
ATOM     36  C   UNL A   1      41.812  28.717  28.310  1.00  0.00     0.031 A 
ATOM     37  C   UNL A   1      42.890  29.770  28.263  1.00  0.00     0.074 A 
ATOM     38  C   UNL A   1      42.089  27.450  27.945  1.00  0.00     0.049 A 
ATOM     39  N   UNL A   1      44.146  29.654  27.913  1.00  0.00    -0.248 NA
ATOM     40  C   UNL A   1      42.498  31.141  28.631  1.00  0.00     0.031 C 
ATOM     41  C   UNL A   1      41.121  26.353  27.899  1.00  0.00     0.029 A 
ATOM     42  N   UNL A   1      43.266  26.872  27.543  1.00  0.00    -0.354 N 
ATOM     43  C   UNL A   1      44.687  30.932  28.005  1.00  0.00     0.074 A 
ATOM     44  C   UNL A   1      43.611  31.818  28.392  1.00  0.00     0.031 C 
ATOM     45  C   UNL A   1      41.750  25.228  27.519  1.00  0.00     0.029 A 
ATOM     46  C   UNL A   1      43.157  25.528  27.275  1.00  0.00     0.049 A 
ATOM     47  H   UNL A   1      44.110  27.372  27.455  1.00  0.00     0.167 HD
ATOM     48  C   UNL A   1      45.968  31.331  27.810  1.00  0.00     0.037 A 
ATOM     49  C   UNL A   1      44.089  24.636  26.887  1.00  0.00     0.037 A 
ATOM     50  C   UNL A   1      47.043  30.439  27.458  1.00  0.00     0.049 A 
ATOM     51  C   UNL A   1      45.515  25.090  26.729  1.00  0.00     0.074 A 
ATOM     52  C   UNL A   1      48.384  30.731  27.280  1.00  0.00     0.029 A 
ATOM     53  N   UNL A   1      46.899  29.077  27.240  1.00  0.00    -0.354 N 
ATOM     54  N   UNL A   1      46.018  26.294  26.869  1.00  0.00    -0.248 NA
ATOM     55  C   UNL A   1      46.502  24.061  26.378  1.00  0.00     0.031 C 
ATOM     56  C   UNL A   1      49.047  29.549  26.932  1.00  0.00     0.029 A 
ATOM     57  C   UNL A   1      48.126  28.515  26.930  1.00  0.00     0.049 A 
ATOM     58  H   UNL A   1      46.050  28.582  27.300  1.00  0.00     0.167 HD
ATOM     59  C   UNL A   1      47.385  26.162  26.653  1.00  0.00     0.074 A 
ATOM     60  C   UNL A   1      47.630  24.759  26.385  1.00  0.00     0.031 C 
ATOM     61  C   UNL A   1      48.350  27.113  26.674  1.00  0.00     0.037 A 
BRANCH  48  62
ATOM     62  C   UNL A   1      46.274  32.794  27.982  1.00  0.00     0.058 A 
ATOM     63  C   UNL A   1      46.068  33.716  26.943  1.00  0.00     0.135 A 
ATOM     64  C   UNL A   1      46.763  33.285  29.203  1.00  0.00     0.135 A 
ATOM     65  F   UNL A   1      45.618  33.299  25.748  1.00  0.00    -0.206 F 
ATOM     66  C   UNL A   1      46.366  35.066  27.098  1.00  0.00     0.059 A 
ATOM     67  C   UNL A   1      47.042  34.636  29.388  1.00  0.00     0.059 A 
ATOM     68  F   UNL A   1      46.978  32.448  30.231  1.00  0.00    -0.206 F 
ATOM     69  C   UNL A   1      46.857  35.517  28.323  1.00  0.00     0.060 A 
BRANCH  69  70
ATOM     70  S   UNL A   1      47.241  37.271  28.509  1.00  0.00     0.124 S 
ATOM     71  O   UNL A   1      48.035  37.266  29.735  1.00  0.00    -0.237 OA
ATOM     72  O   UNL A   1      47.975  37.564  27.282  1.00  0.00    -0.237 OA
ATOM     73  O   UNL A   1      45.927  37.897  28.615  1.00  0.00    -0.744 OA
ENDBRANCH  69  70
ENDBRANCH  48  62
BRANCH  49  74
ATOM     74  C   UNL A   1      43.712  23.214  26.674  1.00  0.00     0.058 A 
ATOM     75  C   UNL A   1      43.402  22.380  27.758  1.00  0.00     0.135 A 
ATOM     76  C   UNL A   1      43.638  22.667  25.384  1.00  0.00     0.135 A 
ATOM     77  F   UNL A   1      43.462  22.858  29.010  1.00  0.00    -0.206 F 
ATOM     78  C   UNL A   1      43.048  21.047  27.574  1.00  0.00     0.059 A 
ATOM     79  C   UNL A   1      43.265  21.343  25.174  1.00  0.00     0.059 A 
ATOM     80  F   UNL A   1      43.906  23.429  24.313  1.00  0.00    -0.206 F 
ATOM     81  C   UNL A   1      42.981  20.538  26.277  1.00  0.00     0.060 A 
BRANCH  81  82
ATOM     82  S   UNL A   1      42.467  18.822  26.042  1.00  0.00     0.124 S 
ATOM     83  O   UNL A   1      41.072  18.985  25.652  1.00  0.00    -0.237 OA
ATOM     84  O   UNL A   1      43.375  18.368  24.994  1.00  0.00    -0.237 OA
ATOM     85  O   UNL A   1      42.692  18.224  27.355  1.00  0.00    -0.744 OA
ENDBRANCH  81  82
ENDBRANCH  49  74
BRANCH  61  86
ATOM     86  C   UNL A   1      49.763  26.657  26.442  1.00  0.00     0.058 A 
ATOM     87  C   UNL A   1      50.280  26.482  25.150  1.00  0.00     0.135 A 
ATOM     88  C   UNL A   1      50.613  26.402  27.530  1.00  0.00     0.135 A 
ATOM     89  F   UNL A   1      49.507  26.710  24.075  1.00  0.00    -0.206 F 
ATOM     90  C   UNL A   1      51.579  26.028  24.942  1.00  0.00     0.059 A 
ATOM     91  C   UNL A   1      51.923  25.971  27.346  1.00  0.00     0.059 A 
ATOM     92  F   UNL A   1      50.171  26.568  28.787  1.00  0.00    -0.206 F 
ATOM     93  C   UNL A   1      52.390  25.768  26.048  1.00  0.00     0.060 A 
BRANCH  93  94
ATOM     94  S   UNL A   1      54.071  25.172  25.773  1.00  0.00     0.124 S 
ATOM     95  O   UNL A   1      53.843  24.071  24.843  1.00  0.00    -0.237 OA
ATOM     96  O   UNL A   1      54.736  26.345  25.217  1.00  0.00    -0.237 OA
ATOM     97  O   UNL A   1      54.515  24.784  27.109  1.00  0.00    -0.744 OA
ENDBRANCH  93  94
ENDBRANCH  61  86
ENDBRANCH  35  36
ENDBRANCH  27  30
ENDBRANCH  25  26
ENDBRANCH   1  25
TORSDOF 16
ENDMDL
