MODEL 1
REMARK VINA RESULT:     -11.1      0.000      0.000
REMARK SMILES CCC[N@H+]1CCC[C@H]([C@@H](C)Nc2cccc(C(=O)NCCCNC(=O)c3ccc(-c4c5nc(c(-c6c(F)cc(S(=O)(=O)[O-])cc6F)c6ccc([nH]6)c(-c6c(F)cc(S(=O)(=O)[O-])cc6F)c6nc(c(-c7c(F)cc(S(=O)(=O)[O-])cc7F)c7ccc4[nH]7)C=C6)C=C5)cc3)c2)C1
REMARK SMILES IDX 20 1 19 2 17 3 18 4 16 6 12 7 13 8 92 9 14 10 15 11 11 12
REMARK SMILES IDX 9 14 10 15 8 16 4 17 5 18 93 19 6 21 7 22 3 23 2 24 1 25
REMARK SMILES IDX 21 26 22 27 23 28 24 29 25 31 26 32 27 33 91 34 28 35 90 36
REMARK SMILES IDX 29 37 30 38 31 39 84 40 32 41 89 42 83 43 85 44 33 45 88 46
REMARK SMILES IDX 82 47 81 48 34 50 68 51 47 52 67 53 48 54 51 55 66 56 86 57
REMARK SMILES IDX 49 58 50 59 65 61 87 62 52 63 35 64 36 65 45 66 37 67 38 68
REMARK SMILES IDX 44 69 46 70 39 71 40 72 41 73 42 74 43 75 69 76 70 77 79 78
REMARK SMILES IDX 71 79 72 80 78 81 80 82 73 83 74 84 75 85 76 86 77 87 53 88
REMARK SMILES IDX 54 89 63 90 55 91 56 92 62 93 64 94 57 95 58 96 59 97 60 98
REMARK SMILES IDX 61 99
REMARK H PARENT 19 5 11 13 4 20 23 30 85 49 51 60
REMARK Flexibility Score: inf
ROOT
ATOM      1  C   UNL A   1      33.276  29.038  24.597  1.00  0.00     0.118 C 
ENDROOT
BRANCH   1   2
ATOM      2  N   UNL A   1      32.326  29.302  23.518  1.00  0.00    -0.352 N 
ATOM      3  C   UNL A   1      31.350  28.538  22.909  1.00  0.00     0.251 C 
ATOM      4  O   UNL A   1      30.681  29.057  22.015  1.00  0.00    -0.269 OA
ATOM      5  H   UNL A   1      32.398  30.212  23.149  1.00  0.00     0.163 HD
BRANCH   3   6
ATOM      6  C   UNL A   1      31.136  27.102  23.231  1.00  0.00     0.041 A 
ATOM      7  C   UNL A   1      31.694  24.781  22.773  1.00  0.00     0.035 A 
ATOM      8  C   UNL A   1      30.501  24.404  23.396  1.00  0.00     0.026 A 
ATOM      9  C   UNL A   1      32.057  26.122  22.880  1.00  0.00     0.039 A 
ATOM     10  C   UNL A   1      29.662  25.354  23.991  1.00  0.00     0.003 A 
ATOM     11  C   UNL A   1      29.952  26.711  23.857  1.00  0.00     0.014 A 
BRANCH   7  12
ATOM     12  N   UNL A   1      32.465  23.841  22.112  1.00  0.00    -0.382 N 
ATOM     13  H   UNL A   1      32.677  24.004  21.165  1.00  0.00     0.160 HD
BRANCH  12  14
ATOM     14  C   UNL A   1      32.988  22.615  22.729  1.00  0.00     0.084 C 
ATOM     15  C   UNL A   1      32.061  21.447  22.376  1.00  0.00     0.031 C 
BRANCH  14  16
ATOM     16  C   UNL A   1      33.152  22.804  24.263  1.00  0.00     0.066 C 
ATOM     17  N   UNL A   1      35.618  22.533  24.190  1.00  0.00    -0.335 N 
ATOM     18  C   UNL A   1      35.562  21.274  24.953  1.00  0.00     0.262 C 
ATOM     19  C   UNL A   1      34.521  23.413  24.620  1.00  0.00     0.267 C 
ATOM     20  H   UNL A   1      35.493  22.336  23.197  1.00  0.00     0.348 HD
ATOM     21  C   UNL A   1      34.215  20.555  24.794  1.00  0.00     0.062 C 
ATOM     22  C   UNL A   1      33.021  21.481  25.041  1.00  0.00     0.017 C 
BRANCH  17  23
ATOM     23  C   UNL A   1      36.937  23.170  24.315  1.00  0.00     0.261 C 
BRANCH  23  24
ATOM     24  C   UNL A   1      37.384  23.513  25.750  1.00  0.00     0.058 C 
ATOM     25  C   UNL A   1      38.665  22.850  26.236  1.00  0.00     0.010 C 
ENDBRANCH  23  24
ENDBRANCH  17  23
ENDBRANCH  14  16
ENDBRANCH  12  14
ENDBRANCH   7  12
ENDBRANCH   3   6
ENDBRANCH   1   2
BRANCH   1  26
ATOM     26  C   UNL A   1      32.653  28.523  25.882  1.00  0.00     0.042 C 
BRANCH  26  27
ATOM     27  C   UNL A   1      33.536  28.677  27.106  1.00  0.00     0.118 C 
BRANCH  27  28
ATOM     28  N   UNL A   1      33.509  30.031  27.655  1.00  0.00    -0.352 N 
ATOM     29  C   UNL A   1      34.440  30.728  28.385  1.00  0.00     0.251 C 
ATOM     30  H   UNL A   1      32.681  30.529  27.469  1.00  0.00     0.163 HD
ATOM     31  O   UNL A   1      34.109  31.783  28.928  1.00  0.00    -0.269 OA
BRANCH  29  32
ATOM     32  C   UNL A   1      35.819  30.220  28.544  1.00  0.00     0.039 A 
ATOM     33  C   UNL A   1      36.685  30.230  27.446  1.00  0.00     0.014 A 
ATOM     34  C   UNL A   1      36.260  29.712  29.766  1.00  0.00     0.014 A 
ATOM     35  C   UNL A   1      38.011  29.816  27.602  1.00  0.00     0.010 A 
ATOM     36  C   UNL A   1      37.604  29.407  29.949  1.00  0.00     0.010 A 
ATOM     37  C   UNL A   1      38.495  29.448  28.868  1.00  0.00    -0.014 A 
BRANCH  37  38
ATOM     38  C   UNL A   1      39.921  29.100  29.094  1.00  0.00     0.031 A 
ATOM     39  C   UNL A   1      40.880  30.143  29.604  1.00  0.00     0.074 A 
ATOM     40  C   UNL A   1      40.370  27.873  28.757  1.00  0.00     0.049 A 
ATOM     41  N   UNL A   1      42.177  30.068  29.760  1.00  0.00    -0.248 NA
ATOM     42  C   UNL A   1      40.313  31.456  29.951  1.00  0.00     0.031 C 
ATOM     43  C   UNL A   1      39.548  26.793  28.205  1.00  0.00     0.029 A 
ATOM     44  N   UNL A   1      41.629  27.331  28.815  1.00  0.00    -0.354 N 
ATOM     45  C   UNL A   1      42.579  31.322  30.204  1.00  0.00     0.074 A 
ATOM     46  C   UNL A   1      41.399  32.158  30.233  1.00  0.00     0.031 C 
ATOM     47  C   UNL A   1      40.318  25.713  28.000  1.00  0.00     0.029 A 
ATOM     48  C   UNL A   1      41.696  26.035  28.357  1.00  0.00     0.049 A 
ATOM     49  H   UNL A   1      42.412  27.823  29.152  1.00  0.00     0.167 HD
ATOM     50  C   UNL A   1      43.814  31.733  30.579  1.00  0.00     0.037 A 
ATOM     51  C   UNL A   1      42.749  25.206  28.224  1.00  0.00     0.037 A 
ATOM     52  C   UNL A   1      44.977  30.886  30.570  1.00  0.00     0.049 A 
ATOM     53  C   UNL A   1      44.113  25.687  28.637  1.00  0.00     0.074 A 
ATOM     54  C   UNL A   1      46.262  31.186  30.987  1.00  0.00     0.029 A 
ATOM     55  N   UNL A   1      44.999  29.574  30.119  1.00  0.00    -0.354 N 
ATOM     56  N   UNL A   1      44.463  26.858  29.118  1.00  0.00    -0.248 NA
ATOM     57  C   UNL A   1      45.225  24.739  28.493  1.00  0.00     0.031 C 
ATOM     58  C   UNL A   1      47.072  30.074  30.737  1.00  0.00     0.029 A 
ATOM     59  C   UNL A   1      46.280  29.059  30.223  1.00  0.00     0.049 A 
ATOM     60  H   UNL A   1      44.219  29.082  29.776  1.00  0.00     0.167 HD
ATOM     61  C   UNL A   1      45.830  26.774  29.362  1.00  0.00     0.074 A 
ATOM     62  C   UNL A   1      46.240  25.437  28.986  1.00  0.00     0.031 C 
ATOM     63  C   UNL A   1      46.670  27.720  29.852  1.00  0.00     0.037 A 
BRANCH  50  64
ATOM     64  C   UNL A   1      43.968  33.160  31.035  1.00  0.00     0.058 A 
ATOM     65  C   UNL A   1      43.909  33.512  32.394  1.00  0.00     0.135 A 
ATOM     66  C   UNL A   1      44.210  34.186  30.106  1.00  0.00     0.135 A 
ATOM     67  F   UNL A   1      43.665  32.576  33.326  1.00  0.00    -0.206 F 
ATOM     68  C   UNL A   1      44.051  34.831  32.813  1.00  0.00     0.059 A 
ATOM     69  C   UNL A   1      44.388  35.508  30.505  1.00  0.00     0.059 A 
ATOM     70  F   UNL A   1      44.276  33.908  28.795  1.00  0.00    -0.206 F 
ATOM     71  C   UNL A   1      44.290  35.823  31.860  1.00  0.00     0.060 A 
BRANCH  71  72
ATOM     72  S   UNL A   1      44.477  37.528  32.421  1.00  0.00     0.124 S 
ATOM     73  O   UNL A   1      43.446  37.609  33.451  1.00  0.00    -0.237 OA
ATOM     74  O   UNL A   1      45.856  37.547  32.902  1.00  0.00    -0.237 OA
ATOM     75  O   UNL A   1      44.224  38.313  31.218  1.00  0.00    -0.744 OA
ENDBRANCH  71  72
ENDBRANCH  50  64
BRANCH  51  76
ATOM     76  C   UNL A   1      42.549  23.828  27.698  1.00  0.00     0.058 A 
ATOM     77  C   UNL A   1      42.526  23.579  26.318  1.00  0.00     0.135 A 
ATOM     78  C   UNL A   1      42.394  22.730  28.560  1.00  0.00     0.135 A 
ATOM     79  F   UNL A   1      42.663  24.595  25.451  1.00  0.00    -0.206 F 
ATOM     80  C   UNL A   1      42.339  22.297  25.810  1.00  0.00     0.059 A 
ATOM     81  C   UNL A   1      42.235  21.436  28.077  1.00  0.00     0.059 A 
ATOM     82  F   UNL A   1      42.426  22.911  29.891  1.00  0.00    -0.206 F 
ATOM     83  C   UNL A   1      42.199  21.230  26.699  1.00  0.00     0.060 A 
BRANCH  83  84
ATOM     84  S   UNL A   1      42.009  19.565  26.027  1.00  0.00     0.124 S 
ATOM     85  O   UNL A   1      42.385  18.742  27.171  1.00  0.00    -0.237 OA
ATOM     86  O   UNL A   1      40.597  19.543  25.660  1.00  0.00    -0.237 OA
ATOM     87  O   UNL A   1      42.941  19.548  24.904  1.00  0.00    -0.744 OA
ENDBRANCH  83  84
ENDBRANCH  51  76
BRANCH  63  88
ATOM     88  C   UNL A   1      48.110  27.335  30.051  1.00  0.00     0.058 A 
ATOM     89  C   UNL A   1      49.100  27.664  29.113  1.00  0.00     0.135 A 
ATOM     90  C   UNL A   1      48.513  26.684  31.228  1.00  0.00     0.135 A 
ATOM     91  F   UNL A   1      48.768  28.280  27.967  1.00  0.00    -0.206 F 
ATOM     92  C   UNL A   1      50.437  27.343  29.325  1.00  0.00     0.059 A 
ATOM     93  C   UNL A   1      49.848  26.381  31.476  1.00  0.00     0.059 A 
ATOM     94  F   UNL A   1      47.607  26.355  32.164  1.00  0.00    -0.206 F 
ATOM     95  C   UNL A   1      50.802  26.705  30.513  1.00  0.00     0.060 A 
BRANCH  95  96
ATOM     96  S   UNL A   1      52.545  26.336  30.795  1.00  0.00     0.124 S 
ATOM     97  O   UNL A   1      53.026  27.596  31.353  1.00  0.00    -0.237 OA
ATOM     98  O   UNL A   1      52.479  25.214  31.727  1.00  0.00    -0.237 OA
ATOM     99  O   UNL A   1      53.044  26.009  29.463  1.00  0.00    -0.744 OA
ENDBRANCH  95  96
ENDBRANCH  63  88
ENDBRANCH  37  38
ENDBRANCH  29  32
ENDBRANCH  27  28
ENDBRANCH  26  27
ENDBRANCH   1  26
TORSDOF 18
ENDMDL
MODEL 2
REMARK VINA RESULT:     -11.1      4.935     10.598
REMARK SMILES CCC[N@H+]1CCC[C@H]([C@@H](C)Nc2cccc(C(=O)NCCCNC(=O)c3ccc(-c4c5nc(c(-c6c(F)cc(S(=O)(=O)[O-])cc6F)c6ccc([nH]6)c(-c6c(F)cc(S(=O)(=O)[O-])cc6F)c6nc(c(-c7c(F)cc(S(=O)(=O)[O-])cc7F)c7ccc4[nH]7)C=C6)C=C5)cc3)c2)C1
REMARK SMILES IDX 20 1 19 2 17 3 18 4 16 6 12 7 13 8 92 9 14 10 15 11 11 12
REMARK SMILES IDX 9 14 10 15 8 16 4 17 5 18 93 19 6 21 7 22 3 23 2 24 1 25
REMARK SMILES IDX 21 26 22 27 23 28 24 29 25 31 26 32 27 33 91 34 28 35 90 36
REMARK SMILES IDX 29 37 30 38 31 39 84 40 32 41 89 42 83 43 85 44 33 45 88 46
REMARK SMILES IDX 82 47 81 48 34 50 68 51 47 52 67 53 48 54 51 55 66 56 86 57
REMARK SMILES IDX 49 58 50 59 65 61 87 62 52 63 35 64 36 65 45 66 37 67 38 68
REMARK SMILES IDX 44 69 46 70 39 71 40 72 41 73 42 74 43 75 69 76 70 77 79 78
REMARK SMILES IDX 71 79 72 80 78 81 80 82 73 83 74 84 75 85 76 86 77 87 53 88
REMARK SMILES IDX 54 89 63 90 55 91 56 92 62 93 64 94 57 95 58 96 59 97 60 98
REMARK SMILES IDX 61 99
REMARK H PARENT 19 5 11 13 4 20 23 30 85 49 51 60
REMARK Flexibility Score: inf
ROOT
ATOM      1  C   UNL A   1      36.649  23.008  25.450  1.00  0.00     0.118 C 
ENDROOT
BRANCH   1   2
ATOM      2  N   UNL A   1      35.940  22.318  26.526  1.00  0.00    -0.352 N 
ATOM      3  C   UNL A   1      34.603  22.161  26.829  1.00  0.00     0.251 C 
ATOM      4  O   UNL A   1      34.307  21.492  27.820  1.00  0.00    -0.269 OA
ATOM      5  H   UNL A   1      36.541  21.873  27.167  1.00  0.00     0.163 HD
BRANCH   3   6
ATOM      6  C   UNL A   1      33.520  22.833  26.062  1.00  0.00     0.041 A 
ATOM      7  C   UNL A   1      31.860  24.605  25.959  1.00  0.00     0.035 A 
ATOM      8  C   UNL A   1      31.197  23.884  24.962  1.00  0.00     0.026 A 
ATOM      9  C   UNL A   1      33.113  24.131  26.344  1.00  0.00     0.039 A 
ATOM     10  C   UNL A   1      31.719  22.682  24.470  1.00  0.00     0.003 A 
ATOM     11  C   UNL A   1      32.852  22.127  25.061  1.00  0.00     0.014 A 
BRANCH   7  12
ATOM     12  N   UNL A   1      31.285  25.743  26.498  1.00  0.00    -0.382 N 
ATOM     13  H   UNL A   1      30.467  25.634  27.034  1.00  0.00     0.160 HD
BRANCH  12  14
ATOM     14  C   UNL A   1      31.814  27.102  26.322  1.00  0.00     0.084 C 
ATOM     15  C   UNL A   1      31.600  27.889  27.619  1.00  0.00     0.031 C 
BRANCH  14  16
ATOM     16  C   UNL A   1      31.158  27.788  25.092  1.00  0.00     0.066 C 
ATOM     17  N   UNL A   1      33.104  27.352  23.615  1.00  0.00    -0.335 N 
ATOM     18  C   UNL A   1      33.414  28.789  23.500  1.00  0.00     0.262 C 
ATOM     19  C   UNL A   1      31.651  27.178  23.766  1.00  0.00     0.267 C 
ATOM     20  H   UNL A   1      33.556  26.971  24.446  1.00  0.00     0.348 HD
ATOM     21  C   UNL A   1      32.909  29.592  24.706  1.00  0.00     0.062 C 
ATOM     22  C   UNL A   1      31.442  29.301  25.034  1.00  0.00     0.017 C 
BRANCH  17  23
ATOM     23  C   UNL A   1      33.648  26.600  22.475  1.00  0.00     0.261 C 
BRANCH  23  24
ATOM     24  C   UNL A   1      32.627  25.775  21.666  1.00  0.00     0.058 C 
ATOM     25  C   UNL A   1      32.938  24.296  21.493  1.00  0.00     0.010 C 
ENDBRANCH  23  24
ENDBRANCH  17  23
ENDBRANCH  14  16
ENDBRANCH  12  14
ENDBRANCH   7  12
ENDBRANCH   3   6
ENDBRANCH   1   2
BRANCH   1  26
ATOM     26  C   UNL A   1      37.617  24.083  25.911  1.00  0.00     0.042 C 
BRANCH  26  27
ATOM     27  C   UNL A   1      38.696  23.585  26.855  1.00  0.00     0.118 C 
BRANCH  27  28
ATOM     28  N   UNL A   1      40.042  23.756  26.314  1.00  0.00    -0.352 N 
ATOM     29  C   UNL A   1      40.953  24.774  26.461  1.00  0.00     0.251 C 
ATOM     30  H   UNL A   1      40.351  23.014  25.746  1.00  0.00     0.163 HD
ATOM     31  O   UNL A   1      41.944  24.802  25.730  1.00  0.00    -0.269 OA
BRANCH  29  32
ATOM     32  C   UNL A   1      40.746  25.841  27.464  1.00  0.00     0.039 A 
ATOM     33  C   UNL A   1      39.823  25.643  28.495  1.00  0.00     0.014 A 
ATOM     34  C   UNL A   1      41.443  27.046  27.382  1.00  0.00     0.014 A 
ATOM     35  C   UNL A   1      39.670  26.616  29.487  1.00  0.00     0.010 A 
ATOM     36  C   UNL A   1      41.373  27.961  28.425  1.00  0.00     0.010 A 
ATOM     37  C   UNL A   1      40.481  27.762  29.487  1.00  0.00    -0.014 A 
BRANCH  37  38
ATOM     38  C   UNL A   1      40.419  28.769  30.578  1.00  0.00     0.031 A 
ATOM     39  C   UNL A   1      41.314  28.632  31.782  1.00  0.00     0.074 A 
ATOM     40  C   UNL A   1      39.499  29.754  30.525  1.00  0.00     0.049 A 
ATOM     41  N   UNL A   1      41.333  29.339  32.882  1.00  0.00    -0.248 NA
ATOM     42  C   UNL A   1      42.294  27.533  31.761  1.00  0.00     0.031 C 
ATOM     43  C   UNL A   1      38.541  29.960  29.436  1.00  0.00     0.029 A 
ATOM     44  N   UNL A   1      39.206  30.757  31.415  1.00  0.00    -0.354 N 
ATOM     45  C   UNL A   1      42.309  28.762  33.687  1.00  0.00     0.074 A 
ATOM     46  C   UNL A   1      42.816  27.609  32.975  1.00  0.00     0.031 C 
ATOM     47  C   UNL A   1      37.786  31.036  29.710  1.00  0.00     0.029 A 
ATOM     48  C   UNL A   1      38.170  31.568  31.014  1.00  0.00     0.049 A 
ATOM     49  H   UNL A   1      39.692  30.883  32.262  1.00  0.00     0.167 HD
ATOM     50  C   UNL A   1      42.760  29.170  34.897  1.00  0.00     0.037 A 
ATOM     51  C   UNL A   1      37.584  32.612  31.632  1.00  0.00     0.037 A 
ATOM     52  C   UNL A   1      42.266  30.333  35.586  1.00  0.00     0.049 A 
ATOM     53  C   UNL A   1      38.095  33.041  32.981  1.00  0.00     0.074 A 
ATOM     54  C   UNL A   1      42.696  30.868  36.787  1.00  0.00     0.029 A 
ATOM     55  N   UNL A   1      41.230  31.140  35.136  1.00  0.00    -0.354 N 
ATOM     56  N   UNL A   1      39.064  32.522  33.698  1.00  0.00    -0.248 NA
ATOM     57  C   UNL A   1      37.437  34.196  33.605  1.00  0.00     0.031 C 
ATOM     58  C   UNL A   1      41.885  31.966  37.090  1.00  0.00     0.029 A 
ATOM     59  C   UNL A   1      40.990  32.154  36.049  1.00  0.00     0.049 A 
ATOM     60  H   UNL A   1      40.739  31.011  34.293  1.00  0.00     0.167 HD
ATOM     61  C   UNL A   1      39.151  33.307  34.843  1.00  0.00     0.074 A 
ATOM     62  C   UNL A   1      38.145  34.341  34.717  1.00  0.00     0.031 C 
ATOM     63  C   UNL A   1      39.989  33.183  35.903  1.00  0.00     0.037 A 
BRANCH  50  64
ATOM     64  C   UNL A   1      43.845  28.355  35.550  1.00  0.00     0.058 A 
ATOM     65  C   UNL A   1      45.203  28.556  35.249  1.00  0.00     0.135 A 
ATOM     66  C   UNL A   1      43.528  27.384  36.514  1.00  0.00     0.135 A 
ATOM     67  F   UNL A   1      45.564  29.461  34.324  1.00  0.00    -0.206 F 
ATOM     68  C   UNL A   1      46.203  27.802  35.854  1.00  0.00     0.059 A 
ATOM     69  C   UNL A   1      44.515  26.640  37.156  1.00  0.00     0.059 A 
ATOM     70  F   UNL A   1      42.248  27.149  36.842  1.00  0.00    -0.206 F 
ATOM     71  C   UNL A   1      45.849  26.846  36.806  1.00  0.00     0.060 A 
BRANCH  71  72
ATOM     72  S   UNL A   1      47.160  25.880  37.585  1.00  0.00     0.124 S 
ATOM     73  O   UNL A   1      46.545  24.558  37.653  1.00  0.00    -0.237 OA
ATOM     74  O   UNL A   1      48.256  26.019  36.630  1.00  0.00    -0.237 OA
ATOM     75  O   UNL A   1      47.359  26.545  38.867  1.00  0.00    -0.744 OA
ENDBRANCH  71  72
ENDBRANCH  50  64
BRANCH  51  76
ATOM     76  C   UNL A   1      36.465  33.335  30.971  1.00  0.00     0.058 A 
ATOM     77  C   UNL A   1      35.155  33.245  31.465  1.00  0.00     0.135 A 
ATOM     78  C   UNL A   1      36.681  34.144  29.843  1.00  0.00     0.135 A 
ATOM     79  F   UNL A   1      34.894  32.480  32.536  1.00  0.00    -0.206 F 
ATOM     80  C   UNL A   1      34.098  33.915  30.857  1.00  0.00     0.059 A 
ATOM     81  C   UNL A   1      35.646  34.847  29.235  1.00  0.00     0.059 A 
ATOM     82  F   UNL A   1      37.919  34.280  29.341  1.00  0.00    -0.206 F 
ATOM     83  C   UNL A   1      34.354  34.718  29.744  1.00  0.00     0.060 A 
BRANCH  83  84
ATOM     84  S   UNL A   1      32.982  35.622  28.996  1.00  0.00     0.124 S 
ATOM     85  O   UNL A   1      33.682  36.690  28.293  1.00  0.00    -0.237 OA
ATOM     86  O   UNL A   1      32.364  34.601  28.156  1.00  0.00    -0.237 OA
ATOM     87  O   UNL A   1      32.188  36.040  30.148  1.00  0.00    -0.744 OA
ENDBRANCH  83  84
ENDBRANCH  51  76
BRANCH  63  88
ATOM     88  C   UNL A   1      39.884  34.211  36.995  1.00  0.00     0.058 A 
ATOM     89  C   UNL A   1      40.448  35.489  36.865  1.00  0.00     0.135 A 
ATOM     90  C   UNL A   1      39.154  33.932  38.162  1.00  0.00     0.135 A 
ATOM     91  F   UNL A   1      41.162  35.805  35.773  1.00  0.00    -0.206 F 
ATOM     92  C   UNL A   1      40.309  36.450  37.862  1.00  0.00     0.059 A 
ATOM     93  C   UNL A   1      38.975  34.887  39.158  1.00  0.00     0.059 A 
ATOM     94  F   UNL A   1      38.586  32.728  38.333  1.00  0.00    -0.206 F 
ATOM     95  C   UNL A   1      39.566  36.140  39.004  1.00  0.00     0.060 A 
BRANCH  95  96
ATOM     96  S   UNL A   1      39.356  37.410  40.268  1.00  0.00     0.124 S 
ATOM     97  O   UNL A   1      40.742  37.751  40.575  1.00  0.00    -0.237 OA
ATOM     98  O   UNL A   1      38.593  38.433  39.559  1.00  0.00    -0.237 OA
ATOM     99  O   UNL A   1      38.631  36.718  41.329  1.00  0.00    -0.744 OA
ENDBRANCH  95  96
ENDBRANCH  63  88
ENDBRANCH  37  38
ENDBRANCH  29  32
ENDBRANCH  27  28
ENDBRANCH  26  27
ENDBRANCH   1  26
TORSDOF 18
ENDMDL
MODEL 3
REMARK VINA RESULT:     -11.0      4.950     10.549
REMARK SMILES CCC[N@H+]1CCC[C@H]([C@@H](C)Nc2cccc(C(=O)NCCCNC(=O)c3ccc(-c4c5nc(c(-c6c(F)cc(S(=O)(=O)[O-])cc6F)c6ccc([nH]6)c(-c6c(F)cc(S(=O)(=O)[O-])cc6F)c6nc(c(-c7c(F)cc(S(=O)(=O)[O-])cc7F)c7ccc4[nH]7)C=C6)C=C5)cc3)c2)C1
REMARK SMILES IDX 20 1 19 2 17 3 18 4 16 6 12 7 13 8 92 9 14 10 15 11 11 12
REMARK SMILES IDX 9 14 10 15 8 16 4 17 5 18 93 19 6 21 7 22 3 23 2 24 1 25
REMARK SMILES IDX 21 26 22 27 23 28 24 29 25 31 26 32 27 33 91 34 28 35 90 36
REMARK SMILES IDX 29 37 30 38 31 39 84 40 32 41 89 42 83 43 85 44 33 45 88 46
REMARK SMILES IDX 82 47 81 48 34 50 68 51 47 52 67 53 48 54 51 55 66 56 86 57
REMARK SMILES IDX 49 58 50 59 65 61 87 62 52 63 35 64 36 65 45 66 37 67 38 68
REMARK SMILES IDX 44 69 46 70 39 71 40 72 41 73 42 74 43 75 69 76 70 77 79 78
REMARK SMILES IDX 71 79 72 80 78 81 80 82 73 83 74 84 75 85 76 86 77 87 53 88
REMARK SMILES IDX 54 89 63 90 55 91 56 92 62 93 64 94 57 95 58 96 59 97 60 98
REMARK SMILES IDX 61 99
REMARK H PARENT 19 5 11 13 4 20 23 30 85 49 51 60
REMARK Flexibility Score: inf
ROOT
ATOM      1  C   UNL A   1      38.045  22.208  25.730  1.00  0.00     0.118 C 
ENDROOT
BRANCH   1   2
ATOM      2  N   UNL A   1      37.569  22.482  24.375  1.00  0.00    -0.352 N 
ATOM      3  C   UNL A   1      36.356  22.899  23.865  1.00  0.00     0.251 C 
ATOM      4  O   UNL A   1      36.264  23.063  22.648  1.00  0.00    -0.269 OA
ATOM      5  H   UNL A   1      38.256  22.340  23.684  1.00  0.00     0.163 HD
BRANCH   3   6
ATOM      6  C   UNL A   1      35.146  23.074  24.711  1.00  0.00     0.041 A 
ATOM      7  C   UNL A   1      33.703  24.581  25.959  1.00  0.00     0.035 A 
ATOM      8  C   UNL A   1      33.208  23.477  26.659  1.00  0.00     0.026 A 
ATOM      9  C   UNL A   1      34.530  24.310  24.871  1.00  0.00     0.039 A 
ATOM     10  C   UNL A   1      33.624  22.177  26.349  1.00  0.00     0.003 A 
ATOM     11  C   UNL A   1      34.638  21.981  25.413  1.00  0.00     0.014 A 
BRANCH   7  12
ATOM     12  N   UNL A   1      33.350  25.865  26.338  1.00  0.00    -0.382 N 
ATOM     13  H   UNL A   1      33.181  26.031  27.293  1.00  0.00     0.160 HD
BRANCH  12  14
ATOM     14  C   UNL A   1      33.210  26.994  25.410  1.00  0.00     0.084 C 
ATOM     15  C   UNL A   1      34.133  28.128  25.867  1.00  0.00     0.031 C 
BRANCH  14  16
ATOM     16  C   UNL A   1      31.724  27.438  25.310  1.00  0.00     0.066 C 
ATOM     17  N   UNL A   1      31.188  25.785  23.538  1.00  0.00    -0.335 N 
ATOM     18  C   UNL A   1      30.949  26.843  22.541  1.00  0.00     0.262 C 
ATOM     19  C   UNL A   1      30.810  26.278  24.871  1.00  0.00     0.267 C 
ATOM     20  H   UNL A   1      32.181  25.552  23.558  1.00  0.00     0.348 HD
ATOM     21  C   UNL A   1      31.717  28.133  22.863  1.00  0.00     0.062 C 
ATOM     22  C   UNL A   1      31.515  28.591  24.310  1.00  0.00     0.017 C 
BRANCH  17  23
ATOM     23  C   UNL A   1      30.487  24.545  23.174  1.00  0.00     0.261 C 
BRANCH  23  24
ATOM     24  C   UNL A   1      31.058  23.248  23.779  1.00  0.00     0.058 C 
ATOM     25  C   UNL A   1      31.953  22.415  22.872  1.00  0.00     0.010 C 
ENDBRANCH  23  24
ENDBRANCH  17  23
ENDBRANCH  14  16
ENDBRANCH  12  14
ENDBRANCH   7  12
ENDBRANCH   3   6
ENDBRANCH   1   2
BRANCH   1  26
ATOM     26  C   UNL A   1      38.476  23.435  26.514  1.00  0.00     0.042 C 
BRANCH  26  27
ATOM     27  C   UNL A   1      39.906  23.381  27.018  1.00  0.00     0.118 C 
BRANCH  27  28
ATOM     28  N   UNL A   1      40.852  24.009  26.100  1.00  0.00    -0.352 N 
ATOM     29  C   UNL A   1      41.459  25.241  26.131  1.00  0.00     0.251 C 
ATOM     30  H   UNL A   1      41.098  23.454  25.325  1.00  0.00     0.163 HD
ATOM     31  O   UNL A   1      42.054  25.642  25.129  1.00  0.00    -0.269 OA
BRANCH  29  32
ATOM     32  C   UNL A   1      41.386  26.095  27.336  1.00  0.00     0.039 A 
ATOM     33  C   UNL A   1      42.382  27.050  27.561  1.00  0.00     0.014 A 
ATOM     34  C   UNL A   1      40.350  25.946  28.259  1.00  0.00     0.014 A 
ATOM     35  C   UNL A   1      42.287  27.908  28.660  1.00  0.00     0.010 A 
ATOM     36  C   UNL A   1      40.196  26.870  29.285  1.00  0.00     0.010 A 
ATOM     37  C   UNL A   1      41.165  27.858  29.504  1.00  0.00    -0.014 A 
BRANCH  37  38
ATOM     38  C   UNL A   1      40.978  28.820  30.621  1.00  0.00     0.031 A 
ATOM     39  C   UNL A   1      41.812  28.696  31.869  1.00  0.00     0.074 A 
ATOM     40  C   UNL A   1      40.001  29.747  30.547  1.00  0.00     0.049 A 
ATOM     41  N   UNL A   1      41.724  29.363  32.991  1.00  0.00    -0.248 NA
ATOM     42  C   UNL A   1      42.859  27.661  31.870  1.00  0.00     0.031 C 
ATOM     43  C   UNL A   1      39.094  29.932  29.412  1.00  0.00     0.029 A 
ATOM     44  N   UNL A   1      39.596  30.697  31.450  1.00  0.00    -0.354 N 
ATOM     45  C   UNL A   1      42.688  28.819  33.832  1.00  0.00     0.074 A 
ATOM     46  C   UNL A   1      43.307  27.726  33.114  1.00  0.00     0.031 C 
ATOM     47  C   UNL A   1      38.258  30.949  29.676  1.00  0.00     0.029 A 
ATOM     48  C   UNL A   1      38.533  31.456  31.016  1.00  0.00     0.049 A 
ATOM     49  H   UNL A   1      40.025  30.823  32.327  1.00  0.00     0.167 HD
ATOM     50  C   UNL A   1      43.044  29.210  35.079  1.00  0.00     0.037 A 
ATOM     51  C   UNL A   1      37.849  32.439  31.633  1.00  0.00     0.037 A 
ATOM     52  C   UNL A   1      42.439  30.315  35.775  1.00  0.00     0.049 A 
ATOM     53  C   UNL A   1      38.255  32.850  33.022  1.00  0.00     0.074 A 
ATOM     54  C   UNL A   1      42.766  30.833  37.016  1.00  0.00     0.029 A 
ATOM     55  N   UNL A   1      41.381  31.072  35.292  1.00  0.00    -0.354 N 
ATOM     56  N   UNL A   1      39.214  32.367  33.777  1.00  0.00    -0.248 NA
ATOM     57  C   UNL A   1      37.491  33.940  33.643  1.00  0.00     0.031 C 
ATOM     58  C   UNL A   1      41.872  31.866  37.307  1.00  0.00     0.029 A 
ATOM     59  C   UNL A   1      41.026  32.036  36.222  1.00  0.00     0.049 A 
ATOM     60  H   UNL A   1      40.947  30.943  34.419  1.00  0.00     0.167 HD
ATOM     61  C   UNL A   1      39.187  33.114  34.950  1.00  0.00     0.074 A 
ATOM     62  C   UNL A   1      38.125  34.088  34.799  1.00  0.00     0.031 C 
ATOM     63  C   UNL A   1      39.970  33.005  36.051  1.00  0.00     0.037 A 
BRANCH  50  64
ATOM     64  C   UNL A   1      44.141  28.442  35.767  1.00  0.00     0.058 A 
ATOM     65  C   UNL A   1      43.865  27.348  36.604  1.00  0.00     0.135 A 
ATOM     66  C   UNL A   1      45.489  28.781  35.562  1.00  0.00     0.135 A 
ATOM     67  F   UNL A   1      42.594  26.987  36.848  1.00  0.00    -0.206 F 
ATOM     68  C   UNL A   1      44.880  26.640  37.239  1.00  0.00     0.059 A 
ATOM     69  C   UNL A   1      46.523  28.066  36.161  1.00  0.00     0.059 A 
ATOM     70  F   UNL A   1      45.813  29.817  34.773  1.00  0.00    -0.206 F 
ATOM     71  C   UNL A   1      46.207  27.007  37.011  1.00  0.00     0.060 A 
BRANCH  71  72
ATOM     72  S   UNL A   1      47.512  26.075  37.839  1.00  0.00     0.124 S 
ATOM     73  O   UNL A   1      48.089  25.331  36.723  1.00  0.00    -0.237 OA
ATOM     74  O   UNL A   1      48.348  27.136  38.392  1.00  0.00    -0.237 OA
ATOM     75  O   UNL A   1      46.789  25.273  38.820  1.00  0.00    -0.744 OA
ENDBRANCH  71  72
ENDBRANCH  50  64
BRANCH  51  76
ATOM     76  C   UNL A   1      36.724  33.115  30.931  1.00  0.00     0.058 A 
ATOM     77  C   UNL A   1      35.391  32.821  31.255  1.00  0.00     0.135 A 
ATOM     78  C   UNL A   1      36.955  34.078  29.936  1.00  0.00     0.135 A 
ATOM     79  F   UNL A   1      35.116  31.903  32.194  1.00  0.00    -0.206 F 
ATOM     80  C   UNL A   1      34.328  33.444  30.608  1.00  0.00     0.059 A 
ATOM     81  C   UNL A   1      35.910  34.736  29.295  1.00  0.00     0.059 A 
ATOM     82  F   UNL A   1      38.213  34.410  29.601  1.00  0.00    -0.206 F 
ATOM     83  C   UNL A   1      34.599  34.404  29.631  1.00  0.00     0.060 A 
BRANCH  83  84
ATOM     84  S   UNL A   1      33.211  35.242  28.835  1.00  0.00     0.124 S 
ATOM     85  O   UNL A   1      32.613  34.156  28.068  1.00  0.00    -0.237 OA
ATOM     86  O   UNL A   1      32.441  35.715  29.982  1.00  0.00    -0.237 OA
ATOM     87  O   UNL A   1      33.858  36.289  28.050  1.00  0.00    -0.744 OA
ENDBRANCH  83  84
ENDBRANCH  51  76
BRANCH  63  88
ATOM     88  C   UNL A   1      39.740  33.984  37.168  1.00  0.00     0.058 A 
ATOM     89  C   UNL A   1      38.882  33.696  38.241  1.00  0.00     0.135 A 
ATOM     90  C   UNL A   1      40.438  35.203  37.197  1.00  0.00     0.135 A 
ATOM     91  F   UNL A   1      38.185  32.549  38.260  1.00  0.00    -0.206 F 
ATOM     92  C   UNL A   1      38.708  34.590  39.293  1.00  0.00     0.059 A 
ATOM     93  C   UNL A   1      40.304  36.098  38.254  1.00  0.00     0.059 A 
ATOM     94  F   UNL A   1      41.279  35.524  36.201  1.00  0.00    -0.206 F 
ATOM     95  C   UNL A   1      39.428  35.787  39.292  1.00  0.00     0.060 A 
BRANCH  95  96
ATOM     96  S   UNL A   1      39.227  36.916  40.685  1.00  0.00     0.124 S 
ATOM     97  O   UNL A   1      38.348  37.932  40.116  1.00  0.00    -0.237 OA
ATOM     98  O   UNL A   1      38.627  36.055  41.700  1.00  0.00    -0.237 OA
ATOM     99  O   UNL A   1      40.590  37.353  40.969  1.00  0.00    -0.744 OA
ENDBRANCH  95  96
ENDBRANCH  63  88
ENDBRANCH  37  38
ENDBRANCH  29  32
ENDBRANCH  27  28
ENDBRANCH  26  27
ENDBRANCH   1  26
TORSDOF 18
ENDMDL
