MODEL 1
REMARK VINA RESULT:      -8.1      0.000      0.000
REMARK SMILES CC(C)C[C@H](NC(=O)CNC(=O)[C@@H](NC(=O)OCc1ccccc1)C(C)C)C(=O)N[C@@H](C)C(=O)NCCCNC(=O)c1ccc(-c2c3nc(c(-c4c(F)cc(S(=O)(=O)[O-])cc4F)c4ccc([nH]4)c(-c4c(F)cc(S(=O)(=O)[O-])cc4F)c4nc(c(-c5c(F)cc(S(=O)(=O)[O-])cc5F)c5ccc2[nH]5)C=C4)C=C3)cc1
REMARK SMILES IDX 31 1 32 2 30 3 28 4 29 5 5 7 4 8 2 9 1 10 3 11 6 12 7 13
REMARK SMILES IDX 8 15 9 16 10 17 11 18 12 20 13 21 14 22 15 23 16 25 17 26
REMARK SMILES IDX 18 27 19 28 20 29 24 30 21 31 23 32 22 33 25 34 26 35 27 36
REMARK SMILES IDX 33 37 34 38 35 39 36 41 37 42 38 43 39 44 40 45 41 47 42 48
REMARK SMILES IDX 43 49 107 50 44 51 106 52 45 53 46 54 47 55 100 56 48 57
REMARK SMILES IDX 105 58 99 59 101 60 49 61 104 62 98 63 97 64 50 66 84 67
REMARK SMILES IDX 63 68 83 69 64 70 67 71 82 72 102 73 65 74 66 75 81 77
REMARK SMILES IDX 103 78 68 79 51 80 52 81 61 82 53 83 54 84 60 85 62 86 55 87
REMARK SMILES IDX 56 88 57 89 58 90 59 91 85 92 86 93 95 94 87 95 88 96 94 97
REMARK SMILES IDX 96 98 89 99 90 100 91 101 92 102 93 103 69 104 70 105 79 106
REMARK SMILES IDX 71 107 72 108 78 109 80 110 73 111 74 112 75 113 76 114
REMARK SMILES IDX 77 115
REMARK H PARENT 30 6 6 14 10 19 14 24 35 40 39 46 101 65 67 76
REMARK Flexibility Score: inf
ROOT
ATOM      1  C   UNL A   1      39.049  33.625  33.545  1.00  0.00     0.168 C 
ATOM      2  C   UNL A   1      38.512  34.300  32.291  1.00  0.00     0.041 C 
ENDROOT
BRANCH   1   3
ATOM      3  N   UNL A   1      39.967  32.552  33.186  1.00  0.00    -0.343 N 
ATOM      4  C   UNL A   1      41.229  32.620  32.694  1.00  0.00     0.243 C 
ATOM      5  O   UNL A   1      41.786  31.554  32.420  1.00  0.00    -0.273 OA
ATOM      6  H   UNL A   1      39.618  31.641  33.322  1.00  0.00     0.164 HD
BRANCH   4   7
ATOM      7  C   UNL A   1      41.950  33.961  32.487  1.00  0.00     0.171 C 
BRANCH   7   8
ATOM      8  C   UNL A   1      41.866  34.941  33.655  1.00  0.00     0.038 C 
BRANCH   8   9
ATOM      9  C   UNL A   1      43.133  35.543  34.294  1.00  0.00    -0.015 C 
ATOM     10  C   UNL A   1      44.421  35.143  33.581  1.00  0.00     0.007 C 
ATOM     11  C   UNL A   1      43.029  37.076  34.283  1.00  0.00     0.007 C 
ENDBRANCH   8   9
ENDBRANCH   7   8
BRANCH   7  12
ATOM     12  N   UNL A   1      41.694  34.419  31.095  1.00  0.00    -0.343 N 
ATOM     13  C   UNL A   1      42.166  35.202  30.104  1.00  0.00     0.240 C 
ATOM     14  H   UNL A   1      40.867  33.989  30.778  1.00  0.00     0.164 HD
ATOM     15  O   UNL A   1      41.364  35.353  29.165  1.00  0.00    -0.273 OA
BRANCH  13  16
ATOM     16  C   UNL A   1      43.583  35.765  29.905  1.00  0.00     0.216 C 
BRANCH  16  17
ATOM     17  N   UNL A   1      44.059  36.975  30.531  1.00  0.00    -0.345 N 
ATOM     18  C   UNL A   1      44.011  38.273  30.129  1.00  0.00     0.243 C 
ATOM     19  H   UNL A   1      44.496  36.836  31.402  1.00  0.00     0.164 HD
ATOM     20  O   UNL A   1      44.096  39.103  31.042  1.00  0.00    -0.273 OA
BRANCH  18  21
ATOM     21  C   UNL A   1      43.937  38.756  28.638  1.00  0.00     0.177 C 
BRANCH  21  22
ATOM     22  N   UNL A   1      44.928  38.192  27.714  1.00  0.00    -0.309 N 
ATOM     23  C   UNL A   1      45.697  38.713  26.726  1.00  0.00     0.408 C 
ATOM     24  H   UNL A   1      45.065  37.225  27.838  1.00  0.00     0.167 HD
ATOM     25  O   UNL A   1      46.241  37.967  25.927  1.00  0.00    -0.225 OA
BRANCH  23  26
ATOM     26  O   UNL A   1      45.767  40.062  26.728  1.00  0.00    -0.445 OA
BRANCH  26  27
ATOM     27  C   UNL A   1      47.019  40.608  26.278  1.00  0.00     0.270 C 
BRANCH  27  28
ATOM     28  C   UNL A   1      46.951  41.333  24.949  1.00  0.00    -0.011 A 
ATOM     29  C   UNL A   1      46.778  42.722  24.874  1.00  0.00     0.007 A 
ATOM     30  C   UNL A   1      47.079  40.609  23.756  1.00  0.00     0.007 A 
ATOM     31  C   UNL A   1      46.806  43.380  23.645  1.00  0.00     0.000 A 
ATOM     32  C   UNL A   1      47.086  41.265  22.524  1.00  0.00     0.000 A 
ATOM     33  C   UNL A   1      46.963  42.651  22.470  1.00  0.00     0.000 A 
ENDBRANCH  27  28
ENDBRANCH  26  27
ENDBRANCH  23  26
ENDBRANCH  21  22
BRANCH  21  34
ATOM     34  C   UNL A   1      42.498  38.890  28.078  1.00  0.00     0.015 C 
ATOM     35  C   UNL A   1      41.656  39.938  28.819  1.00  0.00     0.010 C 
ATOM     36  C   UNL A   1      42.518  39.305  26.599  1.00  0.00     0.010 C 
ENDBRANCH  21  34
ENDBRANCH  18  21
ENDBRANCH  16  17
ENDBRANCH  13  16
ENDBRANCH   7  12
ENDBRANCH   4   7
ENDBRANCH   1   3
BRANCH   1  37
ATOM     37  C   UNL A   1      37.895  33.261  34.491  1.00  0.00     0.242 C 
ATOM     38  O   UNL A   1      37.706  33.936  35.509  1.00  0.00    -0.273 OA
ATOM     39  N   UNL A   1      36.969  32.318  34.180  1.00  0.00    -0.354 N 
ATOM     40  H   UNL A   1      36.278  32.177  34.868  1.00  0.00     0.163 HD
BRANCH  39  41
ATOM     41  C   UNL A   1      36.827  31.483  33.004  1.00  0.00     0.117 C 
BRANCH  41  42
ATOM     42  C   UNL A   1      35.804  32.041  32.021  1.00  0.00     0.042 C 
BRANCH  42  43
ATOM     43  C   UNL A   1      36.231  31.911  30.560  1.00  0.00     0.118 C 
BRANCH  43  44
ATOM     44  N   UNL A   1      35.546  30.816  29.885  1.00  0.00    -0.352 N 
ATOM     45  C   UNL A   1      36.008  29.894  28.983  1.00  0.00     0.251 C 
ATOM     46  H   UNL A   1      34.593  30.723  30.115  1.00  0.00     0.163 HD
ATOM     47  O   UNL A   1      35.200  29.266  28.304  1.00  0.00    -0.269 OA
BRANCH  45  48
ATOM     48  C   UNL A   1      37.457  29.645  28.835  1.00  0.00     0.039 A 
ATOM     49  C   UNL A   1      38.044  29.777  27.574  1.00  0.00     0.014 A 
ATOM     50  C   UNL A   1      38.219  29.203  29.919  1.00  0.00     0.014 A 
ATOM     51  C   UNL A   1      39.402  29.496  27.410  1.00  0.00     0.010 A 
ATOM     52  C   UNL A   1      39.589  29.012  29.774  1.00  0.00     0.010 A 
ATOM     53  C   UNL A   1      40.188  29.128  28.513  1.00  0.00    -0.014 A 
BRANCH  53  54
ATOM     54  C   UNL A   1      41.628  28.808  28.361  1.00  0.00     0.031 A 
ATOM     55  C   UNL A   1      42.051  27.407  28.003  1.00  0.00     0.074 A 
ATOM     56  C   UNL A   1      42.552  29.756  28.605  1.00  0.00     0.049 A 
ATOM     57  N   UNL A   1      43.256  26.911  27.889  1.00  0.00    -0.248 NA
ATOM     58  C   UNL A   1      40.977  26.427  27.782  1.00  0.00     0.031 C 
ATOM     59  C   UNL A   1      42.262  31.129  29.024  1.00  0.00     0.029 A 
ATOM     60  N   UNL A   1      43.920  29.706  28.550  1.00  0.00    -0.354 N 
ATOM     61  C   UNL A   1      43.084  25.562  27.601  1.00  0.00     0.074 A 
ATOM     62  C   UNL A   1      41.660  25.304  27.627  1.00  0.00     0.031 C 
ATOM     63  C   UNL A   1      43.418  31.795  29.173  1.00  0.00     0.029 A 
ATOM     64  C   UNL A   1      44.528  30.891  28.888  1.00  0.00     0.049 A 
ATOM     65  H   UNL A   1      44.420  28.898  28.292  1.00  0.00     0.167 HD
ATOM     66  C   UNL A   1      44.021  24.628  27.310  1.00  0.00     0.037 A 
ATOM     67  C   UNL A   1      45.834  31.211  28.961  1.00  0.00     0.037 A 
ATOM     68  C   UNL A   1      45.434  24.902  27.263  1.00  0.00     0.049 A 
ATOM     69  C   UNL A   1      46.860  30.176  28.593  1.00  0.00     0.074 A 
ATOM     70  C   UNL A   1      46.469  24.047  26.934  1.00  0.00     0.029 A 
ATOM     71  N   UNL A   1      46.008  26.133  27.553  1.00  0.00    -0.354 N 
ATOM     72  N   UNL A   1      46.678  28.919  28.262  1.00  0.00    -0.248 NA
ATOM     73  C   UNL A   1      48.264  30.605  28.587  1.00  0.00     0.031 C 
ATOM     74  C   UNL A   1      47.673  24.750  27.054  1.00  0.00     0.029 A 
ATOM     75  C   UNL A   1      47.385  26.058  27.415  1.00  0.00     0.049 A 
ATOM     76  H   UNL A   1      45.511  26.940  27.816  1.00  0.00     0.167 HD
ATOM     77  C   UNL A   1      47.943  28.412  27.987  1.00  0.00     0.074 A 
ATOM     78  C   UNL A   1      48.878  29.504  28.178  1.00  0.00     0.031 C 
ATOM     79  C   UNL A   1      48.298  27.158  27.610  1.00  0.00     0.037 A 
BRANCH  66  80
ATOM     80  C   UNL A   1      43.535  23.233  27.017  1.00  0.00     0.058 A 
ATOM     81  C   UNL A   1      43.104  22.374  28.042  1.00  0.00     0.135 A 
ATOM     82  C   UNL A   1      43.519  22.740  25.702  1.00  0.00     0.135 A 
ATOM     83  F   UNL A   1      43.113  22.786  29.319  1.00  0.00    -0.206 F 
ATOM     84  C   UNL A   1      42.729  21.060  27.781  1.00  0.00     0.059 A 
ATOM     85  C   UNL A   1      43.116  21.439  25.415  1.00  0.00     0.059 A 
ATOM     86  F   UNL A   1      43.915  23.518  24.682  1.00  0.00    -0.206 F 
ATOM     87  C   UNL A   1      42.747  20.598  26.464  1.00  0.00     0.060 A 
BRANCH  87  88
ATOM     88  S   UNL A   1      42.295  18.880  26.146  1.00  0.00     0.124 S 
ATOM     89  O   UNL A   1      40.899  19.019  25.741  1.00  0.00    -0.237 OA
ATOM     90  O   UNL A   1      43.226  18.500  25.088  1.00  0.00    -0.237 OA
ATOM     91  O   UNL A   1      42.513  18.228  27.433  1.00  0.00    -0.744 OA
ENDBRANCH  87  88
ENDBRANCH  66  80
BRANCH  67  92
ATOM     92  C   UNL A   1      46.226  32.587  29.362  1.00  0.00     0.058 A 
ATOM     93  C   UNL A   1      46.431  32.917  30.709  1.00  0.00     0.135 A 
ATOM     94  C   UNL A   1      46.462  33.583  28.402  1.00  0.00     0.135 A 
ATOM     95  F   UNL A   1      46.216  31.999  31.664  1.00  0.00    -0.206 F 
ATOM     96  C   UNL A   1      46.855  34.185  31.093  1.00  0.00     0.059 A 
ATOM     97  C   UNL A   1      46.909  34.852  28.758  1.00  0.00     0.059 A 
ATOM     98  F   UNL A   1      46.300  33.311  27.097  1.00  0.00    -0.206 F 
ATOM     99  C   UNL A   1      47.099  35.144  30.108  1.00  0.00     0.060 A 
BRANCH  99 100
ATOM    100  S   UNL A   1      47.729  36.761  30.612  1.00  0.00     0.124 S 
ATOM    101  O   UNL A   1      47.430  37.571  29.438  1.00  0.00    -0.237 OA
ATOM    102  O   UNL A   1      46.933  37.042  31.803  1.00  0.00    -0.237 OA
ATOM    103  O   UNL A   1      49.144  36.505  30.861  1.00  0.00    -0.744 OA
ENDBRANCH  99 100
ENDBRANCH  67  92
BRANCH  79 104
ATOM    104  C   UNL A   1      49.757  26.907  27.347  1.00  0.00     0.058 A 
ATOM    105  C   UNL A   1      50.321  27.096  26.076  1.00  0.00     0.135 A 
ATOM    106  C   UNL A   1      50.608  26.510  28.391  1.00  0.00     0.135 A 
ATOM    107  F   UNL A   1      49.550  27.470  25.042  1.00  0.00    -0.206 F 
ATOM    108  C   UNL A   1      51.674  26.872  25.842  1.00  0.00     0.059 A 
ATOM    109  C   UNL A   1      51.968  26.307  28.187  1.00  0.00     0.059 A 
ATOM    110  F   UNL A   1      50.120  26.326  29.628  1.00  0.00    -0.206 F 
ATOM    111  C   UNL A   1      52.490  26.476  26.905  1.00  0.00     0.060 A 
BRANCH 111 112
ATOM    112  S   UNL A   1      54.248  26.208  26.595  1.00  0.00     0.124 S 
ATOM    113  O   UNL A   1      54.211  25.392  25.387  1.00  0.00    -0.237 OA
ATOM    114  O   UNL A   1      54.748  27.569  26.427  1.00  0.00    -0.237 OA
ATOM    115  O   UNL A   1      54.704  25.524  27.802  1.00  0.00    -0.744 OA
ENDBRANCH 111 112
ENDBRANCH  79 104
ENDBRANCH  53  54
ENDBRANCH  45  48
ENDBRANCH  43  44
ENDBRANCH  42  43
ENDBRANCH  41  42
ENDBRANCH  39  41
ENDBRANCH   1  37
TORSDOF 26
ENDMDL
MODEL 2
REMARK VINA RESULT:      -7.8      1.595      2.592
REMARK SMILES CC(C)C[C@H](NC(=O)CNC(=O)[C@@H](NC(=O)OCc1ccccc1)C(C)C)C(=O)N[C@@H](C)C(=O)NCCCNC(=O)c1ccc(-c2c3nc(c(-c4c(F)cc(S(=O)(=O)[O-])cc4F)c4ccc([nH]4)c(-c4c(F)cc(S(=O)(=O)[O-])cc4F)c4nc(c(-c5c(F)cc(S(=O)(=O)[O-])cc5F)c5ccc2[nH]5)C=C4)C=C3)cc1
REMARK SMILES IDX 31 1 32 2 30 3 28 4 29 5 5 7 4 8 2 9 1 10 3 11 6 12 7 13
REMARK SMILES IDX 8 15 9 16 10 17 11 18 12 20 13 21 14 22 15 23 16 25 17 26
REMARK SMILES IDX 18 27 19 28 20 29 24 30 21 31 23 32 22 33 25 34 26 35 27 36
REMARK SMILES IDX 33 37 34 38 35 39 36 41 37 42 38 43 39 44 40 45 41 47 42 48
REMARK SMILES IDX 43 49 107 50 44 51 106 52 45 53 46 54 47 55 100 56 48 57
REMARK SMILES IDX 105 58 99 59 101 60 49 61 104 62 98 63 97 64 50 66 84 67
REMARK SMILES IDX 63 68 83 69 64 70 67 71 82 72 102 73 65 74 66 75 81 77
REMARK SMILES IDX 103 78 68 79 51 80 52 81 61 82 53 83 54 84 60 85 62 86 55 87
REMARK SMILES IDX 56 88 57 89 58 90 59 91 85 92 86 93 95 94 87 95 88 96 94 97
REMARK SMILES IDX 96 98 89 99 90 100 91 101 92 102 93 103 69 104 70 105 79 106
REMARK SMILES IDX 71 107 72 108 78 109 80 110 73 111 74 112 75 113 76 114
REMARK SMILES IDX 77 115
REMARK H PARENT 30 6 6 14 10 19 14 24 35 40 39 46 101 65 67 76
REMARK Flexibility Score: inf
ROOT
ATOM      1  C   UNL A   1      38.626  33.056  33.708  1.00  0.00     0.168 C 
ATOM      2  C   UNL A   1      38.291  33.767  32.404  1.00  0.00     0.041 C 
ENDROOT
BRANCH   1   3
ATOM      3  N   UNL A   1      39.736  32.134  33.509  1.00  0.00    -0.343 N 
ATOM      4  C   UNL A   1      41.002  32.380  33.089  1.00  0.00     0.243 C 
ATOM      5  O   UNL A   1      41.750  31.409  32.952  1.00  0.00    -0.273 OA
ATOM      6  H   UNL A   1      39.536  31.191  33.709  1.00  0.00     0.164 HD
BRANCH   4   7
ATOM      7  C   UNL A   1      41.500  33.805  32.799  1.00  0.00     0.171 C 
BRANCH   7   8
ATOM      8  C   UNL A   1      41.333  34.806  33.940  1.00  0.00     0.038 C 
BRANCH   8   9
ATOM      9  C   UNL A   1      41.906  34.529  35.343  1.00  0.00    -0.015 C 
ATOM     10  C   UNL A   1      43.414  34.295  35.349  1.00  0.00     0.007 C 
ATOM     11  C   UNL A   1      41.598  35.721  36.263  1.00  0.00     0.007 C 
ENDBRANCH   8   9
ENDBRANCH   7   8
BRANCH   7  12
ATOM     12  N   UNL A   1      41.102  34.165  31.411  1.00  0.00    -0.343 N 
ATOM     13  C   UNL A   1      41.466  34.876  30.325  1.00  0.00     0.240 C 
ATOM     14  H   UNL A   1      40.249  33.715  31.210  1.00  0.00     0.164 HD
ATOM     15  O   UNL A   1      40.573  34.963  29.465  1.00  0.00    -0.273 OA
BRANCH  13  16
ATOM     16  C   UNL A   1      42.852  35.423  29.945  1.00  0.00     0.216 C 
BRANCH  16  17
ATOM     17  N   UNL A   1      43.350  36.709  30.370  1.00  0.00    -0.345 N 
ATOM     18  C   UNL A   1      43.560  37.863  29.681  1.00  0.00     0.243 C 
ATOM     19  H   UNL A   1      43.578  36.760  31.327  1.00  0.00     0.164 HD
ATOM     20  O   UNL A   1      43.568  38.888  30.374  1.00  0.00    -0.273 OA
BRANCH  18  21
ATOM     21  C   UNL A   1      43.856  37.957  28.143  1.00  0.00     0.177 C 
BRANCH  21  22
ATOM     22  N   UNL A   1      43.905  36.690  27.404  1.00  0.00    -0.309 N 
ATOM     23  C   UNL A   1      44.897  35.994  26.796  1.00  0.00     0.408 C 
ATOM     24  H   UNL A   1      43.027  36.250  27.334  1.00  0.00     0.167 HD
ATOM     25  O   UNL A   1      44.615  35.098  26.017  1.00  0.00    -0.225 OA
BRANCH  23  26
ATOM     26  O   UNL A   1      46.144  36.398  27.126  1.00  0.00    -0.445 OA
BRANCH  26  27
ATOM     27  C   UNL A   1      46.855  37.089  26.084  1.00  0.00     0.270 C 
BRANCH  27  28
ATOM     28  C   UNL A   1      48.120  36.399  25.618  1.00  0.00    -0.011 A 
ATOM     29  C   UNL A   1      49.137  37.094  24.949  1.00  0.00     0.007 A 
ATOM     30  C   UNL A   1      48.298  35.031  25.871  1.00  0.00     0.007 A 
ATOM     31  C   UNL A   1      50.330  36.459  24.607  1.00  0.00     0.000 A 
ATOM     32  C   UNL A   1      49.484  34.390  25.509  1.00  0.00     0.000 A 
ATOM     33  C   UNL A   1      50.505  35.107  24.890  1.00  0.00     0.000 A 
ENDBRANCH  27  28
ENDBRANCH  26  27
ENDBRANCH  23  26
ENDBRANCH  21  22
BRANCH  21  34
ATOM     34  C   UNL A   1      43.137  39.127  27.422  1.00  0.00     0.015 C 
ATOM     35  C   UNL A   1      44.026  39.839  26.393  1.00  0.00     0.010 C 
ATOM     36  C   UNL A   1      41.896  38.629  26.666  1.00  0.00     0.010 C 
ENDBRANCH  21  34
ENDBRANCH  18  21
ENDBRANCH  16  17
ENDBRANCH  13  16
ENDBRANCH   7  12
ENDBRANCH   4   7
ENDBRANCH   1   3
BRANCH   1  37
ATOM     37  C   UNL A   1      37.353  32.479  34.343  1.00  0.00     0.242 C 
ATOM     38  O   UNL A   1      37.021  32.840  35.478  1.00  0.00    -0.273 OA
ATOM     39  N   UNL A   1      36.482  31.701  33.650  1.00  0.00    -0.354 N 
ATOM     40  H   UNL A   1      35.702  31.394  34.169  1.00  0.00     0.163 HD
BRANCH  39  41
ATOM     41  C   UNL A   1      36.509  31.245  32.275  1.00  0.00     0.117 C 
BRANCH  41  42
ATOM     42  C   UNL A   1      35.531  32.014  31.394  1.00  0.00     0.042 C 
BRANCH  42  43
ATOM     43  C   UNL A   1      35.872  31.947  29.906  1.00  0.00     0.118 C 
BRANCH  43  44
ATOM     44  N   UNL A   1      35.295  30.772  29.265  1.00  0.00    -0.352 N 
ATOM     45  C   UNL A   1      35.880  29.786  28.516  1.00  0.00     0.251 C 
ATOM     46  H   UNL A   1      34.323  30.671  29.391  1.00  0.00     0.163 HD
ATOM     47  O   UNL A   1      35.171  29.071  27.812  1.00  0.00    -0.269 OA
BRANCH  45  48
ATOM     48  C   UNL A   1      37.340  29.571  28.562  1.00  0.00     0.039 A 
ATOM     49  C   UNL A   1      38.095  29.781  27.405  1.00  0.00     0.014 A 
ATOM     50  C   UNL A   1      37.954  29.084  29.719  1.00  0.00     0.014 A 
ATOM     51  C   UNL A   1      39.469  29.534  27.420  1.00  0.00     0.010 A 
ATOM     52  C   UNL A   1      39.335  28.925  29.759  1.00  0.00     0.010 A 
ATOM     53  C   UNL A   1      40.102  29.119  28.603  1.00  0.00    -0.014 A 
BRANCH  53  54
ATOM     54  C   UNL A   1      41.557  28.834  28.640  1.00  0.00     0.031 A 
ATOM     55  C   UNL A   1      42.062  27.468  28.257  1.00  0.00     0.074 A 
ATOM     56  C   UNL A   1      42.411  29.778  29.075  1.00  0.00     0.049 A 
ATOM     57  N   UNL A   1      43.283  27.000  28.286  1.00  0.00    -0.248 NA
ATOM     58  C   UNL A   1      41.056  26.487  27.820  1.00  0.00     0.031 C 
ATOM     59  C   UNL A   1      42.030  31.115  29.536  1.00  0.00     0.029 A 
ATOM     60  N   UNL A   1      43.774  29.754  29.215  1.00  0.00    -0.354 N 
ATOM     61  C   UNL A   1      43.188  25.671  27.890  1.00  0.00     0.074 A 
ATOM     62  C   UNL A   1      41.783  25.389  27.693  1.00  0.00     0.031 C 
ATOM     63  C   UNL A   1      43.136  31.787  29.893  1.00  0.00     0.029 A 
ATOM     64  C   UNL A   1      44.298  30.923  29.713  1.00  0.00     0.049 A 
ATOM     65  H   UNL A   1      44.327  28.973  28.981  1.00  0.00     0.167 HD
ATOM     66  C   UNL A   1      44.181  24.774  27.677  1.00  0.00     0.037 A 
ATOM     67  C   UNL A   1      45.571  31.258  29.994  1.00  0.00     0.037 A 
ATOM     68  C   UNL A   1      45.579  25.073  27.852  1.00  0.00     0.049 A 
ATOM     69  C   UNL A   1      46.665  30.267  29.712  1.00  0.00     0.074 A 
ATOM     70  C   UNL A   1      46.672  24.258  27.621  1.00  0.00     0.029 A 
ATOM     71  N   UNL A   1      46.075  26.290  28.300  1.00  0.00    -0.354 N 
ATOM     72  N   UNL A   1      46.565  29.032  29.277  1.00  0.00    -0.248 NA
ATOM     73  C   UNL A   1      48.044  30.718  29.936  1.00  0.00     0.031 C 
ATOM     74  C   UNL A   1      47.829  24.972  27.959  1.00  0.00     0.029 A 
ATOM     75  C   UNL A   1      47.458  26.247  28.358  1.00  0.00     0.049 A 
ATOM     76  H   UNL A   1      45.524  27.070  28.541  1.00  0.00     0.167 HD
ATOM     77  C   UNL A   1      47.868  28.565  29.156  1.00  0.00     0.074 A 
ATOM     78  C   UNL A   1      48.738  29.656  29.550  1.00  0.00     0.031 C 
ATOM     79  C   UNL A   1      48.306  27.345  28.753  1.00  0.00     0.037 A 
BRANCH  66  80
ATOM     80  C   UNL A   1      43.778  23.395  27.227  1.00  0.00     0.058 A 
ATOM     81  C   UNL A   1      43.942  22.978  25.895  1.00  0.00     0.135 A 
ATOM     82  C   UNL A   1      43.203  22.484  28.128  1.00  0.00     0.135 A 
ATOM     83  F   UNL A   1      44.473  23.812  24.986  1.00  0.00    -0.206 F 
ATOM     84  C   UNL A   1      43.500  21.733  25.461  1.00  0.00     0.059 A 
ATOM     85  C   UNL A   1      42.783  21.220  27.723  1.00  0.00     0.059 A 
ATOM     86  F   UNL A   1      43.026  22.826  29.415  1.00  0.00    -0.206 F 
ATOM     87  C   UNL A   1      42.912  20.864  26.381  1.00  0.00     0.060 A 
BRANCH  87  88
ATOM     88  S   UNL A   1      42.307  19.267  25.795  1.00  0.00     0.124 S 
ATOM     89  O   UNL A   1      42.555  18.420  26.958  1.00  0.00    -0.237 OA
ATOM     90  O   UNL A   1      40.905  19.549  25.505  1.00  0.00    -0.237 OA
ATOM     91  O   UNL A   1      43.143  18.994  24.631  1.00  0.00    -0.744 OA
ENDBRANCH  87  88
ENDBRANCH  66  80
BRANCH  67  92
ATOM     92  C   UNL A   1      45.866  32.610  30.535  1.00  0.00     0.058 A 
ATOM     93  C   UNL A   1      46.254  33.659  29.689  1.00  0.00     0.135 A 
ATOM     94  C   UNL A   1      45.706  32.897  31.900  1.00  0.00     0.135 A 
ATOM     95  F   UNL A   1      46.422  33.433  28.376  1.00  0.00    -0.206 F 
ATOM     96  C   UNL A   1      46.476  34.943  30.174  1.00  0.00     0.059 A 
ATOM     97  C   UNL A   1      45.899  34.178  32.406  1.00  0.00     0.059 A 
ATOM     98  F   UNL A   1      45.316  31.932  32.747  1.00  0.00    -0.206 F 
ATOM     99  C   UNL A   1      46.288  35.194  31.535  1.00  0.00     0.060 A 
BRANCH  99 100
ATOM    100  S   UNL A   1      46.498  36.884  32.140  1.00  0.00     0.124 S 
ATOM    101  O   UNL A   1      47.631  36.734  33.045  1.00  0.00    -0.237 OA
ATOM    102  O   UNL A   1      46.759  37.621  30.907  1.00  0.00    -0.237 OA
ATOM    103  O   UNL A   1      45.215  37.174  32.773  1.00  0.00    -0.744 OA
ENDBRANCH  99 100
ENDBRANCH  67  92
BRANCH  79 104
ATOM    104  C   UNL A   1      49.793  27.136  28.688  1.00  0.00     0.058 A 
ATOM    105  C   UNL A   1      50.543  26.802  29.826  1.00  0.00     0.135 A 
ATOM    106  C   UNL A   1      50.469  27.233  27.461  1.00  0.00     0.135 A 
ATOM    107  F   UNL A   1      49.945  26.701  31.024  1.00  0.00    -0.206 F 
ATOM    108  C   UNL A   1      51.917  26.599  29.756  1.00  0.00     0.059 A 
ATOM    109  C   UNL A   1      51.838  27.007  27.361  1.00  0.00     0.059 A 
ATOM    110  F   UNL A   1      49.796  27.539  26.340  1.00  0.00    -0.206 F 
ATOM    111  C   UNL A   1      52.556  26.705  28.518  1.00  0.00     0.060 A 
BRANCH 111 112
ATOM    112  S   UNL A   1      54.337  26.420  28.434  1.00  0.00     0.124 S 
ATOM    113  O   UNL A   1      54.465  25.742  27.150  1.00  0.00    -0.237 OA
ATOM    114  O   UNL A   1      54.874  27.777  28.493  1.00  0.00    -0.237 OA
ATOM    115  O   UNL A   1      54.603  25.597  29.610  1.00  0.00    -0.744 OA
ENDBRANCH 111 112
ENDBRANCH  79 104
ENDBRANCH  53  54
ENDBRANCH  45  48
ENDBRANCH  43  44
ENDBRANCH  42  43
ENDBRANCH  41  42
ENDBRANCH  39  41
ENDBRANCH   1  37
TORSDOF 26
ENDMDL
MODEL 3
REMARK VINA RESULT:      -7.8      4.879     14.174
REMARK SMILES CC(C)C[C@H](NC(=O)CNC(=O)[C@@H](NC(=O)OCc1ccccc1)C(C)C)C(=O)N[C@@H](C)C(=O)NCCCNC(=O)c1ccc(-c2c3nc(c(-c4c(F)cc(S(=O)(=O)[O-])cc4F)c4ccc([nH]4)c(-c4c(F)cc(S(=O)(=O)[O-])cc4F)c4nc(c(-c5c(F)cc(S(=O)(=O)[O-])cc5F)c5ccc2[nH]5)C=C4)C=C3)cc1
REMARK SMILES IDX 31 1 32 2 30 3 28 4 29 5 5 7 4 8 2 9 1 10 3 11 6 12 7 13
REMARK SMILES IDX 8 15 9 16 10 17 11 18 12 20 13 21 14 22 15 23 16 25 17 26
REMARK SMILES IDX 18 27 19 28 20 29 24 30 21 31 23 32 22 33 25 34 26 35 27 36
REMARK SMILES IDX 33 37 34 38 35 39 36 41 37 42 38 43 39 44 40 45 41 47 42 48
REMARK SMILES IDX 43 49 107 50 44 51 106 52 45 53 46 54 47 55 100 56 48 57
REMARK SMILES IDX 105 58 99 59 101 60 49 61 104 62 98 63 97 64 50 66 84 67
REMARK SMILES IDX 63 68 83 69 64 70 67 71 82 72 102 73 65 74 66 75 81 77
REMARK SMILES IDX 103 78 68 79 51 80 52 81 61 82 53 83 54 84 60 85 62 86 55 87
REMARK SMILES IDX 56 88 57 89 58 90 59 91 85 92 86 93 95 94 87 95 88 96 94 97
REMARK SMILES IDX 96 98 89 99 90 100 91 101 92 102 93 103 69 104 70 105 79 106
REMARK SMILES IDX 71 107 72 108 78 109 80 110 73 111 74 112 75 113 76 114
REMARK SMILES IDX 77 115
REMARK H PARENT 30 6 6 14 10 19 14 24 35 40 39 46 101 65 67 76
REMARK Flexibility Score: inf
ROOT
ATOM      1  C   UNL A   1      43.705  29.706  29.802  1.00  0.00     0.168 C 
ATOM      2  C   UNL A   1      43.141  30.440  31.009  1.00  0.00     0.041 C 
ENDROOT
BRANCH   1   3
ATOM      3  N   UNL A   1      43.805  30.609  28.664  1.00  0.00    -0.343 N 
ATOM      4  C   UNL A   1      44.240  30.369  27.402  1.00  0.00     0.243 C 
ATOM      5  O   UNL A   1      44.275  31.326  26.625  1.00  0.00    -0.273 OA
ATOM      6  H   UNL A   1      43.511  31.533  28.837  1.00  0.00     0.164 HD
BRANCH   4   7
ATOM      7  C   UNL A   1      44.669  28.966  26.943  1.00  0.00     0.171 C 
BRANCH   7   8
ATOM      8  C   UNL A   1      46.163  28.788  26.681  1.00  0.00     0.038 C 
BRANCH   8   9
ATOM      9  C   UNL A   1      46.843  27.411  26.803  1.00  0.00    -0.015 C 
ATOM     10  C   UNL A   1      47.872  27.142  25.709  1.00  0.00     0.007 C 
ATOM     11  C   UNL A   1      47.547  27.310  28.166  1.00  0.00     0.007 C 
ENDBRANCH   8   9
ENDBRANCH   7   8
BRANCH   7  12
ATOM     12  N   UNL A   1      43.665  28.466  25.966  1.00  0.00    -0.343 N 
ATOM     13  C   UNL A   1      43.229  27.364  25.322  1.00  0.00     0.240 C 
ATOM     14  H   UNL A   1      43.107  29.227  25.683  1.00  0.00     0.164 HD
ATOM     15  O   UNL A   1      42.421  27.610  24.409  1.00  0.00    -0.273 OA
BRANCH  13  16
ATOM     16  C   UNL A   1      43.456  25.884  25.671  1.00  0.00     0.216 C 
BRANCH  16  17
ATOM     17  N   UNL A   1      43.897  24.895  24.718  1.00  0.00    -0.345 N 
ATOM     18  C   UNL A   1      43.973  23.539  24.801  1.00  0.00     0.243 C 
ATOM     19  H   UNL A   1      44.196  25.266  23.857  1.00  0.00     0.164 HD
ATOM     20  O   UNL A   1      43.967  22.951  23.713  1.00  0.00    -0.273 OA
BRANCH  18  21
ATOM     21  C   UNL A   1      44.139  22.722  26.130  1.00  0.00     0.177 C 
BRANCH  21  22
ATOM     22  N   UNL A   1      43.707  21.320  26.099  1.00  0.00    -0.309 N 
ATOM     23  C   UNL A   1      42.610  20.663  26.552  1.00  0.00     0.408 C 
ATOM     24  H   UNL A   1      44.353  20.727  25.652  1.00  0.00     0.167 HD
ATOM     25  O   UNL A   1      42.627  19.446  26.634  1.00  0.00    -0.225 OA
BRANCH  23  26
ATOM     26  O   UNL A   1      41.579  21.469  26.890  1.00  0.00    -0.445 OA
BRANCH  26  27
ATOM     27  C   UNL A   1      40.273  20.894  26.710  1.00  0.00     0.270 C 
BRANCH  27  28
ATOM     28  C   UNL A   1      39.206  21.876  26.272  1.00  0.00    -0.011 A 
ATOM     29  C   UNL A   1      39.193  23.203  26.726  1.00  0.00     0.007 A 
ATOM     30  C   UNL A   1      38.210  21.465  25.376  1.00  0.00     0.007 A 
ATOM     31  C   UNL A   1      38.254  24.113  26.242  1.00  0.00     0.000 A 
ATOM     32  C   UNL A   1      37.257  22.371  24.908  1.00  0.00     0.000 A 
ATOM     33  C   UNL A   1      37.287  23.698  25.331  1.00  0.00     0.000 A 
ENDBRANCH  27  28
ENDBRANCH  26  27
ENDBRANCH  23  26
ENDBRANCH  21  22
BRANCH  21  34
ATOM     34  C   UNL A   1      45.461  22.999  26.892  1.00  0.00     0.015 C 
ATOM     35  C   UNL A   1      46.513  23.719  26.035  1.00  0.00     0.010 C 
ATOM     36  C   UNL A   1      45.214  23.884  28.124  1.00  0.00     0.010 C 
ENDBRANCH  21  34
ENDBRANCH  18  21
ENDBRANCH  16  17
ENDBRANCH  13  16
ENDBRANCH   7  12
ENDBRANCH   4   7
ENDBRANCH   1   3
BRANCH   1  37
ATOM     37  C   UNL A   1      42.948  28.389  29.576  1.00  0.00     0.242 C 
ATOM     38  O   UNL A   1      43.465  27.322  29.925  1.00  0.00    -0.273 OA
ATOM     39  N   UNL A   1      41.660  28.354  29.148  1.00  0.00    -0.354 N 
ATOM     40  H   UNL A   1      41.286  27.449  29.044  1.00  0.00     0.163 HD
BRANCH  39  41
ATOM     41  C   UNL A   1      40.744  29.427  28.819  1.00  0.00     0.117 C 
BRANCH  41  42
ATOM     42  C   UNL A   1      39.320  28.926  28.608  1.00  0.00     0.042 C 
BRANCH  42  43
ATOM     43  C   UNL A   1      38.280  30.044  28.577  1.00  0.00     0.118 C 
BRANCH  43  44
ATOM     44  N   UNL A   1      37.200  29.815  29.529  1.00  0.00    -0.352 N 
ATOM     45  C   UNL A   1      37.106  30.113  30.862  1.00  0.00     0.251 C 
ATOM     46  H   UNL A   1      36.406  29.372  29.150  1.00  0.00     0.163 HD
ATOM     47  O   UNL A   1      36.249  29.554  31.540  1.00  0.00    -0.269 OA
BRANCH  45  48
ATOM     48  C   UNL A   1      38.013  31.104  31.478  1.00  0.00     0.039 A 
ATOM     49  C   UNL A   1      39.174  30.659  32.115  1.00  0.00     0.014 A 
ATOM     50  C   UNL A   1      37.678  32.460  31.500  1.00  0.00     0.014 A 
ATOM     51  C   UNL A   1      40.014  31.580  32.745  1.00  0.00     0.010 A 
ATOM     52  C   UNL A   1      38.560  33.386  32.047  1.00  0.00     0.010 A 
ATOM     53  C   UNL A   1      39.721  32.952  32.701  1.00  0.00    -0.014 A 
BRANCH  53  54
ATOM     54  C   UNL A   1      40.589  33.947  33.376  1.00  0.00     0.031 A 
ATOM     55  C   UNL A   1      41.710  34.604  32.614  1.00  0.00     0.074 A 
ATOM     56  C   UNL A   1      40.411  34.210  34.684  1.00  0.00     0.049 A 
ATOM     57  N   UNL A   1      42.617  35.445  33.038  1.00  0.00    -0.248 NA
ATOM     58  C   UNL A   1      41.850  34.238  31.196  1.00  0.00     0.031 C 
ATOM     59  C   UNL A   1      39.403  33.584  35.541  1.00  0.00     0.029 A 
ATOM     60  N   UNL A   1      41.081  35.060  35.524  1.00  0.00    -0.354 N 
ATOM     61  C   UNL A   1      43.443  35.693  31.947  1.00  0.00     0.074 A 
ATOM     62  C   UNL A   1      42.970  34.860  30.863  1.00  0.00     0.031 C 
ATOM     63  C   UNL A   1      39.511  34.083  36.783  1.00  0.00     0.029 A 
ATOM     64  C   UNL A   1      40.611  35.041  36.815  1.00  0.00     0.049 A 
ATOM     65  H   UNL A   1      41.828  35.631  35.231  1.00  0.00     0.167 HD
ATOM     66  C   UNL A   1      44.481  36.558  31.846  1.00  0.00     0.037 A 
ATOM     67  C   UNL A   1      41.023  35.720  37.903  1.00  0.00     0.037 A 
ATOM     68  C   UNL A   1      44.928  37.400  32.925  1.00  0.00     0.049 A 
ATOM     69  C   UNL A   1      42.148  36.708  37.763  1.00  0.00     0.074 A 
ATOM     70  C   UNL A   1      45.936  38.346  32.922  1.00  0.00     0.029 A 
ATOM     71  N   UNL A   1      44.386  37.397  34.204  1.00  0.00    -0.354 N 
ATOM     72  N   UNL A   1      42.880  36.977  36.708  1.00  0.00    -0.248 NA
ATOM     73  C   UNL A   1      42.489  37.498  38.952  1.00  0.00     0.031 C 
ATOM     74  C   UNL A   1      46.026  38.894  34.207  1.00  0.00     0.029 A 
ATOM     75  C   UNL A   1      45.043  38.321  34.999  1.00  0.00     0.049 A 
ATOM     76  H   UNL A   1      43.643  36.823  34.501  1.00  0.00     0.167 HD
ATOM     77  C   UNL A   1      43.755  37.983  37.099  1.00  0.00     0.074 A 
ATOM     78  C   UNL A   1      43.450  38.283  38.485  1.00  0.00     0.031 C 
ATOM     79  C   UNL A   1      44.723  38.604  36.378  1.00  0.00     0.037 A 
BRANCH  66  80
ATOM     80  C   UNL A   1      45.190  36.630  30.519  1.00  0.00     0.058 A 
ATOM     81  C   UNL A   1      44.763  37.503  29.504  1.00  0.00     0.135 A 
ATOM     82  C   UNL A   1      46.293  35.805  30.248  1.00  0.00     0.135 A 
ATOM     83  F   UNL A   1      43.703  38.303  29.701  1.00  0.00    -0.206 F 
ATOM     84  C   UNL A   1      45.368  37.515  28.251  1.00  0.00     0.059 A 
ATOM     85  C   UNL A   1      46.935  35.825  29.012  1.00  0.00     0.059 A 
ATOM     86  F   UNL A   1      46.748  34.955  31.182  1.00  0.00    -0.206 F 
ATOM     87  C   UNL A   1      46.448  36.665  28.012  1.00  0.00     0.060 A 
BRANCH  87  88
ATOM     88  S   UNL A   1      47.198  36.664  26.370  1.00  0.00     0.124 S 
ATOM     89  O   UNL A   1      46.803  37.978  25.871  1.00  0.00    -0.237 OA
ATOM     90  O   UNL A   1      48.616  36.502  26.672  1.00  0.00    -0.237 OA
ATOM     91  O   UNL A   1      46.567  35.526  25.710  1.00  0.00    -0.744 OA
ENDBRANCH  87  88
ENDBRANCH  66  80
BRANCH  67  92
ATOM     92  C   UNL A   1      40.330  35.508  39.200  1.00  0.00     0.058 A 
ATOM     93  C   UNL A   1      40.739  34.497  40.082  1.00  0.00     0.135 A 
ATOM     94  C   UNL A   1      39.286  36.350  39.611  1.00  0.00     0.135 A 
ATOM     95  F   UNL A   1      41.733  33.665  39.732  1.00  0.00    -0.206 F 
ATOM     96  C   UNL A   1      40.138  34.325  41.324  1.00  0.00     0.059 A 
ATOM     97  C   UNL A   1      38.683  36.214  40.858  1.00  0.00     0.059 A 
ATOM     98  F   UNL A   1      38.871  37.346  38.812  1.00  0.00    -0.206 F 
ATOM     99  C   UNL A   1      39.114  35.195  41.706  1.00  0.00     0.060 A 
BRANCH  99 100
ATOM    100  S   UNL A   1      38.398  35.015  43.355  1.00  0.00     0.124 S 
ATOM    101  O   UNL A   1      38.898  36.209  44.024  1.00  0.00    -0.237 OA
ATOM    102  O   UNL A   1      36.967  34.996  43.067  1.00  0.00    -0.237 OA
ATOM    103  O   UNL A   1      38.951  33.748  43.823  1.00  0.00    -0.744 OA
ENDBRANCH  99 100
ENDBRANCH  67  92
BRANCH  79 104
ATOM    104  C   UNL A   1      45.500  39.692  37.064  1.00  0.00     0.058 A 
ATOM    105  C   UNL A   1      46.663  39.418  37.799  1.00  0.00     0.135 A 
ATOM    106  C   UNL A   1      45.095  41.032  36.950  1.00  0.00     0.135 A 
ATOM    107  F   UNL A   1      47.091  38.153  37.942  1.00  0.00    -0.206 F 
ATOM    108  C   UNL A   1      47.384  40.432  38.422  1.00  0.00     0.059 A 
ATOM    109  C   UNL A   1      45.815  42.065  37.542  1.00  0.00     0.059 A 
ATOM    110  F   UNL A   1      43.995  41.349  36.249  1.00  0.00    -0.206 F 
ATOM    111  C   UNL A   1      46.950  41.753  38.288  1.00  0.00     0.060 A 
BRANCH 111 112
ATOM    112  S   UNL A   1      47.903  43.063  39.085  1.00  0.00     0.124 S 
ATOM    113  O   UNL A   1      47.644  44.193  38.200  1.00  0.00    -0.237 OA
ATOM    114  O   UNL A   1      47.289  43.138  40.407  1.00  0.00    -0.237 OA
ATOM    115  O   UNL A   1      49.269  42.548  39.064  1.00  0.00    -0.744 OA
ENDBRANCH 111 112
ENDBRANCH  79 104
ENDBRANCH  53  54
ENDBRANCH  45  48
ENDBRANCH  43  44
ENDBRANCH  42  43
ENDBRANCH  41  42
ENDBRANCH  39  41
ENDBRANCH   1  37
TORSDOF 26
ENDMDL
