MODEL 1
REMARK VINA RESULT:     -11.0      0.000      0.000
REMARK SMILES CC(C)CCNC(=O)[C@@H](C)Oc1ccc(N)cc1C(=O)NCCCNC(=O)c1ccc(-c2c3nc(c(-c4c(F)cc(S(=O)(=O)[O-])cc4F)c4ccc([nH]4)c(-c4c(F)cc(S(=O)(=O)[O-])cc4F)c4nc(c(-c5c(F)cc(S(=O)(=O)[O-])cc5F)c5ccc2[nH]5)C=C4)C=C3)cc1
REMARK SMILES IDX 19 1 20 2 21 3 18 5 12 6 13 7 14 8 17 9 15 10 11 11 9 12
REMARK SMILES IDX 10 13 7 14 6 15 8 17 5 18 4 19 2 20 1 21 3 22 16 23 22 26
REMARK SMILES IDX 23 27 24 28 25 29 26 30 27 32 28 33 29 34 93 35 30 36 92 37
REMARK SMILES IDX 31 38 32 39 33 40 86 41 34 42 91 43 85 44 87 45 35 46 90 47
REMARK SMILES IDX 84 48 83 49 36 51 70 52 49 53 69 54 50 55 53 56 68 57 88 58
REMARK SMILES IDX 51 59 52 60 67 62 89 63 54 64 37 65 38 66 47 67 39 68 40 69
REMARK SMILES IDX 46 70 48 71 41 72 42 73 43 74 44 75 45 76 71 77 72 78 81 79
REMARK SMILES IDX 73 80 74 81 80 82 82 83 75 84 76 85 77 86 78 87 79 88 55 89
REMARK SMILES IDX 56 90 65 91 57 92 58 93 64 94 66 95 59 96 60 97 61 98 62 99
REMARK SMILES IDX 63 100
REMARK H PARENT 21 4 6 16 16 24 16 25 25 31 87 50 53 61
REMARK Flexibility Score: inf
ROOT
ATOM      1  C   UNL A   1      33.587  25.335  23.243  1.00  0.00     0.255 C 
ATOM      2  O   UNL A   1      33.686  24.722  22.170  1.00  0.00    -0.269 OA
ATOM      3  N   UNL A   1      32.823  26.464  23.150  1.00  0.00    -0.352 N 
ATOM      4  H   UNL A   1      32.366  26.567  22.285  1.00  0.00     0.163 HD
ENDROOT
BRANCH   1   5
ATOM      5  C   UNL A   1      34.240  24.742  24.471  1.00  0.00     0.083 A 
ATOM      6  C   UNL A   1      33.756  24.513  25.774  1.00  0.00     0.133 A 
ATOM      7  C   UNL A   1      34.383  23.544  26.570  1.00  0.00     0.049 A 
ATOM      8  C   UNL A   1      35.622  23.006  26.219  1.00  0.00     0.029 A 
ATOM      9  C   UNL A   1      35.531  24.224  24.180  1.00  0.00     0.043 A 
ATOM     10  C   UNL A   1      36.261  23.433  25.069  1.00  0.00     0.032 A 
BRANCH   6  11
ATOM     11  O   UNL A   1      32.641  25.061  26.330  1.00  0.00    -0.480 OA
BRANCH  11  12
ATOM     12  C   UNL A   1      31.344  24.530  25.976  1.00  0.00     0.258 C 
ATOM     13  C   UNL A   1      30.159  25.523  25.943  1.00  0.00     0.064 C 
BRANCH  12  14
ATOM     14  C   UNL A   1      30.884  23.142  26.484  1.00  0.00     0.260 C 
ATOM     15  N   UNL A   1      31.244  21.999  25.827  1.00  0.00    -0.353 N 
ATOM     16  H   UNL A   1      31.207  21.166  26.350  1.00  0.00     0.163 HD
ATOM     17  O   UNL A   1      30.215  23.029  27.514  1.00  0.00    -0.271 OA
BRANCH  15  18
ATOM     18  C   UNL A   1      31.672  21.875  24.454  1.00  0.00     0.116 C 
BRANCH  18  19
ATOM     19  C   UNL A   1      32.968  21.117  24.261  1.00  0.00     0.024 C 
BRANCH  19  20
ATOM     20  C   UNL A   1      32.801  19.592  24.332  1.00  0.00    -0.016 C 
ATOM     21  C   UNL A   1      32.248  18.996  23.031  1.00  0.00     0.007 C 
ATOM     22  C   UNL A   1      34.154  18.963  24.652  1.00  0.00     0.007 C 
ENDBRANCH  19  20
ENDBRANCH  18  19
ENDBRANCH  15  18
ENDBRANCH  12  14
ENDBRANCH  11  12
ENDBRANCH   6  11
BRANCH  10  23
ATOM     23  N   UNL A   1      37.516  22.960  24.729  1.00  0.00    -0.399 N 
ATOM     24  H   UNL A   1      37.743  22.802  23.784  1.00  0.00     0.156 HD
ATOM     25  H   UNL A   1      38.181  22.780  25.432  1.00  0.00     0.156 HD
ENDBRANCH  10  23
ENDBRANCH   1   5
BRANCH   3  26
ATOM     26  C   UNL A   1      32.561  27.528  24.073  1.00  0.00     0.118 C 
BRANCH  26  27
ATOM     27  C   UNL A   1      33.786  28.345  24.414  1.00  0.00     0.042 C 
BRANCH  27  28
ATOM     28  C   UNL A   1      33.978  28.480  25.900  1.00  0.00     0.118 C 
BRANCH  28  29
ATOM     29  N   UNL A   1      33.826  29.866  26.332  1.00  0.00    -0.352 N 
ATOM     30  C   UNL A   1      34.467  30.607  27.292  1.00  0.00     0.251 C 
ATOM     31  H   UNL A   1      33.131  30.363  25.842  1.00  0.00     0.163 HD
ATOM     32  O   UNL A   1      33.961  31.686  27.628  1.00  0.00    -0.269 OA
BRANCH  30  33
ATOM     33  C   UNL A   1      35.716  30.151  27.942  1.00  0.00     0.039 A 
ATOM     34  C   UNL A   1      35.668  29.616  29.234  1.00  0.00     0.014 A 
ATOM     35  C   UNL A   1      36.956  30.303  27.329  1.00  0.00     0.014 A 
ATOM     36  C   UNL A   1      36.849  29.227  29.876  1.00  0.00     0.010 A 
ATOM     37  C   UNL A   1      38.097  29.742  27.882  1.00  0.00     0.010 A 
ATOM     38  C   UNL A   1      38.076  29.271  29.194  1.00  0.00    -0.014 A 
BRANCH  38  39
ATOM     39  C   UNL A   1      39.366  28.951  29.857  1.00  0.00     0.031 A 
ATOM     40  C   UNL A   1      39.783  29.723  31.092  1.00  0.00     0.074 A 
ATOM     41  C   UNL A   1      40.180  28.015  29.331  1.00  0.00     0.049 A 
ATOM     42  N   UNL A   1      40.894  29.649  31.778  1.00  0.00    -0.248 NA
ATOM     43  C   UNL A   1      38.849  30.748  31.593  1.00  0.00     0.031 C 
ATOM     44  C   UNL A   1      39.919  27.254  28.108  1.00  0.00     0.029 A 
ATOM     45  N   UNL A   1      41.393  27.544  29.763  1.00  0.00    -0.354 N 
ATOM     46  C   UNL A   1      40.798  30.630  32.761  1.00  0.00     0.074 A 
ATOM     47  C   UNL A   1      39.568  31.347  32.529  1.00  0.00     0.031 C 
ATOM     48  C   UNL A   1      40.917  26.377  27.915  1.00  0.00     0.029 A 
ATOM     49  C   UNL A   1      41.905  26.541  28.975  1.00  0.00     0.049 A 
ATOM     50  H   UNL A   1      41.852  27.891  30.560  1.00  0.00     0.167 HD
ATOM     51  C   UNL A   1      41.634  30.884  33.796  1.00  0.00     0.037 A 
ATOM     52  C   UNL A   1      43.041  25.830  29.103  1.00  0.00     0.037 A 
ATOM     53  C   UNL A   1      42.828  30.125  34.054  1.00  0.00     0.049 A 
ATOM     54  C   UNL A   1      43.936  26.100  30.283  1.00  0.00     0.074 A 
ATOM     55  C   UNL A   1      43.719  30.252  35.103  1.00  0.00     0.029 A 
ATOM     56  N   UNL A   1      43.288  29.087  33.258  1.00  0.00    -0.354 N 
ATOM     57  N   UNL A   1      43.802  26.995  31.233  1.00  0.00    -0.248 NA
ATOM     58  C   UNL A   1      45.127  25.252  30.417  1.00  0.00     0.031 C 
ATOM     59  C   UNL A   1      44.741  29.315  34.919  1.00  0.00     0.029 A 
ATOM     60  C   UNL A   1      44.455  28.567  33.788  1.00  0.00     0.049 A 
ATOM     61  H   UNL A   1      42.848  28.766  32.437  1.00  0.00     0.167 HD
ATOM     62  C   UNL A   1      44.868  26.789  32.102  1.00  0.00     0.074 A 
ATOM     63  C   UNL A   1      45.631  25.681  31.565  1.00  0.00     0.031 C 
ATOM     64  C   UNL A   1      45.187  27.452  33.243  1.00  0.00     0.037 A 
BRANCH  51  65
ATOM     65  C   UNL A   1      41.270  32.007  34.732  1.00  0.00     0.058 A 
ATOM     66  C   UNL A   1      40.451  31.801  35.855  1.00  0.00     0.135 A 
ATOM     67  C   UNL A   1      41.761  33.305  34.515  1.00  0.00     0.135 A 
ATOM     68  F   UNL A   1      39.935  30.587  36.104  1.00  0.00    -0.206 F 
ATOM     69  C   UNL A   1      40.105  32.845  36.707  1.00  0.00     0.059 A 
ATOM     70  C   UNL A   1      41.455  34.358  35.374  1.00  0.00     0.059 A 
ATOM     71  F   UNL A   1      42.545  33.564  33.456  1.00  0.00    -0.206 F 
ATOM     72  C   UNL A   1      40.613  34.121  36.459  1.00  0.00     0.060 A 
BRANCH  72  73
ATOM     73  S   UNL A   1      40.161  35.461  37.580  1.00  0.00     0.124 S 
ATOM     74  O   UNL A   1      39.990  36.574  36.649  1.00  0.00    -0.237 OA
ATOM     75  O   UNL A   1      38.936  34.955  38.192  1.00  0.00    -0.237 OA
ATOM     76  O   UNL A   1      41.310  35.561  38.472  1.00  0.00    -0.744 OA
ENDBRANCH  72  73
ENDBRANCH  51  65
BRANCH  52  77
ATOM     77  C   UNL A   1      43.366  24.762  28.118  1.00  0.00     0.058 A 
ATOM     78  C   UNL A   1      44.206  25.022  27.023  1.00  0.00     0.135 A 
ATOM     79  C   UNL A   1      42.858  23.462  28.257  1.00  0.00     0.135 A 
ATOM     80  F   UNL A   1      44.719  26.249  26.847  1.00  0.00    -0.206 F 
ATOM     81  C   UNL A   1      44.508  24.039  26.086  1.00  0.00     0.059 A 
ATOM     82  C   UNL A   1      43.170  22.454  27.348  1.00  0.00     0.059 A 
ATOM     83  F   UNL A   1      42.070  23.154  29.298  1.00  0.00    -0.206 F 
ATOM     84  C   UNL A   1      43.984  22.757  26.258  1.00  0.00     0.060 A 
BRANCH  84  85
ATOM     85  S   UNL A   1      44.409  21.479  25.054  1.00  0.00     0.124 S 
ATOM     86  O   UNL A   1      43.431  20.443  25.368  1.00  0.00    -0.237 OA
ATOM     87  O   UNL A   1      44.215  22.177  23.787  1.00  0.00    -0.237 OA
ATOM     88  O   UNL A   1      45.795  21.160  25.379  1.00  0.00    -0.744 OA
ENDBRANCH  84  85
ENDBRANCH  52  77
BRANCH  64  89
ATOM     89  C   UNL A   1      46.376  26.955  34.018  1.00  0.00     0.058 A 
ATOM     90  C   UNL A   1      46.259  25.973  35.012  1.00  0.00     0.135 A 
ATOM     91  C   UNL A   1      47.658  27.453  33.733  1.00  0.00     0.135 A 
ATOM     92  F   UNL A   1      45.056  25.463  35.323  1.00  0.00    -0.206 F 
ATOM     93  C   UNL A   1      47.366  25.534  35.731  1.00  0.00     0.059 A 
ATOM     94  C   UNL A   1      48.783  27.004  34.414  1.00  0.00     0.059 A 
ATOM     95  F   UNL A   1      47.827  28.381  32.777  1.00  0.00    -0.206 F 
ATOM     96  C   UNL A   1      48.624  26.059  35.426  1.00  0.00     0.060 A 
BRANCH  96  97
ATOM     97  S   UNL A   1      50.053  25.481  36.365  1.00  0.00     0.124 S 
ATOM     98  O   UNL A   1      50.490  24.344  35.563  1.00  0.00    -0.237 OA
ATOM     99  O   UNL A   1      50.931  26.647  36.346  1.00  0.00    -0.237 OA
ATOM    100  O   UNL A   1      49.489  25.150  37.671  1.00  0.00    -0.744 OA
ENDBRANCH  96  97
ENDBRANCH  64  89
ENDBRANCH  38  39
ENDBRANCH  30  33
ENDBRANCH  28  29
ENDBRANCH  27  28
ENDBRANCH  26  27
ENDBRANCH   3  26
TORSDOF 20
ENDMDL
MODEL 2
REMARK VINA RESULT:     -11.0      3.296      4.844
REMARK SMILES CC(C)CCNC(=O)[C@@H](C)Oc1ccc(N)cc1C(=O)NCCCNC(=O)c1ccc(-c2c3nc(c(-c4c(F)cc(S(=O)(=O)[O-])cc4F)c4ccc([nH]4)c(-c4c(F)cc(S(=O)(=O)[O-])cc4F)c4nc(c(-c5c(F)cc(S(=O)(=O)[O-])cc5F)c5ccc2[nH]5)C=C4)C=C3)cc1
REMARK SMILES IDX 19 1 20 2 21 3 18 5 12 6 13 7 14 8 17 9 15 10 11 11 9 12
REMARK SMILES IDX 10 13 7 14 6 15 8 17 5 18 4 19 2 20 1 21 3 22 16 23 22 26
REMARK SMILES IDX 23 27 24 28 25 29 26 30 27 32 28 33 29 34 93 35 30 36 92 37
REMARK SMILES IDX 31 38 32 39 33 40 86 41 34 42 91 43 85 44 87 45 35 46 90 47
REMARK SMILES IDX 84 48 83 49 36 51 70 52 49 53 69 54 50 55 53 56 68 57 88 58
REMARK SMILES IDX 51 59 52 60 67 62 89 63 54 64 37 65 38 66 47 67 39 68 40 69
REMARK SMILES IDX 46 70 48 71 41 72 42 73 43 74 44 75 45 76 71 77 72 78 81 79
REMARK SMILES IDX 73 80 74 81 80 82 82 83 75 84 76 85 77 86 78 87 79 88 55 89
REMARK SMILES IDX 56 90 65 91 57 92 58 93 64 94 66 95 59 96 60 97 61 98 62 99
REMARK SMILES IDX 63 100
REMARK H PARENT 21 4 6 16 16 24 16 25 25 31 87 50 53 61
REMARK Flexibility Score: inf
ROOT
ATOM      1  C   UNL A   1      33.560  27.769  22.852  1.00  0.00     0.255 C 
ATOM      2  O   UNL A   1      34.031  27.847  21.708  1.00  0.00    -0.269 OA
ATOM      3  N   UNL A   1      33.669  28.932  23.560  1.00  0.00    -0.352 N 
ATOM      4  H   UNL A   1      33.993  29.694  23.029  1.00  0.00     0.163 HD
ENDROOT
BRANCH   1   5
ATOM      5  C   UNL A   1      32.897  26.475  23.269  1.00  0.00     0.083 A 
ATOM      6  C   UNL A   1      31.660  26.211  23.887  1.00  0.00     0.133 A 
ATOM      7  C   UNL A   1      31.084  24.940  23.737  1.00  0.00     0.049 A 
ATOM      8  C   UNL A   1      31.818  23.864  23.236  1.00  0.00     0.029 A 
ATOM      9  C   UNL A   1      33.634  25.342  22.827  1.00  0.00     0.043 A 
ATOM     10  C   UNL A   1      33.144  24.037  22.883  1.00  0.00     0.032 A 
BRANCH   6  11
ATOM     11  O   UNL A   1      30.875  27.109  24.542  1.00  0.00    -0.480 OA
BRANCH  11  12
ATOM     12  C   UNL A   1      29.667  27.585  23.905  1.00  0.00     0.258 C 
ATOM     13  C   UNL A   1      28.445  26.638  23.908  1.00  0.00     0.064 C 
BRANCH  12  14
ATOM     14  C   UNL A   1      29.727  28.401  22.591  1.00  0.00     0.260 C 
ATOM     15  N   UNL A   1      29.015  29.559  22.449  1.00  0.00    -0.353 N 
ATOM     16  H   UNL A   1      29.330  30.182  21.756  1.00  0.00     0.163 HD
ATOM     17  O   UNL A   1      30.448  28.049  21.654  1.00  0.00    -0.271 OA
BRANCH  15  18
ATOM     18  C   UNL A   1      27.854  29.971  23.201  1.00  0.00     0.116 C 
BRANCH  18  19
ATOM     19  C   UNL A   1      27.636  31.468  23.259  1.00  0.00     0.024 C 
BRANCH  19  20
ATOM     20  C   UNL A   1      28.585  32.259  22.346  1.00  0.00    -0.016 C 
ATOM     21  C   UNL A   1      27.930  32.662  21.019  1.00  0.00     0.007 C 
ATOM     22  C   UNL A   1      29.054  33.507  23.089  1.00  0.00     0.007 C 
ENDBRANCH  19  20
ENDBRANCH  18  19
ENDBRANCH  15  18
ENDBRANCH  12  14
ENDBRANCH  11  12
ENDBRANCH   6  11
BRANCH  10  23
ATOM     23  N   UNL A   1      33.911  22.973  22.440  1.00  0.00    -0.399 N 
ATOM     24  H   UNL A   1      34.335  22.368  23.090  1.00  0.00     0.156 HD
ATOM     25  H   UNL A   1      34.032  22.822  21.475  1.00  0.00     0.156 HD
ENDBRANCH  10  23
ENDBRANCH   1   5
BRANCH   3  26
ATOM     26  C   UNL A   1      33.401  29.254  24.930  1.00  0.00     0.118 C 
BRANCH  26  27
ATOM     27  C   UNL A   1      34.038  28.296  25.909  1.00  0.00     0.042 C 
BRANCH  27  28
ATOM     28  C   UNL A   1      33.541  28.511  27.314  1.00  0.00     0.118 C 
BRANCH  28  29
ATOM     29  N   UNL A   1      33.584  29.923  27.683  1.00  0.00    -0.352 N 
ATOM     30  C   UNL A   1      34.545  30.684  28.298  1.00  0.00     0.251 C 
ATOM     31  H   UNL A   1      32.770  30.422  27.445  1.00  0.00     0.163 HD
ATOM     32  O   UNL A   1      34.218  31.799  28.725  1.00  0.00    -0.269 OA
BRANCH  30  33
ATOM     33  C   UNL A   1      35.935  30.210  28.482  1.00  0.00     0.039 A 
ATOM     34  C   UNL A   1      36.319  29.652  29.706  1.00  0.00     0.014 A 
ATOM     35  C   UNL A   1      36.897  30.366  27.489  1.00  0.00     0.014 A 
ATOM     36  C   UNL A   1      37.643  29.246  29.907  1.00  0.00     0.010 A 
ATOM     37  C   UNL A   1      38.151  29.789  27.616  1.00  0.00     0.010 A 
ATOM     38  C   UNL A   1      38.568  29.295  28.852  1.00  0.00    -0.014 A 
BRANCH  38  39
ATOM     39  C   UNL A   1      40.003  28.956  29.036  1.00  0.00     0.031 A 
ATOM     40  C   UNL A   1      40.948  29.992  29.607  1.00  0.00     0.074 A 
ATOM     41  C   UNL A   1      40.466  27.751  28.651  1.00  0.00     0.049 A 
ATOM     42  N   UNL A   1      42.243  29.925  29.783  1.00  0.00    -0.248 NA
ATOM     43  C   UNL A   1      40.371  31.296  29.984  1.00  0.00     0.031 C 
ATOM     44  C   UNL A   1      39.667  26.695  28.025  1.00  0.00     0.029 A 
ATOM     45  N   UNL A   1      41.723  27.211  28.730  1.00  0.00    -0.354 N 
ATOM     46  C   UNL A   1      42.626  31.176  30.258  1.00  0.00     0.074 A 
ATOM     47  C   UNL A   1      41.450  32.011  30.257  1.00  0.00     0.031 C 
ATOM     48  C   UNL A   1      40.442  25.617  27.824  1.00  0.00     0.029 A 
ATOM     49  C   UNL A   1      41.799  25.919  28.267  1.00  0.00     0.049 A 
ATOM     50  H   UNL A   1      42.498  27.702  29.085  1.00  0.00     0.167 HD
ATOM     51  C   UNL A   1      43.838  31.584  30.704  1.00  0.00     0.037 A 
ATOM     52  C   UNL A   1      42.845  25.074  28.217  1.00  0.00     0.037 A 
ATOM     53  C   UNL A   1      44.991  30.725  30.758  1.00  0.00     0.049 A 
ATOM     54  C   UNL A   1      44.173  25.532  28.754  1.00  0.00     0.074 A 
ATOM     55  C   UNL A   1      46.254  31.009  31.244  1.00  0.00     0.029 A 
ATOM     56  N   UNL A   1      45.013  29.409  30.323  1.00  0.00    -0.354 N 
ATOM     57  N   UNL A   1      44.505  26.701  29.251  1.00  0.00    -0.248 NA
ATOM     58  C   UNL A   1      45.266  24.551  28.741  1.00  0.00     0.031 C 
ATOM     59  C   UNL A   1      47.052  29.875  31.064  1.00  0.00     0.029 A 
ATOM     60  C   UNL A   1      46.271  28.867  30.521  1.00  0.00     0.049 A 
ATOM     61  H   UNL A   1      44.247  28.930  29.930  1.00  0.00     0.167 HD
ATOM     62  C   UNL A   1      45.832  26.583  29.649  1.00  0.00     0.074 A 
ATOM     63  C   UNL A   1      46.237  25.226  29.340  1.00  0.00     0.031 C 
ATOM     64  C   UNL A   1      46.644  27.508  30.220  1.00  0.00     0.037 A 
BRANCH  51  65
ATOM     65  C   UNL A   1      43.967  33.004  31.186  1.00  0.00     0.058 A 
ATOM     66  C   UNL A   1      43.639  33.374  32.502  1.00  0.00     0.135 A 
ATOM     67  C   UNL A   1      44.441  34.010  30.329  1.00  0.00     0.135 A 
ATOM     68  F   UNL A   1      43.162  32.461  33.363  1.00  0.00    -0.206 F 
ATOM     69  C   UNL A   1      43.744  34.691  32.939  1.00  0.00     0.059 A 
ATOM     70  C   UNL A   1      44.586  35.329  30.754  1.00  0.00     0.059 A 
ATOM     71  F   UNL A   1      44.766  33.719  29.059  1.00  0.00    -0.206 F 
ATOM     72  C   UNL A   1      44.220  35.662  32.057  1.00  0.00     0.060 A 
BRANCH  72  73
ATOM     73  S   UNL A   1      44.358  37.363  32.643  1.00  0.00     0.124 S 
ATOM     74  O   UNL A   1      45.804  37.499  32.806  1.00  0.00    -0.237 OA
ATOM     75  O   UNL A   1      43.772  38.121  31.541  1.00  0.00    -0.237 OA
ATOM     76  O   UNL A   1      43.586  37.362  33.880  1.00  0.00    -0.744 OA
ENDBRANCH  72  73
ENDBRANCH  51  65
BRANCH  52  77
ATOM     77  C   UNL A   1      42.663  23.695  27.686  1.00  0.00     0.058 A 
ATOM     78  C   UNL A   1      42.717  23.440  26.307  1.00  0.00     0.135 A 
ATOM     79  C   UNL A   1      42.445  22.606  28.543  1.00  0.00     0.135 A 
ATOM     80  F   UNL A   1      42.924  24.447  25.446  1.00  0.00    -0.206 F 
ATOM     81  C   UNL A   1      42.535  22.159  25.794  1.00  0.00     0.059 A 
ATOM     82  C   UNL A   1      42.289  21.311  28.056  1.00  0.00     0.059 A 
ATOM     83  F   UNL A   1      42.409  22.791  29.872  1.00  0.00    -0.206 F 
ATOM     84  C   UNL A   1      42.321  21.101  26.678  1.00  0.00     0.060 A 
BRANCH  84  85
ATOM     85  S   UNL A   1      42.118  19.437  26.004  1.00  0.00     0.124 S 
ATOM     86  O   UNL A   1      42.628  18.615  27.095  1.00  0.00    -0.237 OA
ATOM     87  O   UNL A   1      40.678  19.374  25.776  1.00  0.00    -0.237 OA
ATOM     88  O   UNL A   1      42.937  19.463  24.796  1.00  0.00    -0.744 OA
ENDBRANCH  84  85
ENDBRANCH  52  77
BRANCH  64  89
ATOM     89  C   UNL A   1      48.028  27.065  30.607  1.00  0.00     0.058 A 
ATOM     90  C   UNL A   1      49.113  27.160  29.724  1.00  0.00     0.135 A 
ATOM     91  C   UNL A   1      48.270  26.566  31.897  1.00  0.00     0.135 A 
ATOM     92  F   UNL A   1      48.935  27.630  28.479  1.00  0.00    -0.206 F 
ATOM     93  C   UNL A   1      50.385  26.732  30.091  1.00  0.00     0.059 A 
ATOM     94  C   UNL A   1      49.539  26.164  32.297  1.00  0.00     0.059 A 
ATOM     95  F   UNL A   1      47.269  26.472  32.786  1.00  0.00    -0.206 F 
ATOM     96  C   UNL A   1      50.587  26.232  31.380  1.00  0.00     0.060 A 
BRANCH  96  97
ATOM     97  S   UNL A   1      52.241  25.681  31.845  1.00  0.00     0.124 S 
ATOM     98  O   UNL A   1      52.017  24.261  32.094  1.00  0.00    -0.237 OA
ATOM     99  O   UNL A   1      53.023  26.001  30.655  1.00  0.00    -0.237 OA
ATOM    100  O   UNL A   1      52.548  26.486  33.024  1.00  0.00    -0.744 OA
ENDBRANCH  96  97
ENDBRANCH  64  89
ENDBRANCH  38  39
ENDBRANCH  30  33
ENDBRANCH  28  29
ENDBRANCH  27  28
ENDBRANCH  26  27
ENDBRANCH   3  26
TORSDOF 20
ENDMDL
MODEL 3
REMARK VINA RESULT:     -10.9      2.907      4.293
REMARK SMILES CC(C)CCNC(=O)[C@@H](C)Oc1ccc(N)cc1C(=O)NCCCNC(=O)c1ccc(-c2c3nc(c(-c4c(F)cc(S(=O)(=O)[O-])cc4F)c4ccc([nH]4)c(-c4c(F)cc(S(=O)(=O)[O-])cc4F)c4nc(c(-c5c(F)cc(S(=O)(=O)[O-])cc5F)c5ccc2[nH]5)C=C4)C=C3)cc1
REMARK SMILES IDX 19 1 20 2 21 3 18 5 12 6 13 7 14 8 17 9 15 10 11 11 9 12
REMARK SMILES IDX 10 13 7 14 6 15 8 17 5 18 4 19 2 20 1 21 3 22 16 23 22 26
REMARK SMILES IDX 23 27 24 28 25 29 26 30 27 32 28 33 29 34 93 35 30 36 92 37
REMARK SMILES IDX 31 38 32 39 33 40 86 41 34 42 91 43 85 44 87 45 35 46 90 47
REMARK SMILES IDX 84 48 83 49 36 51 70 52 49 53 69 54 50 55 53 56 68 57 88 58
REMARK SMILES IDX 51 59 52 60 67 62 89 63 54 64 37 65 38 66 47 67 39 68 40 69
REMARK SMILES IDX 46 70 48 71 41 72 42 73 43 74 44 75 45 76 71 77 72 78 81 79
REMARK SMILES IDX 73 80 74 81 80 82 82 83 75 84 76 85 77 86 78 87 79 88 55 89
REMARK SMILES IDX 56 90 65 91 57 92 58 93 64 94 66 95 59 96 60 97 61 98 62 99
REMARK SMILES IDX 63 100
REMARK H PARENT 21 4 6 16 16 24 16 25 25 31 87 50 53 61
REMARK Flexibility Score: inf
ROOT
ATOM      1  C   UNL A   1      34.094  25.213  25.150  1.00  0.00     0.255 C 
ATOM      2  O   UNL A   1      35.301  25.055  25.386  1.00  0.00    -0.269 OA
ATOM      3  N   UNL A   1      33.611  26.412  25.592  1.00  0.00    -0.352 N 
ATOM      4  H   UNL A   1      34.306  27.024  25.924  1.00  0.00     0.163 HD
ENDROOT
BRANCH   1   5
ATOM      5  C   UNL A   1      33.366  24.135  24.379  1.00  0.00     0.083 A 
ATOM      6  C   UNL A   1      33.363  23.798  23.012  1.00  0.00     0.133 A 
ATOM      7  C   UNL A   1      32.991  22.500  22.633  1.00  0.00     0.049 A 
ATOM      8  C   UNL A   1      32.368  21.632  23.531  1.00  0.00     0.029 A 
ATOM      9  C   UNL A   1      32.669  23.250  25.246  1.00  0.00     0.043 A 
ATOM     10  C   UNL A   1      32.098  22.049  24.822  1.00  0.00     0.032 A 
BRANCH   6  11
ATOM     11  O   UNL A   1      33.803  24.577  21.986  1.00  0.00    -0.480 OA
BRANCH  11  12
ATOM     12  C   UNL A   1      32.925  25.589  21.442  1.00  0.00     0.258 C 
ATOM     13  C   UNL A   1      32.494  25.432  19.965  1.00  0.00     0.064 C 
BRANCH  12  14
ATOM     14  C   UNL A   1      33.108  27.082  21.806  1.00  0.00     0.260 C 
ATOM     15  N   UNL A   1      32.087  27.800  22.362  1.00  0.00    -0.353 N 
ATOM     16  H   UNL A   1      32.344  28.612  22.856  1.00  0.00     0.163 HD
ATOM     17  O   UNL A   1      34.189  27.652  21.640  1.00  0.00    -0.271 OA
BRANCH  15  18
ATOM     18  C   UNL A   1      30.675  27.503  22.307  1.00  0.00     0.116 C 
BRANCH  18  19
ATOM     19  C   UNL A   1      29.769  28.675  22.624  1.00  0.00     0.024 C 
BRANCH  19  20
ATOM     20  C   UNL A   1      28.602  28.310  23.554  1.00  0.00    -0.016 C 
ATOM     21  C   UNL A   1      27.247  28.794  23.022  1.00  0.00     0.007 C 
ATOM     22  C   UNL A   1      28.573  26.794  23.734  1.00  0.00     0.007 C 
ENDBRANCH  19  20
ENDBRANCH  18  19
ENDBRANCH  15  18
ENDBRANCH  12  14
ENDBRANCH  11  12
ENDBRANCH   6  11
BRANCH  10  23
ATOM     23  N   UNL A   1      31.429  21.229  25.714  1.00  0.00    -0.399 N 
ATOM     24  H   UNL A   1      31.798  20.346  25.942  1.00  0.00     0.156 HD
ATOM     25  H   UNL A   1      30.584  21.529  26.119  1.00  0.00     0.156 HD
ENDBRANCH  10  23
ENDBRANCH   1   5
BRANCH   3  26
ATOM     26  C   UNL A   1      32.284  26.948  25.664  1.00  0.00     0.118 C 
BRANCH  26  27
ATOM     27  C   UNL A   1      32.132  28.042  26.695  1.00  0.00     0.042 C 
BRANCH  27  28
ATOM     28  C   UNL A   1      33.451  28.427  27.309  1.00  0.00     0.118 C 
BRANCH  28  29
ATOM     29  N   UNL A   1      33.502  29.854  27.612  1.00  0.00    -0.352 N 
ATOM     30  C   UNL A   1      34.466  30.638  28.190  1.00  0.00     0.251 C 
ATOM     31  H   UNL A   1      32.690  30.346  27.350  1.00  0.00     0.163 HD
ATOM     32  O   UNL A   1      34.145  31.774  28.564  1.00  0.00    -0.269 OA
BRANCH  30  33
ATOM     33  C   UNL A   1      35.854  30.167  28.396  1.00  0.00     0.039 A 
ATOM     34  C   UNL A   1      36.229  29.640  29.637  1.00  0.00     0.014 A 
ATOM     35  C   UNL A   1      36.823  30.295  27.406  1.00  0.00     0.014 A 
ATOM     36  C   UNL A   1      37.551  29.236  29.856  1.00  0.00     0.010 A 
ATOM     37  C   UNL A   1      38.075  29.719  27.556  1.00  0.00     0.010 A 
ATOM     38  C   UNL A   1      38.483  29.256  28.807  1.00  0.00    -0.014 A 
BRANCH  38  39
ATOM     39  C   UNL A   1      39.915  28.920  29.010  1.00  0.00     0.031 A 
ATOM     40  C   UNL A   1      40.851  29.956  29.597  1.00  0.00     0.074 A 
ATOM     41  C   UNL A   1      40.386  27.717  28.626  1.00  0.00     0.049 A 
ATOM     42  N   UNL A   1      42.143  29.891  29.790  1.00  0.00    -0.248 NA
ATOM     43  C   UNL A   1      40.266  31.258  29.970  1.00  0.00     0.031 C 
ATOM     44  C   UNL A   1      39.598  26.662  27.987  1.00  0.00     0.029 A 
ATOM     45  N   UNL A   1      41.644  27.180  28.721  1.00  0.00    -0.354 N 
ATOM     46  C   UNL A   1      42.517  31.141  30.275  1.00  0.00     0.074 A 
ATOM     47  C   UNL A   1      41.340  31.974  30.260  1.00  0.00     0.031 C 
ATOM     48  C   UNL A   1      40.378  25.586  27.793  1.00  0.00     0.029 A 
ATOM     49  C   UNL A   1      41.728  25.889  28.255  1.00  0.00     0.049 A 
ATOM     50  H   UNL A   1      42.413  27.671  29.089  1.00  0.00     0.167 HD
ATOM     51  C   UNL A   1      43.723  31.550  30.738  1.00  0.00     0.037 A 
ATOM     52  C   UNL A   1      42.776  25.046  28.216  1.00  0.00     0.037 A 
ATOM     53  C   UNL A   1      44.876  30.694  30.805  1.00  0.00     0.049 A 
ATOM     54  C   UNL A   1      44.096  25.505  28.773  1.00  0.00     0.074 A 
ATOM     55  C   UNL A   1      46.132  30.978  31.309  1.00  0.00     0.029 A 
ATOM     56  N   UNL A   1      44.907  29.378  30.366  1.00  0.00    -0.354 N 
ATOM     57  N   UNL A   1      44.419  26.673  29.278  1.00  0.00    -0.248 NA
ATOM     58  C   UNL A   1      45.191  24.527  28.772  1.00  0.00     0.031 C 
ATOM     59  C   UNL A   1      46.935  29.846  31.136  1.00  0.00     0.029 A 
ATOM     60  C   UNL A   1      46.163  28.838  30.579  1.00  0.00     0.049 A 
ATOM     61  H   UNL A   1      44.148  28.899  29.961  1.00  0.00     0.167 HD
ATOM     62  C   UNL A   1      45.741  26.556  29.694  1.00  0.00     0.074 A 
ATOM     63  C   UNL A   1      46.152  25.201  29.386  1.00  0.00     0.031 C 
ATOM     64  C   UNL A   1      46.543  27.481  30.279  1.00  0.00     0.037 A 
BRANCH  51  65
ATOM     65  C   UNL A   1      43.842  32.969  31.227  1.00  0.00     0.058 A 
ATOM     66  C   UNL A   1      43.613  33.313  32.570  1.00  0.00     0.135 A 
ATOM     67  C   UNL A   1      44.208  34.000  30.346  1.00  0.00     0.135 A 
ATOM     68  F   UNL A   1      43.241  32.375  33.455  1.00  0.00    -0.206 F 
ATOM     69  C   UNL A   1      43.708  34.628  33.014  1.00  0.00     0.059 A 
ATOM     70  C   UNL A   1      44.342  35.318  30.775  1.00  0.00     0.059 A 
ATOM     71  F   UNL A   1      44.435  33.733  29.050  1.00  0.00    -0.206 F 
ATOM     72  C   UNL A   1      44.075  35.625  32.108  1.00  0.00     0.060 A 
BRANCH  72  73
ATOM     73  S   UNL A   1      44.202  37.324  32.703  1.00  0.00     0.124 S 
ATOM     74  O   UNL A   1      45.511  37.308  33.351  1.00  0.00    -0.237 OA
ATOM     75  O   UNL A   1      44.118  38.094  31.465  1.00  0.00    -0.237 OA
ATOM     76  O   UNL A   1      43.061  37.457  33.601  1.00  0.00    -0.744 OA
ENDBRANCH  72  73
ENDBRANCH  51  65
BRANCH  52  77
ATOM     77  C   UNL A   1      42.604  23.669  27.678  1.00  0.00     0.058 A 
ATOM     78  C   UNL A   1      42.662  23.421  26.298  1.00  0.00     0.135 A 
ATOM     79  C   UNL A   1      42.393  22.574  28.530  1.00  0.00     0.135 A 
ATOM     80  F   UNL A   1      42.863  24.434  25.442  1.00  0.00    -0.206 F 
ATOM     81  C   UNL A   1      42.489  22.141  25.779  1.00  0.00     0.059 A 
ATOM     82  C   UNL A   1      42.246  21.281  28.036  1.00  0.00     0.059 A 
ATOM     83  F   UNL A   1      42.353  22.753  29.859  1.00  0.00    -0.206 F 
ATOM     84  C   UNL A   1      42.281  21.077  26.657  1.00  0.00     0.060 A 
BRANCH  84  85
ATOM     85  S   UNL A   1      42.091  19.416  25.976  1.00  0.00     0.124 S 
ATOM     86  O   UNL A   1      40.653  19.359  25.738  1.00  0.00    -0.237 OA
ATOM     87  O   UNL A   1      42.933  19.476  24.785  1.00  0.00    -0.237 OA
ATOM     88  O   UNL A   1      42.589  18.556  27.044  1.00  0.00    -0.744 OA
ENDBRANCH  84  85
ENDBRANCH  52  77
BRANCH  64  89
ATOM     89  C   UNL A   1      47.922  27.039  30.683  1.00  0.00     0.058 A 
ATOM     90  C   UNL A   1      48.188  26.489  31.946  1.00  0.00     0.135 A 
ATOM     91  C   UNL A   1      48.987  27.143  29.772  1.00  0.00     0.135 A 
ATOM     92  F   UNL A   1      47.205  26.368  32.852  1.00  0.00    -0.206 F 
ATOM     93  C   UNL A   1      49.472  26.099  32.309  1.00  0.00     0.059 A 
ATOM     94  C   UNL A   1      50.272  26.728  30.103  1.00  0.00     0.059 A 
ATOM     95  F   UNL A   1      48.782  27.646  28.545  1.00  0.00    -0.206 F 
ATOM     96  C   UNL A   1      50.508  26.226  31.381  1.00  0.00     0.060 A 
BRANCH  96  97
ATOM     97  S   UNL A   1      52.170  25.716  31.865  1.00  0.00     0.124 S 
ATOM     98  O   UNL A   1      52.928  25.997  30.651  1.00  0.00    -0.237 OA
ATOM     99  O   UNL A   1      52.447  26.588  33.002  1.00  0.00    -0.237 OA
ATOM    100  O   UNL A   1      52.009  24.302  32.193  1.00  0.00    -0.744 OA
ENDBRANCH  96  97
ENDBRANCH  64  89
ENDBRANCH  38  39
ENDBRANCH  30  33
ENDBRANCH  28  29
ENDBRANCH  27  28
ENDBRANCH  26  27
ENDBRANCH   3  26
TORSDOF 20
ENDMDL
