MODEL 1
REMARK VINA RESULT:     -12.5      0.000      0.000
REMARK SMILES Cc1nc(C)n(CC[C@H]2CCC[C@@]2([NH2+]C(C)C)C(=O)NCCCNC(=O)c2ccc(-c3c4nc(c(-c5c(F)cc(S(=O)(=O)[O-])cc5F)c5ccc([nH]5)c(-c5c(F)cc(S(=O)(=O)[O-])cc5F)c5nc(c(-c6c(F)cc(S(=O)(=O)[O-])cc6F)c6ccc3[nH]6)C=C5)C=C4)cc2)n1
REMARK SMILES IDX 22 1 21 2 20 3 18 4 19 5 13 7 9 8 10 9 11 10 12 11 8 12 7 13
REMARK SMILES IDX 6 14 1 15 2 16 3 17 93 18 4 19 5 20 14 21 15 24 16 25 17 26
REMARK SMILES IDX 23 27 24 28 25 29 26 31 27 32 28 33 92 34 29 35 91 36 30 37
REMARK SMILES IDX 31 38 32 39 85 40 33 41 90 42 84 43 86 44 34 45 89 46 83 47
REMARK SMILES IDX 82 48 35 50 69 51 48 52 68 53 49 54 52 55 67 56 87 57 50 58
REMARK SMILES IDX 51 59 66 61 88 62 53 63 36 64 37 65 46 66 38 67 39 68 45 69
REMARK SMILES IDX 47 70 40 71 41 72 42 73 43 74 44 75 70 76 71 77 80 78 72 79
REMARK SMILES IDX 73 80 79 81 81 82 74 83 75 84 76 85 77 86 78 87 54 88 55 89
REMARK SMILES IDX 64 90 56 91 57 92 63 93 65 94 58 95 59 96 60 97 61 98 62 99
REMARK H PARENT 20 6 14 22 14 23 24 30 86 49 52 60
REMARK Flexibility Score: inf
ROOT
ATOM      1  C   UNL A   1      37.536  21.459  24.868  1.00  0.00     0.042 C 
ENDROOT
BRANCH   1   2
ATOM      2  C   UNL A   1      36.136  20.972  25.335  1.00  0.00     0.118 C 
BRANCH   2   3
ATOM      3  N   UNL A   1      35.479  21.656  26.447  1.00  0.00    -0.351 N 
ATOM      4  C   UNL A   1      34.171  21.849  26.816  1.00  0.00     0.281 C 
ATOM      5  O   UNL A   1      33.968  21.993  28.032  1.00  0.00    -0.268 OA
ATOM      6  H   UNL A   1      36.117  22.071  27.072  1.00  0.00     0.163 HD
BRANCH   4   7
ATOM      7  C   UNL A   1      32.935  21.891  25.835  1.00  0.00     0.178 C 
ATOM      8  C   UNL A   1      33.003  22.893  24.666  1.00  0.00     0.062 C 
ATOM      9  C   UNL A   1      32.853  22.045  23.380  1.00  0.00     0.011 C 
ATOM     10  C   UNL A   1      32.416  20.646  23.788  1.00  0.00     0.008 C 
ATOM     11  C   UNL A   1      32.863  20.477  25.221  1.00  0.00     0.079 C 
BRANCH   8  12
ATOM     12  C   UNL A   1      34.119  23.943  24.582  1.00  0.00     0.034 C 
BRANCH  12  13
ATOM     13  C   UNL A   1      34.014  25.261  23.763  1.00  0.00     0.147 C 
BRANCH  13  14
ATOM     14  N   UNL A   1      32.944  26.233  23.910  1.00  0.00    -0.250 N 
ATOM     15  C   UNL A   1      29.831  27.757  23.186  1.00  0.00     0.092 C 
ATOM     16  C   UNL A   1      31.079  27.169  23.697  1.00  0.00     0.147 A 
ATOM     17  N   UNL A   1      31.538  27.610  24.889  1.00  0.00    -0.217 NA
ATOM     18  N   UNL A   1      31.862  26.264  23.077  1.00  0.00    -0.156 NA
ATOM     19  C   UNL A   1      32.718  27.065  24.980  1.00  0.00     0.124 A 
ATOM     20  C   UNL A   1      33.682  27.404  26.021  1.00  0.00     0.089 C 
ENDBRANCH  13  14
ENDBRANCH  12  13
ENDBRANCH   8  12
BRANCH   7  21
ATOM     21  N   UNL A   1      31.706  22.148  26.644  1.00  0.00    -0.331 N 
ATOM     22  H   UNL A   1      32.043  22.616  27.486  1.00  0.00     0.347 HD
ATOM     23  H   UNL A   1      31.309  21.209  26.628  1.00  0.00     0.347 HD
BRANCH  21  24
ATOM     24  C   UNL A   1      30.516  22.903  26.252  1.00  0.00     0.176 C 
ATOM     25  C   UNL A   1      29.388  22.547  27.237  1.00  0.00     0.075 C 
ATOM     26  C   UNL A   1      30.569  24.452  26.276  1.00  0.00     0.075 C 
ENDBRANCH  21  24
ENDBRANCH   7  21
ENDBRANCH   4   7
ENDBRANCH   2   3
ENDBRANCH   1   2
BRANCH   1  27
ATOM     27  C   UNL A   1      38.321  22.298  25.858  1.00  0.00     0.118 C 
BRANCH  27  28
ATOM     28  N   UNL A   1      39.710  21.843  26.054  1.00  0.00    -0.352 N 
ATOM     29  C   UNL A   1      40.824  22.470  26.599  1.00  0.00     0.251 C 
ATOM     30  H   UNL A   1      39.880  20.925  25.740  1.00  0.00     0.163 HD
ATOM     31  O   UNL A   1      41.894  21.862  26.613  1.00  0.00    -0.269 OA
BRANCH  29  32
ATOM     32  C   UNL A   1      40.762  23.853  27.143  1.00  0.00     0.039 A 
ATOM     33  C   UNL A   1      39.661  24.709  26.951  1.00  0.00     0.014 A 
ATOM     34  C   UNL A   1      41.823  24.322  27.880  1.00  0.00     0.014 A 
ATOM     35  C   UNL A   1      39.656  26.000  27.525  1.00  0.00     0.010 A 
ATOM     36  C   UNL A   1      41.695  25.459  28.614  1.00  0.00     0.010 A 
ATOM     37  C   UNL A   1      40.709  26.378  28.355  1.00  0.00    -0.014 A 
BRANCH  37  38
ATOM     38  C   UNL A   1      40.898  27.655  29.042  1.00  0.00     0.031 A 
ATOM     39  C   UNL A   1      41.904  28.570  28.458  1.00  0.00     0.074 A 
ATOM     40  C   UNL A   1      39.987  28.185  29.902  1.00  0.00     0.049 A 
ATOM     41  N   UNL A   1      43.032  28.916  28.973  1.00  0.00    -0.248 NA
ATOM     42  C   UNL A   1      41.662  29.118  27.115  1.00  0.00     0.031 C 
ATOM     43  C   UNL A   1      38.667  27.655  30.297  1.00  0.00     0.029 A 
ATOM     44  N   UNL A   1      40.003  29.401  30.519  1.00  0.00    -0.354 N 
ATOM     45  C   UNL A   1      43.558  29.889  28.130  1.00  0.00     0.074 A 
ATOM     46  C   UNL A   1      42.766  29.845  26.926  1.00  0.00     0.031 C 
ATOM     47  C   UNL A   1      37.942  28.624  30.900  1.00  0.00     0.029 A 
ATOM     48  C   UNL A   1      38.804  29.767  31.122  1.00  0.00     0.049 A 
ATOM     49  H   UNL A   1      40.801  29.976  30.535  1.00  0.00     0.167 HD
ATOM     50  C   UNL A   1      44.473  30.795  28.578  1.00  0.00     0.037 A 
ATOM     51  C   UNL A   1      38.537  30.922  31.780  1.00  0.00     0.037 A 
ATOM     52  C   UNL A   1      44.960  30.441  29.892  1.00  0.00     0.049 A 
ATOM     53  C   UNL A   1      39.844  31.493  32.188  1.00  0.00     0.074 A 
ATOM     54  C   UNL A   1      45.587  29.333  30.431  1.00  0.00     0.029 A 
ATOM     55  N   UNL A   1      44.465  31.143  30.966  1.00  0.00    -0.354 N 
ATOM     56  N   UNL A   1      40.652  30.940  33.051  1.00  0.00    -0.248 NA
ATOM     57  C   UNL A   1      40.447  32.501  31.331  1.00  0.00     0.031 C 
ATOM     58  C   UNL A   1      45.019  29.180  31.732  1.00  0.00     0.029 A 
ATOM     59  C   UNL A   1      44.119  30.229  31.931  1.00  0.00     0.049 A 
ATOM     60  H   UNL A   1      44.375  32.122  31.031  1.00  0.00     0.167 HD
ATOM     61  C   UNL A   1      41.924  31.209  32.569  1.00  0.00     0.074 A 
ATOM     62  C   UNL A   1      41.737  32.274  31.590  1.00  0.00     0.031 C 
ATOM     63  C   UNL A   1      42.968  30.357  32.803  1.00  0.00     0.037 A 
BRANCH  50  64
ATOM     64  C   UNL A   1      44.708  32.162  27.987  1.00  0.00     0.058 A 
ATOM     65  C   UNL A   1      45.940  32.438  27.356  1.00  0.00     0.135 A 
ATOM     66  C   UNL A   1      43.882  33.280  28.228  1.00  0.00     0.135 A 
ATOM     67  F   UNL A   1      46.808  31.450  27.090  1.00  0.00    -0.206 F 
ATOM     68  C   UNL A   1      46.347  33.735  27.048  1.00  0.00     0.059 A 
ATOM     69  C   UNL A   1      44.242  34.576  27.874  1.00  0.00     0.059 A 
ATOM     70  F   UNL A   1      42.732  33.180  28.908  1.00  0.00    -0.206 F 
ATOM     71  C   UNL A   1      45.496  34.800  27.326  1.00  0.00     0.060 A 
BRANCH  71  72
ATOM     72  S   UNL A   1      46.067  36.485  27.040  1.00  0.00     0.124 S 
ATOM     73  O   UNL A   1      46.842  36.735  28.249  1.00  0.00    -0.237 OA
ATOM     74  O   UNL A   1      46.835  36.344  25.807  1.00  0.00    -0.237 OA
ATOM     75  O   UNL A   1      44.825  37.242  26.914  1.00  0.00    -0.744 OA
ENDBRANCH  71  72
ENDBRANCH  50  64
BRANCH  51  76
ATOM     76  C   UNL A   1      37.260  31.670  31.903  1.00  0.00     0.058 A 
ATOM     77  C   UNL A   1      36.757  32.050  33.159  1.00  0.00     0.135 A 
ATOM     78  C   UNL A   1      36.661  32.279  30.782  1.00  0.00     0.135 A 
ATOM     79  F   UNL A   1      37.278  31.530  34.281  1.00  0.00    -0.206 F 
ATOM     80  C   UNL A   1      35.762  33.022  33.301  1.00  0.00     0.059 A 
ATOM     81  C   UNL A   1      35.661  33.246  30.897  1.00  0.00     0.059 A 
ATOM     82  F   UNL A   1      37.098  32.013  29.540  1.00  0.00    -0.206 F 
ATOM     83  C   UNL A   1      35.237  33.634  32.163  1.00  0.00     0.060 A 
BRANCH  83  84
ATOM     84  S   UNL A   1      34.096  35.026  32.358  1.00  0.00     0.124 S 
ATOM     85  O   UNL A   1      32.915  34.373  32.913  1.00  0.00    -0.237 OA
ATOM     86  O   UNL A   1      34.828  35.899  33.271  1.00  0.00    -0.237 OA
ATOM     87  O   UNL A   1      33.948  35.537  30.999  1.00  0.00    -0.744 OA
ENDBRANCH  83  84
ENDBRANCH  51  76
BRANCH  63  88
ATOM     88  C   UNL A   1      42.807  29.307  33.878  1.00  0.00     0.058 A 
ATOM     89  C   UNL A   1      43.004  29.537  35.252  1.00  0.00     0.135 A 
ATOM     90  C   UNL A   1      42.287  28.055  33.514  1.00  0.00     0.135 A 
ATOM     91  F   UNL A   1      43.402  30.731  35.703  1.00  0.00    -0.206 F 
ATOM     92  C   UNL A   1      42.733  28.558  36.212  1.00  0.00     0.059 A 
ATOM     93  C   UNL A   1      41.979  27.075  34.457  1.00  0.00     0.059 A 
ATOM     94  F   UNL A   1      42.020  27.788  32.225  1.00  0.00    -0.206 F 
ATOM     95  C   UNL A   1      42.217  27.331  35.807  1.00  0.00     0.060 A 
BRANCH  95  96
ATOM     96  S   UNL A   1      41.773  26.099  37.052  1.00  0.00     0.124 S 
ATOM     97  O   UNL A   1      42.911  26.175  37.973  1.00  0.00    -0.237 OA
ATOM     98  O   UNL A   1      40.509  26.623  37.580  1.00  0.00    -0.237 OA
ATOM     99  O   UNL A   1      41.660  24.868  36.298  1.00  0.00    -0.744 OA
ENDBRANCH  95  96
ENDBRANCH  63  88
ENDBRANCH  37  38
ENDBRANCH  29  32
ENDBRANCH  27  28
ENDBRANCH   1  27
TORSDOF 18
ENDMDL
MODEL 2
REMARK VINA RESULT:     -12.3      1.170      3.028
REMARK SMILES Cc1nc(C)n(CC[C@H]2CCC[C@@]2([NH2+]C(C)C)C(=O)NCCCNC(=O)c2ccc(-c3c4nc(c(-c5c(F)cc(S(=O)(=O)[O-])cc5F)c5ccc([nH]5)c(-c5c(F)cc(S(=O)(=O)[O-])cc5F)c5nc(c(-c6c(F)cc(S(=O)(=O)[O-])cc6F)c6ccc3[nH]6)C=C5)C=C4)cc2)n1
REMARK SMILES IDX 22 1 21 2 20 3 18 4 19 5 13 7 9 8 10 9 11 10 12 11 8 12 7 13
REMARK SMILES IDX 6 14 1 15 2 16 3 17 93 18 4 19 5 20 14 21 15 24 16 25 17 26
REMARK SMILES IDX 23 27 24 28 25 29 26 31 27 32 28 33 92 34 29 35 91 36 30 37
REMARK SMILES IDX 31 38 32 39 85 40 33 41 90 42 84 43 86 44 34 45 89 46 83 47
REMARK SMILES IDX 82 48 35 50 69 51 48 52 68 53 49 54 52 55 67 56 87 57 50 58
REMARK SMILES IDX 51 59 66 61 88 62 53 63 36 64 37 65 46 66 38 67 39 68 45 69
REMARK SMILES IDX 47 70 40 71 41 72 42 73 43 74 44 75 70 76 71 77 80 78 72 79
REMARK SMILES IDX 73 80 79 81 81 82 74 83 75 84 76 85 77 86 78 87 54 88 55 89
REMARK SMILES IDX 64 90 56 91 57 92 63 93 65 94 58 95 59 96 60 97 61 98 62 99
REMARK H PARENT 20 6 14 22 14 23 24 30 86 49 52 60
REMARK Flexibility Score: inf
ROOT
ATOM      1  C   UNL A   1      36.614  23.416  24.064  1.00  0.00     0.042 C 
ENDROOT
BRANCH   1   2
ATOM      2  C   UNL A   1      35.070  23.562  24.160  1.00  0.00     0.118 C 
BRANCH   2   3
ATOM      3  N   UNL A   1      34.328  24.048  22.998  1.00  0.00    -0.351 N 
ATOM      4  C   UNL A   1      33.618  25.189  22.722  1.00  0.00     0.281 C 
ATOM      5  O   UNL A   1      33.571  25.523  21.528  1.00  0.00    -0.268 OA
ATOM      6  H   UNL A   1      34.341  23.415  22.243  1.00  0.00     0.163 HD
BRANCH   4   7
ATOM      7  C   UNL A   1      32.881  26.093  23.786  1.00  0.00     0.178 C 
ATOM      8  C   UNL A   1      31.808  25.414  24.660  1.00  0.00     0.062 C 
ATOM      9  C   UNL A   1      32.265  25.625  26.123  1.00  0.00     0.011 C 
ATOM     10  C   UNL A   1      33.397  26.642  26.120  1.00  0.00     0.008 C 
ATOM     11  C   UNL A   1      33.995  26.586  24.733  1.00  0.00     0.079 C 
BRANCH   8  12
ATOM     12  C   UNL A   1      31.331  23.985  24.366  1.00  0.00     0.034 C 
BRANCH  12  13
ATOM     13  C   UNL A   1      31.159  22.885  25.451  1.00  0.00     0.147 C 
BRANCH  13  14
ATOM     14  N   UNL A   1      32.042  21.741  25.606  1.00  0.00    -0.250 N 
ATOM     15  C   UNL A   1      33.572  18.683  24.686  1.00  0.00     0.092 C 
ATOM     16  C   UNL A   1      33.133  20.008  25.150  1.00  0.00     0.147 A 
ATOM     17  N   UNL A   1      33.826  20.582  26.158  1.00  0.00    -0.217 NA
ATOM     18  N   UNL A   1      32.066  20.707  24.714  1.00  0.00    -0.156 NA
ATOM     19  C   UNL A   1      33.107  21.624  26.467  1.00  0.00     0.124 A 
ATOM     20  C   UNL A   1      33.359  22.457  27.637  1.00  0.00     0.089 C 
ENDBRANCH  13  14
ENDBRANCH  12  13
ENDBRANCH   8  12
BRANCH   7  21
ATOM     21  N   UNL A   1      32.279  27.259  23.072  1.00  0.00    -0.331 N 
ATOM     22  H   UNL A   1      32.089  26.916  22.130  1.00  0.00     0.347 HD
ATOM     23  H   UNL A   1      32.986  27.961  23.296  1.00  0.00     0.347 HD
BRANCH  21  24
ATOM     24  C   UNL A   1      31.084  28.017  23.440  1.00  0.00     0.176 C 
ATOM     25  C   UNL A   1      30.968  29.209  22.474  1.00  0.00     0.075 C 
ATOM     26  C   UNL A   1      29.701  27.322  23.356  1.00  0.00     0.075 C 
ENDBRANCH  21  24
ENDBRANCH   7  21
ENDBRANCH   4   7
ENDBRANCH   2   3
ENDBRANCH   1   2
BRANCH   1  27
ATOM     27  C   UNL A   1      37.398  23.703  25.331  1.00  0.00     0.118 C 
BRANCH  27  28
ATOM     28  N   UNL A   1      38.300  22.608  25.734  1.00  0.00    -0.352 N 
ATOM     29  C   UNL A   1      39.420  22.584  26.556  1.00  0.00     0.251 C 
ATOM     30  H   UNL A   1      38.065  21.733  25.349  1.00  0.00     0.163 HD
ATOM     31  O   UNL A   1      40.021  21.519  26.701  1.00  0.00    -0.269 OA
BRANCH  29  32
ATOM     32  C   UNL A   1      39.920  23.805  27.242  1.00  0.00     0.039 A 
ATOM     33  C   UNL A   1      41.287  24.070  27.450  1.00  0.00     0.014 A 
ATOM     34  C   UNL A   1      39.009  24.731  27.689  1.00  0.00     0.014 A 
ATOM     35  C   UNL A   1      41.692  25.267  28.081  1.00  0.00     0.010 A 
ATOM     36  C   UNL A   1      39.423  25.969  28.071  1.00  0.00     0.010 A 
ATOM     37  C   UNL A   1      40.729  26.219  28.411  1.00  0.00    -0.014 A 
BRANCH  37  38
ATOM     38  C   UNL A   1      40.931  27.512  29.064  1.00  0.00     0.031 A 
ATOM     39  C   UNL A   1      41.952  28.397  28.463  1.00  0.00     0.074 A 
ATOM     40  C   UNL A   1      40.021  28.076  29.903  1.00  0.00     0.049 A 
ATOM     41  N   UNL A   1      43.082  28.742  28.976  1.00  0.00    -0.248 NA
ATOM     42  C   UNL A   1      41.727  28.911  27.104  1.00  0.00     0.031 C 
ATOM     43  C   UNL A   1      38.691  27.576  30.302  1.00  0.00     0.029 A 
ATOM     44  N   UNL A   1      40.049  29.309  30.486  1.00  0.00    -0.354 N 
ATOM     45  C   UNL A   1      43.627  29.685  28.112  1.00  0.00     0.074 A 
ATOM     46  C   UNL A   1      42.843  29.618  26.903  1.00  0.00     0.031 C 
ATOM     47  C   UNL A   1      37.975  28.570  30.873  1.00  0.00     0.029 A 
ATOM     48  C   UNL A   1      38.850  29.707  31.071  1.00  0.00     0.049 A 
ATOM     49  H   UNL A   1      40.855  29.873  30.492  1.00  0.00     0.167 HD
ATOM     50  C   UNL A   1      44.551  30.590  28.542  1.00  0.00     0.037 A 
ATOM     51  C   UNL A   1      38.594  30.882  31.695  1.00  0.00     0.037 A 
ATOM     52  C   UNL A   1      45.023  30.266  29.868  1.00  0.00     0.049 A 
ATOM     53  C   UNL A   1      39.907  31.448  32.097  1.00  0.00     0.074 A 
ATOM     54  C   UNL A   1      45.631  29.165  30.441  1.00  0.00     0.029 A 
ATOM     55  N   UNL A   1      44.531  31.004  30.919  1.00  0.00    -0.354 N 
ATOM     56  N   UNL A   1      40.701  30.908  32.980  1.00  0.00    -0.248 NA
ATOM     57  C   UNL A   1      40.528  32.424  31.217  1.00  0.00     0.031 C 
ATOM     58  C   UNL A   1      45.052  29.055  31.742  1.00  0.00     0.029 A 
ATOM     59  C   UNL A   1      44.166  30.121  31.906  1.00  0.00     0.049 A 
ATOM     60  H   UNL A   1      44.453  31.985  30.956  1.00  0.00     0.167 HD
ATOM     61  C   UNL A   1      41.980  31.147  32.501  1.00  0.00     0.074 A 
ATOM     62  C   UNL A   1      41.813  32.187  31.492  1.00  0.00     0.031 C 
ATOM     63  C   UNL A   1      43.010  30.288  32.765  1.00  0.00     0.037 A 
BRANCH  50  64
ATOM     64  C   UNL A   1      44.808  31.938  27.915  1.00  0.00     0.058 A 
ATOM     65  C   UNL A   1      46.050  32.183  27.292  1.00  0.00     0.135 A 
ATOM     66  C   UNL A   1      43.992  33.071  28.115  1.00  0.00     0.135 A 
ATOM     67  F   UNL A   1      46.910  31.178  27.064  1.00  0.00    -0.206 F 
ATOM     68  C   UNL A   1      46.475  33.466  26.952  1.00  0.00     0.059 A 
ATOM     69  C   UNL A   1      44.371  34.353  27.729  1.00  0.00     0.059 A 
ATOM     70  F   UNL A   1      42.833  33.003  28.783  1.00  0.00    -0.206 F 
ATOM     71  C   UNL A   1      45.633  34.547  27.191  1.00  0.00     0.060 A 
BRANCH  71  72
ATOM     72  S   UNL A   1      46.226  36.217  26.864  1.00  0.00     0.124 S 
ATOM     73  O   UNL A   1      44.975  36.965  26.830  1.00  0.00    -0.237 OA
ATOM     74  O   UNL A   1      47.089  36.468  28.013  1.00  0.00    -0.237 OA
ATOM     75  O   UNL A   1      46.919  36.081  25.586  1.00  0.00    -0.744 OA
ENDBRANCH  71  72
ENDBRANCH  50  64
BRANCH  51  76
ATOM     76  C   UNL A   1      37.327  31.651  31.788  1.00  0.00     0.058 A 
ATOM     77  C   UNL A   1      36.726  31.916  33.031  1.00  0.00     0.135 A 
ATOM     78  C   UNL A   1      36.838  32.386  30.690  1.00  0.00     0.135 A 
ATOM     79  F   UNL A   1      37.139  31.271  34.132  1.00  0.00    -0.206 F 
ATOM     80  C   UNL A   1      35.742  32.897  33.189  1.00  0.00     0.059 A 
ATOM     81  C   UNL A   1      35.851  33.365  30.821  1.00  0.00     0.059 A 
ATOM     82  F   UNL A   1      37.374  32.234  29.468  1.00  0.00    -0.206 F 
ATOM     83  C   UNL A   1      35.329  33.635  32.081  1.00  0.00     0.060 A 
BRANCH  83  84
ATOM     84  S   UNL A   1      34.203  35.032  32.323  1.00  0.00     0.124 S 
ATOM     85  O   UNL A   1      34.003  35.500  30.955  1.00  0.00    -0.237 OA
ATOM     86  O   UNL A   1      33.050  34.394  32.951  1.00  0.00    -0.237 OA
ATOM     87  O   UNL A   1      34.959  35.933  33.187  1.00  0.00    -0.744 OA
ENDBRANCH  83  84
ENDBRANCH  51  76
BRANCH  63  88
ATOM     88  C   UNL A   1      42.828  29.270  33.868  1.00  0.00     0.058 A 
ATOM     89  C   UNL A   1      42.957  29.549  35.241  1.00  0.00     0.135 A 
ATOM     90  C   UNL A   1      42.356  27.993  33.524  1.00  0.00     0.135 A 
ATOM     91  F   UNL A   1      43.304  30.768  35.668  1.00  0.00    -0.206 F 
ATOM     92  C   UNL A   1      42.668  28.596  36.220  1.00  0.00     0.059 A 
ATOM     93  C   UNL A   1      42.031  27.036  34.485  1.00  0.00     0.059 A 
ATOM     94  F   UNL A   1      42.154  27.677  32.234  1.00  0.00    -0.206 F 
ATOM     95  C   UNL A   1      42.202  27.342  35.834  1.00  0.00     0.060 A 
BRANCH  95  96
ATOM     96  S   UNL A   1      41.734  26.141  37.100  1.00  0.00     0.124 S 
ATOM     97  O   UNL A   1      41.638  24.902  36.322  1.00  0.00    -0.237 OA
ATOM     98  O   UNL A   1      42.865  26.204  38.032  1.00  0.00    -0.237 OA
ATOM     99  O   UNL A   1      40.483  26.652  37.618  1.00  0.00    -0.744 OA
ENDBRANCH  95  96
ENDBRANCH  63  88
ENDBRANCH  37  38
ENDBRANCH  29  32
ENDBRANCH  27  28
ENDBRANCH   1  27
TORSDOF 18
ENDMDL
MODEL 3
REMARK VINA RESULT:     -12.3      2.852      9.565
REMARK SMILES Cc1nc(C)n(CC[C@H]2CCC[C@@]2([NH2+]C(C)C)C(=O)NCCCNC(=O)c2ccc(-c3c4nc(c(-c5c(F)cc(S(=O)(=O)[O-])cc5F)c5ccc([nH]5)c(-c5c(F)cc(S(=O)(=O)[O-])cc5F)c5nc(c(-c6c(F)cc(S(=O)(=O)[O-])cc6F)c6ccc3[nH]6)C=C5)C=C4)cc2)n1
REMARK SMILES IDX 22 1 21 2 20 3 18 4 19 5 13 7 9 8 10 9 11 10 12 11 8 12 7 13
REMARK SMILES IDX 6 14 1 15 2 16 3 17 93 18 4 19 5 20 14 21 15 24 16 25 17 26
REMARK SMILES IDX 23 27 24 28 25 29 26 31 27 32 28 33 92 34 29 35 91 36 30 37
REMARK SMILES IDX 31 38 32 39 85 40 33 41 90 42 84 43 86 44 34 45 89 46 83 47
REMARK SMILES IDX 82 48 35 50 69 51 48 52 68 53 49 54 52 55 67 56 87 57 50 58
REMARK SMILES IDX 51 59 66 61 88 62 53 63 36 64 37 65 46 66 38 67 39 68 45 69
REMARK SMILES IDX 47 70 40 71 41 72 42 73 43 74 44 75 70 76 71 77 80 78 72 79
REMARK SMILES IDX 73 80 79 81 81 82 74 83 75 84 76 85 77 86 78 87 54 88 55 89
REMARK SMILES IDX 64 90 56 91 57 92 63 93 65 94 58 95 59 96 60 97 61 98 62 99
REMARK H PARENT 20 6 14 22 14 23 24 30 86 49 52 60
REMARK Flexibility Score: inf
ROOT
ATOM      1  C   UNL A   1      32.726  29.716  26.985  1.00  0.00     0.042 C 
ENDROOT
BRANCH   1   2
ATOM      2  C   UNL A   1      32.667  28.168  26.869  1.00  0.00     0.118 C 
BRANCH   2   3
ATOM      3  N   UNL A   1      31.363  27.508  26.812  1.00  0.00    -0.351 N 
ATOM      4  C   UNL A   1      30.869  26.419  26.138  1.00  0.00     0.281 C 
ATOM      5  O   UNL A   1      29.931  25.823  26.689  1.00  0.00    -0.268 OA
ATOM      6  H   UNL A   1      30.690  27.942  27.385  1.00  0.00     0.163 HD
BRANCH   4   7
ATOM      7  C   UNL A   1      31.397  25.877  24.753  1.00  0.00     0.178 C 
ATOM      8  C   UNL A   1      32.411  24.717  24.795  1.00  0.00     0.062 C 
ATOM      9  C   UNL A   1      31.768  23.570  23.981  1.00  0.00     0.011 C 
ATOM     10  C   UNL A   1      30.564  24.136  23.242  1.00  0.00     0.008 C 
ATOM     11  C   UNL A   1      30.141  25.359  24.021  1.00  0.00     0.079 C 
BRANCH   8  12
ATOM     12  C   UNL A   1      33.035  24.255  26.119  1.00  0.00     0.034 C 
BRANCH  12  13
ATOM     13  C   UNL A   1      33.296  22.767  26.485  1.00  0.00     0.147 C 
BRANCH  13  14
ATOM     14  N   UNL A   1      34.262  21.915  25.813  1.00  0.00    -0.250 N 
ATOM     15  C   UNL A   1      37.485  20.746  24.927  1.00  0.00     0.092 C 
ATOM     16  C   UNL A   1      36.087  21.020  25.295  1.00  0.00     0.147 A 
ATOM     17  N   UNL A   1      35.158  20.098  24.960  1.00  0.00    -0.217 NA
ATOM     18  N   UNL A   1      35.609  22.130  25.891  1.00  0.00    -0.156 NA
ATOM     19  C   UNL A   1      34.030  20.690  25.235  1.00  0.00     0.124 A 
ATOM     20  C   UNL A   1      32.727  20.151  24.860  1.00  0.00     0.089 C 
ENDBRANCH  13  14
ENDBRANCH  12  13
ENDBRANCH   8  12
BRANCH   7  21
ATOM     21  N   UNL A   1      31.980  27.024  23.995  1.00  0.00    -0.331 N 
ATOM     22  H   UNL A   1      31.929  27.814  24.639  1.00  0.00     0.347 HD
ATOM     23  H   UNL A   1      31.430  26.942  23.140  1.00  0.00     0.347 HD
BRANCH  21  24
ATOM     24  C   UNL A   1      33.312  27.119  23.396  1.00  0.00     0.176 C 
ATOM     25  C   UNL A   1      33.199  26.673  21.928  1.00  0.00     0.075 C 
ATOM     26  C   UNL A   1      34.002  28.505  23.322  1.00  0.00     0.075 C 
ENDBRANCH  21  24
ENDBRANCH   7  21
ENDBRANCH   4   7
ENDBRANCH   2   3
ENDBRANCH   1   2
BRANCH   1  27
ATOM     27  C   UNL A   1      34.098  30.324  27.209  1.00  0.00     0.118 C 
BRANCH  27  28
ATOM     28  N   UNL A   1      34.104  31.439  28.174  1.00  0.00    -0.352 N 
ATOM     29  C   UNL A   1      34.998  31.792  29.178  1.00  0.00     0.251 C 
ATOM     30  H   UNL A   1      33.333  32.045  28.092  1.00  0.00     0.163 HD
ATOM     31  O   UNL A   1      34.743  32.774  29.875  1.00  0.00    -0.269 OA
BRANCH  29  32
ATOM     32  C   UNL A   1      36.234  31.008  29.444  1.00  0.00     0.039 A 
ATOM     33  C   UNL A   1      36.227  29.739  30.055  1.00  0.00     0.014 A 
ATOM     34  C   UNL A   1      37.445  31.537  29.068  1.00  0.00     0.014 A 
ATOM     35  C   UNL A   1      37.438  29.036  30.246  1.00  0.00     0.010 A 
ATOM     36  C   UNL A   1      38.555  30.751  29.043  1.00  0.00     0.010 A 
ATOM     37  C   UNL A   1      38.620  29.573  29.744  1.00  0.00    -0.014 A 
BRANCH  37  38
ATOM     38  C   UNL A   1      39.970  29.015  29.833  1.00  0.00     0.031 A 
ATOM     39  C   UNL A   1      40.505  28.812  31.197  1.00  0.00     0.074 A 
ATOM     40  C   UNL A   1      40.573  28.348  28.812  1.00  0.00     0.049 A 
ATOM     41  N   UNL A   1      41.479  29.446  31.753  1.00  0.00    -0.248 NA
ATOM     42  C   UNL A   1      39.844  27.836  32.076  1.00  0.00     0.031 C 
ATOM     43  C   UNL A   1      40.040  28.019  27.475  1.00  0.00     0.029 A 
ATOM     44  N   UNL A   1      41.774  27.701  28.808  1.00  0.00    -0.354 N 
ATOM     45  C   UNL A   1      41.704  28.816  32.971  1.00  0.00     0.074 A 
ATOM     46  C   UNL A   1      40.568  27.957  33.192  1.00  0.00     0.031 C 
ATOM     47  C   UNL A   1      40.812  27.076  26.890  1.00  0.00     0.029 A 
ATOM     48  C   UNL A   1      41.995  26.884  27.703  1.00  0.00     0.049 A 
ATOM     49  H   UNL A   1      42.433  27.804  29.532  1.00  0.00     0.167 HD
ATOM     50  C   UNL A   1      42.911  28.900  33.600  1.00  0.00     0.037 A 
ATOM     51  C   UNL A   1      43.084  26.117  27.457  1.00  0.00     0.037 A 
ATOM     52  C   UNL A   1      43.761  29.884  32.971  1.00  0.00     0.049 A 
ATOM     53  C   UNL A   1      44.191  26.669  28.277  1.00  0.00     0.074 A 
ATOM     54  C   UNL A   1      43.651  31.236  32.703  1.00  0.00     0.029 A 
ATOM     55  N   UNL A   1      44.769  29.427  32.154  1.00  0.00    -0.354 N 
ATOM     56  N   UNL A   1      44.720  27.849  28.100  1.00  0.00    -0.248 NA
ATOM     57  C   UNL A   1      44.456  26.059  29.570  1.00  0.00     0.031 C 
ATOM     58  C   UNL A   1      44.247  31.410  31.417  1.00  0.00     0.029 A 
ATOM     59  C   UNL A   1      44.730  30.169  30.998  1.00  0.00     0.049 A 
ATOM     60  H   UNL A   1      45.402  28.701  32.359  1.00  0.00     0.167 HD
ATOM     61  C   UNL A   1      45.011  28.304  29.377  1.00  0.00     0.074 A 
ATOM     62  C   UNL A   1      44.947  27.115  30.221  1.00  0.00     0.031 C 
ATOM     63  C   UNL A   1      45.001  29.637  29.677  1.00  0.00     0.037 A 
BRANCH  50  64
ATOM     64  C   UNL A   1      43.454  27.891  34.580  1.00  0.00     0.058 A 
ATOM     65  C   UNL A   1      43.827  28.316  35.872  1.00  0.00     0.135 A 
ATOM     66  C   UNL A   1      43.856  26.585  34.228  1.00  0.00     0.135 A 
ATOM     67  F   UNL A   1      43.506  29.545  36.306  1.00  0.00    -0.206 F 
ATOM     68  C   UNL A   1      44.595  27.526  36.726  1.00  0.00     0.059 A 
ATOM     69  C   UNL A   1      44.573  25.757  35.087  1.00  0.00     0.059 A 
ATOM     70  F   UNL A   1      43.661  26.088  32.999  1.00  0.00    -0.206 F 
ATOM     71  C   UNL A   1      44.977  26.253  36.316  1.00  0.00     0.060 A 
BRANCH  71  72
ATOM     72  S   UNL A   1      46.069  25.278  37.366  1.00  0.00     0.124 S 
ATOM     73  O   UNL A   1      45.231  25.074  38.542  1.00  0.00    -0.237 OA
ATOM     74  O   UNL A   1      46.314  24.098  36.544  1.00  0.00    -0.237 OA
ATOM     75  O   UNL A   1      47.222  26.154  37.554  1.00  0.00    -0.744 OA
ENDBRANCH  71  72
ENDBRANCH  50  64
BRANCH  51  76
ATOM     76  C   UNL A   1      43.190  24.825  26.733  1.00  0.00     0.058 A 
ATOM     77  C   UNL A   1      43.819  24.744  25.478  1.00  0.00     0.135 A 
ATOM     78  C   UNL A   1      42.938  23.601  27.384  1.00  0.00     0.135 A 
ATOM     79  F   UNL A   1      44.108  25.861  24.794  1.00  0.00    -0.206 F 
ATOM     80  C   UNL A   1      44.231  23.526  24.928  1.00  0.00     0.059 A 
ATOM     81  C   UNL A   1      43.332  22.372  26.851  1.00  0.00     0.059 A 
ATOM     82  F   UNL A   1      42.379  23.574  28.603  1.00  0.00    -0.206 F 
ATOM     83  C   UNL A   1      44.006  22.346  25.635  1.00  0.00     0.060 A 
BRANCH  83  84
ATOM     84  S   UNL A   1      44.713  20.799  25.015  1.00  0.00     0.124 S 
ATOM     85  O   UNL A   1      46.077  20.862  25.530  1.00  0.00    -0.237 OA
ATOM     86  O   UNL A   1      43.848  19.796  25.629  1.00  0.00    -0.237 OA
ATOM     87  O   UNL A   1      44.585  20.923  23.566  1.00  0.00    -0.744 OA
ENDBRANCH  83  84
ENDBRANCH  51  76
BRANCH  63  88
ATOM     88  C   UNL A   1      45.017  30.628  28.535  1.00  0.00     0.058 A 
ATOM     89  C   UNL A   1      43.870  31.104  27.875  1.00  0.00     0.135 A 
ATOM     90  C   UNL A   1      46.238  31.231  28.195  1.00  0.00     0.135 A 
ATOM     91  F   UNL A   1      42.651  30.661  28.203  1.00  0.00    -0.206 F 
ATOM     92  C   UNL A   1      43.937  32.103  26.901  1.00  0.00     0.059 A 
ATOM     93  C   UNL A   1      46.326  32.252  27.248  1.00  0.00     0.059 A 
ATOM     94  F   UNL A   1      47.367  30.867  28.826  1.00  0.00    -0.206 F 
ATOM     95  C   UNL A   1      45.169  32.675  26.596  1.00  0.00     0.060 A 
BRANCH  95  96
ATOM     96  S   UNL A   1      45.246  34.034  25.408  1.00  0.00     0.124 S 
ATOM     97  O   UNL A   1      44.606  33.444  24.229  1.00  0.00    -0.237 OA
ATOM     98  O   UNL A   1      44.472  35.085  26.077  1.00  0.00    -0.237 OA
ATOM     99  O   UNL A   1      46.663  34.303  25.281  1.00  0.00    -0.744 OA
ENDBRANCH  95  96
ENDBRANCH  63  88
ENDBRANCH  37  38
ENDBRANCH  29  32
ENDBRANCH  27  28
ENDBRANCH   1  27
TORSDOF 18
ENDMDL
