MODEL 1
REMARK VINA RESULT:     -11.9      0.000      0.000
REMARK SMILES CCC[C@@]1(C(=O)NCCCNC(=O)c2ccc(-c3c4nc(c(-c5c(F)cc(S(=O)(=O)[O-])cc5F)c5ccc([nH]5)c(-c5c(F)cc(S(=O)(=O)[O-])cc5F)c5nc(c(-c6c(F)cc(S(=O)(=O)[O-])cc6F)c6ccc3[nH]6)C=C5)C=C4)cc2)CCN(C(=O)NC[C@]2(C)CCCO2)C1
REMARK SMILES IDX 9 1 8 2 7 3 5 4 6 5 4 7 80 8 93 9 81 10 82 11 3 12 2 13 1 14
REMARK SMILES IDX 83 15 84 16 85 17 86 19 87 20 89 21 92 22 88 23 90 24 91 25
REMARK SMILES IDX 10 26 11 27 12 28 13 30 14 31 15 32 79 33 16 34 78 35 17 36
REMARK SMILES IDX 18 37 19 38 72 39 20 40 77 41 71 42 73 43 21 44 76 45 70 46
REMARK SMILES IDX 69 47 22 49 56 50 35 51 55 52 36 53 39 54 54 55 74 56 37 57
REMARK SMILES IDX 38 58 53 60 75 61 40 62 23 63 24 64 33 65 25 66 26 67 32 68
REMARK SMILES IDX 34 69 27 70 28 71 29 72 30 73 31 74 57 75 58 76 67 77 59 78
REMARK SMILES IDX 60 79 66 80 68 81 61 82 62 83 63 84 64 85 65 86 41 87 42 88
REMARK SMILES IDX 51 89 43 90 44 91 50 92 52 93 45 94 46 95 47 96 48 97 49 98
REMARK H PARENT 7 6 85 18 11 29 73 48 39 59
REMARK Flexibility Score: inf
ROOT
ATOM      1  C   UNL A   1      34.570  31.365  27.645  1.00  0.00     0.042 C 
ENDROOT
BRANCH   1   2
ATOM      2  C   UNL A   1      34.507  29.866  27.390  1.00  0.00     0.117 C 
BRANCH   2   3
ATOM      3  N   UNL A   1      33.259  29.269  27.835  1.00  0.00    -0.355 N 
ATOM      4  C   UNL A   1      32.508  28.244  27.333  1.00  0.00     0.228 C 
ATOM      5  O   UNL A   1      31.620  27.809  28.072  1.00  0.00    -0.274 OA
ATOM      6  H   UNL A   1      32.885  29.679  28.648  1.00  0.00     0.163 HD
BRANCH   4   7
ATOM      7  C   UNL A   1      32.782  27.618  25.954  1.00  0.00     0.068 C 
ATOM      8  C   UNL A   1      32.940  28.667  24.840  1.00  0.00     0.040 C 
ATOM      9  C   UNL A   1      31.453  26.939  25.433  1.00  0.00     0.138 C 
ATOM     10  C   UNL A   1      31.517  29.171  24.692  1.00  0.00     0.122 C 
ATOM     11  N   UNL A   1      30.776  27.948  24.608  1.00  0.00    -0.324 N 
BRANCH   7  12
ATOM     12  C   UNL A   1      33.893  26.536  25.989  1.00  0.00     0.018 C 
BRANCH  12  13
ATOM     13  C   UNL A   1      33.588  25.057  25.717  1.00  0.00    -0.002 C 
ATOM     14  C   UNL A   1      34.787  24.121  25.813  1.00  0.00     0.004 C 
ENDBRANCH  12  13
ENDBRANCH   7  12
BRANCH  11  15
ATOM     15  C   UNL A   1      29.954  27.600  23.577  1.00  0.00     0.317 C 
ATOM     16  O   UNL A   1      29.394  26.503  23.527  1.00  0.00    -0.249 OA
ATOM     17  N   UNL A   1      29.770  28.437  22.525  1.00  0.00    -0.335 N 
ATOM     18  H   UNL A   1      29.560  27.978  21.680  1.00  0.00     0.165 HD
BRANCH  17  19
ATOM     19  C   UNL A   1      29.825  29.899  22.413  1.00  0.00     0.152 C 
BRANCH  19  20
ATOM     20  C   UNL A   1      28.460  30.663  22.304  1.00  0.00     0.083 C 
ATOM     21  C   UNL A   1      27.794  30.668  20.921  1.00  0.00     0.039 C 
ATOM     22  O   UNL A   1      28.672  32.058  22.648  1.00  0.00    -0.373 OA
ATOM     23  C   UNL A   1      27.492  30.112  23.360  1.00  0.00     0.044 C 
ATOM     24  C   UNL A   1      28.166  32.013  20.347  1.00  0.00     0.031 C 
ATOM     25  C   UNL A   1      28.181  32.885  21.583  1.00  0.00     0.161 C 
ENDBRANCH  19  20
ENDBRANCH  17  19
ENDBRANCH  11  15
ENDBRANCH   4   7
ENDBRANCH   2   3
ENDBRANCH   1   2
BRANCH   1  26
ATOM     26  C   UNL A   1      35.759  31.764  28.499  1.00  0.00     0.118 C 
BRANCH  26  27
ATOM     27  N   UNL A   1      35.588  31.354  29.887  1.00  0.00    -0.352 N 
ATOM     28  C   UNL A   1      36.395  30.577  30.682  1.00  0.00     0.251 C 
ATOM     29  H   UNL A   1      34.769  31.684  30.322  1.00  0.00     0.163 HD
ATOM     30  O   UNL A   1      35.963  30.155  31.749  1.00  0.00    -0.269 OA
BRANCH  28  31
ATOM     31  C   UNL A   1      37.768  30.242  30.245  1.00  0.00     0.039 A 
ATOM     32  C   UNL A   1      38.744  29.987  31.212  1.00  0.00     0.014 A 
ATOM     33  C   UNL A   1      38.099  30.197  28.889  1.00  0.00     0.014 A 
ATOM     34  C   UNL A   1      40.034  29.634  30.814  1.00  0.00     0.010 A 
ATOM     35  C   UNL A   1      39.354  29.749  28.494  1.00  0.00     0.010 A 
ATOM     36  C   UNL A   1      40.341  29.481  29.452  1.00  0.00    -0.014 A 
BRANCH  36  37
ATOM     37  C   UNL A   1      41.693  29.066  29.004  1.00  0.00     0.031 A 
ATOM     38  C   UNL A   1      42.804  30.081  28.935  1.00  0.00     0.074 A 
ATOM     39  C   UNL A   1      41.902  27.799  28.597  1.00  0.00     0.049 A 
ATOM     40  N   UNL A   1      44.030  29.934  28.504  1.00  0.00    -0.248 NA
ATOM     41  C   UNL A   1      42.486  31.448  29.378  1.00  0.00     0.031 C 
ATOM     42  C   UNL A   1      40.887  26.743  28.567  1.00  0.00     0.029 A 
ATOM     43  N   UNL A   1      43.032  27.187  28.121  1.00  0.00    -0.354 N 
ATOM     44  C   UNL A   1      44.620  31.189  28.604  1.00  0.00     0.074 A 
ATOM     45  C   UNL A   1      43.602  32.097  29.081  1.00  0.00     0.031 C 
ATOM     46  C   UNL A   1      41.448  25.608  28.120  1.00  0.00     0.029 A 
ATOM     47  C   UNL A   1      42.848  25.864  27.795  1.00  0.00     0.049 A 
ATOM     48  H   UNL A   1      43.895  27.651  28.022  1.00  0.00     0.167 HD
ATOM     49  C   UNL A   1      45.901  31.546  28.348  1.00  0.00     0.037 A 
ATOM     50  C   UNL A   1      43.708  24.961  27.285  1.00  0.00     0.037 A 
ATOM     51  C   UNL A   1      46.914  30.626  27.901  1.00  0.00     0.049 A 
ATOM     52  C   UNL A   1      45.129  25.376  27.018  1.00  0.00     0.074 A 
ATOM     53  C   UNL A   1      48.258  30.870  27.675  1.00  0.00     0.029 A 
ATOM     54  N   UNL A   1      46.696  29.288  27.609  1.00  0.00    -0.354 N 
ATOM     55  N   UNL A   1      45.689  26.551  27.186  1.00  0.00    -0.248 NA
ATOM     56  C   UNL A   1      46.036  24.344  26.499  1.00  0.00     0.031 C 
ATOM     57  C   UNL A   1      48.841  29.690  27.202  1.00  0.00     0.029 A 
ATOM     58  C   UNL A   1      47.874  28.697  27.182  1.00  0.00     0.049 A 
ATOM     59  H   UNL A   1      45.829  28.826  27.691  1.00  0.00     0.167 HD
ATOM     60  C   UNL A   1      47.020  26.394  26.817  1.00  0.00     0.074 A 
ATOM     61  C   UNL A   1      47.183  25.007  26.430  1.00  0.00     0.031 C 
ATOM     62  C   UNL A   1      48.018  27.313  26.803  1.00  0.00     0.037 A 
BRANCH  49  63
ATOM     63  C   UNL A   1      46.274  32.990  28.548  1.00  0.00     0.058 A 
ATOM     64  C   UNL A   1      46.710  33.476  29.792  1.00  0.00     0.135 A 
ATOM     65  C   UNL A   1      46.212  33.898  27.479  1.00  0.00     0.135 A 
ATOM     66  F   UNL A   1      46.774  32.656  30.853  1.00  0.00    -0.206 F 
ATOM     67  C   UNL A   1      47.034  34.816  29.977  1.00  0.00     0.059 A 
ATOM     68  C   UNL A   1      46.561  35.237  27.633  1.00  0.00     0.059 A 
ATOM     69  F   UNL A   1      45.803  33.489  26.267  1.00  0.00    -0.206 F 
ATOM     70  C   UNL A   1      46.954  35.689  28.892  1.00  0.00     0.060 A 
BRANCH  70  71
ATOM     71  S   UNL A   1      47.369  37.426  29.152  1.00  0.00     0.124 S 
ATOM     72  O   UNL A   1      47.736  37.843  27.802  1.00  0.00    -0.237 OA
ATOM     73  O   UNL A   1      46.118  37.974  29.665  1.00  0.00    -0.237 OA
ATOM     74  O   UNL A   1      48.469  37.373  30.112  1.00  0.00    -0.744 OA
ENDBRANCH  70  71
ENDBRANCH  49  63
BRANCH  50  75
ATOM     75  C   UNL A   1      43.250  23.571  27.024  1.00  0.00     0.058 A 
ATOM     76  C   UNL A   1      43.004  23.125  25.717  1.00  0.00     0.135 A 
ATOM     77  C   UNL A   1      43.080  22.651  28.070  1.00  0.00     0.135 A 
ATOM     78  F   UNL A   1      43.148  23.969  24.684  1.00  0.00    -0.206 F 
ATOM     79  C   UNL A   1      42.599  21.821  25.455  1.00  0.00     0.059 A 
ATOM     80  C   UNL A   1      42.700  21.334  27.832  1.00  0.00     0.059 A 
ATOM     81  F   UNL A   1      43.320  23.022  29.338  1.00  0.00    -0.206 F 
ATOM     82  C   UNL A   1      42.455  20.930  26.520  1.00  0.00     0.060 A 
BRANCH  82  83
ATOM     83  S   UNL A   1      41.994  19.221  26.164  1.00  0.00     0.124 S 
ATOM     84  O   UNL A   1      40.566  19.351  25.898  1.00  0.00    -0.237 OA
ATOM     85  O   UNL A   1      42.834  18.911  25.010  1.00  0.00    -0.237 OA
ATOM     86  O   UNL A   1      42.347  18.516  27.393  1.00  0.00    -0.744 OA
ENDBRANCH  82  83
ENDBRANCH  50  75
BRANCH  62  87
ATOM     87  C   UNL A   1      49.383  26.844  26.384  1.00  0.00     0.058 A 
ATOM     88  C   UNL A   1      50.272  26.249  27.293  1.00  0.00     0.135 A 
ATOM     89  C   UNL A   1      49.787  26.943  25.042  1.00  0.00     0.135 A 
ATOM     90  F   UNL A   1      49.938  26.136  28.589  1.00  0.00    -0.206 F 
ATOM     91  C   UNL A   1      51.520  25.788  26.891  1.00  0.00     0.059 A 
ATOM     92  C   UNL A   1      51.019  26.462  24.612  1.00  0.00     0.059 A 
ATOM     93  F   UNL A   1      48.970  27.494  24.129  1.00  0.00    -0.206 F 
ATOM     94  C   UNL A   1      51.884  25.897  25.548  1.00  0.00     0.060 A 
BRANCH  94  95
ATOM     95  S   UNL A   1      53.495  25.265  25.033  1.00  0.00     0.124 S 
ATOM     96  O   UNL A   1      53.523  25.647  23.625  1.00  0.00    -0.237 OA
ATOM     97  O   UNL A   1      54.410  25.993  25.907  1.00  0.00    -0.237 OA
ATOM     98  O   UNL A   1      53.397  23.831  25.293  1.00  0.00    -0.744 OA
ENDBRANCH  94  95
ENDBRANCH  62  87
ENDBRANCH  36  37
ENDBRANCH  28  31
ENDBRANCH  26  27
ENDBRANCH   1  26
TORSDOF 18
ENDMDL
MODEL 2
REMARK VINA RESULT:     -11.9      2.848      8.515
REMARK SMILES CCC[C@@]1(C(=O)NCCCNC(=O)c2ccc(-c3c4nc(c(-c5c(F)cc(S(=O)(=O)[O-])cc5F)c5ccc([nH]5)c(-c5c(F)cc(S(=O)(=O)[O-])cc5F)c5nc(c(-c6c(F)cc(S(=O)(=O)[O-])cc6F)c6ccc3[nH]6)C=C5)C=C4)cc2)CCN(C(=O)NC[C@]2(C)CCCO2)C1
REMARK SMILES IDX 9 1 8 2 7 3 5 4 6 5 4 7 80 8 93 9 81 10 82 11 3 12 2 13 1 14
REMARK SMILES IDX 83 15 84 16 85 17 86 19 87 20 89 21 92 22 88 23 90 24 91 25
REMARK SMILES IDX 10 26 11 27 12 28 13 30 14 31 15 32 79 33 16 34 78 35 17 36
REMARK SMILES IDX 18 37 19 38 72 39 20 40 77 41 71 42 73 43 21 44 76 45 70 46
REMARK SMILES IDX 69 47 22 49 56 50 35 51 55 52 36 53 39 54 54 55 74 56 37 57
REMARK SMILES IDX 38 58 53 60 75 61 40 62 23 63 24 64 33 65 25 66 26 67 32 68
REMARK SMILES IDX 34 69 27 70 28 71 29 72 30 73 31 74 57 75 58 76 67 77 59 78
REMARK SMILES IDX 60 79 66 80 68 81 61 82 62 83 63 84 64 85 65 86 41 87 42 88
REMARK SMILES IDX 51 89 43 90 44 91 50 92 52 93 45 94 46 95 47 96 48 97 49 98
REMARK H PARENT 7 6 85 18 11 29 73 48 39 59
REMARK Flexibility Score: inf
ROOT
ATOM      1  C   UNL A   1      37.964  20.008  25.051  1.00  0.00     0.042 C 
ENDROOT
BRANCH   1   2
ATOM      2  C   UNL A   1      36.803  20.986  25.155  1.00  0.00     0.117 C 
BRANCH   2   3
ATOM      3  N   UNL A   1      35.511  20.323  25.235  1.00  0.00    -0.355 N 
ATOM      4  C   UNL A   1      34.239  20.776  25.028  1.00  0.00     0.228 C 
ATOM      5  O   UNL A   1      33.363  19.911  24.936  1.00  0.00    -0.274 OA
ATOM      6  H   UNL A   1      35.563  19.373  25.484  1.00  0.00     0.163 HD
BRANCH   4   7
ATOM      7  C   UNL A   1      33.912  22.270  24.855  1.00  0.00     0.068 C 
ATOM      8  C   UNL A   1      34.384  23.127  26.041  1.00  0.00     0.040 C 
ATOM      9  C   UNL A   1      32.355  22.472  25.039  1.00  0.00     0.138 C 
ATOM     10  C   UNL A   1      33.413  22.705  27.128  1.00  0.00     0.122 C 
ATOM     11  N   UNL A   1      32.153  22.806  26.455  1.00  0.00    -0.324 N 
BRANCH   7  12
ATOM     12  C   UNL A   1      34.307  22.820  23.459  1.00  0.00     0.018 C 
BRANCH  12  13
ATOM     13  C   UNL A   1      34.138  24.301  23.098  1.00  0.00    -0.002 C 
ATOM     14  C   UNL A   1      33.073  24.594  22.048  1.00  0.00     0.004 C 
ENDBRANCH  12  13
ENDBRANCH   7  12
BRANCH  11  15
ATOM     15  C   UNL A   1      31.102  23.570  26.871  1.00  0.00     0.317 C 
ATOM     16  O   UNL A   1      30.157  23.095  27.504  1.00  0.00    -0.249 OA
ATOM     17  N   UNL A   1      31.029  24.884  26.543  1.00  0.00    -0.335 N 
ATOM     18  H   UNL A   1      30.110  25.231  26.477  1.00  0.00     0.165 HD
BRANCH  17  19
ATOM     19  C   UNL A   1      32.066  25.886  26.267  1.00  0.00     0.152 C 
BRANCH  19  20
ATOM     20  C   UNL A   1      31.677  27.083  25.333  1.00  0.00     0.083 C 
ATOM     21  C   UNL A   1      32.744  27.532  24.325  1.00  0.00     0.039 C 
ATOM     22  O   UNL A   1      31.389  28.247  26.152  1.00  0.00    -0.373 OA
ATOM     23  C   UNL A   1      30.366  26.747  24.606  1.00  0.00     0.044 C 
ATOM     24  C   UNL A   1      33.375  28.736  24.981  1.00  0.00     0.031 C 
ATOM     25  C   UNL A   1      32.197  29.346  25.707  1.00  0.00     0.161 C 
ENDBRANCH  19  20
ENDBRANCH  17  19
ENDBRANCH  11  15
ENDBRANCH   4   7
ENDBRANCH   2   3
ENDBRANCH   1   2
BRANCH   1  26
ATOM     26  C   UNL A   1      39.216  20.512  25.747  1.00  0.00     0.118 C 
BRANCH  26  27
ATOM     27  N   UNL A   1      40.197  19.449  25.928  1.00  0.00    -0.352 N 
ATOM     28  C   UNL A   1      41.559  19.526  26.087  1.00  0.00     0.251 C 
ATOM     29  H   UNL A   1      39.827  18.536  25.938  1.00  0.00     0.163 HD
ATOM     30  O   UNL A   1      42.235  18.507  25.992  1.00  0.00    -0.269 OA
BRANCH  28  31
ATOM     31  C   UNL A   1      42.204  20.829  26.355  1.00  0.00     0.039 A 
ATOM     32  C   UNL A   1      42.611  21.620  25.278  1.00  0.00     0.014 A 
ATOM     33  C   UNL A   1      42.425  21.265  27.664  1.00  0.00     0.014 A 
ATOM     34  C   UNL A   1      43.188  22.868  25.516  1.00  0.00     0.010 A 
ATOM     35  C   UNL A   1      42.906  22.547  27.898  1.00  0.00     0.010 A 
ATOM     36  C   UNL A   1      43.311  23.356  26.827  1.00  0.00    -0.014 A 
BRANCH  36  37
ATOM     37  C   UNL A   1      43.882  24.697  27.105  1.00  0.00     0.031 A 
ATOM     38  C   UNL A   1      42.985  25.809  27.580  1.00  0.00     0.074 A 
ATOM     39  C   UNL A   1      45.187  24.929  26.865  1.00  0.00     0.049 A 
ATOM     40  N   UNL A   1      43.277  27.064  27.808  1.00  0.00    -0.248 NA
ATOM     41  C   UNL A   1      41.568  25.475  27.797  1.00  0.00     0.031 C 
ATOM     42  C   UNL A   1      46.141  23.944  26.350  1.00  0.00     0.029 A 
ATOM     43  N   UNL A   1      45.934  26.069  27.011  1.00  0.00    -0.354 N 
ATOM     44  C   UNL A   1      42.080  27.670  28.173  1.00  0.00     0.074 A 
ATOM     45  C   UNL A   1      41.049  26.661  28.080  1.00  0.00     0.031 C 
ATOM     46  C   UNL A   1      47.351  24.516  26.248  1.00  0.00     0.029 A 
ATOM     47  C   UNL A   1      47.252  25.916  26.649  1.00  0.00     0.049 A 
ATOM     48  H   UNL A   1      45.562  26.918  27.344  1.00  0.00     0.167 HD
ATOM     49  C   UNL A   1      41.865  28.946  28.575  1.00  0.00     0.037 A 
ATOM     50  C   UNL A   1      48.264  26.805  26.636  1.00  0.00     0.037 A 
ATOM     51  C   UNL A   1      42.904  29.935  28.692  1.00  0.00     0.049 A 
ATOM     52  C   UNL A   1      48.005  28.213  27.097  1.00  0.00     0.074 A 
ATOM     53  C   UNL A   1      42.805  31.236  29.153  1.00  0.00     0.029 A 
ATOM     54  N   UNL A   1      44.232  29.733  28.343  1.00  0.00    -0.354 N 
ATOM     55  N   UNL A   1      46.880  28.752  27.507  1.00  0.00    -0.248 NA
ATOM     56  C   UNL A   1      49.151  29.132  27.100  1.00  0.00     0.031 C 
ATOM     57  C   UNL A   1      44.064  31.835  29.038  1.00  0.00     0.029 A 
ATOM     58  C   UNL A   1      44.959  30.892  28.556  1.00  0.00     0.049 A 
ATOM     59  H   UNL A   1      44.602  28.890  27.994  1.00  0.00     0.167 HD
ATOM     60  C   UNL A   1      47.188  30.065  27.841  1.00  0.00     0.074 A 
ATOM     61  C   UNL A   1      48.607  30.235  27.597  1.00  0.00     0.031 C 
ATOM     62  C   UNL A   1      46.372  31.042  28.309  1.00  0.00     0.037 A 
BRANCH  49  63
ATOM     63  C   UNL A   1      40.453  29.337  28.919  1.00  0.00     0.058 A 
ATOM     64  C   UNL A   1      40.027  29.476  30.250  1.00  0.00     0.135 A 
ATOM     65  C   UNL A   1      39.517  29.596  27.905  1.00  0.00     0.135 A 
ATOM     66  F   UNL A   1      40.874  29.227  31.261  1.00  0.00    -0.206 F 
ATOM     67  C   UNL A   1      38.715  29.818  30.563  1.00  0.00     0.059 A 
ATOM     68  C   UNL A   1      38.208  29.970  28.194  1.00  0.00     0.059 A 
ATOM     69  F   UNL A   1      39.869  29.479  26.614  1.00  0.00    -0.206 F 
ATOM     70  C   UNL A   1      37.812  30.061  29.528  1.00  0.00     0.060 A 
BRANCH  70  71
ATOM     71  S   UNL A   1      36.112  30.495  29.952  1.00  0.00     0.124 S 
ATOM     72  O   UNL A   1      36.159  31.953  29.879  1.00  0.00    -0.237 OA
ATOM     73  O   UNL A   1      35.348  29.833  28.900  1.00  0.00    -0.237 OA
ATOM     74  O   UNL A   1      35.943  29.940  31.292  1.00  0.00    -0.744 OA
ENDBRANCH  70  71
ENDBRANCH  49  63
BRANCH  50  75
ATOM     75  C   UNL A   1      49.618  26.375  26.197  1.00  0.00     0.058 A 
ATOM     76  C   UNL A   1      50.126  26.756  24.946  1.00  0.00     0.135 A 
ATOM     77  C   UNL A   1      50.443  25.604  27.029  1.00  0.00     0.135 A 
ATOM     78  F   UNL A   1      49.372  27.489  24.112  1.00  0.00    -0.206 F 
ATOM     79  C   UNL A   1      51.400  26.382  24.532  1.00  0.00     0.059 A 
ATOM     80  C   UNL A   1      51.731  25.239  26.648  1.00  0.00     0.059 A 
ATOM     81  F   UNL A   1      50.012  25.229  28.244  1.00  0.00    -0.206 F 
ATOM     82  C   UNL A   1      52.198  25.628  25.393  1.00  0.00     0.060 A 
BRANCH  82  83
ATOM     83  S   UNL A   1      53.875  25.204  24.874  1.00  0.00     0.124 S 
ATOM     84  O   UNL A   1      53.841  23.748  24.932  1.00  0.00    -0.237 OA
ATOM     85  O   UNL A   1      53.938  25.790  23.538  1.00  0.00    -0.237 OA
ATOM     86  O   UNL A   1      54.711  25.858  25.876  1.00  0.00    -0.744 OA
ENDBRANCH  82  83
ENDBRANCH  50  75
BRANCH  62  87
ATOM     87  C   UNL A   1      46.995  32.375  28.619  1.00  0.00     0.058 A 
ATOM     88  C   UNL A   1      47.549  32.657  29.878  1.00  0.00     0.135 A 
ATOM     89  C   UNL A   1      47.088  33.363  27.626  1.00  0.00     0.135 A 
ATOM     90  F   UNL A   1      47.481  31.749  30.865  1.00  0.00    -0.206 F 
ATOM     91  C   UNL A   1      48.154  33.880  30.147  1.00  0.00     0.059 A 
ATOM     92  C   UNL A   1      47.714  34.582  27.864  1.00  0.00     0.059 A 
ATOM     93  F   UNL A   1      46.584  33.140  26.401  1.00  0.00    -0.206 F 
ATOM     94  C   UNL A   1      48.233  34.835  29.133  1.00  0.00     0.060 A 
BRANCH  94  95
ATOM     95  S   UNL A   1      49.050  36.406  29.485  1.00  0.00     0.124 S 
ATOM     96  O   UNL A   1      50.457  36.042  29.354  1.00  0.00    -0.237 OA
ATOM     97  O   UNL A   1      48.520  37.275  28.437  1.00  0.00    -0.237 OA
ATOM     98  O   UNL A   1      48.606  36.725  30.839  1.00  0.00    -0.744 OA
ENDBRANCH  94  95
ENDBRANCH  62  87
ENDBRANCH  36  37
ENDBRANCH  28  31
ENDBRANCH  26  27
ENDBRANCH   1  26
TORSDOF 18
ENDMDL
MODEL 3
REMARK VINA RESULT:     -11.8      6.189     11.189
REMARK SMILES CCC[C@@]1(C(=O)NCCCNC(=O)c2ccc(-c3c4nc(c(-c5c(F)cc(S(=O)(=O)[O-])cc5F)c5ccc([nH]5)c(-c5c(F)cc(S(=O)(=O)[O-])cc5F)c5nc(c(-c6c(F)cc(S(=O)(=O)[O-])cc6F)c6ccc3[nH]6)C=C5)C=C4)cc2)CCN(C(=O)NC[C@]2(C)CCCO2)C1
REMARK SMILES IDX 9 1 8 2 7 3 5 4 6 5 4 7 80 8 93 9 81 10 82 11 3 12 2 13 1 14
REMARK SMILES IDX 83 15 84 16 85 17 86 19 87 20 89 21 92 22 88 23 90 24 91 25
REMARK SMILES IDX 10 26 11 27 12 28 13 30 14 31 15 32 79 33 16 34 78 35 17 36
REMARK SMILES IDX 18 37 19 38 72 39 20 40 77 41 71 42 73 43 21 44 76 45 70 46
REMARK SMILES IDX 69 47 22 49 56 50 35 51 55 52 36 53 39 54 54 55 74 56 37 57
REMARK SMILES IDX 38 58 53 60 75 61 40 62 23 63 24 64 33 65 25 66 26 67 32 68
REMARK SMILES IDX 34 69 27 70 28 71 29 72 30 73 31 74 57 75 58 76 67 77 59 78
REMARK SMILES IDX 60 79 66 80 68 81 61 82 62 83 63 84 64 85 65 86 41 87 42 88
REMARK SMILES IDX 51 89 43 90 44 91 50 92 52 93 45 94 46 95 47 96 48 97 49 98
REMARK H PARENT 7 6 85 18 11 29 73 48 39 59
REMARK Flexibility Score: inf
ROOT
ATOM      1  C   UNL A   1      31.565  32.023  26.771  1.00  0.00     0.042 C 
ENDROOT
BRANCH   1   2
ATOM      2  C   UNL A   1      31.809  30.606  26.273  1.00  0.00     0.117 C 
BRANCH   2   3
ATOM      3  N   UNL A   1      31.212  30.353  24.972  1.00  0.00    -0.355 N 
ATOM      4  C   UNL A   1      31.041  29.203  24.254  1.00  0.00     0.228 C 
ATOM      5  O   UNL A   1      30.281  29.276  23.284  1.00  0.00    -0.274 OA
ATOM      6  H   UNL A   1      30.868  31.159  24.524  1.00  0.00     0.163 HD
BRANCH   4   7
ATOM      7  C   UNL A   1      31.702  27.873  24.656  1.00  0.00     0.068 C 
ATOM      8  C   UNL A   1      33.238  27.943  24.656  1.00  0.00     0.040 C 
ATOM      9  C   UNL A   1      31.526  26.841  23.471  1.00  0.00     0.138 C 
ATOM     10  C   UNL A   1      33.540  28.021  23.172  1.00  0.00     0.122 C 
ATOM     11  N   UNL A   1      32.739  26.955  22.650  1.00  0.00    -0.324 N 
BRANCH   7  12
ATOM     12  C   UNL A   1      31.081  27.248  25.933  1.00  0.00     0.018 C 
BRANCH  12  13
ATOM     13  C   UNL A   1      30.588  25.795  25.963  1.00  0.00    -0.002 C 
ATOM     14  C   UNL A   1      31.584  24.786  26.521  1.00  0.00     0.004 C 
ENDBRANCH  12  13
ENDBRANCH   7  12
BRANCH  11  15
ATOM     15  C   UNL A   1      33.212  25.906  21.918  1.00  0.00     0.317 C 
ATOM     16  O   UNL A   1      33.170  25.896  20.685  1.00  0.00    -0.249 OA
ATOM     17  N   UNL A   1      33.694  24.795  22.529  1.00  0.00    -0.335 N 
ATOM     18  H   UNL A   1      33.592  23.970  22.002  1.00  0.00     0.165 HD
BRANCH  17  19
ATOM     19  C   UNL A   1      34.339  24.594  23.832  1.00  0.00     0.152 C 
BRANCH  19  20
ATOM     20  C   UNL A   1      34.731  23.127  24.220  1.00  0.00     0.083 C 
ATOM     21  C   UNL A   1      33.772  22.022  23.754  1.00  0.00     0.039 C 
ATOM     22  O   UNL A   1      34.787  23.020  25.667  1.00  0.00    -0.373 OA
ATOM     23  C   UNL A   1      36.155  22.840  23.722  1.00  0.00     0.044 C 
ATOM     24  C   UNL A   1      32.941  21.727  24.979  1.00  0.00     0.031 C 
ATOM     25  C   UNL A   1      33.942  21.941  26.092  1.00  0.00     0.161 C 
ENDBRANCH  19  20
ENDBRANCH  17  19
ENDBRANCH  11  15
ENDBRANCH   4   7
ENDBRANCH   2   3
ENDBRANCH   1   2
BRANCH   1  26
ATOM     26  C   UNL A   1      32.819  32.669  27.331  1.00  0.00     0.118 C 
BRANCH  26  27
ATOM     27  N   UNL A   1      32.605  34.076  27.646  1.00  0.00    -0.352 N 
ATOM     28  C   UNL A   1      33.157  34.850  28.637  1.00  0.00     0.251 C 
ATOM     29  H   UNL A   1      31.969  34.544  27.058  1.00  0.00     0.163 HD
ATOM     30  O   UNL A   1      32.675  35.952  28.880  1.00  0.00    -0.269 OA
BRANCH  28  31
ATOM     31  C   UNL A   1      34.313  34.352  29.413  1.00  0.00     0.039 A 
ATOM     32  C   UNL A   1      34.085  33.708  30.632  1.00  0.00     0.014 A 
ATOM     33  C   UNL A   1      35.619  34.534  28.952  1.00  0.00     0.014 A 
ATOM     34  C   UNL A   1      35.164  33.200  31.357  1.00  0.00     0.010 A 
ATOM     35  C   UNL A   1      36.682  33.942  29.624  1.00  0.00     0.010 A 
ATOM     36  C   UNL A   1      36.469  33.285  30.843  1.00  0.00    -0.014 A 
BRANCH  36  37
ATOM     37  C   UNL A   1      37.628  32.716  31.574  1.00  0.00     0.031 A 
ATOM     38  C   UNL A   1      38.347  31.515  31.020  1.00  0.00     0.074 A 
ATOM     39  C   UNL A   1      37.987  33.236  32.764  1.00  0.00     0.049 A 
ATOM     40  N   UNL A   1      39.331  30.829  31.541  1.00  0.00    -0.248 NA
ATOM     41  C   UNL A   1      37.877  30.996  29.725  1.00  0.00     0.031 C 
ATOM     42  C   UNL A   1      37.328  34.364  33.427  1.00  0.00     0.029 A 
ATOM     43  N   UNL A   1      38.986  32.878  33.632  1.00  0.00    -0.354 N 
ATOM     44  C   UNL A   1      39.583  29.792  30.651  1.00  0.00     0.074 A 
ATOM     45  C   UNL A   1      38.611  29.902  29.587  1.00  0.00     0.031 C 
ATOM     46  C   UNL A   1      37.957  34.621  34.585  1.00  0.00     0.029 A 
ATOM     47  C   UNL A   1      39.035  33.653  34.767  1.00  0.00     0.049 A 
ATOM     48  H   UNL A   1      39.609  32.136  33.459  1.00  0.00     0.167 HD
ATOM     49  C   UNL A   1      40.553  28.847  30.703  1.00  0.00     0.037 A 
ATOM     50  C   UNL A   1      39.852  33.586  35.836  1.00  0.00     0.037 A 
ATOM     51  C   UNL A   1      41.534  28.764  31.753  1.00  0.00     0.049 A 
ATOM     52  C   UNL A   1      40.929  32.537  35.867  1.00  0.00     0.074 A 
ATOM     53  C   UNL A   1      42.600  27.889  31.867  1.00  0.00     0.029 A 
ATOM     54  N   UNL A   1      41.569  29.585  32.871  1.00  0.00    -0.354 N 
ATOM     55  N   UNL A   1      41.198  31.606  34.982  1.00  0.00    -0.248 NA
ATOM     56  C   UNL A   1      41.818  32.532  37.037  1.00  0.00     0.031 C 
ATOM     57  C   UNL A   1      43.250  28.150  33.077  1.00  0.00     0.029 A 
ATOM     58  C   UNL A   1      42.623  29.222  33.693  1.00  0.00     0.049 A 
ATOM     59  H   UNL A   1      40.935  30.316  33.055  1.00  0.00     0.167 HD
ATOM     60  C   UNL A   1      42.302  30.921  35.476  1.00  0.00     0.074 A 
ATOM     61  C   UNL A   1      42.658  31.553  36.731  1.00  0.00     0.031 C 
ATOM     62  C   UNL A   1      42.963  29.865  34.938  1.00  0.00     0.037 A 
BRANCH  49  63
ATOM     63  C   UNL A   1      40.598  27.835  29.591  1.00  0.00     0.058 A 
ATOM     64  C   UNL A   1      39.684  26.769  29.523  1.00  0.00     0.135 A 
ATOM     65  C   UNL A   1      41.553  27.940  28.567  1.00  0.00     0.135 A 
ATOM     66  F   UNL A   1      38.758  26.611  30.482  1.00  0.00    -0.206 F 
ATOM     67  C   UNL A   1      39.742  25.824  28.504  1.00  0.00     0.059 A 
ATOM     68  C   UNL A   1      41.610  27.023  27.521  1.00  0.00     0.059 A 
ATOM     69  F   UNL A   1      42.451  28.939  28.581  1.00  0.00    -0.206 F 
ATOM     70  C   UNL A   1      40.710  25.958  27.509  1.00  0.00     0.060 A 
BRANCH  70  71
ATOM     71  S   UNL A   1      40.776  24.718  26.199  1.00  0.00     0.124 S 
ATOM     72  O   UNL A   1      41.395  25.475  25.114  1.00  0.00    -0.237 OA
ATOM     73  O   UNL A   1      41.605  23.677  26.796  1.00  0.00    -0.237 OA
ATOM     74  O   UNL A   1      39.375  24.363  25.996  1.00  0.00    -0.744 OA
ENDBRANCH  70  71
ENDBRANCH  49  63
BRANCH  50  75
ATOM     75  C   UNL A   1      39.695  34.563  36.946  1.00  0.00     0.058 A 
ATOM     76  C   UNL A   1      38.860  34.284  38.039  1.00  0.00     0.135 A 
ATOM     77  C   UNL A   1      40.399  35.776  36.955  1.00  0.00     0.135 A 
ATOM     78  F   UNL A   1      38.162  33.140  38.074  1.00  0.00    -0.206 F 
ATOM     79  C   UNL A   1      38.722  35.177  39.097  1.00  0.00     0.059 A 
ATOM     80  C   UNL A   1      40.298  36.674  38.013  1.00  0.00     0.059 A 
ATOM     81  F   UNL A   1      41.226  36.082  35.942  1.00  0.00    -0.206 F 
ATOM     82  C   UNL A   1      39.450  36.368  39.078  1.00  0.00     0.060 A 
BRANCH  82  83
ATOM     83  S   UNL A   1      39.316  37.489  40.487  1.00  0.00     0.124 S 
ATOM     84  O   UNL A   1      38.310  38.434  40.016  1.00  0.00    -0.237 OA
ATOM     85  O   UNL A   1      38.897  36.588  41.556  1.00  0.00    -0.237 OA
ATOM     86  O   UNL A   1      40.669  38.021  40.621  1.00  0.00    -0.744 OA
ENDBRANCH  82  83
ENDBRANCH  50  75
BRANCH  62  87
ATOM     87  C   UNL A   1      44.158  29.343  35.687  1.00  0.00     0.058 A 
ATOM     88  C   UNL A   1      44.043  28.320  36.641  1.00  0.00     0.135 A 
ATOM     89  C   UNL A   1      45.443  29.836  35.406  1.00  0.00     0.135 A 
ATOM     90  F   UNL A   1      42.837  27.819  36.953  1.00  0.00    -0.206 F 
ATOM     91  C   UNL A   1      45.157  27.820  37.306  1.00  0.00     0.059 A 
ATOM     92  C   UNL A   1      46.574  29.331  36.038  1.00  0.00     0.059 A 
ATOM     93  F   UNL A   1      45.610  30.807  34.493  1.00  0.00    -0.206 F 
ATOM     94  C   UNL A   1      46.418  28.330  36.996  1.00  0.00     0.060 A 
BRANCH  94  95
ATOM     95  S   UNL A   1      47.861  27.649  37.842  1.00  0.00     0.124 S 
ATOM     96  O   UNL A   1      47.643  28.109  39.210  1.00  0.00    -0.237 OA
ATOM     97  O   UNL A   1      47.701  26.214  37.623  1.00  0.00    -0.237 OA
ATOM     98  O   UNL A   1      48.987  28.262  37.143  1.00  0.00    -0.744 OA
ENDBRANCH  94  95
ENDBRANCH  62  87
ENDBRANCH  36  37
ENDBRANCH  28  31
ENDBRANCH  26  27
ENDBRANCH   1  26
TORSDOF 18
ENDMDL
