MODEL 1
REMARK VINA RESULT:     -12.4      0.000      0.000
REMARK SMILES Cn1ncc(C(=O)NCCCNC(=O)c2ccc(-c3c4nc(c(-c5c(F)cc(S(=O)(=O)[O-])cc5F)c5ccc([nH]5)c(-c5c(F)cc(S(=O)(=O)[O-])cc5F)c5nc(c(-c6c(F)cc(S(=O)(=O)[O-])cc6F)c6ccc3[nH]6)C=C5)C=C4)cc2)c1C(=O)Nc1nccc(-c2ccc(OC(F)F)cc2)n1
REMARK SMILES IDX 9 1 8 2 6 3 7 4 5 6 1 7 2 8 3 9 81 10 4 11 82 12 83 13 84 14
REMARK SMILES IDX 85 16 86 17 100 18 87 19 89 20 88 21 90 22 91 23 99 24 92 25
REMARK SMILES IDX 98 26 93 27 94 28 95 29 96 30 97 31 10 32 11 33 12 34 13 35
REMARK SMILES IDX 14 37 15 38 16 39 80 40 17 41 79 42 18 43 19 44 20 45 73 46
REMARK SMILES IDX 21 47 78 48 72 49 74 50 22 51 77 52 71 53 70 54 23 56 57 57
REMARK SMILES IDX 36 58 56 59 37 60 40 61 55 62 75 63 38 64 39 65 54 67 76 68
REMARK SMILES IDX 41 69 24 70 25 71 34 72 26 73 27 74 33 75 35 76 28 77 29 78
REMARK SMILES IDX 30 79 31 80 32 81 58 82 59 83 68 84 60 85 61 86 67 87 69 88
REMARK SMILES IDX 62 89 63 90 64 91 65 92 66 93 42 94 43 95 52 96 44 97 45 98
REMARK SMILES IDX 51 99 53 100 46 101 47 102 48 103 49 104 50 105
REMARK H PARENT 8 5 84 15 12 36 74 55 40 66
REMARK Flexibility Score: inf
ROOT
ATOM      1  C   UNL A   1      37.543  23.723  25.957  1.00  0.00     0.118 C 
ENDROOT
BRANCH   1   2
ATOM      2  N   UNL A   1      37.309  23.590  24.544  1.00  0.00    -0.352 N 
ATOM      3  C   UNL A   1      36.368  22.939  23.800  1.00  0.00     0.255 C 
ATOM      4  O   UNL A   1      36.551  23.017  22.580  1.00  0.00    -0.269 OA
ATOM      5  H   UNL A   1      37.969  24.073  23.996  1.00  0.00     0.163 HD
BRANCH   3   6
ATOM      6  C   UNL A   1      35.216  22.190  24.303  1.00  0.00     0.090 A 
ATOM      7  C   UNL A   1      32.237  20.180  24.533  1.00  0.00     0.174 C 
ATOM      8  N   UNL A   1      33.423  20.979  24.729  1.00  0.00    -0.262 N 
ATOM      9  N   UNL A   1      34.313  20.531  25.625  1.00  0.00    -0.180 NA
ATOM     10  C   UNL A   1      33.859  22.051  23.978  1.00  0.00     0.139 A 
ATOM     11  C   UNL A   1      35.400  21.243  25.353  1.00  0.00     0.149 A 
BRANCH  10  12
ATOM     12  C   UNL A   1      33.080  22.626  22.914  1.00  0.00     0.277 C 
ATOM     13  O   UNL A   1      32.767  21.963  21.923  1.00  0.00    -0.267 OA
ATOM     14  N   UNL A   1      32.745  23.962  22.894  1.00  0.00    -0.289 N 
ATOM     15  H   UNL A   1      33.009  24.487  22.104  1.00  0.00     0.173 HD
BRANCH  14  16
ATOM     16  C   UNL A   1      32.063  24.620  23.904  1.00  0.00     0.230 A 
ATOM     17  N   UNL A   1      31.211  23.813  24.553  1.00  0.00    -0.221 NA
ATOM     18  N   UNL A   1      32.358  25.864  24.277  1.00  0.00    -0.213 NA
ATOM     19  C   UNL A   1      30.689  24.275  25.700  1.00  0.00     0.117 A 
ATOM     20  C   UNL A   1      31.757  26.325  25.403  1.00  0.00     0.076 A 
ATOM     21  C   UNL A   1      30.935  25.535  26.182  1.00  0.00     0.049 A 
BRANCH  20  22
ATOM     22  C   UNL A   1      32.179  27.663  25.827  1.00  0.00     0.001 A 
ATOM     23  C   UNL A   1      33.245  28.325  25.206  1.00  0.00     0.014 A 
ATOM     24  C   UNL A   1      31.577  28.279  26.937  1.00  0.00     0.014 A 
ATOM     25  C   UNL A   1      33.721  29.540  25.713  1.00  0.00     0.047 A 
ATOM     26  C   UNL A   1      32.073  29.476  27.460  1.00  0.00     0.047 A 
ATOM     27  C   UNL A   1      33.157  30.108  26.858  1.00  0.00     0.126 A 
BRANCH  27  28
ATOM     28  O   UNL A   1      33.756  31.258  27.286  1.00  0.00    -0.435 OA
BRANCH  28  29
ATOM     29  C   UNL A   1      34.892  31.149  28.133  1.00  0.00     0.542 C 
ATOM     30  F   UNL A   1      35.259  29.849  28.254  1.00  0.00    -0.167 F 
ATOM     31  F   UNL A   1      35.938  31.837  27.615  1.00  0.00    -0.167 F 
ENDBRANCH  28  29
ENDBRANCH  27  28
ENDBRANCH  20  22
ENDBRANCH  14  16
ENDBRANCH  10  12
ENDBRANCH   3   6
ENDBRANCH   1   2
BRANCH   1  32
ATOM     32  C   UNL A   1      38.607  22.781  26.481  1.00  0.00     0.042 C 
BRANCH  32  33
ATOM     33  C   UNL A   1      39.837  23.488  27.014  1.00  0.00     0.118 C 
BRANCH  33  34
ATOM     34  N   UNL A   1      40.478  24.333  26.009  1.00  0.00    -0.352 N 
ATOM     35  C   UNL A   1      40.885  25.645  26.084  1.00  0.00     0.251 C 
ATOM     36  H   UNL A   1      40.644  23.895  25.143  1.00  0.00     0.163 HD
ATOM     37  O   UNL A   1      41.214  26.244  25.063  1.00  0.00    -0.269 OA
BRANCH  35  38
ATOM     38  C   UNL A   1      40.900  26.334  27.390  1.00  0.00     0.039 A 
ATOM     39  C   UNL A   1      41.898  27.272  27.665  1.00  0.00     0.014 A 
ATOM     40  C   UNL A   1      39.905  26.073  28.331  1.00  0.00     0.014 A 
ATOM     41  C   UNL A   1      41.839  28.014  28.847  1.00  0.00     0.010 A 
ATOM     42  C   UNL A   1      39.778  26.893  29.442  1.00  0.00     0.010 A 
ATOM     43  C   UNL A   1      40.748  27.865  29.719  1.00  0.00    -0.014 A 
BRANCH  43  44
ATOM     44  C   UNL A   1      40.590  28.691  30.942  1.00  0.00     0.031 A 
ATOM     45  C   UNL A   1      39.547  29.777  30.968  1.00  0.00     0.074 A 
ATOM     46  C   UNL A   1      41.448  28.543  31.972  1.00  0.00     0.049 A 
ATOM     47  N   UNL A   1      39.354  30.719  31.853  1.00  0.00    -0.248 NA
ATOM     48  C   UNL A   1      38.626  29.837  29.819  1.00  0.00     0.031 C 
ATOM     49  C   UNL A   1      42.533  27.562  32.038  1.00  0.00     0.029 A 
ATOM     50  N   UNL A   1      41.558  29.235  33.151  1.00  0.00    -0.354 N 
ATOM     51  C   UNL A   1      38.317  31.499  31.354  1.00  0.00     0.074 A 
ATOM     52  C   UNL A   1      37.961  30.957  30.062  1.00  0.00     0.031 C 
ATOM     53  C   UNL A   1      43.184  27.701  33.205  1.00  0.00     0.029 A 
ATOM     54  C   UNL A   1      42.598  28.812  33.946  1.00  0.00     0.049 A 
ATOM     55  H   UNL A   1      40.948  29.966  33.405  1.00  0.00     0.167 HD
ATOM     56  C   UNL A   1      37.699  32.554  31.933  1.00  0.00     0.037 A 
ATOM     57  C   UNL A   1      43.038  29.280  35.131  1.00  0.00     0.037 A 
ATOM     58  C   UNL A   1      38.033  33.055  33.238  1.00  0.00     0.049 A 
ATOM     59  C   UNL A   1      42.328  30.447  35.762  1.00  0.00     0.074 A 
ATOM     60  C   UNL A   1      37.427  34.074  33.950  1.00  0.00     0.029 A 
ATOM     61  N   UNL A   1      39.062  32.569  34.033  1.00  0.00    -0.354 N 
ATOM     62  N   UNL A   1      41.311  31.137  35.303  1.00  0.00    -0.248 NA
ATOM     63  C   UNL A   1      42.819  30.899  37.071  1.00  0.00     0.031 C 
ATOM     64  C   UNL A   1      38.115  34.233  35.155  1.00  0.00     0.029 A 
ATOM     65  C   UNL A   1      39.118  33.278  35.219  1.00  0.00     0.049 A 
ATOM     66  H   UNL A   1      39.664  31.829  33.788  1.00  0.00     0.167 HD
ATOM     67  C   UNL A   1      41.020  32.083  36.281  1.00  0.00     0.074 A 
ATOM     68  C   UNL A   1      41.965  31.872  37.357  1.00  0.00     0.031 C 
ATOM     69  C   UNL A   1      40.057  33.037  36.288  1.00  0.00     0.037 A 
BRANCH  56  70
ATOM     70  C   UNL A   1      36.597  33.227  31.162  1.00  0.00     0.058 A 
ATOM     71  C   UNL A   1      35.248  33.089  31.529  1.00  0.00     0.135 A 
ATOM     72  C   UNL A   1      36.893  34.045  30.059  1.00  0.00     0.135 A 
ATOM     73  F   UNL A   1      34.906  32.305  32.565  1.00  0.00    -0.206 F 
ATOM     74  C   UNL A   1      34.231  33.708  30.811  1.00  0.00     0.059 A 
ATOM     75  C   UNL A   1      35.892  34.700  29.345  1.00  0.00     0.059 A 
ATOM     76  F   UNL A   1      38.164  34.211  29.662  1.00  0.00    -0.206 F 
ATOM     77  C   UNL A   1      34.563  34.512  29.721  1.00  0.00     0.060 A 
BRANCH  77  78
ATOM     78  S   UNL A   1      33.230  35.316  28.807  1.00  0.00     0.124 S 
ATOM     79  O   UNL A   1      33.971  36.297  28.017  1.00  0.00    -0.237 OA
ATOM     80  O   UNL A   1      32.652  34.207  28.058  1.00  0.00    -0.237 OA
ATOM     81  O   UNL A   1      32.382  35.870  29.858  1.00  0.00    -0.744 OA
ENDBRANCH  77  78
ENDBRANCH  56  70
BRANCH  57  82
ATOM     82  C   UNL A   1      44.195  28.631  35.804  1.00  0.00     0.058 A 
ATOM     83  C   UNL A   1      45.506  29.065  35.559  1.00  0.00     0.135 A 
ATOM     84  C   UNL A   1      44.017  27.581  36.719  1.00  0.00     0.135 A 
ATOM     85  F   UNL A   1      45.730  30.063  34.690  1.00  0.00    -0.206 F 
ATOM     86  C   UNL A   1      46.601  28.473  36.182  1.00  0.00     0.059 A 
ATOM     87  C   UNL A   1      45.093  26.989  37.374  1.00  0.00     0.059 A 
ATOM     88  F   UNL A   1      42.782  27.139  37.005  1.00  0.00    -0.206 F 
ATOM     89  C   UNL A   1      46.383  27.435  37.091  1.00  0.00     0.060 A 
BRANCH  89  90
ATOM     90  S   UNL A   1      47.807  26.707  37.930  1.00  0.00     0.124 S 
ATOM     91  O   UNL A   1      48.110  27.724  38.930  1.00  0.00    -0.237 OA
ATOM     92  O   UNL A   1      47.254  25.455  38.440  1.00  0.00    -0.237 OA
ATOM     93  O   UNL A   1      48.788  26.559  36.859  1.00  0.00    -0.744 OA
ENDBRANCH  89  90
ENDBRANCH  57  82
BRANCH  69  94
ATOM     94  C   UNL A   1      39.938  33.898  37.512  1.00  0.00     0.058 A 
ATOM     95  C   UNL A   1      40.601  35.130  37.618  1.00  0.00     0.135 A 
ATOM     96  C   UNL A   1      39.079  33.522  38.559  1.00  0.00     0.135 A 
ATOM     97  F   UNL A   1      41.438  35.532  36.648  1.00  0.00    -0.206 F 
ATOM     98  C   UNL A   1      40.424  35.955  38.723  1.00  0.00     0.059 A 
ATOM     99  C   UNL A   1      38.867  34.343  39.661  1.00  0.00     0.059 A 
ATOM    100  F   UNL A   1      38.414  32.356  38.501  1.00  0.00    -0.206 F 
ATOM    101  C   UNL A   1      39.550  35.556  39.736  1.00  0.00     0.060 A 
BRANCH 101 102
ATOM    102  S   UNL A   1      39.285  36.664  41.135  1.00  0.00     0.124 S 
ATOM    103  O   UNL A   1      38.653  37.809  40.489  1.00  0.00    -0.237 OA
ATOM    104  O   UNL A   1      38.419  35.869  42.003  1.00  0.00    -0.237 OA
ATOM    105  O   UNL A   1      40.632  36.896  41.648  1.00  0.00    -0.744 OA
ENDBRANCH 101 102
ENDBRANCH  69  94
ENDBRANCH  43  44
ENDBRANCH  35  38
ENDBRANCH  33  34
ENDBRANCH  32  33
ENDBRANCH   1  32
TORSDOF 18
ENDMDL
MODEL 2
REMARK VINA RESULT:     -11.1      9.885     16.631
REMARK SMILES Cn1ncc(C(=O)NCCCNC(=O)c2ccc(-c3c4nc(c(-c5c(F)cc(S(=O)(=O)[O-])cc5F)c5ccc([nH]5)c(-c5c(F)cc(S(=O)(=O)[O-])cc5F)c5nc(c(-c6c(F)cc(S(=O)(=O)[O-])cc6F)c6ccc3[nH]6)C=C5)C=C4)cc2)c1C(=O)Nc1nccc(-c2ccc(OC(F)F)cc2)n1
REMARK SMILES IDX 9 1 8 2 6 3 7 4 5 6 1 7 2 8 3 9 81 10 4 11 82 12 83 13 84 14
REMARK SMILES IDX 85 16 86 17 100 18 87 19 89 20 88 21 90 22 91 23 99 24 92 25
REMARK SMILES IDX 98 26 93 27 94 28 95 29 96 30 97 31 10 32 11 33 12 34 13 35
REMARK SMILES IDX 14 37 15 38 16 39 80 40 17 41 79 42 18 43 19 44 20 45 73 46
REMARK SMILES IDX 21 47 78 48 72 49 74 50 22 51 77 52 71 53 70 54 23 56 57 57
REMARK SMILES IDX 36 58 56 59 37 60 40 61 55 62 75 63 38 64 39 65 54 67 76 68
REMARK SMILES IDX 41 69 24 70 25 71 34 72 26 73 27 74 33 75 35 76 28 77 29 78
REMARK SMILES IDX 30 79 31 80 32 81 58 82 59 83 68 84 60 85 61 86 67 87 69 88
REMARK SMILES IDX 62 89 63 90 64 91 65 92 66 93 42 94 43 95 52 96 44 97 45 98
REMARK SMILES IDX 51 99 53 100 46 101 47 102 48 103 49 104 50 105
REMARK H PARENT 8 5 84 15 12 36 74 55 40 66
REMARK Flexibility Score: inf
ROOT
ATOM      1  C   UNL A   1      48.219  37.358  25.477  1.00  0.00     0.118 C 
ENDROOT
BRANCH   1   2
ATOM      2  N   UNL A   1      47.775  38.396  24.585  1.00  0.00    -0.352 N 
ATOM      3  C   UNL A   1      46.949  39.474  24.728  1.00  0.00     0.255 C 
ATOM      4  O   UNL A   1      46.764  40.106  23.682  1.00  0.00    -0.269 OA
ATOM      5  H   UNL A   1      48.145  38.310  23.677  1.00  0.00     0.163 HD
BRANCH   3   6
ATOM      6  C   UNL A   1      46.296  39.921  25.959  1.00  0.00     0.090 A 
ATOM      7  C   UNL A   1      44.165  41.611  28.319  1.00  0.00     0.174 C 
ATOM      8  N   UNL A   1      45.112  40.789  27.604  1.00  0.00    -0.262 N 
ATOM      9  N   UNL A   1      45.108  39.478  27.884  1.00  0.00    -0.180 NA
ATOM     10  C   UNL A   1      45.898  41.140  26.527  1.00  0.00     0.139 A 
ATOM     11  C   UNL A   1      45.800  38.953  26.880  1.00  0.00     0.149 A 
BRANCH  10  12
ATOM     12  C   UNL A   1      45.976  42.485  26.024  1.00  0.00     0.277 C 
ATOM     13  O   UNL A   1      47.031  43.122  26.068  1.00  0.00    -0.267 OA
ATOM     14  N   UNL A   1      44.863  43.164  25.577  1.00  0.00    -0.289 N 
ATOM     15  H   UNL A   1      44.657  44.029  25.999  1.00  0.00     0.173 HD
BRANCH  14  16
ATOM     16  C   UNL A   1      44.014  42.716  24.579  1.00  0.00     0.230 A 
ATOM     17  N   UNL A   1      42.957  42.054  25.069  1.00  0.00    -0.221 NA
ATOM     18  N   UNL A   1      44.165  43.059  23.301  1.00  0.00    -0.213 NA
ATOM     19  C   UNL A   1      41.951  41.797  24.218  1.00  0.00     0.117 A 
ATOM     20  C   UNL A   1      43.161  42.721  22.453  1.00  0.00     0.076 A 
ATOM     21  C   UNL A   1      41.997  42.117  22.886  1.00  0.00     0.049 A 
BRANCH  20  22
ATOM     22  C   UNL A   1      43.325  43.197  21.077  1.00  0.00     0.001 A 
ATOM     23  C   UNL A   1      44.299  44.146  20.743  1.00  0.00     0.014 A 
ATOM     24  C   UNL A   1      42.441  42.777  20.070  1.00  0.00     0.014 A 
ATOM     25  C   UNL A   1      44.349  44.690  19.454  1.00  0.00     0.047 A 
ATOM     26  C   UNL A   1      42.473  43.343  18.793  1.00  0.00     0.047 A 
ATOM     27  C   UNL A   1      43.421  44.313  18.480  1.00  0.00     0.126 A 
BRANCH  27  28
ATOM     28  O   UNL A   1      43.540  44.966  17.287  1.00  0.00    -0.435 OA
BRANCH  28  29
ATOM     29  C   UNL A   1      42.581  45.966  16.971  1.00  0.00     0.542 C 
ATOM     30  F   UNL A   1      43.193  47.166  16.816  1.00  0.00    -0.167 F 
ATOM     31  F   UNL A   1      41.944  45.664  15.814  1.00  0.00    -0.167 F 
ENDBRANCH  28  29
ENDBRANCH  27  28
ENDBRANCH  20  22
ENDBRANCH  14  16
ENDBRANCH  10  12
ENDBRANCH   3   6
ENDBRANCH   1   2
BRANCH   1  32
ATOM     32  C   UNL A   1      49.579  37.628  26.084  1.00  0.00     0.042 C 
BRANCH  32  33
ATOM     33  C   UNL A   1      49.813  36.907  27.397  1.00  0.00     0.118 C 
BRANCH  33  34
ATOM     34  N   UNL A   1      48.967  37.414  28.475  1.00  0.00    -0.352 N 
ATOM     35  C   UNL A   1      47.904  36.825  29.118  1.00  0.00     0.251 C 
ATOM     36  H   UNL A   1      49.193  38.319  28.790  1.00  0.00     0.163 HD
ATOM     37  O   UNL A   1      47.187  37.495  29.858  1.00  0.00    -0.269 OA
BRANCH  35  38
ATOM     38  C   UNL A   1      47.615  35.393  28.897  1.00  0.00     0.039 A 
ATOM     39  C   UNL A   1      47.977  34.457  29.868  1.00  0.00     0.014 A 
ATOM     40  C   UNL A   1      46.956  34.983  27.738  1.00  0.00     0.014 A 
ATOM     41  C   UNL A   1      47.592  33.122  29.716  1.00  0.00     0.010 A 
ATOM     42  C   UNL A   1      46.469  33.689  27.647  1.00  0.00     0.010 A 
ATOM     43  C   UNL A   1      46.789  32.740  28.628  1.00  0.00    -0.014 A 
BRANCH  43  44
ATOM     44  C   UNL A   1      46.277  31.356  28.466  1.00  0.00     0.031 A 
ATOM     45  C   UNL A   1      47.154  30.319  27.817  1.00  0.00     0.074 A 
ATOM     46  C   UNL A   1      45.003  31.066  28.794  1.00  0.00     0.049 A 
ATOM     47  N   UNL A   1      46.852  29.110  27.422  1.00  0.00    -0.248 NA
ATOM     48  C   UNL A   1      48.546  30.712  27.532  1.00  0.00     0.031 C 
ATOM     49  C   UNL A   1      44.042  32.003  29.381  1.00  0.00     0.029 A 
ATOM     50  N   UNL A   1      44.287  29.904  28.658  1.00  0.00    -0.354 N 
ATOM     51  C   UNL A   1      48.001  28.614  26.816  1.00  0.00     0.074 A 
ATOM     52  C   UNL A   1      48.986  29.671  26.841  1.00  0.00     0.031 C 
ATOM     53  C   UNL A   1      42.871  31.374  29.573  1.00  0.00     0.029 A 
ATOM     54  C   UNL A   1      42.981  30.006  29.077  1.00  0.00     0.049 A 
ATOM     55  H   UNL A   1      44.672  29.073  28.294  1.00  0.00     0.167 HD
ATOM     56  C   UNL A   1      48.223  27.379  26.309  1.00  0.00     0.037 A 
ATOM     57  C   UNL A   1      41.981  29.103  29.049  1.00  0.00     0.037 A 
ATOM     58  C   UNL A   1      47.249  26.322  26.331  1.00  0.00     0.049 A 
ATOM     59  C   UNL A   1      42.253  27.732  28.492  1.00  0.00     0.074 A 
ATOM     60  C   UNL A   1      47.390  25.012  25.908  1.00  0.00     0.029 A 
ATOM     61  N   UNL A   1      45.952  26.451  26.808  1.00  0.00    -0.354 N 
ATOM     62  N   UNL A   1      43.363  27.259  27.975  1.00  0.00    -0.248 NA
ATOM     63  C   UNL A   1      41.144  26.769  28.515  1.00  0.00     0.031 C 
ATOM     64  C   UNL A   1      46.167  24.362  26.089  1.00  0.00     0.029 A 
ATOM     65  C   UNL A   1      45.278  25.250  26.674  1.00  0.00     0.049 A 
ATOM     66  H   UNL A   1      45.568  27.276  27.185  1.00  0.00     0.167 HD
ATOM     67  C   UNL A   1      43.095  25.936  27.642  1.00  0.00     0.074 A 
ATOM     68  C   UNL A   1      41.721  25.682  28.020  1.00  0.00     0.031 C 
ATOM     69  C   UNL A   1      43.913  25.014  27.077  1.00  0.00     0.037 A 
BRANCH  56  70
ATOM     70  C   UNL A   1      49.571  27.105  25.700  1.00  0.00     0.058 A 
ATOM     71  C   UNL A   1      50.667  26.705  26.481  1.00  0.00     0.135 A 
ATOM     72  C   UNL A   1      49.764  27.217  24.313  1.00  0.00     0.135 A 
ATOM     73  F   UNL A   1      50.545  26.599  27.814  1.00  0.00    -0.206 F 
ATOM     74  C   UNL A   1      51.913  26.457  25.915  1.00  0.00     0.059 A 
ATOM     75  C   UNL A   1      50.994  26.944  23.721  1.00  0.00     0.059 A 
ATOM     76  F   UNL A   1      48.752  27.598  23.518  1.00  0.00    -0.206 F 
ATOM     77  C   UNL A   1      52.066  26.579  24.534  1.00  0.00     0.060 A 
BRANCH  77  78
ATOM     78  S   UNL A   1      53.688  26.245  23.816  1.00  0.00     0.124 S 
ATOM     79  O   UNL A   1      54.014  24.957  24.423  1.00  0.00    -0.237 OA
ATOM     80  O   UNL A   1      53.397  26.215  22.387  1.00  0.00    -0.237 OA
ATOM     81  O   UNL A   1      54.499  27.372  24.265  1.00  0.00    -0.744 OA
ENDBRANCH  77  78
ENDBRANCH  56  70
BRANCH  57  82
ATOM     82  C   UNL A   1      40.639  29.461  29.582  1.00  0.00     0.058 A 
ATOM     83  C   UNL A   1      40.415  29.556  30.963  1.00  0.00     0.135 A 
ATOM     84  C   UNL A   1      39.560  29.736  28.726  1.00  0.00     0.135 A 
ATOM     85  F   UNL A   1      41.412  29.298  31.823  1.00  0.00    -0.206 F 
ATOM     86  C   UNL A   1      39.167  29.892  31.480  1.00  0.00     0.059 A 
ATOM     87  C   UNL A   1      38.309  30.099  29.218  1.00  0.00     0.059 A 
ATOM     88  F   UNL A   1      39.724  29.679  27.395  1.00  0.00    -0.206 F 
ATOM     89  C   UNL A   1      38.120  30.165  30.598  1.00  0.00     0.060 A 
BRANCH  89  90
ATOM     90  S   UNL A   1      36.518  30.649  31.278  1.00  0.00     0.124 S 
ATOM     91  O   UNL A   1      36.788  30.627  32.711  1.00  0.00    -0.237 OA
ATOM     92  O   UNL A   1      36.320  31.969  30.686  1.00  0.00    -0.237 OA
ATOM     93  O   UNL A   1      35.617  29.610  30.787  1.00  0.00    -0.744 OA
ENDBRANCH  89  90
ENDBRANCH  57  82
BRANCH  69  94
ATOM     94  C   UNL A   1      43.368  23.630  26.874  1.00  0.00     0.058 A 
ATOM     95  C   UNL A   1      43.002  23.157  25.605  1.00  0.00     0.135 A 
ATOM     96  C   UNL A   1      43.291  22.736  27.956  1.00  0.00     0.135 A 
ATOM     97  F   UNL A   1      43.050  23.973  24.540  1.00  0.00    -0.206 F 
ATOM     98  C   UNL A   1      42.570  21.849  25.417  1.00  0.00     0.059 A 
ATOM     99  C   UNL A   1      42.887  21.417  27.786  1.00  0.00     0.059 A 
ATOM    100  F   UNL A   1      43.639  23.138  29.190  1.00  0.00    -0.206 F 
ATOM    101  C   UNL A   1      42.522  20.984  26.512  1.00  0.00     0.060 A 
BRANCH 101 102
ATOM    102  S   UNL A   1      42.017  19.273  26.242  1.00  0.00     0.124 S 
ATOM    103  O   UNL A   1      40.584  19.421  26.017  1.00  0.00    -0.237 OA
ATOM    104  O   UNL A   1      42.807  18.896  25.072  1.00  0.00    -0.237 OA
ATOM    105  O   UNL A   1      42.393  18.606  27.485  1.00  0.00    -0.744 OA
ENDBRANCH 101 102
ENDBRANCH  69  94
ENDBRANCH  43  44
ENDBRANCH  35  38
ENDBRANCH  33  34
ENDBRANCH  32  33
ENDBRANCH   1  32
TORSDOF 18
ENDMDL
MODEL 3
REMARK VINA RESULT:     -10.9      7.546     13.904
REMARK SMILES Cn1ncc(C(=O)NCCCNC(=O)c2ccc(-c3c4nc(c(-c5c(F)cc(S(=O)(=O)[O-])cc5F)c5ccc([nH]5)c(-c5c(F)cc(S(=O)(=O)[O-])cc5F)c5nc(c(-c6c(F)cc(S(=O)(=O)[O-])cc6F)c6ccc3[nH]6)C=C5)C=C4)cc2)c1C(=O)Nc1nccc(-c2ccc(OC(F)F)cc2)n1
REMARK SMILES IDX 9 1 8 2 6 3 7 4 5 6 1 7 2 8 3 9 81 10 4 11 82 12 83 13 84 14
REMARK SMILES IDX 85 16 86 17 100 18 87 19 89 20 88 21 90 22 91 23 99 24 92 25
REMARK SMILES IDX 98 26 93 27 94 28 95 29 96 30 97 31 10 32 11 33 12 34 13 35
REMARK SMILES IDX 14 37 15 38 16 39 80 40 17 41 79 42 18 43 19 44 20 45 73 46
REMARK SMILES IDX 21 47 78 48 72 49 74 50 22 51 77 52 71 53 70 54 23 56 57 57
REMARK SMILES IDX 36 58 56 59 37 60 40 61 55 62 75 63 38 64 39 65 54 67 76 68
REMARK SMILES IDX 41 69 24 70 25 71 34 72 26 73 27 74 33 75 35 76 28 77 29 78
REMARK SMILES IDX 30 79 31 80 32 81 58 82 59 83 68 84 60 85 61 86 67 87 69 88
REMARK SMILES IDX 62 89 63 90 64 91 65 92 66 93 42 94 43 95 52 96 44 97 45 98
REMARK SMILES IDX 51 99 53 100 46 101 47 102 48 103 49 104 50 105
REMARK H PARENT 8 5 84 15 12 36 74 55 40 66
REMARK Flexibility Score: inf
ROOT
ATOM      1  C   UNL A   1      44.911  39.176  30.588  1.00  0.00     0.118 C 
ENDROOT
BRANCH   1   2
ATOM      2  N   UNL A   1      43.719  39.982  30.574  1.00  0.00    -0.352 N 
ATOM      3  C   UNL A   1      43.181  40.855  29.673  1.00  0.00     0.255 C 
ATOM      4  O   UNL A   1      42.149  41.410  30.068  1.00  0.00    -0.269 OA
ATOM      5  H   UNL A   1      43.177  39.883  31.390  1.00  0.00     0.163 HD
BRANCH   3   6
ATOM      6  C   UNL A   1      43.699  41.172  28.342  1.00  0.00     0.090 A 
ATOM      7  C   UNL A   1      43.985  42.207  24.905  1.00  0.00     0.174 C 
ATOM      8  N   UNL A   1      44.155  41.757  26.266  1.00  0.00    -0.262 N 
ATOM      9  N   UNL A   1      45.153  42.315  26.967  1.00  0.00    -0.180 NA
ATOM     10  C   UNL A   1      43.309  40.964  27.011  1.00  0.00     0.139 A 
ATOM     11  C   UNL A   1      44.865  41.982  28.219  1.00  0.00     0.149 A 
BRANCH  10  12
ATOM     12  C   UNL A   1      42.137  40.340  26.458  1.00  0.00     0.277 C 
ATOM     13  O   UNL A   1      41.552  40.829  25.489  1.00  0.00    -0.267 OA
ATOM     14  N   UNL A   1      41.549  39.241  27.044  1.00  0.00    -0.289 N 
ATOM     15  H   UNL A   1      40.598  39.308  27.289  1.00  0.00     0.173 HD
BRANCH  14  16
ATOM     16  C   UNL A   1      42.198  38.048  27.313  1.00  0.00     0.230 A 
ATOM     17  N   UNL A   1      43.371  37.950  26.670  1.00  0.00    -0.221 NA
ATOM     18  N   UNL A   1      41.767  37.187  28.233  1.00  0.00    -0.213 NA
ATOM     19  C   UNL A   1      44.192  36.959  27.050  1.00  0.00     0.117 A 
ATOM     20  C   UNL A   1      42.592  36.155  28.542  1.00  0.00     0.076 A 
ATOM     21  C   UNL A   1      43.854  36.026  27.996  1.00  0.00     0.049 A 
BRANCH  20  22
ATOM     22  C   UNL A   1      42.121  35.286  29.624  1.00  0.00     0.001 A 
ATOM     23  C   UNL A   1      40.774  34.918  29.731  1.00  0.00     0.014 A 
ATOM     24  C   UNL A   1      43.000  34.874  30.638  1.00  0.00     0.014 A 
ATOM     25  C   UNL A   1      40.319  34.203  30.845  1.00  0.00     0.047 A 
ATOM     26  C   UNL A   1      42.538  34.187  31.764  1.00  0.00     0.047 A 
ATOM     27  C   UNL A   1      41.191  33.857  31.880  1.00  0.00     0.126 A 
BRANCH  27  28
ATOM     28  O   UNL A   1      40.608  33.219  32.937  1.00  0.00    -0.435 OA
BRANCH  28  29
ATOM     29  C   UNL A   1      39.228  33.455  33.185  1.00  0.00     0.542 C 
ATOM     30  F   UNL A   1      38.762  32.571  34.101  1.00  0.00    -0.167 F 
ATOM     31  F   UNL A   1      39.040  34.706  33.671  1.00  0.00    -0.167 F 
ENDBRANCH  28  29
ENDBRANCH  27  28
ENDBRANCH  20  22
ENDBRANCH  14  16
ENDBRANCH  10  12
ENDBRANCH   3   6
ENDBRANCH   1   2
BRANCH   1  32
ATOM     32  C   UNL A   1      44.741  37.864  31.324  1.00  0.00     0.042 C 
BRANCH  32  33
ATOM     33  C   UNL A   1      45.879  36.889  31.100  1.00  0.00     0.118 C 
BRANCH  33  34
ATOM     34  N   UNL A   1      46.885  37.402  30.172  1.00  0.00    -0.352 N 
ATOM     35  C   UNL A   1      47.673  36.736  29.262  1.00  0.00     0.251 C 
ATOM     36  H   UNL A   1      47.019  38.376  30.204  1.00  0.00     0.163 HD
ATOM     37  O   UNL A   1      48.609  37.319  28.720  1.00  0.00    -0.269 OA
BRANCH  35  38
ATOM     38  C   UNL A   1      47.405  35.316  28.961  1.00  0.00     0.039 A 
ATOM     39  C   UNL A   1      47.387  34.380  29.998  1.00  0.00     0.014 A 
ATOM     40  C   UNL A   1      47.141  34.915  27.651  1.00  0.00     0.014 A 
ATOM     41  C   UNL A   1      47.010  33.062  29.731  1.00  0.00     0.010 A 
ATOM     42  C   UNL A   1      46.650  33.642  27.408  1.00  0.00     0.010 A 
ATOM     43  C   UNL A   1      46.588  32.697  28.442  1.00  0.00    -0.014 A 
BRANCH  43  44
ATOM     44  C   UNL A   1      46.092  31.335  28.124  1.00  0.00     0.031 A 
ATOM     45  C   UNL A   1      44.649  30.996  28.388  1.00  0.00     0.074 A 
ATOM     46  C   UNL A   1      46.953  30.383  27.710  1.00  0.00     0.049 A 
ATOM     47  N   UNL A   1      44.051  29.834  28.349  1.00  0.00    -0.248 NA
ATOM     48  C   UNL A   1      43.772  32.108  28.796  1.00  0.00     0.031 C 
ATOM     49  C   UNL A   1      48.385  30.580  27.470  1.00  0.00     0.029 A 
ATOM     50  N   UNL A   1      46.755  29.053  27.442  1.00  0.00    -0.354 N 
ATOM     51  C   UNL A   1      42.743  30.070  28.757  1.00  0.00     0.074 A 
ATOM     52  C   UNL A   1      42.649  31.472  29.096  1.00  0.00     0.031 C 
ATOM     53  C   UNL A   1      48.929  29.419  27.071  1.00  0.00     0.029 A 
ATOM     54  C   UNL A   1      47.900  28.385  27.075  1.00  0.00     0.049 A 
ATOM     55  H   UNL A   1      45.873  28.617  27.505  1.00  0.00     0.167 HD
ATOM     56  C   UNL A   1      41.707  29.201  28.817  1.00  0.00     0.037 A 
ATOM     57  C   UNL A   1      48.099  27.083  26.791  1.00  0.00     0.037 A 
ATOM     58  C   UNL A   1      41.803  27.819  28.434  1.00  0.00     0.049 A 
ATOM     59  C   UNL A   1      46.931  26.137  26.853  1.00  0.00     0.074 A 
ATOM     60  C   UNL A   1      40.801  26.867  28.390  1.00  0.00     0.029 A 
ATOM     61  N   UNL A   1      42.971  27.192  28.023  1.00  0.00    -0.354 N 
ATOM     62  N   UNL A   1      45.686  26.387  27.185  1.00  0.00    -0.248 NA
ATOM     63  C   UNL A   1      47.187  24.734  26.500  1.00  0.00     0.031 C 
ATOM     64  C   UNL A   1      41.370  25.654  27.993  1.00  0.00     0.029 A 
ATOM     65  C   UNL A   1      42.717  25.861  27.739  1.00  0.00     0.049 A 
ATOM     66  H   UNL A   1      43.850  27.628  27.945  1.00  0.00     0.167 HD
ATOM     67  C   UNL A   1      45.006  25.182  27.050  1.00  0.00     0.074 A 
ATOM     68  C   UNL A   1      45.975  24.205  26.600  1.00  0.00     0.031 C 
ATOM     69  C   UNL A   1      43.696  24.910  27.273  1.00  0.00     0.037 A 
BRANCH  56  70
ATOM     70  C   UNL A   1      40.384  29.724  29.304  1.00  0.00     0.058 A 
ATOM     71  C   UNL A   1      40.170  30.052  30.653  1.00  0.00     0.135 A 
ATOM     72  C   UNL A   1      39.322  29.928  28.406  1.00  0.00     0.135 A 
ATOM     73  F   UNL A   1      41.143  29.861  31.558  1.00  0.00    -0.206 F 
ATOM     74  C   UNL A   1      38.943  30.531  31.101  1.00  0.00     0.059 A 
ATOM     75  C   UNL A   1      38.096  30.436  28.827  1.00  0.00     0.059 A 
ATOM     76  F   UNL A   1      39.470  29.630  27.106  1.00  0.00    -0.206 F 
ATOM     77  C   UNL A   1      37.913  30.720  30.179  1.00  0.00     0.060 A 
BRANCH  77  78
ATOM     78  S   UNL A   1      36.330  31.351  30.777  1.00  0.00     0.124 S 
ATOM     79  O   UNL A   1      36.035  30.415  31.858  1.00  0.00    -0.237 OA
ATOM     80  O   UNL A   1      36.671  32.708  31.190  1.00  0.00    -0.237 OA
ATOM     81  O   UNL A   1      35.462  31.254  29.608  1.00  0.00    -0.744 OA
ENDBRANCH  77  78
ENDBRANCH  56  70
BRANCH  57  82
ATOM     82  C   UNL A   1      49.453  26.604  26.405  1.00  0.00     0.058 A 
ATOM     83  C   UNL A   1      49.931  26.776  25.097  1.00  0.00     0.135 A 
ATOM     84  C   UNL A   1      50.305  25.985  27.333  1.00  0.00     0.135 A 
ATOM     85  F   UNL A   1      49.155  27.357  24.170  1.00  0.00    -0.206 F 
ATOM     86  C   UNL A   1      51.197  26.337  24.718  1.00  0.00     0.059 A 
ATOM     87  C   UNL A   1      51.584  25.560  26.985  1.00  0.00     0.059 A 
ATOM     88  F   UNL A   1      49.905  25.812  28.603  1.00  0.00    -0.206 F 
ATOM     89  C   UNL A   1      52.017  25.731  25.671  1.00  0.00     0.060 A 
BRANCH  89  90
ATOM     90  S   UNL A   1      53.676  25.210  25.180  1.00  0.00     0.124 S 
ATOM     91  O   UNL A   1      53.605  23.769  25.390  1.00  0.00    -0.237 OA
ATOM     92  O   UNL A   1      53.737  25.652  23.790  1.00  0.00    -0.237 OA
ATOM     93  O   UNL A   1      54.543  25.942  26.100  1.00  0.00    -0.744 OA
ENDBRANCH  89  90
ENDBRANCH  57  82
BRANCH  69  94
ATOM     94  C   UNL A   1      43.217  23.514  26.993  1.00  0.00     0.058 A 
ATOM     95  C   UNL A   1      42.986  23.060  25.686  1.00  0.00     0.135 A 
ATOM     96  C   UNL A   1      43.069  22.595  28.045  1.00  0.00     0.135 A 
ATOM     97  F   UNL A   1      43.106  23.901  24.647  1.00  0.00    -0.206 F 
ATOM     98  C   UNL A   1      42.615  21.744  25.432  1.00  0.00     0.059 A 
ATOM     99  C   UNL A   1      42.725  21.268  27.812  1.00  0.00     0.059 A 
ATOM    100  F   UNL A   1      43.288  22.979  29.314  1.00  0.00    -0.206 F 
ATOM    101  C   UNL A   1      42.494  20.853  26.501  1.00  0.00     0.060 A 
BRANCH 101 102
ATOM    102  S   UNL A   1      42.072  19.134  26.151  1.00  0.00     0.124 S 
ATOM    103  O   UNL A   1      42.447  18.479  27.399  1.00  0.00    -0.237 OA
ATOM    104  O   UNL A   1      40.638  19.214  25.884  1.00  0.00    -0.237 OA
ATOM    105  O   UNL A   1      42.901  18.807  24.995  1.00  0.00    -0.744 OA
ENDBRANCH 101 102
ENDBRANCH  69  94
ENDBRANCH  43  44
ENDBRANCH  35  38
ENDBRANCH  33  34
ENDBRANCH  32  33
ENDBRANCH   1  32
TORSDOF 18
ENDMDL
