MODEL 1
REMARK VINA RESULT:     -11.0      0.000      0.000
REMARK SMILES O=C(NCCCNC(=O)c1ccc2c(c1)CCN2C(=O)c1ccn[nH]1)c1ccc(-c2c3nc(c(-c4c(F)cc(S(=O)(=O)[O-])cc4F)c4ccc([nH]4)c(-c4c(F)cc(S(=O)(=O)[O-])cc4F)c4nc(c(-c5c(F)cc(S(=O)(=O)[O-])cc5F)c5ccc2[nH]5)C=C4)C=C3)cc1
REMARK SMILES IDX 4 1 3 2 1 3 2 4 26 6 27 7 91 8 28 9 90 10 29 11 30 12 31 13
REMARK SMILES IDX 84 14 32 15 89 16 83 17 85 18 33 19 88 20 82 21 81 22 34 24
REMARK SMILES IDX 68 25 47 26 67 27 48 28 51 29 66 30 86 31 49 32 50 33 65 35
REMARK SMILES IDX 87 36 52 37 35 38 36 39 45 40 37 41 38 42 44 43 46 44 39 45
REMARK SMILES IDX 40 46 41 47 42 48 43 49 69 50 70 51 79 52 71 53 72 54 78 55
REMARK SMILES IDX 80 56 73 57 74 58 75 59 76 60 77 61 53 62 54 63 63 64 55 65
REMARK SMILES IDX 56 66 62 67 64 68 57 69 58 70 59 71 60 72 61 73 5 74 6 75
REMARK SMILES IDX 7 76 8 77 9 79 10 80 11 81 15 82 12 83 14 84 13 85 16 86
REMARK SMILES IDX 18 87 17 88 19 89 20 90 21 91 22 92 25 93 23 94 24 95
REMARK H PARENT 3 5 85 23 51 34 7 78 25 96
REMARK Flexibility Score: inf
ROOT
ATOM      1  C   UNL A   1      34.979  29.362  27.496  1.00  0.00     0.118 C 
ENDROOT
BRANCH   1   2
ATOM      2  N   UNL A   1      35.074  30.127  28.730  1.00  0.00    -0.352 N 
ATOM      3  O   UNL A   1      35.912  30.843  30.680  1.00  0.00    -0.269 OA
ATOM      4  C   UNL A   1      36.127  30.322  29.587  1.00  0.00     0.251 C 
ATOM      5  H   UNL A   1      34.242  30.581  28.995  1.00  0.00     0.163 HD
BRANCH   4   6
ATOM      6  C   UNL A   1      37.504  29.908  29.229  1.00  0.00     0.039 A 
ATOM      7  C   UNL A   1      37.943  29.889  27.903  1.00  0.00     0.014 A 
ATOM      8  C   UNL A   1      38.401  29.604  30.260  1.00  0.00     0.014 A 
ATOM      9  C   UNL A   1      39.233  29.456  27.600  1.00  0.00     0.010 A 
ATOM     10  C   UNL A   1      39.714  29.230  29.960  1.00  0.00     0.010 A 
ATOM     11  C   UNL A   1      40.132  29.127  28.625  1.00  0.00    -0.014 A 
BRANCH  11  12
ATOM     12  C   UNL A   1      41.520  28.719  28.294  1.00  0.00     0.031 A 
ATOM     13  C   UNL A   1      42.642  29.717  28.316  1.00  0.00     0.074 A 
ATOM     14  C   UNL A   1      41.770  27.437  27.968  1.00  0.00     0.049 A 
ATOM     15  N   UNL A   1      43.906  29.542  28.027  1.00  0.00    -0.248 NA
ATOM     16  C   UNL A   1      42.299  31.094  28.705  1.00  0.00     0.031 C 
ATOM     17  C   UNL A   1      40.765  26.376  27.887  1.00  0.00     0.029 A 
ATOM     18  N   UNL A   1      42.946  26.809  27.646  1.00  0.00    -0.354 N 
ATOM     19  C   UNL A   1      44.504  30.787  28.164  1.00  0.00     0.074 A 
ATOM     20  C   UNL A   1      43.464  31.712  28.564  1.00  0.00     0.031 C 
ATOM     21  C   UNL A   1      41.370  25.222  27.566  1.00  0.00     0.029 A 
ATOM     22  C   UNL A   1      42.797  25.469  27.383  1.00  0.00     0.049 A 
ATOM     23  H   UNL A   1      43.814  27.273  27.609  1.00  0.00     0.167 HD
ATOM     24  C   UNL A   1      45.801  31.129  27.973  1.00  0.00     0.037 A 
ATOM     25  C   UNL A   1      43.704  24.541  27.023  1.00  0.00     0.037 A 
ATOM     26  C   UNL A   1      46.845  30.209  27.612  1.00  0.00     0.049 A 
ATOM     27  C   UNL A   1      45.141  24.932  26.856  1.00  0.00     0.074 A 
ATOM     28  C   UNL A   1      48.195  30.459  27.441  1.00  0.00     0.029 A 
ATOM     29  N   UNL A   1      46.655  28.857  27.366  1.00  0.00    -0.354 N 
ATOM     30  N   UNL A   1      45.691  26.112  27.008  1.00  0.00    -0.248 NA
ATOM     31  C   UNL A   1      46.078  23.872  26.461  1.00  0.00     0.031 C 
ATOM     32  C   UNL A   1      48.822  29.258  27.080  1.00  0.00     0.029 A 
ATOM     33  C   UNL A   1      47.861  28.260  27.038  1.00  0.00     0.049 A 
ATOM     34  H   UNL A   1      45.790  28.390  27.418  1.00  0.00     0.167 HD
ATOM     35  C   UNL A   1      47.038  25.941  26.721  1.00  0.00     0.074 A 
ATOM     36  C   UNL A   1      47.225  24.539  26.402  1.00  0.00     0.031 C 
ATOM     37  C   UNL A   1      48.028  26.866  26.717  1.00  0.00     0.037 A 
BRANCH  24  38
ATOM     38  C   UNL A   1      46.149  32.578  28.141  1.00  0.00     0.058 A 
ATOM     39  C   UNL A   1      45.989  33.494  27.091  1.00  0.00     0.135 A 
ATOM     40  C   UNL A   1      46.661  33.049  29.359  1.00  0.00     0.135 A 
ATOM     41  F   UNL A   1      45.519  33.086  25.902  1.00  0.00    -0.206 F 
ATOM     42  C   UNL A   1      46.359  34.828  27.233  1.00  0.00     0.059 A 
ATOM     43  C   UNL A   1      47.028  34.381  29.526  1.00  0.00     0.059 A 
ATOM     44  F   UNL A   1      46.837  32.207  30.389  1.00  0.00    -0.206 F 
ATOM     45  C   UNL A   1      46.891  35.258  28.450  1.00  0.00     0.060 A 
BRANCH  45  46
ATOM     46  S   UNL A   1      47.413  36.978  28.624  1.00  0.00     0.124 S 
ATOM     47  O   UNL A   1      48.417  37.081  27.570  1.00  0.00    -0.237 OA
ATOM     48  O   UNL A   1      46.176  37.717  28.391  1.00  0.00    -0.237 OA
ATOM     49  O   UNL A   1      47.923  37.034  29.990  1.00  0.00    -0.744 OA
ENDBRANCH  45  46
ENDBRANCH  24  38
BRANCH  25  50
ATOM     50  C   UNL A   1      43.247  23.149  26.802  1.00  0.00     0.058 A 
ATOM     51  C   UNL A   1      43.165  22.619  25.507  1.00  0.00     0.135 A 
ATOM     52  C   UNL A   1      42.993  22.295  27.885  1.00  0.00     0.135 A 
ATOM     53  F   UNL A   1      43.402  23.403  24.445  1.00  0.00    -0.206 F 
ATOM     54  C   UNL A   1      42.867  21.279  25.292  1.00  0.00     0.059 A 
ATOM     55  C   UNL A   1      42.704  20.949  27.695  1.00  0.00     0.059 A 
ATOM     56  F   UNL A   1      43.076  22.760  29.141  1.00  0.00    -0.206 F 
ATOM     57  C   UNL A   1      42.649  20.448  26.393  1.00  0.00     0.060 A 
BRANCH  57  58
ATOM     58  S   UNL A   1      42.394  18.679  26.128  1.00  0.00     0.124 S 
ATOM     59  O   UNL A   1      43.351  18.401  25.064  1.00  0.00    -0.237 OA
ATOM     60  O   UNL A   1      42.712  18.112  27.436  1.00  0.00    -0.237 OA
ATOM     61  O   UNL A   1      40.985  18.605  25.751  1.00  0.00    -0.744 OA
ENDBRANCH  57  58
ENDBRANCH  25  50
BRANCH  37  62
ATOM     62  C   UNL A   1      49.402  26.396  26.346  1.00  0.00     0.058 A 
ATOM     63  C   UNL A   1      49.884  26.536  25.037  1.00  0.00     0.135 A 
ATOM     64  C   UNL A   1      50.260  25.853  27.314  1.00  0.00     0.135 A 
ATOM     65  F   UNL A   1      49.093  27.045  24.078  1.00  0.00    -0.206 F 
ATOM     66  C   UNL A   1      51.174  26.150  24.695  1.00  0.00     0.059 A 
ATOM     67  C   UNL A   1      51.558  25.468  26.996  1.00  0.00     0.059 A 
ATOM     68  F   UNL A   1      49.842  25.703  28.580  1.00  0.00    -0.206 F 
ATOM     69  C   UNL A   1      52.005  25.615  25.682  1.00  0.00     0.060 A 
BRANCH  69  70
ATOM     70  S   UNL A   1      53.697  25.154  25.251  1.00  0.00     0.124 S 
ATOM     71  O   UNL A   1      53.803  25.671  23.890  1.00  0.00    -0.237 OA
ATOM     72  O   UNL A   1      54.488  25.854  26.258  1.00  0.00    -0.237 OA
ATOM     73  O   UNL A   1      53.688  23.699  25.374  1.00  0.00    -0.744 OA
ENDBRANCH  69  70
ENDBRANCH  37  62
ENDBRANCH  11  12
ENDBRANCH   4   6
ENDBRANCH   1   2
BRANCH   1  74
ATOM     74  C   UNL A   1      33.598  29.448  26.854  1.00  0.00     0.042 C 
BRANCH  74  75
ATOM     75  C   UNL A   1      32.617  28.366  27.291  1.00  0.00     0.118 C 
BRANCH  75  76
ATOM     76  N   UNL A   1      31.607  28.071  26.282  1.00  0.00    -0.352 N 
ATOM     77  C   UNL A   1      31.495  27.002  25.431  1.00  0.00     0.251 C 
ATOM     78  H   UNL A   1      30.894  28.745  26.200  1.00  0.00     0.163 HD
ATOM     79  O   UNL A   1      30.640  27.009  24.548  1.00  0.00    -0.269 OA
BRANCH  77  80
ATOM     80  C   UNL A   1      32.401  25.840  25.550  1.00  0.00     0.040 A 
ATOM     81  C   UNL A   1      33.546  25.723  24.749  1.00  0.00     0.016 A 
ATOM     82  C   UNL A   1      32.117  24.869  26.512  1.00  0.00     0.019 A 
ATOM     83  C   UNL A   1      34.367  24.592  24.836  1.00  0.00     0.027 A 
ATOM     84  C   UNL A   1      32.963  23.771  26.609  1.00  0.00    -0.022 A 
ATOM     85  C   UNL A   1      34.078  23.617  25.775  1.00  0.00     0.047 A 
ATOM     86  C   UNL A   1      32.794  22.607  27.531  1.00  0.00     0.059 C 
ATOM     87  N   UNL A   1      34.716  22.396  26.064  1.00  0.00    -0.306 N 
ATOM     88  C   UNL A   1      34.011  21.752  27.182  1.00  0.00     0.131 C 
BRANCH  87  89
ATOM     89  C   UNL A   1      35.783  21.727  25.476  1.00  0.00     0.276 C 
ATOM     90  O   UNL A   1      35.580  20.860  24.624  1.00  0.00    -0.267 OA
BRANCH  89  91
ATOM     91  C   UNL A   1      37.131  22.070  25.829  1.00  0.00     0.123 A 
ATOM     92  C   UNL A   1      38.332  21.436  25.581  1.00  0.00     0.055 A 
ATOM     93  N   UNL A   1      37.464  23.264  26.407  1.00  0.00    -0.273 N 
ATOM     94  C   UNL A   1      39.310  22.289  26.125  1.00  0.00     0.135 A 
ATOM     95  N   UNL A   1      38.781  23.394  26.651  1.00  0.00    -0.183 NA
ATOM     96  H   UNL A   1      36.804  23.961  26.626  1.00  0.00     0.190 HD
ENDBRANCH  89  91
ENDBRANCH  87  89
ENDBRANCH  77  80
ENDBRANCH  75  76
ENDBRANCH  74  75
ENDBRANCH   1  74
TORSDOF 15
ENDMDL
MODEL 2
REMARK VINA RESULT:     -11.0      6.714     12.327
REMARK SMILES O=C(NCCCNC(=O)c1ccc2c(c1)CCN2C(=O)c1ccn[nH]1)c1ccc(-c2c3nc(c(-c4c(F)cc(S(=O)(=O)[O-])cc4F)c4ccc([nH]4)c(-c4c(F)cc(S(=O)(=O)[O-])cc4F)c4nc(c(-c5c(F)cc(S(=O)(=O)[O-])cc5F)c5ccc2[nH]5)C=C4)C=C3)cc1
REMARK SMILES IDX 4 1 3 2 1 3 2 4 26 6 27 7 91 8 28 9 90 10 29 11 30 12 31 13
REMARK SMILES IDX 84 14 32 15 89 16 83 17 85 18 33 19 88 20 82 21 81 22 34 24
REMARK SMILES IDX 68 25 47 26 67 27 48 28 51 29 66 30 86 31 49 32 50 33 65 35
REMARK SMILES IDX 87 36 52 37 35 38 36 39 45 40 37 41 38 42 44 43 46 44 39 45
REMARK SMILES IDX 40 46 41 47 42 48 43 49 69 50 70 51 79 52 71 53 72 54 78 55
REMARK SMILES IDX 80 56 73 57 74 58 75 59 76 60 77 61 53 62 54 63 63 64 55 65
REMARK SMILES IDX 56 66 62 67 64 68 57 69 58 70 59 71 60 72 61 73 5 74 6 75
REMARK SMILES IDX 7 76 8 77 9 79 10 80 11 81 15 82 12 83 14 84 13 85 16 86
REMARK SMILES IDX 18 87 17 88 19 89 20 90 21 91 22 92 25 93 23 94 24 95
REMARK H PARENT 3 5 85 23 51 34 7 78 25 96
REMARK Flexibility Score: inf
ROOT
ATOM      1  C   UNL A   1      38.325  24.079  26.258  1.00  0.00     0.118 C 
ENDROOT
BRANCH   1   2
ATOM      2  N   UNL A   1      39.751  23.903  26.028  1.00  0.00    -0.352 N 
ATOM      3  O   UNL A   1      41.936  24.398  26.006  1.00  0.00    -0.269 OA
ATOM      4  C   UNL A   1      40.831  24.604  26.504  1.00  0.00     0.251 C 
ATOM      5  H   UNL A   1      39.980  23.157  25.429  1.00  0.00     0.163 HD
BRANCH   4   6
ATOM      6  C   UNL A   1      40.689  25.604  27.587  1.00  0.00     0.039 A 
ATOM      7  C   UNL A   1      39.661  25.524  28.529  1.00  0.00     0.014 A 
ATOM      8  C   UNL A   1      41.659  26.607  27.705  1.00  0.00     0.014 A 
ATOM      9  C   UNL A   1      39.534  26.505  29.512  1.00  0.00     0.010 A 
ATOM     10  C   UNL A   1      41.568  27.555  28.727  1.00  0.00     0.010 A 
ATOM     11  C   UNL A   1      40.489  27.527  29.623  1.00  0.00    -0.014 A 
BRANCH  11  12
ATOM     12  C   UNL A   1      40.375  28.535  30.707  1.00  0.00     0.031 A 
ATOM     13  C   UNL A   1      41.280  28.485  31.904  1.00  0.00     0.074 A 
ATOM     14  C   UNL A   1      39.445  29.504  30.609  1.00  0.00     0.049 A 
ATOM     15  N   UNL A   1      41.300  29.266  32.953  1.00  0.00    -0.248 NA
ATOM     16  C   UNL A   1      42.288  27.414  31.930  1.00  0.00     0.031 C 
ATOM     17  C   UNL A   1      38.491  29.649  29.509  1.00  0.00     0.029 A 
ATOM     18  N   UNL A   1      39.152  30.550  31.447  1.00  0.00    -0.354 N 
ATOM     19  C   UNL A   1      42.295  28.764  33.782  1.00  0.00     0.074 A 
ATOM     20  C   UNL A   1      42.858  27.610  33.112  1.00  0.00     0.031 C 
ATOM     21  C   UNL A   1      37.735  30.738  29.724  1.00  0.00     0.029 A 
ATOM     22  C   UNL A   1      38.128  31.345  30.993  1.00  0.00     0.049 A 
ATOM     23  H   UNL A   1      39.630  30.716  32.291  1.00  0.00     0.167 HD
ATOM     24  C   UNL A   1      42.702  29.221  34.990  1.00  0.00     0.037 A 
ATOM     25  C   UNL A   1      37.557  32.435  31.540  1.00  0.00     0.037 A 
ATOM     26  C   UNL A   1      42.172  30.387  35.644  1.00  0.00     0.049 A 
ATOM     27  C   UNL A   1      38.048  32.948  32.858  1.00  0.00     0.074 A 
ATOM     28  C   UNL A   1      42.555  30.950  36.849  1.00  0.00     0.029 A 
ATOM     29  N   UNL A   1      41.143  31.172  35.145  1.00  0.00    -0.354 N 
ATOM     30  N   UNL A   1      39.004  32.470  33.618  1.00  0.00    -0.248 NA
ATOM     31  C   UNL A   1      37.383  34.141  33.399  1.00  0.00     0.031 C 
ATOM     32  C   UNL A   1      41.748  32.072  37.084  1.00  0.00     0.029 A 
ATOM     33  C   UNL A   1      40.871  32.211  36.020  1.00  0.00     0.049 A 
ATOM     34  H   UNL A   1      40.674  31.015  34.294  1.00  0.00     0.167 HD
ATOM     35  C   UNL A   1      39.050  33.298  34.732  1.00  0.00     0.074 A 
ATOM     36  C   UNL A   1      38.039  34.318  34.540  1.00  0.00     0.031 C 
ATOM     37  C   UNL A   1      39.857  33.213  35.818  1.00  0.00     0.037 A 
BRANCH  24  38
ATOM     38  C   UNL A   1      43.771  28.433  35.686  1.00  0.00     0.058 A 
ATOM     39  C   UNL A   1      43.453  27.395  36.574  1.00  0.00     0.135 A 
ATOM     40  C   UNL A   1      45.125  28.731  35.474  1.00  0.00     0.135 A 
ATOM     41  F   UNL A   1      42.170  27.086  36.821  1.00  0.00    -0.206 F 
ATOM     42  C   UNL A   1      44.445  26.697  37.256  1.00  0.00     0.059 A 
ATOM     43  C   UNL A   1      46.134  28.039  36.137  1.00  0.00     0.059 A 
ATOM     44  F   UNL A   1      45.477  29.720  34.637  1.00  0.00    -0.206 F 
ATOM     45  C   UNL A   1      45.782  27.037  37.042  1.00  0.00     0.060 A 
BRANCH  45  46
ATOM     46  S   UNL A   1      47.070  26.164  37.958  1.00  0.00     0.124 S 
ATOM     47  O   UNL A   1      46.275  25.425  38.935  1.00  0.00    -0.237 OA
ATOM     48  O   UNL A   1      47.711  25.356  36.926  1.00  0.00    -0.237 OA
ATOM     49  O   UNL A   1      47.886  27.246  38.497  1.00  0.00    -0.744 OA
ENDBRANCH  45  46
ENDBRANCH  24  38
BRANCH  25  50
ATOM     50  C   UNL A   1      36.451  33.099  30.810  1.00  0.00     0.058 A 
ATOM     51  C   UNL A   1      35.133  33.020  31.282  1.00  0.00     0.135 A 
ATOM     52  C   UNL A   1      36.709  33.912  29.698  1.00  0.00     0.135 A 
ATOM     53  F   UNL A   1      34.846  32.254  32.344  1.00  0.00    -0.206 F 
ATOM     54  C   UNL A   1      34.108  33.744  30.687  1.00  0.00     0.059 A 
ATOM     55  C   UNL A   1      35.701  34.654  29.093  1.00  0.00     0.059 A 
ATOM     56  F   UNL A   1      37.960  34.027  29.225  1.00  0.00    -0.206 F 
ATOM     57  C   UNL A   1      34.404  34.569  29.599  1.00  0.00     0.060 A 
BRANCH  57  58
ATOM     58  S   UNL A   1      33.104  35.615  28.905  1.00  0.00     0.124 S 
ATOM     59  O   UNL A   1      32.387  36.027  30.106  1.00  0.00    -0.237 OA
ATOM     60  O   UNL A   1      33.866  36.661  28.227  1.00  0.00    -0.237 OA
ATOM     61  O   UNL A   1      32.389  34.702  28.018  1.00  0.00    -0.744 OA
ENDBRANCH  57  58
ENDBRANCH  25  50
BRANCH  37  62
ATOM     62  C   UNL A   1      39.673  34.245  36.888  1.00  0.00     0.058 A 
ATOM     63  C   UNL A   1      38.956  33.952  38.057  1.00  0.00     0.135 A 
ATOM     64  C   UNL A   1      40.259  35.513  36.771  1.00  0.00     0.135 A 
ATOM     65  F   UNL A   1      38.373  32.751  38.208  1.00  0.00    -0.206 F 
ATOM     66  C   UNL A   1      38.823  34.885  39.079  1.00  0.00     0.059 A 
ATOM     67  C   UNL A   1      40.146  36.460  37.784  1.00  0.00     0.059 A 
ATOM     68  F   UNL A   1      40.957  35.837  35.671  1.00  0.00    -0.206 F 
ATOM     69  C   UNL A   1      39.421  36.139  38.932  1.00  0.00     0.060 A 
BRANCH  69  70
ATOM     70  S   UNL A   1      39.288  37.337  40.276  1.00  0.00     0.124 S 
ATOM     71  O   UNL A   1      38.538  36.579  41.272  1.00  0.00    -0.237 OA
ATOM     72  O   UNL A   1      40.684  37.608  40.606  1.00  0.00    -0.237 OA
ATOM     73  O   UNL A   1      38.571  38.451  39.660  1.00  0.00    -0.744 OA
ENDBRANCH  69  70
ENDBRANCH  37  62
ENDBRANCH  11  12
ENDBRANCH   4   6
ENDBRANCH   1   2
BRANCH   1  74
ATOM     74  C   UNL A   1      37.471  23.157  25.394  1.00  0.00     0.042 C 
BRANCH  74  75
ATOM     75  C   UNL A   1      36.057  22.919  25.909  1.00  0.00     0.118 C 
BRANCH  75  76
ATOM     76  N   UNL A   1      35.166  22.367  24.896  1.00  0.00    -0.352 N 
ATOM     77  C   UNL A   1      34.110  22.942  24.239  1.00  0.00     0.251 C 
ATOM     78  H   UNL A   1      35.354  21.433  24.643  1.00  0.00     0.163 HD
ATOM     79  O   UNL A   1      33.390  22.256  23.516  1.00  0.00    -0.269 OA
BRANCH  77  80
ATOM     80  C   UNL A   1      33.812  24.381  24.399  1.00  0.00     0.040 A 
ATOM     81  C   UNL A   1      33.439  24.915  25.641  1.00  0.00     0.016 A 
ATOM     82  C   UNL A   1      33.948  25.218  23.289  1.00  0.00     0.019 A 
ATOM     83  C   UNL A   1      33.110  26.270  25.767  1.00  0.00     0.027 A 
ATOM     84  C   UNL A   1      33.652  26.567  23.441  1.00  0.00    -0.022 A 
ATOM     85  C   UNL A   1      33.224  27.099  24.664  1.00  0.00     0.047 A 
ATOM     86  C   UNL A   1      33.682  27.603  22.365  1.00  0.00     0.059 C 
ATOM     87  N   UNL A   1      32.951  28.472  24.510  1.00  0.00    -0.306 N 
ATOM     88  C   UNL A   1      33.274  28.861  23.129  1.00  0.00     0.131 C 
BRANCH  87  89
ATOM     89  C   UNL A   1      32.418  29.429  25.364  1.00  0.00     0.276 C 
ATOM     90  O   UNL A   1      31.214  29.689  25.333  1.00  0.00    -0.267 OA
BRANCH  89  91
ATOM     91  C   UNL A   1      33.260  30.095  26.316  1.00  0.00     0.123 A 
ATOM     92  C   UNL A   1      32.994  31.092  27.235  1.00  0.00     0.055 A 
ATOM     93  N   UNL A   1      34.547  29.706  26.566  1.00  0.00    -0.273 N 
ATOM     94  C   UNL A   1      34.207  31.282  27.922  1.00  0.00     0.135 A 
ATOM     95  N   UNL A   1      35.164  30.454  27.500  1.00  0.00    -0.183 NA
ATOM     96  H   UNL A   1      34.982  28.952  26.106  1.00  0.00     0.190 HD
ENDBRANCH  89  91
ENDBRANCH  87  89
ENDBRANCH  77  80
ENDBRANCH  75  76
ENDBRANCH  74  75
ENDBRANCH   1  74
TORSDOF 15
ENDMDL
MODEL 3
REMARK VINA RESULT:     -11.0      3.924      6.448
REMARK SMILES O=C(NCCCNC(=O)c1ccc2c(c1)CCN2C(=O)c1ccn[nH]1)c1ccc(-c2c3nc(c(-c4c(F)cc(S(=O)(=O)[O-])cc4F)c4ccc([nH]4)c(-c4c(F)cc(S(=O)(=O)[O-])cc4F)c4nc(c(-c5c(F)cc(S(=O)(=O)[O-])cc5F)c5ccc2[nH]5)C=C4)C=C3)cc1
REMARK SMILES IDX 4 1 3 2 1 3 2 4 26 6 27 7 91 8 28 9 90 10 29 11 30 12 31 13
REMARK SMILES IDX 84 14 32 15 89 16 83 17 85 18 33 19 88 20 82 21 81 22 34 24
REMARK SMILES IDX 68 25 47 26 67 27 48 28 51 29 66 30 86 31 49 32 50 33 65 35
REMARK SMILES IDX 87 36 52 37 35 38 36 39 45 40 37 41 38 42 44 43 46 44 39 45
REMARK SMILES IDX 40 46 41 47 42 48 43 49 69 50 70 51 79 52 71 53 72 54 78 55
REMARK SMILES IDX 80 56 73 57 74 58 75 59 76 60 77 61 53 62 54 63 63 64 55 65
REMARK SMILES IDX 56 66 62 67 64 68 57 69 58 70 59 71 60 72 61 73 5 74 6 75
REMARK SMILES IDX 7 76 8 77 9 79 10 80 11 81 15 82 12 83 14 84 13 85 16 86
REMARK SMILES IDX 18 87 17 88 19 89 20 90 21 91 22 92 25 93 23 94 24 95
REMARK H PARENT 3 5 85 23 51 34 7 78 25 96
REMARK Flexibility Score: inf
ROOT
ATOM      1  C   UNL A   1      34.389  32.503  28.954  1.00  0.00     0.118 C 
ENDROOT
BRANCH   1   2
ATOM      2  N   UNL A   1      33.842  31.368  28.226  1.00  0.00    -0.352 N 
ATOM      3  O   UNL A   1      33.817  29.519  26.961  1.00  0.00    -0.269 OA
ATOM      4  C   UNL A   1      34.452  30.246  27.722  1.00  0.00     0.251 C 
ATOM      5  H   UNL A   1      32.872  31.412  28.067  1.00  0.00     0.163 HD
BRANCH   4   6
ATOM      6  C   UNL A   1      35.852  29.906  28.065  1.00  0.00     0.039 A 
ATOM      7  C   UNL A   1      36.194  29.378  29.313  1.00  0.00     0.014 A 
ATOM      8  C   UNL A   1      36.837  30.049  27.080  1.00  0.00     0.014 A 
ATOM      9  C   UNL A   1      37.528  29.106  29.615  1.00  0.00     0.010 A 
ATOM     10  C   UNL A   1      38.165  29.717  27.362  1.00  0.00     0.010 A 
ATOM     11  C   UNL A   1      38.526  29.269  28.641  1.00  0.00    -0.014 A 
BRANCH  11  12
ATOM     12  C   UNL A   1      39.934  28.924  28.956  1.00  0.00     0.031 A 
ATOM     13  C   UNL A   1      40.825  29.900  29.670  1.00  0.00     0.074 A 
ATOM     14  C   UNL A   1      40.415  27.719  28.594  1.00  0.00     0.049 A 
ATOM     15  N   UNL A   1      42.085  29.776  29.999  1.00  0.00    -0.248 NA
ATOM     16  C   UNL A   1      40.225  31.187  30.057  1.00  0.00     0.031 C 
ATOM     17  C   UNL A   1      39.659  26.692  27.876  1.00  0.00     0.029 A 
ATOM     18  N   UNL A   1      41.651  27.156  28.781  1.00  0.00    -0.354 N 
ATOM     19  C   UNL A   1      42.441  30.976  30.599  1.00  0.00     0.074 A 
ATOM     20  C   UNL A   1      41.263  31.818  30.591  1.00  0.00     0.031 C 
ATOM     21  C   UNL A   1      40.437  25.612  27.708  1.00  0.00     0.029 A 
ATOM     22  C   UNL A   1      41.756  25.884  28.272  1.00  0.00     0.049 A 
ATOM     23  H   UNL A   1      42.391  27.618  29.238  1.00  0.00     0.167 HD
ATOM     24  C   UNL A   1      43.641  31.344  31.110  1.00  0.00     0.037 A 
ATOM     25  C   UNL A   1      42.799  25.033  28.251  1.00  0.00     0.037 A 
ATOM     26  C   UNL A   1      44.804  30.501  31.154  1.00  0.00     0.049 A 
ATOM     27  C   UNL A   1      44.106  25.445  28.857  1.00  0.00     0.074 A 
ATOM     28  C   UNL A   1      46.049  30.775  31.694  1.00  0.00     0.029 A 
ATOM     29  N   UNL A   1      44.866  29.214  30.639  1.00  0.00    -0.354 N 
ATOM     30  N   UNL A   1      44.418  26.579  29.437  1.00  0.00    -0.248 NA
ATOM     31  C   UNL A   1      45.203  24.470  28.799  1.00  0.00     0.031 C 
ATOM     32  C   UNL A   1      46.869  29.655  31.494  1.00  0.00     0.029 A 
ATOM     33  C   UNL A   1      46.130  28.683  30.840  1.00  0.00     0.049 A 
ATOM     34  H   UNL A   1      44.122  28.747  30.196  1.00  0.00     0.167 HD
ATOM     35  C   UNL A   1      45.751  26.458  29.808  1.00  0.00     0.074 A 
ATOM     36  C   UNL A   1      46.182  25.135  29.403  1.00  0.00     0.031 C 
ATOM     37  C   UNL A   1      46.544  27.367  30.425  1.00  0.00     0.037 A 
BRANCH  24  38
ATOM     38  C   UNL A   1      43.746  32.739  31.648  1.00  0.00     0.058 A 
ATOM     39  C   UNL A   1      43.443  33.031  32.987  1.00  0.00     0.135 A 
ATOM     40  C   UNL A   1      44.138  33.796  30.813  1.00  0.00     0.135 A 
ATOM     41  F   UNL A   1      43.047  32.056  33.819  1.00  0.00    -0.206 F 
ATOM     42  C   UNL A   1      43.494  34.334  33.472  1.00  0.00     0.059 A 
ATOM     43  C   UNL A   1      44.205  35.105  31.280  1.00  0.00     0.059 A 
ATOM     44  F   UNL A   1      44.431  33.565  29.523  1.00  0.00    -0.206 F 
ATOM     45  C   UNL A   1      43.862  35.366  32.607  1.00  0.00     0.060 A 
BRANCH  45  46
ATOM     46  S   UNL A   1      43.886  37.064  33.221  1.00  0.00     0.124 S 
ATOM     47  O   UNL A   1      43.844  37.821  31.973  1.00  0.00    -0.237 OA
ATOM     48  O   UNL A   1      42.680  37.130  34.040  1.00  0.00    -0.237 OA
ATOM     49  O   UNL A   1      45.143  37.132  33.958  1.00  0.00    -0.744 OA
ENDBRANCH  45  46
ENDBRANCH  24  38
BRANCH  25  50
ATOM     50  C   UNL A   1      42.619  23.703  27.623  1.00  0.00     0.058 A 
ATOM     51  C   UNL A   1      42.824  23.527  26.248  1.00  0.00     0.135 A 
ATOM     52  C   UNL A   1      42.347  22.571  28.404  1.00  0.00     0.135 A 
ATOM     53  F   UNL A   1      43.086  24.586  25.468  1.00  0.00    -0.206 F 
ATOM     54  C   UNL A   1      42.789  22.265  25.668  1.00  0.00     0.059 A 
ATOM     55  C   UNL A   1      42.318  21.297  27.847  1.00  0.00     0.059 A 
ATOM     56  F   UNL A   1      42.160  22.696  29.727  1.00  0.00    -0.206 F 
ATOM     57  C   UNL A   1      42.546  21.153  26.478  1.00  0.00     0.060 A 
BRANCH  57  58
ATOM     58  S   UNL A   1      42.631  19.499  25.756  1.00  0.00     0.124 S 
ATOM     59  O   UNL A   1      41.249  19.290  25.341  1.00  0.00    -0.237 OA
ATOM     60  O   UNL A   1      43.601  19.673  24.678  1.00  0.00    -0.237 OA
ATOM     61  O   UNL A   1      43.092  18.679  26.872  1.00  0.00    -0.744 OA
ENDBRANCH  57  58
ENDBRANCH  25  50
BRANCH  37  62
ATOM     62  C   UNL A   1      47.964  26.968  30.690  1.00  0.00     0.058 A 
ATOM     63  C   UNL A   1      48.992  27.333  29.810  1.00  0.00     0.135 A 
ATOM     64  C   UNL A   1      48.306  26.265  31.854  1.00  0.00     0.135 A 
ATOM     65  F   UNL A   1      48.708  28.002  28.680  1.00  0.00    -0.206 F 
ATOM     66  C   UNL A   1      50.319  27.012  30.073  1.00  0.00     0.059 A 
ATOM     67  C   UNL A   1      49.627  25.939  32.141  1.00  0.00     0.059 A 
ATOM     68  F   UNL A   1      47.355  25.896  32.726  1.00  0.00    -0.206 F 
ATOM     69  C   UNL A   1      50.627  26.312  31.242  1.00  0.00     0.060 A 
BRANCH  69  70
ATOM     70  S   UNL A   1      52.354  25.932  31.608  1.00  0.00     0.124 S 
ATOM     71  O   UNL A   1      52.975  26.096  30.298  1.00  0.00    -0.237 OA
ATOM     72  O   UNL A   1      52.701  26.941  32.604  1.00  0.00    -0.237 OA
ATOM     73  O   UNL A   1      52.294  24.562  32.111  1.00  0.00    -0.744 OA
ENDBRANCH  69  70
ENDBRANCH  37  62
ENDBRANCH  11  12
ENDBRANCH   4   6
ENDBRANCH   1   2
BRANCH   1  74
ATOM     74  C   UNL A   1      33.887  33.841  28.421  1.00  0.00     0.042 C 
BRANCH  74  75
ATOM     75  C   UNL A   1      34.541  35.068  29.046  1.00  0.00     0.118 C 
BRANCH  75  76
ATOM     76  N   UNL A   1      33.754  35.643  30.131  1.00  0.00    -0.352 N 
ATOM     77  C   UNL A   1      33.789  35.390  31.478  1.00  0.00     0.251 C 
ATOM     78  H   UNL A   1      33.094  36.318  29.852  1.00  0.00     0.163 HD
ATOM     79  O   UNL A   1      32.938  35.881  32.216  1.00  0.00    -0.269 OA
BRANCH  77  80
ATOM     80  C   UNL A   1      34.834  34.520  32.058  1.00  0.00     0.040 A 
ATOM     81  C   UNL A   1      34.546  33.211  32.471  1.00  0.00     0.016 A 
ATOM     82  C   UNL A   1      36.136  35.014  32.154  1.00  0.00     0.019 A 
ATOM     83  C   UNL A   1      35.532  32.415  33.066  1.00  0.00     0.027 A 
ATOM     84  C   UNL A   1      37.111  34.198  32.715  1.00  0.00    -0.022 A 
ATOM     85  C   UNL A   1      36.821  32.909  33.181  1.00  0.00     0.047 A 
ATOM     86  C   UNL A   1      38.538  34.566  32.954  1.00  0.00     0.059 C 
ATOM     87  N   UNL A   1      37.981  32.339  33.739  1.00  0.00    -0.306 N 
ATOM     88  C   UNL A   1      39.094  33.286  33.574  1.00  0.00     0.131 C 
BRANCH  87  89
ATOM     89  C   UNL A   1      38.215  31.147  34.415  1.00  0.00     0.276 C 
ATOM     90  O   UNL A   1      38.203  31.119  35.647  1.00  0.00    -0.267 OA
BRANCH  89  91
ATOM     91  C   UNL A   1      38.433  29.933  33.682  1.00  0.00     0.123 A 
ATOM     92  C   UNL A   1      39.577  29.387  33.134  1.00  0.00     0.055 A 
ATOM     93  N   UNL A   1      37.463  28.983  33.518  1.00  0.00    -0.273 N 
ATOM     94  C   UNL A   1      39.166  28.154  32.594  1.00  0.00     0.135 A 
ATOM     95  N   UNL A   1      37.871  27.915  32.807  1.00  0.00    -0.183 NA
ATOM     96  H   UNL A   1      36.554  29.071  33.884  1.00  0.00     0.190 HD
ENDBRANCH  89  91
ENDBRANCH  87  89
ENDBRANCH  77  80
ENDBRANCH  75  76
ENDBRANCH  74  75
ENDBRANCH   1  74
TORSDOF 15
ENDMDL
