MODEL 1
REMARK VINA RESULT:     -12.7      0.000      0.000
REMARK SMILES CC(=O)N1CCC(C(=O)Nc2sccc2C(=O)NCCCNC(=O)c2ccc(-c3c4nc(c(-c5c(F)cc(S(=O)(=O)[O-])cc5F)c5ccc([nH]5)c(-c5c(F)cc(S(=O)(=O)[O-])cc5F)c5nc(c(-c6c(F)cc(S(=O)(=O)[O-])cc6F)c6ccc3[nH]6)C=C5)C=C4)cc2)CC1
REMARK SMILES IDX 20 1 19 2 18 3 16 4 17 5 15 7 11 8 12 9 13 10 14 11 10 12
REMARK SMILES IDX 8 13 9 14 7 16 1 17 2 18 3 19 4 20 5 21 92 22 6 23 91 24
REMARK SMILES IDX 21 25 22 26 23 27 24 29 25 30 26 31 90 32 27 33 89 34 28 35
REMARK SMILES IDX 29 36 30 37 83 38 31 39 88 40 82 41 84 42 32 43 87 44 81 45
REMARK SMILES IDX 80 46 33 48 67 49 46 50 66 51 47 52 50 53 65 54 85 55 48 56
REMARK SMILES IDX 49 57 64 59 86 60 51 61 34 62 35 63 44 64 36 65 37 66 43 67
REMARK SMILES IDX 45 68 38 69 39 70 40 71 41 72 42 73 68 74 69 75 78 76 70 77
REMARK SMILES IDX 71 78 77 79 79 80 72 81 73 82 74 83 75 84 76 85 52 86 53 87
REMARK SMILES IDX 62 88 54 89 55 90 61 91 63 92 56 93 57 94 58 95 59 96 60 97
REMARK H PARENT 18 6 10 15 22 28 84 47 50 58
REMARK Flexibility Score: inf
ROOT
ATOM      1  C   UNL A   1      37.526  22.819  25.694  1.00  0.00     0.042 C 
ENDROOT
BRANCH   1   2
ATOM      2  C   UNL A   1      36.025  23.028  25.802  1.00  0.00     0.118 C 
BRANCH   2   3
ATOM      3  N   UNL A   1      35.579  24.247  25.162  1.00  0.00    -0.352 N 
ATOM      4  C   UNL A   1      34.329  24.727  24.886  1.00  0.00     0.254 C 
ATOM      5  O   UNL A   1      34.289  25.800  24.281  1.00  0.00    -0.269 OA
ATOM      6  H   UNL A   1      36.310  24.840  24.872  1.00  0.00     0.163 HD
BRANCH   4   7
ATOM      7  C   UNL A   1      33.091  24.011  25.218  1.00  0.00     0.074 A 
ATOM      8  C   UNL A   1      32.043  24.307  26.076  1.00  0.00     0.108 A 
ATOM      9  S   UNL A   1      31.060  22.940  26.399  1.00  0.00    -0.126 S 
ATOM     10  C   UNL A   1      31.751  22.063  25.114  1.00  0.00     0.068 A 
ATOM     11  C   UNL A   1      32.821  22.737  24.577  1.00  0.00     0.028 A 
BRANCH   8  12
ATOM     12  N   UNL A   1      31.652  25.371  26.847  1.00  0.00    -0.317 N 
ATOM     13  C   UNL A   1      31.378  26.665  26.518  1.00  0.00     0.228 C 
ATOM     14  O   UNL A   1      31.182  27.446  27.459  1.00  0.00    -0.274 OA
ATOM     15  H   UNL A   1      31.553  25.167  27.805  1.00  0.00     0.170 HD
BRANCH  13  16
ATOM     16  C   UNL A   1      31.163  27.174  25.095  1.00  0.00     0.082 C 
ATOM     17  C   UNL A   1      28.961  31.184  23.293  1.00  0.00     0.114 C 
ATOM     18  C   UNL A   1      28.678  29.704  23.226  1.00  0.00     0.219 C 
ATOM     19  O   UNL A   1      27.519  29.307  23.120  1.00  0.00    -0.275 OA
ATOM     20  N   UNL A   1      29.771  28.851  23.248  1.00  0.00    -0.343 N 
ATOM     21  C   UNL A   1      29.573  27.414  23.109  1.00  0.00     0.120 C 
ATOM     22  C   UNL A   1      31.122  29.233  23.631  1.00  0.00     0.120 C 
ATOM     23  C   UNL A   1      29.873  26.705  24.425  1.00  0.00     0.035 C 
ATOM     24  C   UNL A   1      31.403  28.691  25.026  1.00  0.00     0.035 C 
ENDBRANCH  13  16
ENDBRANCH   8  12
ENDBRANCH   4   7
ENDBRANCH   2   3
ENDBRANCH   1   2
BRANCH   1  25
ATOM     25  C   UNL A   1      38.333  23.905  26.399  1.00  0.00     0.118 C 
BRANCH  25  26
ATOM     26  N   UNL A   1      39.775  23.784  26.211  1.00  0.00    -0.352 N 
ATOM     27  C   UNL A   1      40.808  24.566  26.682  1.00  0.00     0.251 C 
ATOM     28  H   UNL A   1      40.057  23.020  25.658  1.00  0.00     0.163 HD
ATOM     29  O   UNL A   1      41.962  24.330  26.331  1.00  0.00    -0.269 OA
BRANCH  27  30
ATOM     30  C   UNL A   1      40.527  25.718  27.565  1.00  0.00     0.039 A 
ATOM     31  C   UNL A   1      39.535  25.601  28.542  1.00  0.00     0.014 A 
ATOM     32  C   UNL A   1      41.269  26.893  27.466  1.00  0.00     0.014 A 
ATOM     33  C   UNL A   1      39.376  26.616  29.491  1.00  0.00     0.010 A 
ATOM     34  C   UNL A   1      41.197  27.839  28.481  1.00  0.00     0.010 A 
ATOM     35  C   UNL A   1      40.252  27.713  29.510  1.00  0.00    -0.014 A 
BRANCH  35  36
ATOM     36  C   UNL A   1      40.212  28.739  30.589  1.00  0.00     0.031 A 
ATOM     37  C   UNL A   1      41.102  28.594  31.797  1.00  0.00     0.074 A 
ATOM     38  C   UNL A   1      39.304  29.735  30.539  1.00  0.00     0.049 A 
ATOM     39  N   UNL A   1      41.106  29.284  32.909  1.00  0.00    -0.248 NA
ATOM     40  C   UNL A   1      42.082  27.495  31.774  1.00  0.00     0.031 C 
ATOM     41  C   UNL A   1      38.328  29.945  29.465  1.00  0.00     0.029 A 
ATOM     42  N   UNL A   1      39.039  30.752  31.422  1.00  0.00    -0.354 N 
ATOM     43  C   UNL A   1      42.050  28.675  33.729  1.00  0.00     0.074 A 
ATOM     44  C   UNL A   1      42.561  27.531  33.008  1.00  0.00     0.031 C 
ATOM     45  C   UNL A   1      37.594  31.037  29.739  1.00  0.00     0.029 A 
ATOM     46  C   UNL A   1      38.016  31.583  31.023  1.00  0.00     0.049 A 
ATOM     47  H   UNL A   1      39.536  30.877  32.263  1.00  0.00     0.167 HD
ATOM     48  C   UNL A   1      42.475  29.051  34.958  1.00  0.00     0.037 A 
ATOM     49  C   UNL A   1      37.475  32.659  31.627  1.00  0.00     0.037 A 
ATOM     50  C   UNL A   1      42.023  30.235  35.638  1.00  0.00     0.049 A 
ATOM     51  C   UNL A   1      38.022  33.105  32.956  1.00  0.00     0.074 A 
ATOM     52  C   UNL A   1      42.460  30.756  36.843  1.00  0.00     0.029 A 
ATOM     53  N   UNL A   1      41.043  31.094  35.161  1.00  0.00    -0.354 N 
ATOM     54  N   UNL A   1      38.959  32.552  33.687  1.00  0.00    -0.248 NA
ATOM     55  C   UNL A   1      37.445  34.325  33.538  1.00  0.00     0.031 C 
ATOM     56  C   UNL A   1      41.728  31.919  37.106  1.00  0.00     0.029 A 
ATOM     57  C   UNL A   1      40.860  32.140  36.050  1.00  0.00     0.049 A 
ATOM     58  H   UNL A   1      40.551  30.977  34.317  1.00  0.00     0.167 HD
ATOM     59  C   UNL A   1      39.101  33.368  34.803  1.00  0.00     0.074 A 
ATOM     60  C   UNL A   1      38.162  34.460  34.645  1.00  0.00     0.031 C 
ATOM     61  C   UNL A   1      39.932  33.226  35.865  1.00  0.00     0.037 A 
BRANCH  48  62
ATOM     62  C   UNL A   1      43.501  28.186  35.637  1.00  0.00     0.058 A 
ATOM     63  C   UNL A   1      43.130  27.162  36.523  1.00  0.00     0.135 A 
ATOM     64  C   UNL A   1      44.870  28.363  35.378  1.00  0.00     0.135 A 
ATOM     65  F   UNL A   1      41.836  26.959  36.819  1.00  0.00    -0.206 F 
ATOM     66  C   UNL A   1      44.079  26.365  37.153  1.00  0.00     0.059 A 
ATOM     67  C   UNL A   1      45.836  27.559  35.976  1.00  0.00     0.059 A 
ATOM     68  F   UNL A   1      45.281  29.327  34.540  1.00  0.00    -0.206 F 
ATOM     69  C   UNL A   1      45.431  26.572  36.875  1.00  0.00     0.060 A 
BRANCH  69  70
ATOM     70  S   UNL A   1      46.651  25.526  37.696  1.00  0.00     0.124 S 
ATOM     71  O   UNL A   1      45.799  24.512  38.307  1.00  0.00    -0.237 OA
ATOM     72  O   UNL A   1      47.476  25.072  36.581  1.00  0.00    -0.237 OA
ATOM     73  O   UNL A   1      47.309  26.438  38.627  1.00  0.00    -0.744 OA
ENDBRANCH  69  70
ENDBRANCH  48  62
BRANCH  49  74
ATOM     74  C   UNL A   1      36.376  33.412  30.966  1.00  0.00     0.058 A 
ATOM     75  C   UNL A   1      35.064  33.350  31.464  1.00  0.00     0.135 A 
ATOM     76  C   UNL A   1      36.609  34.210  29.837  1.00  0.00     0.135 A 
ATOM     77  F   UNL A   1      34.791  32.597  32.539  1.00  0.00    -0.206 F 
ATOM     78  C   UNL A   1      34.020  34.035  30.853  1.00  0.00     0.059 A 
ATOM     79  C   UNL A   1      35.584  34.923  29.222  1.00  0.00     0.059 A 
ATOM     80  F   UNL A   1      37.849  34.319  29.335  1.00  0.00    -0.206 F 
ATOM     81  C   UNL A   1      34.289  34.820  29.730  1.00  0.00     0.060 A 
BRANCH  81  82
ATOM     82  S   UNL A   1      32.935  35.741  28.968  1.00  0.00     0.124 S 
ATOM     83  O   UNL A   1      32.343  34.728  28.103  1.00  0.00    -0.237 OA
ATOM     84  O   UNL A   1      32.140  36.135  30.127  1.00  0.00    -0.237 OA
ATOM     85  O   UNL A   1      33.619  36.836  28.286  1.00  0.00    -0.744 OA
ENDBRANCH  81  82
ENDBRANCH  49  74
BRANCH  61  86
ATOM     86  C   UNL A   1      39.893  34.294  36.919  1.00  0.00     0.058 A 
ATOM     87  C   UNL A   1      40.557  35.518  36.749  1.00  0.00     0.135 A 
ATOM     88  C   UNL A   1      39.136  34.111  38.087  1.00  0.00     0.135 A 
ATOM     89  F   UNL A   1      41.297  35.739  35.652  1.00  0.00    -0.206 F 
ATOM     90  C   UNL A   1      40.488  36.519  37.712  1.00  0.00     0.059 A 
ATOM     91  C   UNL A   1      39.034  35.106  39.053  1.00  0.00     0.059 A 
ATOM     92  F   UNL A   1      38.475  32.960  38.290  1.00  0.00    -0.206 F 
ATOM     93  C   UNL A   1      39.723  36.304  38.861  1.00  0.00     0.060 A 
BRANCH  93  94
ATOM     94  S   UNL A   1      39.611  37.622  40.088  1.00  0.00     0.124 S 
ATOM     95  O   UNL A   1      38.587  38.481  39.503  1.00  0.00    -0.237 OA
ATOM     96  O   UNL A   1      39.218  36.898  41.294  1.00  0.00    -0.237 OA
ATOM     97  O   UNL A   1      40.960  38.179  40.113  1.00  0.00    -0.744 OA
ENDBRANCH  93  94
ENDBRANCH  61  86
ENDBRANCH  35  36
ENDBRANCH  27  30
ENDBRANCH  25  26
ENDBRANCH   1  25
TORSDOF 15
ENDMDL
MODEL 2
REMARK VINA RESULT:     -12.7      5.064     10.740
REMARK SMILES CC(=O)N1CCC(C(=O)Nc2sccc2C(=O)NCCCNC(=O)c2ccc(-c3c4nc(c(-c5c(F)cc(S(=O)(=O)[O-])cc5F)c5ccc([nH]5)c(-c5c(F)cc(S(=O)(=O)[O-])cc5F)c5nc(c(-c6c(F)cc(S(=O)(=O)[O-])cc6F)c6ccc3[nH]6)C=C5)C=C4)cc2)CC1
REMARK SMILES IDX 20 1 19 2 18 3 16 4 17 5 15 7 11 8 12 9 13 10 14 11 10 12
REMARK SMILES IDX 8 13 9 14 7 16 1 17 2 18 3 19 4 20 5 21 92 22 6 23 91 24
REMARK SMILES IDX 21 25 22 26 23 27 24 29 25 30 26 31 90 32 27 33 89 34 28 35
REMARK SMILES IDX 29 36 30 37 83 38 31 39 88 40 82 41 84 42 32 43 87 44 81 45
REMARK SMILES IDX 80 46 33 48 67 49 46 50 66 51 47 52 50 53 65 54 85 55 48 56
REMARK SMILES IDX 49 57 64 59 86 60 51 61 34 62 35 63 44 64 36 65 37 66 43 67
REMARK SMILES IDX 45 68 38 69 39 70 40 71 41 72 42 73 68 74 69 75 78 76 70 77
REMARK SMILES IDX 71 78 77 79 79 80 72 81 73 82 74 83 75 84 76 85 52 86 53 87
REMARK SMILES IDX 62 88 54 89 55 90 61 91 63 92 56 93 57 94 58 95 59 96 60 97
REMARK H PARENT 18 6 10 15 22 28 84 47 50 58
REMARK Flexibility Score: inf
ROOT
ATOM      1  C   UNL A   1      33.998  28.435  25.954  1.00  0.00     0.042 C 
ENDROOT
BRANCH   1   2
ATOM      2  C   UNL A   1      33.395  29.331  24.885  1.00  0.00     0.118 C 
BRANCH   2   3
ATOM      3  N   UNL A   1      33.733  28.909  23.542  1.00  0.00    -0.352 N 
ATOM      4  C   UNL A   1      33.197  27.953  22.726  1.00  0.00     0.254 C 
ATOM      5  O   UNL A   1      33.750  27.809  21.634  1.00  0.00    -0.269 OA
ATOM      6  H   UNL A   1      34.486  29.402  23.143  1.00  0.00     0.163 HD
BRANCH   4   7
ATOM      7  C   UNL A   1      32.073  27.090  23.113  1.00  0.00     0.074 A 
ATOM      8  C   UNL A   1      31.715  25.803  22.743  1.00  0.00     0.108 A 
ATOM      9  S   UNL A   1      30.095  25.431  23.164  1.00  0.00    -0.126 S 
ATOM     10  C   UNL A   1      29.984  26.789  24.183  1.00  0.00     0.068 A 
ATOM     11  C   UNL A   1      31.093  27.591  24.059  1.00  0.00     0.028 A 
BRANCH   8  12
ATOM     12  N   UNL A   1      32.265  24.783  22.008  1.00  0.00    -0.317 N 
ATOM     13  C   UNL A   1      33.180  23.829  22.342  1.00  0.00     0.228 C 
ATOM     14  O   UNL A   1      33.598  23.117  21.419  1.00  0.00    -0.274 OA
ATOM     15  H   UNL A   1      31.946  24.732  21.079  1.00  0.00     0.170 HD
BRANCH  13  16
ATOM     16  C   UNL A   1      33.608  23.495  23.769  1.00  0.00     0.082 C 
ATOM     17  C   UNL A   1      37.962  23.623  26.049  1.00  0.00     0.114 C 
ATOM     18  C   UNL A   1      37.005  22.523  25.661  1.00  0.00     0.219 C 
ATOM     19  O   UNL A   1      37.436  21.399  25.407  1.00  0.00    -0.275 OA
ATOM     20  N   UNL A   1      35.655  22.837  25.650  1.00  0.00    -0.343 N 
ATOM     21  C   UNL A   1      34.672  21.801  25.358  1.00  0.00     0.120 C 
ATOM     22  C   UNL A   1      35.109  24.186  25.680  1.00  0.00     0.120 C 
ATOM     23  C   UNL A   1      34.028  22.044  23.998  1.00  0.00     0.035 C 
ATOM     24  C   UNL A   1      34.611  24.539  24.285  1.00  0.00     0.035 C 
ENDBRANCH  13  16
ENDBRANCH   8  12
ENDBRANCH   4   7
ENDBRANCH   2   3
ENDBRANCH   1   2
BRANCH   1  25
ATOM     25  C   UNL A   1      33.394  28.664  27.336  1.00  0.00     0.118 C 
BRANCH  25  26
ATOM     26  N   UNL A   1      33.482  30.047  27.796  1.00  0.00    -0.352 N 
ATOM     27  C   UNL A   1      34.542  30.749  28.326  1.00  0.00     0.251 C 
ATOM     28  H   UNL A   1      32.647  30.562  27.715  1.00  0.00     0.163 HD
ATOM     29  O   UNL A   1      34.375  31.897  28.730  1.00  0.00    -0.269 OA
BRANCH  27  30
ATOM     30  C   UNL A   1      35.869  30.107  28.458  1.00  0.00     0.039 A 
ATOM     31  C   UNL A   1      36.740  30.115  27.366  1.00  0.00     0.014 A 
ATOM     32  C   UNL A   1      36.274  29.543  29.666  1.00  0.00     0.014 A 
ATOM     33  C   UNL A   1      38.054  29.667  27.527  1.00  0.00     0.010 A 
ATOM     34  C   UNL A   1      37.611  29.218  29.859  1.00  0.00     0.010 A 
ATOM     35  C   UNL A   1      38.522  29.278  28.793  1.00  0.00    -0.014 A 
BRANCH  35  36
ATOM     36  C   UNL A   1      39.950  28.935  29.039  1.00  0.00     0.031 A 
ATOM     37  C   UNL A   1      40.893  29.982  29.576  1.00  0.00     0.074 A 
ATOM     38  C   UNL A   1      40.424  27.725  28.678  1.00  0.00     0.049 A 
ATOM     39  N   UNL A   1      42.193  29.933  29.709  1.00  0.00    -0.248 NA
ATOM     40  C   UNL A   1      40.301  31.273  29.968  1.00  0.00     0.031 C 
ATOM     41  C   UNL A   1      39.637  26.647  28.071  1.00  0.00     0.029 A 
ATOM     42  N   UNL A   1      41.691  27.201  28.751  1.00  0.00    -0.354 N 
ATOM     43  C   UNL A   1      42.576  31.195  30.152  1.00  0.00     0.074 A 
ATOM     44  C   UNL A   1      41.378  32.002  30.216  1.00  0.00     0.031 C 
ATOM     45  C   UNL A   1      40.430  25.584  27.856  1.00  0.00     0.029 A 
ATOM     46  C   UNL A   1      41.789  25.914  28.270  1.00  0.00     0.049 A 
ATOM     47  H   UNL A   1      42.459  27.698  29.115  1.00  0.00     0.167 HD
ATOM     48  C   UNL A   1      43.808  31.634  30.502  1.00  0.00     0.037 A 
ATOM     49  C   UNL A   1      42.854  25.096  28.168  1.00  0.00     0.037 A 
ATOM     50  C   UNL A   1      44.983  30.806  30.514  1.00  0.00     0.049 A 
ATOM     51  C   UNL A   1      44.198  25.580  28.641  1.00  0.00     0.074 A 
ATOM     52  C   UNL A   1      46.259  31.128  30.942  1.00  0.00     0.029 A 
ATOM     53  N   UNL A   1      45.022  29.484  30.096  1.00  0.00    -0.354 N 
ATOM     54  N   UNL A   1      44.528  26.757  29.116  1.00  0.00    -0.248 NA
ATOM     55  C   UNL A   1      45.312  24.624  28.573  1.00  0.00     0.031 C 
ATOM     56  C   UNL A   1      47.076  30.006  30.761  1.00  0.00     0.029 A 
ATOM     57  C   UNL A   1      46.300  28.977  30.253  1.00  0.00     0.049 A 
ATOM     58  H   UNL A   1      44.254  28.981  29.739  1.00  0.00     0.167 HD
ATOM     59  C   UNL A   1      45.880  26.676  29.426  1.00  0.00     0.074 A 
ATOM     60  C   UNL A   1      46.305  25.331  29.095  1.00  0.00     0.031 C 
ATOM     61  C   UNL A   1      46.699  27.629  29.934  1.00  0.00     0.037 A 
BRANCH  48  62
ATOM     62  C   UNL A   1      43.942  33.071  30.927  1.00  0.00     0.058 A 
ATOM     63  C   UNL A   1      44.260  34.084  30.008  1.00  0.00     0.135 A 
ATOM     64  C   UNL A   1      43.723  33.445  32.263  1.00  0.00     0.135 A 
ATOM     65  F   UNL A   1      44.495  33.780  28.722  1.00  0.00    -0.206 F 
ATOM     66  C   UNL A   1      44.388  35.410  30.403  1.00  0.00     0.059 A 
ATOM     67  C   UNL A   1      43.818  34.771  32.675  1.00  0.00     0.059 A 
ATOM     68  F   UNL A   1      43.416  32.518  33.183  1.00  0.00    -0.206 F 
ATOM     69  C   UNL A   1      44.167  35.745  31.739  1.00  0.00     0.060 A 
BRANCH  69  70
ATOM     70  S   UNL A   1      44.330  37.472  32.235  1.00  0.00     0.124 S 
ATOM     71  O   UNL A   1      45.768  37.574  32.464  1.00  0.00    -0.237 OA
ATOM     72  O   UNL A   1      43.823  38.184  31.067  1.00  0.00    -0.237 OA
ATOM     73  O   UNL A   1      43.497  37.563  33.430  1.00  0.00    -0.744 OA
ENDBRANCH  69  70
ENDBRANCH  48  62
BRANCH  49  74
ATOM     74  C   UNL A   1      42.690  23.721  27.625  1.00  0.00     0.058 A 
ATOM     75  C   UNL A   1      42.383  22.646  28.474  1.00  0.00     0.135 A 
ATOM     76  C   UNL A   1      42.827  23.453  26.256  1.00  0.00     0.135 A 
ATOM     77  F   UNL A   1      42.247  22.852  29.792  1.00  0.00    -0.206 F 
ATOM     78  C   UNL A   1      42.239  21.351  27.989  1.00  0.00     0.059 A 
ATOM     79  C   UNL A   1      42.665  22.169  25.743  1.00  0.00     0.059 A 
ATOM     80  F   UNL A   1      43.098  24.450  25.399  1.00  0.00    -0.206 F 
ATOM     81  C   UNL A   1      42.383  21.121  26.619  1.00  0.00     0.060 A 
BRANCH  81  82
ATOM     82  S   UNL A   1      42.152  19.444  25.990  1.00  0.00     0.124 S 
ATOM     83  O   UNL A   1      43.021  19.448  24.820  1.00  0.00    -0.237 OA
ATOM     84  O   UNL A   1      42.600  18.628  27.115  1.00  0.00    -0.237 OA
ATOM     85  O   UNL A   1      40.719  19.385  25.715  1.00  0.00    -0.744 OA
ENDBRANCH  81  82
ENDBRANCH  49  74
BRANCH  61  86
ATOM     86  C   UNL A   1      48.124  27.244  30.203  1.00  0.00     0.058 A 
ATOM     87  C   UNL A   1      49.137  27.473  29.261  1.00  0.00     0.135 A 
ATOM     88  C   UNL A   1      48.488  26.690  31.442  1.00  0.00     0.135 A 
ATOM     89  F   UNL A   1      48.839  27.995  28.061  1.00  0.00    -0.206 F 
ATOM     90  C   UNL A   1      50.462  27.147  29.529  1.00  0.00     0.059 A 
ATOM     91  C   UNL A   1      49.809  26.379  31.740  1.00  0.00     0.059 A 
ATOM     92  F   UNL A   1      47.554  26.462  32.380  1.00  0.00    -0.206 F 
ATOM     93  C   UNL A   1      50.789  26.600  30.772  1.00  0.00     0.060 A 
BRANCH  93  94
ATOM     94  S   UNL A   1      52.517  26.215  31.124  1.00  0.00     0.124 S 
ATOM     95  O   UNL A   1      52.397  24.942  31.825  1.00  0.00    -0.237 OA
ATOM     96  O   UNL A   1      53.104  26.152  29.789  1.00  0.00    -0.237 OA
ATOM     97  O   UNL A   1      52.955  27.343  31.941  1.00  0.00    -0.744 OA
ENDBRANCH  93  94
ENDBRANCH  61  86
ENDBRANCH  35  36
ENDBRANCH  27  30
ENDBRANCH  25  26
ENDBRANCH   1  25
TORSDOF 15
ENDMDL
MODEL 3
REMARK VINA RESULT:     -12.5      6.570     12.284
REMARK SMILES CC(=O)N1CCC(C(=O)Nc2sccc2C(=O)NCCCNC(=O)c2ccc(-c3c4nc(c(-c5c(F)cc(S(=O)(=O)[O-])cc5F)c5ccc([nH]5)c(-c5c(F)cc(S(=O)(=O)[O-])cc5F)c5nc(c(-c6c(F)cc(S(=O)(=O)[O-])cc6F)c6ccc3[nH]6)C=C5)C=C4)cc2)CC1
REMARK SMILES IDX 20 1 19 2 18 3 16 4 17 5 15 7 11 8 12 9 13 10 14 11 10 12
REMARK SMILES IDX 8 13 9 14 7 16 1 17 2 18 3 19 4 20 5 21 92 22 6 23 91 24
REMARK SMILES IDX 21 25 22 26 23 27 24 29 25 30 26 31 90 32 27 33 89 34 28 35
REMARK SMILES IDX 29 36 30 37 83 38 31 39 88 40 82 41 84 42 32 43 87 44 81 45
REMARK SMILES IDX 80 46 33 48 67 49 46 50 66 51 47 52 50 53 65 54 85 55 48 56
REMARK SMILES IDX 49 57 64 59 86 60 51 61 34 62 35 63 44 64 36 65 37 66 43 67
REMARK SMILES IDX 45 68 38 69 39 70 40 71 41 72 42 73 68 74 69 75 78 76 70 77
REMARK SMILES IDX 71 78 77 79 79 80 72 81 73 82 74 83 75 84 76 85 52 86 53 87
REMARK SMILES IDX 62 88 54 89 55 90 61 91 63 92 56 93 57 94 58 95 59 96 60 97
REMARK H PARENT 18 6 10 15 22 28 84 47 50 58
REMARK Flexibility Score: inf
ROOT
ATOM      1  C   UNL A   1      33.943  30.929  27.294  1.00  0.00     0.042 C 
ENDROOT
BRANCH   1   2
ATOM      2  C   UNL A   1      33.074  29.877  26.626  1.00  0.00     0.118 C 
BRANCH   2   3
ATOM      3  N   UNL A   1      33.781  29.126  25.611  1.00  0.00    -0.352 N 
ATOM      4  C   UNL A   1      33.339  28.303  24.613  1.00  0.00     0.254 C 
ATOM      5  O   UNL A   1      34.216  27.771  23.929  1.00  0.00    -0.269 OA
ATOM      6  H   UNL A   1      34.760  29.226  25.645  1.00  0.00     0.163 HD
BRANCH   4   7
ATOM      7  C   UNL A   1      31.923  27.999  24.377  1.00  0.00     0.074 A 
ATOM      8  C   UNL A   1      31.051  27.095  24.965  1.00  0.00     0.108 A 
ATOM      9  S   UNL A   1      29.632  26.857  24.032  1.00  0.00    -0.126 S 
ATOM     10  C   UNL A   1      29.961  28.222  23.072  1.00  0.00     0.068 A 
ATOM     11  C   UNL A   1      31.207  28.731  23.347  1.00  0.00     0.028 A 
BRANCH   8  12
ATOM     12  N   UNL A   1      31.074  26.233  26.032  1.00  0.00    -0.317 N 
ATOM     13  C   UNL A   1      31.565  24.968  26.153  1.00  0.00     0.228 C 
ATOM     14  O   UNL A   1      31.313  24.375  27.211  1.00  0.00    -0.274 OA
ATOM     15  H   UNL A   1      30.663  26.589  26.852  1.00  0.00     0.170 HD
BRANCH  13  16
ATOM     16  C   UNL A   1      32.501  24.298  25.149  1.00  0.00     0.082 C 
ATOM     17  C   UNL A   1      34.186  19.698  24.731  1.00  0.00     0.114 C 
ATOM     18  C   UNL A   1      34.823  21.033  25.029  1.00  0.00     0.219 C 
ATOM     19  O   UNL A   1      35.828  21.086  25.736  1.00  0.00    -0.275 OA
ATOM     20  N   UNL A   1      34.248  22.151  24.444  1.00  0.00    -0.343 N 
ATOM     21  C   UNL A   1      34.858  23.462  24.629  1.00  0.00     0.120 C 
ATOM     22  C   UNL A   1      32.930  22.188  23.828  1.00  0.00     0.120 C 
ATOM     23  C   UNL A   1      33.983  24.337  25.519  1.00  0.00     0.035 C 
ATOM     24  C   UNL A   1      31.973  22.905  24.771  1.00  0.00     0.035 C 
ENDBRANCH  13  16
ENDBRANCH   8  12
ENDBRANCH   4   7
ENDBRANCH   2   3
ENDBRANCH   1   2
BRANCH   1  25
ATOM     25  C   UNL A   1      35.165  30.341  27.992  1.00  0.00     0.118 C 
BRANCH  25  26
ATOM     26  N   UNL A   1      35.336  30.798  29.367  1.00  0.00    -0.352 N 
ATOM     27  C   UNL A   1      36.399  30.655  30.233  1.00  0.00     0.251 C 
ATOM     28  H   UNL A   1      34.568  31.289  29.738  1.00  0.00     0.163 HD
ATOM     29  O   UNL A   1      36.301  31.051  31.392  1.00  0.00    -0.269 OA
BRANCH  27  30
ATOM     30  C   UNL A   1      37.637  29.979  29.787  1.00  0.00     0.039 A 
ATOM     31  C   UNL A   1      38.049  30.121  28.459  1.00  0.00     0.014 A 
ATOM     32  C   UNL A   1      38.416  29.250  30.681  1.00  0.00     0.014 A 
ATOM     33  C   UNL A   1      39.299  29.632  28.068  1.00  0.00     0.010 A 
ATOM     34  C   UNL A   1      39.707  28.878  30.326  1.00  0.00     0.010 A 
ATOM     35  C   UNL A   1      40.169  29.067  29.014  1.00  0.00    -0.014 A 
BRANCH  35  36
ATOM     36  C   UNL A   1      41.563  28.670  28.671  1.00  0.00     0.031 A 
ATOM     37  C   UNL A   1      42.649  29.714  28.611  1.00  0.00     0.074 A 
ATOM     38  C   UNL A   1      41.831  27.399  28.306  1.00  0.00     0.049 A 
ATOM     39  N   UNL A   1      43.879  29.603  28.183  1.00  0.00    -0.248 NA
ATOM     40  C   UNL A   1      42.288  31.076  29.043  1.00  0.00     0.031 C 
ATOM     41  C   UNL A   1      40.855  26.307  28.242  1.00  0.00     0.029 A 
ATOM     42  N   UNL A   1      43.004  26.812  27.901  1.00  0.00    -0.354 N 
ATOM     43  C   UNL A   1      44.420  30.883  28.249  1.00  0.00     0.074 A 
ATOM     44  C   UNL A   1      43.369  31.763  28.710  1.00  0.00     0.031 C 
ATOM     45  C   UNL A   1      41.475  25.180  27.852  1.00  0.00     0.029 A 
ATOM     46  C   UNL A   1      42.881  25.475  27.600  1.00  0.00     0.049 A 
ATOM     47  H   UNL A   1      43.855  27.302  27.834  1.00  0.00     0.167 HD
ATOM     48  C   UNL A   1      45.685  31.286  27.980  1.00  0.00     0.037 A 
ATOM     49  C   UNL A   1      43.795  24.587  27.163  1.00  0.00     0.037 A 
ATOM     50  C   UNL A   1      46.747  30.395  27.599  1.00  0.00     0.049 A 
ATOM     51  C   UNL A   1      45.213  25.041  26.949  1.00  0.00     0.074 A 
ATOM     52  C   UNL A   1      48.085  30.688  27.396  1.00  0.00     0.029 A 
ATOM     53  N   UNL A   1      46.598  29.033  27.383  1.00  0.00    -0.354 N 
ATOM     54  N   UNL A   1      45.720  26.244  27.078  1.00  0.00    -0.248 NA
ATOM     55  C   UNL A   1      46.187  24.019  26.540  1.00  0.00     0.031 C 
ATOM     56  C   UNL A   1      48.740  29.505  27.035  1.00  0.00     0.029 A 
ATOM     57  C   UNL A   1      47.817  28.472  27.046  1.00  0.00     0.049 A 
ATOM     58  H   UNL A   1      45.749  28.539  27.458  1.00  0.00     0.167 HD
ATOM     59  C   UNL A   1      47.074  26.119  26.790  1.00  0.00     0.074 A 
ATOM     60  C   UNL A   1      47.309  24.721  26.491  1.00  0.00     0.031 C 
ATOM     61  C   UNL A   1      48.035  27.075  26.770  1.00  0.00     0.037 A 
BRANCH  48  62
ATOM     62  C   UNL A   1      45.994  32.752  28.113  1.00  0.00     0.058 A 
ATOM     63  C   UNL A   1      45.859  33.633  27.028  1.00  0.00     0.135 A 
ATOM     64  C   UNL A   1      46.403  33.287  29.344  1.00  0.00     0.135 A 
ATOM     65  F   UNL A   1      45.486  33.172  25.823  1.00  0.00    -0.206 F 
ATOM     66  C   UNL A   1      46.149  34.987  27.151  1.00  0.00     0.059 A 
ATOM     67  C   UNL A   1      46.672  34.644  29.497  1.00  0.00     0.059 A 
ATOM     68  F   UNL A   1      46.549  32.490  30.414  1.00  0.00    -0.206 F 
ATOM     69  C   UNL A   1      46.557  35.484  28.389  1.00  0.00     0.060 A 
BRANCH  69  70
ATOM     70  S   UNL A   1      46.924  37.245  28.535  1.00  0.00     0.124 S 
ATOM     71  O   UNL A   1      48.375  37.253  28.381  1.00  0.00    -0.237 OA
ATOM     72  O   UNL A   1      46.167  37.816  27.426  1.00  0.00    -0.237 OA
ATOM     73  O   UNL A   1      46.432  37.586  29.866  1.00  0.00    -0.744 OA
ENDBRANCH  69  70
ENDBRANCH  48  62
BRANCH  49  74
ATOM     74  C   UNL A   1      43.408  23.170  26.929  1.00  0.00     0.058 A 
ATOM     75  C   UNL A   1      43.300  22.661  25.626  1.00  0.00     0.135 A 
ATOM     76  C   UNL A   1      43.147  22.296  27.995  1.00  0.00     0.135 A 
ATOM     77  F   UNL A   1      43.536  23.459  24.574  1.00  0.00    -0.206 F 
ATOM     78  C   UNL A   1      42.927  21.343  25.386  1.00  0.00     0.059 A 
ATOM     79  C   UNL A   1      42.794  20.967  27.781  1.00  0.00     0.059 A 
ATOM     80  F   UNL A   1      43.257  22.728  29.261  1.00  0.00    -0.206 F 
ATOM     81  C   UNL A   1      42.674  20.502  26.471  1.00  0.00     0.060 A 
BRANCH  81  82
ATOM     82  S   UNL A   1      42.232  18.780  26.152  1.00  0.00     0.124 S 
ATOM     83  O   UNL A   1      42.445  18.176  27.461  1.00  0.00    -0.237 OA
ATOM     84  O   UNL A   1      40.842  18.894  25.720  1.00  0.00    -0.237 OA
ATOM     85  O   UNL A   1      43.173  18.382  25.109  1.00  0.00    -0.744 OA
ENDBRANCH  81  82
ENDBRANCH  49  74
BRANCH  61  86
ATOM     86  C   UNL A   1      49.435  26.638  26.455  1.00  0.00     0.058 A 
ATOM     87  C   UNL A   1      50.278  26.102  27.440  1.00  0.00     0.135 A 
ATOM     88  C   UNL A   1      49.921  26.705  25.138  1.00  0.00     0.135 A 
ATOM     89  F   UNL A   1      49.862  26.022  28.714  1.00  0.00    -0.206 F 
ATOM     90  C   UNL A   1      51.562  25.665  27.136  1.00  0.00     0.059 A 
ATOM     91  C   UNL A   1      51.193  26.252  24.807  1.00  0.00     0.059 A 
ATOM     92  F   UNL A   1      49.148  27.200  24.158  1.00  0.00    -0.206 F 
ATOM     93  C   UNL A   1      52.011  25.744  25.816  1.00  0.00     0.060 A 
BRANCH  93  94
ATOM     94  S   UNL A   1      53.666  25.140  25.424  1.00  0.00     0.124 S 
ATOM     95  O   UNL A   1      53.440  23.702  25.334  1.00  0.00    -0.237 OA
ATOM     96  O   UNL A   1      53.958  25.817  24.164  1.00  0.00    -0.237 OA
ATOM     97  O   UNL A   1      54.466  25.581  26.563  1.00  0.00    -0.744 OA
ENDBRANCH  93  94
ENDBRANCH  61  86
ENDBRANCH  35  36
ENDBRANCH  27  30
ENDBRANCH  25  26
ENDBRANCH   1  25
TORSDOF 15
ENDMDL
