MODEL 1
REMARK VINA RESULT:     -11.3      0.000      0.000
REMARK SMILES O=C(Cn1ccc2ccc(CO)cc21)NCCCNC(=O)c1ccc(-c2c3nc(c(-c4c(F)cc(S(=O)(=O)[O-])cc4F)c4ccc([nH]4)c(-c4c(F)cc(S(=O)(=O)[O-])cc4F)c4nc(c(-c5c(F)cc(S(=O)(=O)[O-])cc5F)c5ccc2[nH]5)C=C4)C=C3)cc1
REMARK SMILES IDX 17 1 16 2 15 3 1 4 2 5 3 7 4 8 5 9 14 10 6 11 7 12 13 13
REMARK SMILES IDX 8 14 10 15 9 16 11 17 12 18 18 20 19 21 20 22 21 24 22 25
REMARK SMILES IDX 23 26 87 27 24 28 86 29 25 30 26 31 27 32 80 33 28 34 85 35
REMARK SMILES IDX 79 36 81 37 29 38 84 39 78 40 77 41 30 43 64 44 43 45 63 46
REMARK SMILES IDX 44 47 47 48 62 49 82 50 45 51 46 52 61 54 83 55 48 56 31 57
REMARK SMILES IDX 32 58 41 59 33 60 34 61 40 62 42 63 35 64 36 65 37 66 38 67
REMARK SMILES IDX 39 68 65 69 66 70 75 71 67 72 68 73 74 74 76 75 69 76 70 77
REMARK SMILES IDX 71 78 72 79 73 80 49 81 50 82 59 83 51 84 52 85 58 86 60 87
REMARK SMILES IDX 53 88 54 89 55 90 56 91 57 92
REMARK H PARENT 15 6 12 19 19 23 81 42 47 53
REMARK Flexibility Score: inf
ROOT
ATOM      1  C   UNL A   1      33.776  35.663  28.535  1.00  0.00     0.042 C 
ENDROOT
BRANCH   1   2
ATOM      2  C   UNL A   1      33.161  36.233  29.806  1.00  0.00     0.117 C 
BRANCH   2   3
ATOM      3  N   UNL A   1      33.920  35.928  31.006  1.00  0.00    -0.354 N 
ATOM      4  O   UNL A   1      32.122  35.263  32.268  1.00  0.00    -0.273 OA
ATOM      5  C   UNL A   1      33.338  35.349  32.114  1.00  0.00     0.239 C 
ATOM      6  H   UNL A   1      34.882  36.141  31.028  1.00  0.00     0.163 HD
BRANCH   5   7
ATOM      7  C   UNL A   1      34.293  34.860  33.179  1.00  0.00     0.222 C 
BRANCH   7   8
ATOM      8  N   UNL A   1      35.166  33.741  32.823  1.00  0.00    -0.338 N 
ATOM      9  C   UNL A   1      34.663  32.596  32.241  1.00  0.00     0.087 A 
ATOM     10  C   UNL A   1      36.538  33.623  32.968  1.00  0.00     0.049 A 
ATOM     11  C   UNL A   1      35.700  31.714  32.057  1.00  0.00     0.028 A 
ATOM     12  C   UNL A   1      36.883  32.338  32.531  1.00  0.00    -0.000 A 
ATOM     13  C   UNL A   1      37.519  34.502  33.463  1.00  0.00     0.033 A 
ATOM     14  C   UNL A   1      38.224  31.916  32.618  1.00  0.00     0.011 A 
ATOM     15  C   UNL A   1      38.843  34.051  33.598  1.00  0.00    -0.021 A 
ATOM     16  C   UNL A   1      39.187  32.769  33.167  1.00  0.00     0.007 A 
BRANCH  15  17
ATOM     17  C   UNL A   1      39.876  34.951  34.233  1.00  0.00     0.191 C 
BRANCH  17  18
ATOM     18  O   UNL A   1      39.307  35.739  35.269  1.00  0.00    -0.392 OA
ATOM     19  H   UNL A   1      39.556  35.368  36.130  1.00  0.00     0.211 HD
ENDBRANCH  17  18
ENDBRANCH  15  17
ENDBRANCH   7   8
ENDBRANCH   5   7
ENDBRANCH   2   3
ENDBRANCH   1   2
BRANCH   1  20
ATOM     20  C   UNL A   1      34.603  34.393  28.738  1.00  0.00     0.118 C 
BRANCH  20  21
ATOM     21  N   UNL A   1      34.154  33.241  27.979  1.00  0.00    -0.352 N 
ATOM     22  C   UNL A   1      34.529  31.925  27.919  1.00  0.00     0.251 C 
ATOM     23  H   UNL A   1      33.410  33.453  27.369  1.00  0.00     0.163 HD
ATOM     24  O   UNL A   1      33.740  31.172  27.340  1.00  0.00    -0.269 OA
BRANCH  22  25
ATOM     25  C   UNL A   1      35.811  31.368  28.432  1.00  0.00     0.039 A 
ATOM     26  C   UNL A   1      36.982  32.097  28.630  1.00  0.00     0.014 A 
ATOM     27  C   UNL A   1      35.851  29.973  28.633  1.00  0.00     0.014 A 
ATOM     28  C   UNL A   1      38.176  31.446  28.923  1.00  0.00     0.010 A 
ATOM     29  C   UNL A   1      37.042  29.318  28.945  1.00  0.00     0.010 A 
ATOM     30  C   UNL A   1      38.217  30.054  29.043  1.00  0.00    -0.014 A 
BRANCH  30  31
ATOM     31  C   UNL A   1      39.522  29.446  29.292  1.00  0.00     0.031 A 
ATOM     32  C   UNL A   1      39.885  29.238  30.722  1.00  0.00     0.074 A 
ATOM     33  C   UNL A   1      40.378  29.052  28.330  1.00  0.00     0.049 A 
ATOM     34  N   UNL A   1      40.817  29.828  31.400  1.00  0.00    -0.248 NA
ATOM     35  C   UNL A   1      39.055  28.325  31.516  1.00  0.00     0.031 C 
ATOM     36  C   UNL A   1      40.141  28.919  26.892  1.00  0.00     0.029 A 
ATOM     37  N   UNL A   1      41.656  28.599  28.478  1.00  0.00    -0.354 N 
ATOM     38  C   UNL A   1      40.811  29.243  32.666  1.00  0.00     0.074 A 
ATOM     39  C   UNL A   1      39.635  28.411  32.715  1.00  0.00     0.031 C 
ATOM     40  C   UNL A   1      41.158  28.219  26.341  1.00  0.00     0.029 A 
ATOM     41  C   UNL A   1      42.170  27.973  27.355  1.00  0.00     0.049 A 
ATOM     42  H   UNL A   1      42.167  28.706  29.312  1.00  0.00     0.167 HD
ATOM     43  C   UNL A   1      41.860  29.365  33.528  1.00  0.00     0.037 A 
ATOM     44  C   UNL A   1      43.309  27.238  27.289  1.00  0.00     0.037 A 
ATOM     45  C   UNL A   1      42.744  30.435  33.146  1.00  0.00     0.049 A 
ATOM     46  C   UNL A   1      44.194  27.692  28.396  1.00  0.00     0.074 A 
ATOM     47  C   UNL A   1      42.593  31.797  32.966  1.00  0.00     0.029 A 
ATOM     48  N   UNL A   1      43.946  30.119  32.560  1.00  0.00    -0.354 N 
ATOM     49  N   UNL A   1      44.744  28.876  28.454  1.00  0.00    -0.248 NA
ATOM     50  C   UNL A   1      44.133  26.977  29.663  1.00  0.00     0.031 C 
ATOM     51  C   UNL A   1      43.434  32.117  31.861  1.00  0.00     0.029 A 
ATOM     52  C   UNL A   1      44.072  30.940  31.469  1.00  0.00     0.049 A 
ATOM     53  H   UNL A   1      44.589  29.438  32.863  1.00  0.00     0.167 HD
ATOM     54  C   UNL A   1      44.704  29.224  29.798  1.00  0.00     0.074 A 
ATOM     55  C   UNL A   1      44.409  27.979  30.502  1.00  0.00     0.031 C 
ATOM     56  C   UNL A   1      44.643  30.528  30.205  1.00  0.00     0.037 A 
BRANCH  43  57
ATOM     57  C   UNL A   1      42.251  28.338  34.563  1.00  0.00     0.058 A 
ATOM     58  C   UNL A   1      42.280  28.695  35.928  1.00  0.00     0.135 A 
ATOM     59  C   UNL A   1      42.870  27.111  34.241  1.00  0.00     0.135 A 
ATOM     60  F   UNL A   1      41.724  29.843  36.348  1.00  0.00    -0.206 F 
ATOM     61  C   UNL A   1      42.946  27.931  36.887  1.00  0.00     0.059 A 
ATOM     62  C   UNL A   1      43.493  26.307  35.190  1.00  0.00     0.059 A 
ATOM     63  F   UNL A   1      42.986  26.686  32.977  1.00  0.00    -0.206 F 
ATOM     64  C   UNL A   1      43.569  26.748  36.501  1.00  0.00     0.060 A 
BRANCH  64  65
ATOM     65  S   UNL A   1      44.553  25.837  37.705  1.00  0.00     0.124 S 
ATOM     66  O   UNL A   1      43.943  26.263  38.958  1.00  0.00    -0.237 OA
ATOM     67  O   UNL A   1      44.310  24.453  37.312  1.00  0.00    -0.237 OA
ATOM     68  O   UNL A   1      45.909  26.322  37.465  1.00  0.00    -0.744 OA
ENDBRANCH  64  65
ENDBRANCH  43  57
BRANCH  44  69
ATOM     69  C   UNL A   1      43.488  25.951  26.563  1.00  0.00     0.058 A 
ATOM     70  C   UNL A   1      44.416  25.820  25.515  1.00  0.00     0.135 A 
ATOM     71  C   UNL A   1      42.934  24.747  27.049  1.00  0.00     0.135 A 
ATOM     72  F   UNL A   1      45.022  26.905  25.010  1.00  0.00    -0.206 F 
ATOM     73  C   UNL A   1      44.794  24.570  25.004  1.00  0.00     0.059 A 
ATOM     74  C   UNL A   1      43.281  23.496  26.545  1.00  0.00     0.059 A 
ATOM     75  F   UNL A   1      42.099  24.736  28.098  1.00  0.00    -0.206 F 
ATOM     76  C   UNL A   1      44.230  23.412  25.539  1.00  0.00     0.060 A 
BRANCH  76  77
ATOM     77  S   UNL A   1      44.820  21.792  24.994  1.00  0.00     0.124 S 
ATOM     78  O   UNL A   1      43.918  20.889  25.698  1.00  0.00    -0.237 OA
ATOM     79  O   UNL A   1      44.645  21.873  23.548  1.00  0.00    -0.237 OA
ATOM     80  O   UNL A   1      46.208  21.766  25.450  1.00  0.00    -0.744 OA
ENDBRANCH  76  77
ENDBRANCH  44  69
BRANCH  56  81
ATOM     81  C   UNL A   1      44.909  31.624  29.204  1.00  0.00     0.058 A 
ATOM     82  C   UNL A   1      46.175  32.193  28.978  1.00  0.00     0.135 A 
ATOM     83  C   UNL A   1      43.885  31.970  28.306  1.00  0.00     0.135 A 
ATOM     84  F   UNL A   1      47.235  31.837  29.717  1.00  0.00    -0.206 F 
ATOM     85  C   UNL A   1      46.404  33.083  27.927  1.00  0.00     0.059 A 
ATOM     86  C   UNL A   1      44.099  32.830  27.232  1.00  0.00     0.059 A 
ATOM     87  F   UNL A   1      42.668  31.414  28.428  1.00  0.00    -0.206 F 
ATOM     88  C   UNL A   1      45.362  33.389  27.053  1.00  0.00     0.060 A 
BRANCH  88  89
ATOM     89  S   UNL A   1      45.693  34.450  25.628  1.00  0.00     0.124 S 
ATOM     90  O   UNL A   1      47.109  34.188  25.374  1.00  0.00    -0.237 OA
ATOM     91  O   UNL A   1      44.765  33.927  24.625  1.00  0.00    -0.237 OA
ATOM     92  O   UNL A   1      45.383  35.786  26.114  1.00  0.00    -0.744 OA
ENDBRANCH  88  89
ENDBRANCH  56  81
ENDBRANCH  30  31
ENDBRANCH  22  25
ENDBRANCH  20  21
ENDBRANCH   1  20
TORSDOF 16
ENDMDL
MODEL 2
REMARK VINA RESULT:     -11.3      3.035     11.613
REMARK SMILES O=C(Cn1ccc2ccc(CO)cc21)NCCCNC(=O)c1ccc(-c2c3nc(c(-c4c(F)cc(S(=O)(=O)[O-])cc4F)c4ccc([nH]4)c(-c4c(F)cc(S(=O)(=O)[O-])cc4F)c4nc(c(-c5c(F)cc(S(=O)(=O)[O-])cc5F)c5ccc2[nH]5)C=C4)C=C3)cc1
REMARK SMILES IDX 17 1 16 2 15 3 1 4 2 5 3 7 4 8 5 9 14 10 6 11 7 12 13 13
REMARK SMILES IDX 8 14 10 15 9 16 11 17 12 18 18 20 19 21 20 22 21 24 22 25
REMARK SMILES IDX 23 26 87 27 24 28 86 29 25 30 26 31 27 32 80 33 28 34 85 35
REMARK SMILES IDX 79 36 81 37 29 38 84 39 78 40 77 41 30 43 64 44 43 45 63 46
REMARK SMILES IDX 44 47 47 48 62 49 82 50 45 51 46 52 61 54 83 55 48 56 31 57
REMARK SMILES IDX 32 58 41 59 33 60 34 61 40 62 42 63 35 64 36 65 37 66 38 67
REMARK SMILES IDX 39 68 65 69 66 70 75 71 67 72 68 73 74 74 76 75 69 76 70 77
REMARK SMILES IDX 71 78 72 79 73 80 49 81 50 82 59 83 51 84 52 85 58 86 60 87
REMARK SMILES IDX 53 88 54 89 55 90 56 91 57 92
REMARK H PARENT 15 6 12 19 19 23 81 42 47 53
REMARK Flexibility Score: inf
ROOT
ATOM      1  C   UNL A   1      42.277  19.477  26.528  1.00  0.00     0.042 C 
ENDROOT
BRANCH   1   2
ATOM      2  C   UNL A   1      43.328  19.169  25.469  1.00  0.00     0.117 C 
BRANCH   2   3
ATOM      3  N   UNL A   1      44.586  19.862  25.682  1.00  0.00    -0.354 N 
ATOM      4  O   UNL A   1      44.445  21.195  23.818  1.00  0.00    -0.273 OA
ATOM      5  C   UNL A   1      44.986  20.916  24.886  1.00  0.00     0.239 C 
ATOM      6  H   UNL A   1      45.173  19.571  26.417  1.00  0.00     0.163 HD
BRANCH   5   7
ATOM      7  C   UNL A   1      46.183  21.695  25.379  1.00  0.00     0.222 C 
BRANCH   7   8
ATOM      8  N   UNL A   1      45.996  23.130  25.597  1.00  0.00    -0.338 N 
ATOM      9  C   UNL A   1      46.326  24.052  24.625  1.00  0.00     0.087 A 
ATOM     10  C   UNL A   1      45.487  23.786  26.704  1.00  0.00     0.049 A 
ATOM     11  C   UNL A   1      46.079  25.309  25.121  1.00  0.00     0.028 A 
ATOM     12  C   UNL A   1      45.572  25.158  26.438  1.00  0.00    -0.000 A 
ATOM     13  C   UNL A   1      44.978  23.322  27.931  1.00  0.00     0.033 A 
ATOM     14  C   UNL A   1      45.171  26.080  27.425  1.00  0.00     0.011 A 
ATOM     15  C   UNL A   1      44.634  24.250  28.930  1.00  0.00    -0.021 A 
ATOM     16  C   UNL A   1      44.724  25.617  28.667  1.00  0.00     0.007 A 
BRANCH  15  17
ATOM     17  C   UNL A   1      44.195  23.756  30.287  1.00  0.00     0.191 C 
BRANCH  17  18
ATOM     18  O   UNL A   1      43.380  22.598  30.176  1.00  0.00    -0.392 OA
ATOM     19  H   UNL A   1      42.451  22.864  30.100  1.00  0.00     0.211 HD
ENDBRANCH  17  18
ENDBRANCH  15  17
ENDBRANCH   7   8
ENDBRANCH   5   7
ENDBRANCH   2   3
ENDBRANCH   1   2
BRANCH   1  20
ATOM     20  C   UNL A   1      41.849  20.943  26.597  1.00  0.00     0.118 C 
BRANCH  20  21
ATOM     21  N   UNL A   1      40.418  21.168  26.528  1.00  0.00    -0.352 N 
ATOM     22  C   UNL A   1      39.617  22.279  26.563  1.00  0.00     0.251 C 
ATOM     23  H   UNL A   1      39.905  20.333  26.435  1.00  0.00     0.163 HD
ATOM     24  O   UNL A   1      38.446  22.104  26.213  1.00  0.00    -0.269 OA
BRANCH  22  25
ATOM     25  C   UNL A   1      40.033  23.629  27.037  1.00  0.00     0.039 A 
ATOM     26  C   UNL A   1      41.026  23.878  27.982  1.00  0.00     0.014 A 
ATOM     27  C   UNL A   1      39.283  24.720  26.552  1.00  0.00     0.014 A 
ATOM     28  C   UNL A   1      41.200  25.157  28.501  1.00  0.00     0.010 A 
ATOM     29  C   UNL A   1      39.467  26.007  27.055  1.00  0.00     0.010 A 
ATOM     30  C   UNL A   1      40.396  26.216  28.068  1.00  0.00    -0.014 A 
BRANCH  30  31
ATOM     31  C   UNL A   1      40.605  27.513  28.706  1.00  0.00     0.031 A 
ATOM     32  C   UNL A   1      41.718  28.340  28.162  1.00  0.00     0.074 A 
ATOM     33  C   UNL A   1      39.853  27.999  29.712  1.00  0.00     0.049 A 
ATOM     34  N   UNL A   1      42.827  28.665  28.745  1.00  0.00    -0.248 NA
ATOM     35  C   UNL A   1      41.624  28.787  26.767  1.00  0.00     0.031 C 
ATOM     36  C   UNL A   1      38.579  27.498  30.228  1.00  0.00     0.029 A 
ATOM     37  N   UNL A   1      40.060  29.134  30.441  1.00  0.00    -0.354 N 
ATOM     38  C   UNL A   1      43.505  29.503  27.862  1.00  0.00     0.074 A 
ATOM     39  C   UNL A   1      42.774  29.448  26.620  1.00  0.00     0.031 C 
ATOM     40  C   UNL A   1      38.027  28.438  31.028  1.00  0.00     0.029 A 
ATOM     41  C   UNL A   1      38.962  29.540  31.182  1.00  0.00     0.049 A 
ATOM     42  H   UNL A   1      40.914  29.621  30.440  1.00  0.00     0.167 HD
ATOM     43  C   UNL A   1      44.532  30.305  28.262  1.00  0.00     0.037 A 
ATOM     44  C   UNL A   1      38.807  30.733  31.809  1.00  0.00     0.037 A 
ATOM     45  C   UNL A   1      45.054  29.904  29.543  1.00  0.00     0.049 A 
ATOM     46  C   UNL A   1      40.169  31.270  32.084  1.00  0.00     0.074 A 
ATOM     47  C   UNL A   1      45.621  28.745  30.038  1.00  0.00     0.029 A 
ATOM     48  N   UNL A   1      44.735  30.656  30.648  1.00  0.00    -0.354 N 
ATOM     49  N   UNL A   1      41.012  30.731  32.923  1.00  0.00    -0.248 NA
ATOM     50  C   UNL A   1      40.761  32.172  31.106  1.00  0.00     0.031 C 
ATOM     51  C   UNL A   1      45.146  28.645  31.377  1.00  0.00     0.029 A 
ATOM     52  C   UNL A   1      44.356  29.770  31.623  1.00  0.00     0.049 A 
ATOM     53  H   UNL A   1      44.770  31.637  30.724  1.00  0.00     0.167 HD
ATOM     54  C   UNL A   1      42.257  30.880  32.325  1.00  0.00     0.074 A 
ATOM     55  C   UNL A   1      42.050  31.859  31.262  1.00  0.00     0.031 C 
ATOM     56  C   UNL A   1      43.280  30.005  32.562  1.00  0.00     0.037 A 
BRANCH  43  57
ATOM     57  C   UNL A   1      44.890  31.630  27.634  1.00  0.00     0.058 A 
ATOM     58  C   UNL A   1      46.098  31.762  26.918  1.00  0.00     0.135 A 
ATOM     59  C   UNL A   1      44.234  32.839  27.950  1.00  0.00     0.135 A 
ATOM     60  F   UNL A   1      46.809  30.678  26.566  1.00  0.00    -0.206 F 
ATOM     61  C   UNL A   1      46.655  33.005  26.612  1.00  0.00     0.059 A 
ATOM     62  C   UNL A   1      44.743  34.087  27.608  1.00  0.00     0.059 A 
ATOM     63  F   UNL A   1      43.120  32.867  28.693  1.00  0.00    -0.206 F 
ATOM     64  C   UNL A   1      45.977  34.163  26.983  1.00  0.00     0.060 A 
BRANCH  64  65
ATOM     65  S   UNL A   1      46.761  35.764  26.723  1.00  0.00     0.124 S 
ATOM     66  O   UNL A   1      47.509  35.925  27.964  1.00  0.00    -0.237 OA
ATOM     67  O   UNL A   1      47.556  35.523  25.523  1.00  0.00    -0.237 OA
ATOM     68  O   UNL A   1      45.628  36.667  26.546  1.00  0.00    -0.744 OA
ENDBRANCH  64  65
ENDBRANCH  43  57
BRANCH  44  69
ATOM     69  C   UNL A   1      37.571  31.562  31.836  1.00  0.00     0.058 A 
ATOM     70  C   UNL A   1      36.896  31.839  33.038  1.00  0.00     0.135 A 
ATOM     71  C   UNL A   1      37.165  32.315  30.714  1.00  0.00     0.135 A 
ATOM     72  F   UNL A   1      37.236  31.198  34.167  1.00  0.00    -0.206 F 
ATOM     73  C   UNL A   1      35.903  32.824  33.127  1.00  0.00     0.059 A 
ATOM     74  C   UNL A   1      36.168  33.287  30.774  1.00  0.00     0.059 A 
ATOM     75  F   UNL A   1      37.786  32.199  29.531  1.00  0.00    -0.206 F 
ATOM     76  C   UNL A   1      35.558  33.554  31.989  1.00  0.00     0.060 A 
BRANCH  76  77
ATOM     77  S   UNL A   1      34.389  34.927  32.125  1.00  0.00     0.124 S 
ATOM     78  O   UNL A   1      33.276  34.308  32.834  1.00  0.00    -0.237 OA
ATOM     79  O   UNL A   1      35.159  35.911  32.877  1.00  0.00    -0.237 OA
ATOM     80  O   UNL A   1      34.121  35.282  30.733  1.00  0.00    -0.744 OA
ENDBRANCH  76  77
ENDBRANCH  44  69
BRANCH  56  81
ATOM     81  C   UNL A   1      43.163  29.024  33.701  1.00  0.00     0.058 A 
ATOM     82  C   UNL A   1      43.525  29.314  35.028  1.00  0.00     0.135 A 
ATOM     83  C   UNL A   1      42.474  27.821  33.476  1.00  0.00     0.135 A 
ATOM     84  F   UNL A   1      44.088  30.486  35.351  1.00  0.00    -0.206 F 
ATOM     85  C   UNL A   1      43.242  28.435  36.076  1.00  0.00     0.059 A 
ATOM     86  C   UNL A   1      42.152  26.945  34.510  1.00  0.00     0.059 A 
ATOM     87  F   UNL A   1      42.043  27.512  32.241  1.00  0.00    -0.206 F 
ATOM     88  C   UNL A   1      42.546  27.257  35.809  1.00  0.00     0.060 A 
BRANCH  88  89
ATOM     89  S   UNL A   1      42.081  26.180  37.183  1.00  0.00     0.124 S 
ATOM     90  O   UNL A   1      43.126  26.468  38.164  1.00  0.00    -0.237 OA
ATOM     91  O   UNL A   1      40.744  26.668  37.526  1.00  0.00    -0.237 OA
ATOM     92  O   UNL A   1      42.118  24.847  36.605  1.00  0.00    -0.744 OA
ENDBRANCH  88  89
ENDBRANCH  56  81
ENDBRANCH  30  31
ENDBRANCH  22  25
ENDBRANCH  20  21
ENDBRANCH   1  20
TORSDOF 16
ENDMDL
MODEL 3
REMARK VINA RESULT:     -11.2      3.068     11.679
REMARK SMILES O=C(Cn1ccc2ccc(CO)cc21)NCCCNC(=O)c1ccc(-c2c3nc(c(-c4c(F)cc(S(=O)(=O)[O-])cc4F)c4ccc([nH]4)c(-c4c(F)cc(S(=O)(=O)[O-])cc4F)c4nc(c(-c5c(F)cc(S(=O)(=O)[O-])cc5F)c5ccc2[nH]5)C=C4)C=C3)cc1
REMARK SMILES IDX 17 1 16 2 15 3 1 4 2 5 3 7 4 8 5 9 14 10 6 11 7 12 13 13
REMARK SMILES IDX 8 14 10 15 9 16 11 17 12 18 18 20 19 21 20 22 21 24 22 25
REMARK SMILES IDX 23 26 87 27 24 28 86 29 25 30 26 31 27 32 80 33 28 34 85 35
REMARK SMILES IDX 79 36 81 37 29 38 84 39 78 40 77 41 30 43 64 44 43 45 63 46
REMARK SMILES IDX 44 47 47 48 62 49 82 50 45 51 46 52 61 54 83 55 48 56 31 57
REMARK SMILES IDX 32 58 41 59 33 60 34 61 40 62 42 63 35 64 36 65 37 66 38 67
REMARK SMILES IDX 39 68 65 69 66 70 75 71 67 72 68 73 74 74 76 75 69 76 70 77
REMARK SMILES IDX 71 78 72 79 73 80 49 81 50 82 59 83 51 84 52 85 58 86 60 87
REMARK SMILES IDX 53 88 54 89 55 90 56 91 57 92
REMARK H PARENT 15 6 12 19 19 23 81 42 47 53
REMARK Flexibility Score: inf
ROOT
ATOM      1  C   UNL A   1      42.305  19.397  26.182  1.00  0.00     0.042 C 
ENDROOT
BRANCH   1   2
ATOM      2  C   UNL A   1      43.574  19.308  25.344  1.00  0.00     0.117 C 
BRANCH   2   3
ATOM      3  N   UNL A   1      44.586  20.279  25.720  1.00  0.00    -0.354 N 
ATOM      4  O   UNL A   1      44.514  21.475  23.762  1.00  0.00    -0.273 OA
ATOM      5  C   UNL A   1      44.890  21.366  24.926  1.00  0.00     0.239 C 
ATOM      6  H   UNL A   1      45.072  20.156  26.568  1.00  0.00     0.163 HD
BRANCH   5   7
ATOM      7  C   UNL A   1      45.773  22.416  25.561  1.00  0.00     0.222 C 
BRANCH   7   8
ATOM      8  N   UNL A   1      45.272  23.792  25.558  1.00  0.00    -0.338 N 
ATOM      9  C   UNL A   1      43.971  24.082  25.910  1.00  0.00     0.087 A 
ATOM     10  C   UNL A   1      45.941  24.963  25.248  1.00  0.00     0.049 A 
ATOM     11  C   UNL A   1      43.780  25.436  25.779  1.00  0.00     0.028 A 
ATOM     12  C   UNL A   1      45.006  26.001  25.341  1.00  0.00    -0.000 A 
ATOM     13  C   UNL A   1      47.271  25.225  24.870  1.00  0.00     0.033 A 
ATOM     14  C   UNL A   1      45.399  27.316  25.021  1.00  0.00     0.011 A 
ATOM     15  C   UNL A   1      47.638  26.530  24.499  1.00  0.00    -0.021 A 
ATOM     16  C   UNL A   1      46.705  27.565  24.586  1.00  0.00     0.007 A 
BRANCH  15  17
ATOM     17  C   UNL A   1      49.032  26.795  23.985  1.00  0.00     0.191 C 
BRANCH  17  18
ATOM     18  O   UNL A   1      49.094  28.021  23.271  1.00  0.00    -0.392 OA
ATOM     19  H   UNL A   1      49.523  27.874  22.413  1.00  0.00     0.211 HD
ENDBRANCH  17  18
ENDBRANCH  15  17
ENDBRANCH   7   8
ENDBRANCH   5   7
ENDBRANCH   2   3
ENDBRANCH   1   2
BRANCH   1  20
ATOM     20  C   UNL A   1      41.867  20.820  26.530  1.00  0.00     0.118 C 
BRANCH  20  21
ATOM     21  N   UNL A   1      40.433  21.042  26.508  1.00  0.00    -0.352 N 
ATOM     22  C   UNL A   1      39.633  22.152  26.576  1.00  0.00     0.251 C 
ATOM     23  H   UNL A   1      39.919  20.207  26.425  1.00  0.00     0.163 HD
ATOM     24  O   UNL A   1      38.451  21.977  26.263  1.00  0.00    -0.269 OA
BRANCH  22  25
ATOM     25  C   UNL A   1      40.060  23.498  27.048  1.00  0.00     0.039 A 
ATOM     26  C   UNL A   1      41.041  23.740  28.008  1.00  0.00     0.014 A 
ATOM     27  C   UNL A   1      39.336  24.598  26.543  1.00  0.00     0.014 A 
ATOM     28  C   UNL A   1      41.226  25.020  28.520  1.00  0.00     0.010 A 
ATOM     29  C   UNL A   1      39.531  25.886  27.039  1.00  0.00     0.010 A 
ATOM     30  C   UNL A   1      40.446  26.088  28.066  1.00  0.00    -0.014 A 
BRANCH  30  31
ATOM     31  C   UNL A   1      40.664  27.386  28.698  1.00  0.00     0.031 A 
ATOM     32  C   UNL A   1      41.777  28.207  28.144  1.00  0.00     0.074 A 
ATOM     33  C   UNL A   1      39.920  27.879  29.707  1.00  0.00     0.049 A 
ATOM     34  N   UNL A   1      42.891  28.530  28.720  1.00  0.00    -0.248 NA
ATOM     35  C   UNL A   1      41.676  28.649  26.748  1.00  0.00     0.031 C 
ATOM     36  C   UNL A   1      38.647  27.384  30.233  1.00  0.00     0.029 A 
ATOM     37  N   UNL A   1      40.135  29.015  30.431  1.00  0.00    -0.354 N 
ATOM     38  C   UNL A   1      43.567  29.362  27.829  1.00  0.00     0.074 A 
ATOM     39  C   UNL A   1      42.827  29.305  26.592  1.00  0.00     0.031 C 
ATOM     40  C   UNL A   1      38.103  28.330  31.032  1.00  0.00     0.029 A 
ATOM     41  C   UNL A   1      39.044  29.429  31.177  1.00  0.00     0.049 A 
ATOM     42  H   UNL A   1      40.992  29.500  30.423  1.00  0.00     0.167 HD
ATOM     43  C   UNL A   1      44.599  30.161  28.220  1.00  0.00     0.037 A 
ATOM     44  C   UNL A   1      38.898  30.625  31.800  1.00  0.00     0.037 A 
ATOM     45  C   UNL A   1      45.127  29.763  29.499  1.00  0.00     0.049 A 
ATOM     46  C   UNL A   1      40.263  31.157  32.064  1.00  0.00     0.074 A 
ATOM     47  C   UNL A   1      45.693  28.604  29.995  1.00  0.00     0.029 A 
ATOM     48  N   UNL A   1      44.817  30.520  30.603  1.00  0.00    -0.354 N 
ATOM     49  N   UNL A   1      41.109  30.618  32.901  1.00  0.00    -0.248 NA
ATOM     50  C   UNL A   1      40.852  32.054  31.080  1.00  0.00     0.031 C 
ATOM     51  C   UNL A   1      45.226  28.510  31.337  1.00  0.00     0.029 A 
ATOM     52  C   UNL A   1      44.442  29.639  31.584  1.00  0.00     0.049 A 
ATOM     53  H   UNL A   1      44.857  31.502  30.676  1.00  0.00     0.167 HD
ATOM     54  C   UNL A   1      42.351  30.760  32.295  1.00  0.00     0.074 A 
ATOM     55  C   UNL A   1      42.141  31.736  31.229  1.00  0.00     0.031 C 
ATOM     56  C   UNL A   1      43.372  29.882  32.528  1.00  0.00     0.037 A 
BRANCH  43  57
ATOM     57  C   UNL A   1      44.958  31.482  27.585  1.00  0.00     0.058 A 
ATOM     58  C   UNL A   1      46.183  31.619  26.897  1.00  0.00     0.135 A 
ATOM     59  C   UNL A   1      44.282  32.688  27.871  1.00  0.00     0.135 A 
ATOM     60  F   UNL A   1      46.913  30.539  26.576  1.00  0.00    -0.206 F 
ATOM     61  C   UNL A   1      46.733  32.864  26.590  1.00  0.00     0.059 A 
ATOM     62  C   UNL A   1      44.786  33.937  27.526  1.00  0.00     0.059 A 
ATOM     63  F   UNL A   1      43.150  32.713  28.585  1.00  0.00    -0.206 F 
ATOM     64  C   UNL A   1      46.034  34.019  26.931  1.00  0.00     0.060 A 
BRANCH  64  65
ATOM     65  S   UNL A   1      46.807  35.626  26.670  1.00  0.00     0.124 S 
ATOM     66  O   UNL A   1      47.592  35.770  27.890  1.00  0.00    -0.237 OA
ATOM     67  O   UNL A   1      47.567  35.403  25.444  1.00  0.00    -0.237 OA
ATOM     68  O   UNL A   1      45.668  36.529  26.540  1.00  0.00    -0.744 OA
ENDBRANCH  64  65
ENDBRANCH  43  57
BRANCH  44  69
ATOM     69  C   UNL A   1      37.665  31.459  31.832  1.00  0.00     0.058 A 
ATOM     70  C   UNL A   1      36.993  31.735  33.036  1.00  0.00     0.135 A 
ATOM     71  C   UNL A   1      37.260  32.217  30.713  1.00  0.00     0.135 A 
ATOM     72  F   UNL A   1      37.333  31.090  34.162  1.00  0.00    -0.206 F 
ATOM     73  C   UNL A   1      36.005  32.724  33.129  1.00  0.00     0.059 A 
ATOM     74  C   UNL A   1      36.267  33.192  30.777  1.00  0.00     0.059 A 
ATOM     75  F   UNL A   1      37.879  32.101  29.528  1.00  0.00    -0.206 F 
ATOM     76  C   UNL A   1      35.660  33.459  31.994  1.00  0.00     0.060 A 
BRANCH  76  77
ATOM     77  S   UNL A   1      34.498  34.836  32.135  1.00  0.00     0.124 S 
ATOM     78  O   UNL A   1      34.246  35.164  30.737  1.00  0.00    -0.237 OA
ATOM     79  O   UNL A   1      33.387  34.227  32.859  1.00  0.00    -0.237 OA
ATOM     80  O   UNL A   1      35.250  35.839  32.885  1.00  0.00    -0.744 OA
ENDBRANCH  76  77
ENDBRANCH  44  69
BRANCH  56  81
ATOM     81  C   UNL A   1      43.258  28.905  33.672  1.00  0.00     0.058 A 
ATOM     82  C   UNL A   1      43.662  29.186  34.989  1.00  0.00     0.135 A 
ATOM     83  C   UNL A   1      42.531  27.721  33.467  1.00  0.00     0.135 A 
ATOM     84  F   UNL A   1      44.265  30.344  35.295  1.00  0.00    -0.206 F 
ATOM     85  C   UNL A   1      43.383  28.317  36.045  1.00  0.00     0.059 A 
ATOM     86  C   UNL A   1      42.212  26.855  34.510  1.00  0.00     0.059 A 
ATOM     87  F   UNL A   1      42.061  27.423  32.243  1.00  0.00    -0.206 F 
ATOM     88  C   UNL A   1      42.648  27.158  35.798  1.00  0.00     0.060 A 
BRANCH  88  89
ATOM     89  S   UNL A   1      42.190  26.095  37.186  1.00  0.00     0.124 S 
ATOM     90  O   UNL A   1      43.204  26.439  38.182  1.00  0.00    -0.237 OA
ATOM     91  O   UNL A   1      40.830  26.544  37.489  1.00  0.00    -0.237 OA
ATOM     92  O   UNL A   1      42.286  24.752  36.638  1.00  0.00    -0.744 OA
ENDBRANCH  88  89
ENDBRANCH  56  81
ENDBRANCH  30  31
ENDBRANCH  22  25
ENDBRANCH  20  21
ENDBRANCH   1  20
TORSDOF 16
ENDMDL
