MODEL 1
REMARK VINA RESULT:     -11.2      0.000      0.000
REMARK SMILES Cc1ccoc1C(=O)N1CCO[C@H](CC(=O)NCCCNC(=O)c2ccc(-c3c4nc(c(-c5c(F)cc(S(=O)(=O)[O-])cc5F)c5ccc([nH]5)c(-c5c(F)cc(S(=O)(=O)[O-])cc5F)c5nc(c(-c6c(F)cc(S(=O)(=O)[O-])cc6F)c6ccc3[nH]6)C=C5)C=C4)cc2)C1
REMARK SMILES IDX 19 1 18 2 17 3 15 4 16 5 14 7 13 8 9 9 10 10 90 11 11 12
REMARK SMILES IDX 12 13 7 14 8 15 6 16 1 17 2 18 3 19 4 20 5 21 20 22 21 23
REMARK SMILES IDX 22 24 23 26 24 27 25 28 89 29 26 30 88 31 27 32 28 33 29 34
REMARK SMILES IDX 82 35 30 36 87 37 81 38 83 39 31 40 86 41 80 42 79 43 32 45
REMARK SMILES IDX 66 46 45 47 65 48 46 49 49 50 64 51 84 52 47 53 48 54 63 56
REMARK SMILES IDX 85 57 50 58 33 59 34 60 43 61 35 62 36 63 42 64 44 65 37 66
REMARK SMILES IDX 38 67 39 68 40 69 41 70 67 71 68 72 77 73 69 74 70 75 76 76
REMARK SMILES IDX 78 77 71 78 72 79 73 80 74 81 75 82 51 83 52 84 61 85 53 86
REMARK SMILES IDX 54 87 60 88 62 89 55 90 56 91 57 92 58 93 59 94
REMARK H PARENT 17 6 21 25 83 44 49 55
REMARK Flexibility Score: inf
ROOT
ATOM      1  C   UNL A   1      33.122  27.699  26.886  1.00  0.00     0.042 C 
ENDROOT
BRANCH   1   2
ATOM      2  C   UNL A   1      31.880  27.193  26.168  1.00  0.00     0.117 C 
BRANCH   2   3
ATOM      3  N   UNL A   1      31.326  26.037  26.845  1.00  0.00    -0.356 N 
ATOM      4  C   UNL A   1      30.998  24.828  26.318  1.00  0.00     0.222 C 
ATOM      5  O   UNL A   1      30.355  24.028  26.996  1.00  0.00    -0.275 OA
ATOM      6  H   UNL A   1      31.168  26.140  27.812  1.00  0.00     0.163 HD
BRANCH   4   7
ATOM      7  C   UNL A   1      31.502  24.465  24.947  1.00  0.00     0.133 C 
BRANCH   7   8
ATOM      8  C   UNL A   1      32.963  23.991  24.911  1.00  0.00     0.147 C 
ATOM      9  N   UNL A   1      33.098  24.510  22.559  1.00  0.00    -0.331 N 
ATOM     10  C   UNL A   1      33.214  23.117  22.157  1.00  0.00     0.148 C 
ATOM     11  C   UNL A   1      33.726  24.789  23.847  1.00  0.00     0.152 C 
ATOM     12  C   UNL A   1      32.801  22.156  23.291  1.00  0.00     0.182 C 
ATOM     13  O   UNL A   1      33.119  22.582  24.629  1.00  0.00    -0.374 OA
BRANCH   9  14
ATOM     14  C   UNL A   1      32.832  25.574  21.709  1.00  0.00     0.289 C 
ATOM     15  O   UNL A   1      33.195  25.487  20.532  1.00  0.00    -0.265 OA
BRANCH  14  16
ATOM     16  C   UNL A   1      32.294  26.826  22.250  1.00  0.00     0.194 A 
ATOM     17  C   UNL A   1      34.101  28.716  22.537  1.00  0.00     0.049 C 
ATOM     18  C   UNL A   1      32.750  28.114  22.555  1.00  0.00     0.000 A 
ATOM     19  C   UNL A   1      31.591  28.890  22.870  1.00  0.00     0.046 A 
ATOM     20  C   UNL A   1      30.515  28.057  22.760  1.00  0.00     0.196 A 
ATOM     21  O   UNL A   1      30.922  26.820  22.412  1.00  0.00    -0.459 OA
ENDBRANCH  14  16
ENDBRANCH   9  14
ENDBRANCH   7   8
ENDBRANCH   4   7
ENDBRANCH   2   3
ENDBRANCH   1   2
BRANCH   1  22
ATOM     22  C   UNL A   1      33.945  28.653  26.030  1.00  0.00     0.118 C 
BRANCH  22  23
ATOM     23  N   UNL A   1      33.728  30.048  26.396  1.00  0.00    -0.352 N 
ATOM     24  C   UNL A   1      34.377  30.809  27.332  1.00  0.00     0.251 C 
ATOM     25  H   UNL A   1      33.012  30.508  25.900  1.00  0.00     0.163 HD
ATOM     26  O   UNL A   1      33.918  31.905  27.650  1.00  0.00    -0.269 OA
BRANCH  24  27
ATOM     27  C   UNL A   1      35.611  30.302  27.963  1.00  0.00     0.039 A 
ATOM     28  C   UNL A   1      36.830  30.465  27.301  1.00  0.00     0.014 A 
ATOM     29  C   UNL A   1      35.564  29.671  29.210  1.00  0.00     0.014 A 
ATOM     30  C   UNL A   1      38.009  30.048  27.917  1.00  0.00     0.010 A 
ATOM     31  C   UNL A   1      36.747  29.336  29.859  1.00  0.00     0.010 A 
ATOM     32  C   UNL A   1      37.981  29.512  29.216  1.00  0.00    -0.014 A 
BRANCH  32  33
ATOM     33  C   UNL A   1      39.227  29.116  29.918  1.00  0.00     0.031 A 
ATOM     34  C   UNL A   1      39.667  29.866  31.146  1.00  0.00     0.074 A 
ATOM     35  C   UNL A   1      39.996  28.132  29.411  1.00  0.00     0.049 A 
ATOM     36  N   UNL A   1      40.761  29.731  31.850  1.00  0.00    -0.248 NA
ATOM     37  C   UNL A   1      38.771  30.930  31.631  1.00  0.00     0.031 C 
ATOM     38  C   UNL A   1      39.695  27.362  28.201  1.00  0.00     0.029 A 
ATOM     39  N   UNL A   1      41.193  27.619  29.841  1.00  0.00    -0.354 N 
ATOM     40  C   UNL A   1      40.693  30.698  32.846  1.00  0.00     0.074 A 
ATOM     41  C   UNL A   1      39.479  31.452  32.619  1.00  0.00     0.031 C 
ATOM     42  C   UNL A   1      40.670  26.460  28.001  1.00  0.00     0.029 A 
ATOM     43  C   UNL A   1      41.685  26.617  29.038  1.00  0.00     0.049 A 
ATOM     44  H   UNL A   1      41.656  27.937  30.649  1.00  0.00     0.167 HD
ATOM     45  C   UNL A   1      41.550  30.922  33.869  1.00  0.00     0.037 A 
ATOM     46  C   UNL A   1      42.831  25.913  29.121  1.00  0.00     0.037 A 
ATOM     47  C   UNL A   1      42.747  30.153  34.094  1.00  0.00     0.049 A 
ATOM     48  C   UNL A   1      43.778  26.189  30.257  1.00  0.00     0.074 A 
ATOM     49  C   UNL A   1      43.657  30.263  35.130  1.00  0.00     0.029 A 
ATOM     50  N   UNL A   1      43.204  29.136  33.266  1.00  0.00    -0.354 N 
ATOM     51  N   UNL A   1      43.668  27.066  31.227  1.00  0.00    -0.248 NA
ATOM     52  C   UNL A   1      45.000  25.377  30.315  1.00  0.00     0.031 C 
ATOM     53  C   UNL A   1      44.692  29.350  34.900  1.00  0.00     0.029 A 
ATOM     54  C   UNL A   1      44.396  28.627  33.757  1.00  0.00     0.049 A 
ATOM     55  H   UNL A   1      42.748  28.824  32.452  1.00  0.00     0.167 HD
ATOM     56  C   UNL A   1      44.791  26.888  32.028  1.00  0.00     0.074 A 
ATOM     57  C   UNL A   1      45.562  25.816  31.434  1.00  0.00     0.031 C 
ATOM     58  C   UNL A   1      45.148  27.550  33.158  1.00  0.00     0.037 A 
BRANCH  45  59
ATOM     59  C   UNL A   1      41.225  32.043  34.819  1.00  0.00     0.058 A 
ATOM     60  C   UNL A   1      40.355  31.863  35.907  1.00  0.00     0.135 A 
ATOM     61  C   UNL A   1      41.807  33.311  34.653  1.00  0.00     0.135 A 
ATOM     62  F   UNL A   1      39.758  30.677  36.107  1.00  0.00    -0.206 F 
ATOM     63  C   UNL A   1      40.042  32.907  36.771  1.00  0.00     0.059 A 
ATOM     64  C   UNL A   1      41.535  34.361  35.525  1.00  0.00     0.059 A 
ATOM     65  F   UNL A   1      42.647  33.542  33.631  1.00  0.00    -0.206 F 
ATOM     66  C   UNL A   1      40.636  34.155  36.570  1.00  0.00     0.060 A 
BRANCH  66  67
ATOM     67  S   UNL A   1      40.214  35.500  37.697  1.00  0.00     0.124 S 
ATOM     68  O   UNL A   1      39.824  36.550  36.761  1.00  0.00    -0.237 OA
ATOM     69  O   UNL A   1      39.131  34.919  38.484  1.00  0.00    -0.237 OA
ATOM     70  O   UNL A   1      41.457  35.739  38.424  1.00  0.00    -0.744 OA
ENDBRANCH  66  67
ENDBRANCH  45  59
BRANCH  46  71
ATOM     71  C   UNL A   1      43.129  24.863  28.110  1.00  0.00     0.058 A 
ATOM     72  C   UNL A   1      43.735  25.190  26.888  1.00  0.00     0.135 A 
ATOM     73  C   UNL A   1      42.836  23.511  28.352  1.00  0.00     0.135 A 
ATOM     74  F   UNL A   1      44.028  26.469  26.606  1.00  0.00    -0.206 F 
ATOM     75  C   UNL A   1      44.031  24.219  25.936  1.00  0.00     0.059 A 
ATOM     76  C   UNL A   1      43.148  22.519  27.428  1.00  0.00     0.059 A 
ATOM     77  F   UNL A   1      42.272  23.143  29.512  1.00  0.00    -0.206 F 
ATOM     78  C   UNL A   1      43.738  22.884  26.219  1.00  0.00     0.060 A 
BRANCH  78  79
ATOM     79  S   UNL A   1      44.180  21.626  25.001  1.00  0.00     0.124 S 
ATOM     80  O   UNL A   1      45.544  21.298  25.397  1.00  0.00    -0.237 OA
ATOM     81  O   UNL A   1      43.177  20.596  25.249  1.00  0.00    -0.237 OA
ATOM     82  O   UNL A   1      44.043  22.328  23.728  1.00  0.00    -0.744 OA
ENDBRANCH  78  79
ENDBRANCH  46  71
BRANCH  58  83
ATOM     83  C   UNL A   1      46.405  27.108  33.856  1.00  0.00     0.058 A 
ATOM     84  C   UNL A   1      47.653  27.684  33.574  1.00  0.00     0.135 A 
ATOM     85  C   UNL A   1      46.346  26.135  34.868  1.00  0.00     0.135 A 
ATOM     86  F   UNL A   1      47.767  28.613  32.612  1.00  0.00    -0.206 F 
ATOM     87  C   UNL A   1      48.802  27.296  34.256  1.00  0.00     0.059 A 
ATOM     88  C   UNL A   1      47.475  25.754  35.583  1.00  0.00     0.059 A 
ATOM     89  F   UNL A   1      45.175  25.559  35.184  1.00  0.00    -0.206 F 
ATOM     90  C   UNL A   1      48.702  26.333  35.263  1.00  0.00     0.060 A 
BRANCH  90  91
ATOM     91  S   UNL A   1      50.193  25.870  36.169  1.00  0.00     0.124 S 
ATOM     92  O   UNL A   1      50.264  26.923  37.177  1.00  0.00    -0.237 OA
ATOM     93  O   UNL A   1      49.857  24.539  36.664  1.00  0.00    -0.237 OA
ATOM     94  O   UNL A   1      51.237  25.908  35.149  1.00  0.00    -0.744 OA
ENDBRANCH  90  91
ENDBRANCH  58  83
ENDBRANCH  32  33
ENDBRANCH  24  27
ENDBRANCH  22  23
ENDBRANCH   1  22
TORSDOF 16
ENDMDL
MODEL 2
REMARK VINA RESULT:     -11.2      2.910      3.675
REMARK SMILES Cc1ccoc1C(=O)N1CCO[C@H](CC(=O)NCCCNC(=O)c2ccc(-c3c4nc(c(-c5c(F)cc(S(=O)(=O)[O-])cc5F)c5ccc([nH]5)c(-c5c(F)cc(S(=O)(=O)[O-])cc5F)c5nc(c(-c6c(F)cc(S(=O)(=O)[O-])cc6F)c6ccc3[nH]6)C=C5)C=C4)cc2)C1
REMARK SMILES IDX 19 1 18 2 17 3 15 4 16 5 14 7 13 8 9 9 10 10 90 11 11 12
REMARK SMILES IDX 12 13 7 14 8 15 6 16 1 17 2 18 3 19 4 20 5 21 20 22 21 23
REMARK SMILES IDX 22 24 23 26 24 27 25 28 89 29 26 30 88 31 27 32 28 33 29 34
REMARK SMILES IDX 82 35 30 36 87 37 81 38 83 39 31 40 86 41 80 42 79 43 32 45
REMARK SMILES IDX 66 46 45 47 65 48 46 49 49 50 64 51 84 52 47 53 48 54 63 56
REMARK SMILES IDX 85 57 50 58 33 59 34 60 43 61 35 62 36 63 42 64 44 65 37 66
REMARK SMILES IDX 38 67 39 68 40 69 41 70 67 71 68 72 77 73 69 74 70 75 76 76
REMARK SMILES IDX 78 77 71 78 72 79 73 80 74 81 75 82 51 83 52 84 61 85 53 86
REMARK SMILES IDX 54 87 60 88 62 89 55 90 56 91 57 92 58 93 59 94
REMARK H PARENT 17 6 21 25 83 44 49 55
REMARK Flexibility Score: inf
ROOT
ATOM      1  C   UNL A   1      32.396  27.815  26.321  1.00  0.00     0.042 C 
ENDROOT
BRANCH   1   2
ATOM      2  C   UNL A   1      32.530  26.358  25.903  1.00  0.00     0.117 C 
BRANCH   2   3
ATOM      3  N   UNL A   1      31.735  25.499  26.758  1.00  0.00    -0.356 N 
ATOM      4  C   UNL A   1      31.677  24.141  26.770  1.00  0.00     0.222 C 
ATOM      5  O   UNL A   1      30.801  23.580  27.426  1.00  0.00    -0.275 OA
ATOM      6  H   UNL A   1      31.164  25.958  27.417  1.00  0.00     0.163 HD
BRANCH   4   7
ATOM      7  C   UNL A   1      32.738  23.357  26.047  1.00  0.00     0.133 C 
BRANCH   7   8
ATOM      8  C   UNL A   1      34.100  23.325  26.755  1.00  0.00     0.147 C 
ATOM      9  N   UNL A   1      35.192  22.751  24.681  1.00  0.00    -0.331 N 
ATOM     10  C   UNL A   1      35.550  21.413  25.126  1.00  0.00     0.148 C 
ATOM     11  C   UNL A   1      35.195  23.734  25.763  1.00  0.00     0.152 C 
ATOM     12  C   UNL A   1      34.752  20.991  26.376  1.00  0.00     0.182 C 
ATOM     13  O   UNL A   1      34.444  22.037  27.316  1.00  0.00    -0.374 OA
BRANCH   9  14
ATOM     14  C   UNL A   1      35.250  23.209  23.373  1.00  0.00     0.289 C 
ATOM     15  O   UNL A   1      36.335  23.159  22.785  1.00  0.00    -0.265 OA
BRANCH  14  16
ATOM     16  C   UNL A   1      34.094  23.888  22.783  1.00  0.00     0.194 A 
ATOM     17  C   UNL A   1      31.951  22.374  22.612  1.00  0.00     0.049 C 
ATOM     18  C   UNL A   1      32.751  23.612  22.500  1.00  0.00     0.000 A 
ATOM     19  C   UNL A   1      32.159  24.849  22.095  1.00  0.00     0.046 A 
ATOM     20  C   UNL A   1      33.147  25.792  22.133  1.00  0.00     0.196 A 
ATOM     21  O   UNL A   1      34.308  25.228  22.521  1.00  0.00    -0.459 OA
ENDBRANCH  14  16
ENDBRANCH   9  14
ENDBRANCH   7   8
ENDBRANCH   4   7
ENDBRANCH   2   3
ENDBRANCH   1   2
BRANCH   1  22
ATOM     22  C   UNL A   1      33.597  28.309  27.115  1.00  0.00     0.118 C 
BRANCH  22  23
ATOM     23  N   UNL A   1      33.488  29.722  27.458  1.00  0.00    -0.352 N 
ATOM     24  C   UNL A   1      34.394  30.534  28.088  1.00  0.00     0.251 C 
ATOM     25  H   UNL A   1      32.642  30.154  27.199  1.00  0.00     0.163 HD
ATOM     26  O   UNL A   1      34.044  31.647  28.480  1.00  0.00    -0.269 OA
BRANCH  24  27
ATOM     27  C   UNL A   1      35.775  30.062  28.307  1.00  0.00     0.039 A 
ATOM     28  C   UNL A   1      36.697  30.150  27.262  1.00  0.00     0.014 A 
ATOM     29  C   UNL A   1      36.159  29.538  29.544  1.00  0.00     0.014 A 
ATOM     30  C   UNL A   1      38.021  29.766  27.478  1.00  0.00     0.010 A 
ATOM     31  C   UNL A   1      37.496  29.240  29.783  1.00  0.00     0.010 A 
ATOM     32  C   UNL A   1      38.439  29.341  28.750  1.00  0.00    -0.014 A 
BRANCH  32  33
ATOM     33  C   UNL A   1      39.853  28.986  29.022  1.00  0.00     0.031 A 
ATOM     34  C   UNL A   1      40.791  30.018  29.586  1.00  0.00     0.074 A 
ATOM     35  C   UNL A   1      40.309  27.760  28.696  1.00  0.00     0.049 A 
ATOM     36  N   UNL A   1      42.076  29.932  29.814  1.00  0.00    -0.248 NA
ATOM     37  C   UNL A   1      40.213  31.333  29.910  1.00  0.00     0.031 C 
ATOM     38  C   UNL A   1      39.504  26.689  28.102  1.00  0.00     0.029 A 
ATOM     39  N   UNL A   1      41.561  27.211  28.805  1.00  0.00    -0.354 N 
ATOM     40  C   UNL A   1      42.462  31.179  30.291  1.00  0.00     0.074 A 
ATOM     41  C   UNL A   1      41.287  32.022  30.263  1.00  0.00     0.031 C 
ATOM     42  C   UNL A   1      40.278  25.607  27.921  1.00  0.00     0.029 A 
ATOM     43  C   UNL A   1      41.640  25.919  28.343  1.00  0.00     0.049 A 
ATOM     44  H   UNL A   1      42.331  27.697  29.180  1.00  0.00     0.167 HD
ATOM     45  C   UNL A   1      43.677  31.577  30.734  1.00  0.00     0.037 A 
ATOM     46  C   UNL A   1      42.694  25.084  28.256  1.00  0.00     0.037 A 
ATOM     47  C   UNL A   1      44.836  30.723  30.773  1.00  0.00     0.049 A 
ATOM     48  C   UNL A   1      44.040  25.552  28.740  1.00  0.00     0.074 A 
ATOM     49  C   UNL A   1      46.101  31.011  31.251  1.00  0.00     0.029 A 
ATOM     50  N   UNL A   1      44.872  29.415  30.309  1.00  0.00    -0.354 N 
ATOM     51  N   UNL A   1      44.374  26.716  29.246  1.00  0.00    -0.248 NA
ATOM     52  C   UNL A   1      45.149  24.595  28.646  1.00  0.00     0.031 C 
ATOM     53  C   UNL A   1      46.916  29.897  31.029  1.00  0.00     0.029 A 
ATOM     54  C   UNL A   1      46.145  28.891  30.470  1.00  0.00     0.049 A 
ATOM     55  H   UNL A   1      44.106  28.931  29.925  1.00  0.00     0.167 HD
ATOM     56  C   UNL A   1      45.725  26.619  29.562  1.00  0.00     0.074 A 
ATOM     57  C   UNL A   1      46.143  25.281  29.197  1.00  0.00     0.031 C 
ATOM     58  C   UNL A   1      46.544  27.552  30.109  1.00  0.00     0.037 A 
BRANCH  45  59
ATOM     59  C   UNL A   1      43.815  32.999  31.208  1.00  0.00     0.058 A 
ATOM     60  C   UNL A   1      44.149  34.044  30.330  1.00  0.00     0.135 A 
ATOM     61  C   UNL A   1      43.591  33.328  32.555  1.00  0.00     0.135 A 
ATOM     62  F   UNL A   1      44.390  33.787  29.035  1.00  0.00    -0.206 F 
ATOM     63  C   UNL A   1      44.295  35.353  30.776  1.00  0.00     0.059 A 
ATOM     64  C   UNL A   1      43.697  34.636  33.017  1.00  0.00     0.059 A 
ATOM     65  F   UNL A   1      43.267  32.371  33.441  1.00  0.00    -0.206 F 
ATOM     66  C   UNL A   1      44.068  35.639  32.124  1.00  0.00     0.060 A 
BRANCH  66  67
ATOM     67  S   UNL A   1      44.268  37.342  32.686  1.00  0.00     0.124 S 
ATOM     68  O   UNL A   1      44.244  38.070  31.421  1.00  0.00    -0.237 OA
ATOM     69  O   UNL A   1      43.101  37.527  33.544  1.00  0.00    -0.237 OA
ATOM     70  O   UNL A   1      45.554  37.326  33.376  1.00  0.00    -0.744 OA
ENDBRANCH  66  67
ENDBRANCH  45  59
BRANCH  46  71
ATOM     71  C   UNL A   1      42.508  23.711  27.713  1.00  0.00     0.058 A 
ATOM     72  C   UNL A   1      42.510  23.477  26.330  1.00  0.00     0.135 A 
ATOM     73  C   UNL A   1      42.348  22.604  28.562  1.00  0.00     0.135 A 
ATOM     74  F   UNL A   1      42.653  24.503  25.477  1.00  0.00    -0.206 F 
ATOM     75  C   UNL A   1      42.349  22.199  25.805  1.00  0.00     0.059 A 
ATOM     76  C   UNL A   1      42.213  21.313  28.062  1.00  0.00     0.059 A 
ATOM     77  F   UNL A   1      42.356  22.771  29.893  1.00  0.00    -0.206 F 
ATOM     78  C   UNL A   1      42.207  21.121  26.682  1.00  0.00     0.060 A 
BRANCH  78  79
ATOM     79  S   UNL A   1      42.057  19.460  25.990  1.00  0.00     0.124 S 
ATOM     80  O   UNL A   1      42.923  19.547  24.821  1.00  0.00    -0.237 OA
ATOM     81  O   UNL A   1      42.545  18.629  27.086  1.00  0.00    -0.237 OA
ATOM     82  O   UNL A   1      40.629  19.339  25.711  1.00  0.00    -0.744 OA
ENDBRANCH  78  79
ENDBRANCH  46  71
BRANCH  58  83
ATOM     83  C   UNL A   1      47.966  27.150  30.392  1.00  0.00     0.058 A 
ATOM     84  C   UNL A   1      49.020  27.494  29.533  1.00  0.00     0.135 A 
ATOM     85  C   UNL A   1      48.283  26.463  31.577  1.00  0.00     0.135 A 
ATOM     86  F   UNL A   1      48.772  28.143  28.385  1.00  0.00    -0.206 F 
ATOM     87  C   UNL A   1      50.336  27.153  29.826  1.00  0.00     0.059 A 
ATOM     88  C   UNL A   1      49.595  26.140  31.905  1.00  0.00     0.059 A 
ATOM     89  F   UNL A   1      47.314  26.119  32.439  1.00  0.00    -0.206 F 
ATOM     90  C   UNL A   1      50.615  26.479  31.018  1.00  0.00     0.060 A 
BRANCH  90  91
ATOM     91  S   UNL A   1      52.332  26.081  31.406  1.00  0.00     0.124 S 
ATOM     92  O   UNL A   1      52.199  24.756  32.004  1.00  0.00    -0.237 OA
ATOM     93  O   UNL A   1      52.967  26.123  30.092  1.00  0.00    -0.237 OA
ATOM     94  O   UNL A   1      52.730  27.145  32.323  1.00  0.00    -0.744 OA
ENDBRANCH  90  91
ENDBRANCH  58  83
ENDBRANCH  32  33
ENDBRANCH  24  27
ENDBRANCH  22  23
ENDBRANCH   1  22
TORSDOF 16
ENDMDL
MODEL 3
REMARK VINA RESULT:     -11.1      4.052      7.196
REMARK SMILES Cc1ccoc1C(=O)N1CCO[C@H](CC(=O)NCCCNC(=O)c2ccc(-c3c4nc(c(-c5c(F)cc(S(=O)(=O)[O-])cc5F)c5ccc([nH]5)c(-c5c(F)cc(S(=O)(=O)[O-])cc5F)c5nc(c(-c6c(F)cc(S(=O)(=O)[O-])cc6F)c6ccc3[nH]6)C=C5)C=C4)cc2)C1
REMARK SMILES IDX 19 1 18 2 17 3 15 4 16 5 14 7 13 8 9 9 10 10 90 11 11 12
REMARK SMILES IDX 12 13 7 14 8 15 6 16 1 17 2 18 3 19 4 20 5 21 20 22 21 23
REMARK SMILES IDX 22 24 23 26 24 27 25 28 89 29 26 30 88 31 27 32 28 33 29 34
REMARK SMILES IDX 82 35 30 36 87 37 81 38 83 39 31 40 86 41 80 42 79 43 32 45
REMARK SMILES IDX 66 46 45 47 65 48 46 49 49 50 64 51 84 52 47 53 48 54 63 56
REMARK SMILES IDX 85 57 50 58 33 59 34 60 43 61 35 62 36 63 42 64 44 65 37 66
REMARK SMILES IDX 38 67 39 68 40 69 41 70 67 71 68 72 77 73 69 74 70 75 76 76
REMARK SMILES IDX 78 77 71 78 72 79 73 80 74 81 75 82 51 83 52 84 61 85 53 86
REMARK SMILES IDX 54 87 60 88 62 89 55 90 56 91 57 92 58 93 59 94
REMARK H PARENT 17 6 21 25 83 44 49 55
REMARK Flexibility Score: inf
ROOT
ATOM      1  C   UNL A   1      33.900  33.464  29.171  1.00  0.00     0.042 C 
ENDROOT
BRANCH   1   2
ATOM      2  C   UNL A   1      34.625  33.567  30.504  1.00  0.00     0.117 C 
BRANCH   2   3
ATOM      3  N   UNL A   1      34.826  32.254  31.086  1.00  0.00    -0.356 N 
ATOM      4  C   UNL A   1      35.595  31.914  32.155  1.00  0.00     0.222 C 
ATOM      5  O   UNL A   1      35.807  30.726  32.391  1.00  0.00    -0.275 OA
ATOM      6  H   UNL A   1      34.343  31.513  30.653  1.00  0.00     0.163 HD
BRANCH   4   7
ATOM      7  C   UNL A   1      36.096  32.998  33.070  1.00  0.00     0.133 C 
BRANCH   7   8
ATOM      8  C   UNL A   1      37.478  33.556  32.699  1.00  0.00     0.147 C 
ATOM      9  N   UNL A   1      38.527  32.101  34.312  1.00  0.00    -0.331 N 
ATOM     10  C   UNL A   1      38.930  33.194  35.183  1.00  0.00     0.148 C 
ATOM     11  C   UNL A   1      38.535  32.463  32.897  1.00  0.00     0.152 C 
ATOM     12  C   UNL A   1      38.177  34.499  34.853  1.00  0.00     0.182 C 
ATOM     13  O   UNL A   1      37.869  34.719  33.464  1.00  0.00    -0.374 OA
BRANCH   9  14
ATOM     14  C   UNL A   1      38.538  30.755  34.649  1.00  0.00     0.289 C 
ATOM     15  O   UNL A   1      38.142  30.432  35.773  1.00  0.00    -0.265 OA
BRANCH  14  16
ATOM     16  C   UNL A   1      39.168  29.781  33.754  1.00  0.00     0.194 A 
ATOM     17  C   UNL A   1      41.779  30.039  33.579  1.00  0.00     0.049 C 
ATOM     18  C   UNL A   1      40.455  29.429  33.331  1.00  0.00     0.000 A 
ATOM     19  C   UNL A   1      40.319  28.219  32.582  1.00  0.00     0.046 A 
ATOM     20  C   UNL A   1      38.989  27.907  32.570  1.00  0.00     0.196 A 
ATOM     21  O   UNL A   1      38.291  28.841  33.247  1.00  0.00    -0.459 OA
ENDBRANCH  14  16
ENDBRANCH   9  14
ENDBRANCH   7   8
ENDBRANCH   4   7
ENDBRANCH   2   3
ENDBRANCH   1   2
BRANCH   1  22
ATOM     22  C   UNL A   1      34.632  32.576  28.173  1.00  0.00     0.118 C 
BRANCH  22  23
ATOM     23  N   UNL A   1      33.956  31.301  27.970  1.00  0.00    -0.352 N 
ATOM     24  C   UNL A   1      34.490  30.045  27.855  1.00  0.00     0.251 C 
ATOM     25  H   UNL A   1      32.974  31.350  27.907  1.00  0.00     0.163 HD
ATOM     26  O   UNL A   1      33.780  29.114  27.476  1.00  0.00    -0.269 OA
BRANCH  24  27
ATOM     27  C   UNL A   1      35.915  29.822  28.167  1.00  0.00     0.039 A 
ATOM     28  C   UNL A   1      36.273  29.404  29.451  1.00  0.00     0.014 A 
ATOM     29  C   UNL A   1      36.896  30.020  27.191  1.00  0.00     0.014 A 
ATOM     30  C   UNL A   1      37.610  29.129  29.737  1.00  0.00     0.010 A 
ATOM     31  C   UNL A   1      38.213  29.661  27.453  1.00  0.00     0.010 A 
ATOM     32  C   UNL A   1      38.586  29.221  28.731  1.00  0.00    -0.014 A 
BRANCH  32  33
ATOM     33  C   UNL A   1      40.005  28.875  28.994  1.00  0.00     0.031 A 
ATOM     34  C   UNL A   1      40.939  29.914  29.554  1.00  0.00     0.074 A 
ATOM     35  C   UNL A   1      40.466  27.654  28.663  1.00  0.00     0.049 A 
ATOM     36  N   UNL A   1      42.226  29.836  29.774  1.00  0.00    -0.248 NA
ATOM     37  C   UNL A   1      40.353  31.224  29.885  1.00  0.00     0.031 C 
ATOM     38  C   UNL A   1      39.666  26.578  28.072  1.00  0.00     0.029 A 
ATOM     39  N   UNL A   1      41.723  27.113  28.764  1.00  0.00    -0.354 N 
ATOM     40  C   UNL A   1      42.606  31.085  30.250  1.00  0.00     0.074 A 
ATOM     41  C   UNL A   1      41.425  31.920  30.232  1.00  0.00     0.031 C 
ATOM     42  C   UNL A   1      40.446  25.501  27.885  1.00  0.00     0.029 A 
ATOM     43  C   UNL A   1      41.809  25.823  28.299  1.00  0.00     0.049 A 
ATOM     44  H   UNL A   1      42.492  27.604  29.134  1.00  0.00     0.167 HD
ATOM     45  C   UNL A   1      43.821  31.491  30.687  1.00  0.00     0.037 A 
ATOM     46  C   UNL A   1      42.867  24.995  28.204  1.00  0.00     0.037 A 
ATOM     47  C   UNL A   1      44.986  30.645  30.717  1.00  0.00     0.049 A 
ATOM     48  C   UNL A   1      44.213  25.472  28.679  1.00  0.00     0.074 A 
ATOM     49  C   UNL A   1      46.252  30.941  31.187  1.00  0.00     0.029 A 
ATOM     50  N   UNL A   1      45.028  29.338  30.250  1.00  0.00    -0.354 N 
ATOM     51  N   UNL A   1      44.543  26.637  29.185  1.00  0.00    -0.248 NA
ATOM     52  C   UNL A   1      45.329  24.523  28.577  1.00  0.00     0.031 C 
ATOM     53  C   UNL A   1      47.074  29.833  30.957  1.00  0.00     0.029 A 
ATOM     54  C   UNL A   1      46.306  28.823  30.401  1.00  0.00     0.049 A 
ATOM     55  H   UNL A   1      44.264  28.849  29.870  1.00  0.00     0.167 HD
ATOM     56  C   UNL A   1      45.896  26.549  29.492  1.00  0.00     0.074 A 
ATOM     57  C   UNL A   1      46.321  25.215  29.122  1.00  0.00     0.031 C 
ATOM     58  C   UNL A   1      46.712  27.487  30.036  1.00  0.00     0.037 A 
BRANCH  45  59
ATOM     59  C   UNL A   1      43.952  32.913  31.162  1.00  0.00     0.058 A 
ATOM     60  C   UNL A   1      44.057  33.988  30.264  1.00  0.00     0.135 A 
ATOM     61  C   UNL A   1      43.952  33.209  32.535  1.00  0.00     0.135 A 
ATOM     62  F   UNL A   1      44.078  33.763  28.941  1.00  0.00    -0.206 F 
ATOM     63  C   UNL A   1      44.197  35.298  30.708  1.00  0.00     0.059 A 
ATOM     64  C   UNL A   1      44.056  34.517  33.002  1.00  0.00     0.059 A 
ATOM     65  F   UNL A   1      43.853  32.223  33.441  1.00  0.00    -0.206 F 
ATOM     66  C   UNL A   1      44.198  35.553  32.081  1.00  0.00     0.060 A 
BRANCH  66  67
ATOM     67  S   UNL A   1      44.387  37.258  32.639  1.00  0.00     0.124 S 
ATOM     68  O   UNL A   1      45.654  37.188  33.362  1.00  0.00    -0.237 OA
ATOM     69  O   UNL A   1      44.417  37.998  31.382  1.00  0.00    -0.237 OA
ATOM     70  O   UNL A   1      43.205  37.480  33.467  1.00  0.00    -0.744 OA
ENDBRANCH  66  67
ENDBRANCH  45  59
BRANCH  46  71
ATOM     71  C   UNL A   1      42.688  23.622  27.659  1.00  0.00     0.058 A 
ATOM     72  C   UNL A   1      42.809  23.371  26.284  1.00  0.00     0.135 A 
ATOM     73  C   UNL A   1      42.415  22.532  28.500  1.00  0.00     0.135 A 
ATOM     74  F   UNL A   1      43.063  24.380  25.438  1.00  0.00    -0.206 F 
ATOM     75  C   UNL A   1      42.656  22.091  25.759  1.00  0.00     0.059 A 
ATOM     76  C   UNL A   1      42.285  21.239  28.003  1.00  0.00     0.059 A 
ATOM     77  F   UNL A   1      42.307  22.715  29.825  1.00  0.00    -0.206 F 
ATOM     78  C   UNL A   1      42.399  21.030  26.629  1.00  0.00     0.060 A 
BRANCH  78  79
ATOM     79  S   UNL A   1      42.260  19.365  25.943  1.00  0.00     0.124 S 
ATOM     80  O   UNL A   1      40.821  19.250  25.738  1.00  0.00    -0.237 OA
ATOM     81  O   UNL A   1      43.072  19.465  24.735  1.00  0.00    -0.237 OA
ATOM     82  O   UNL A   1      42.818  18.520  26.995  1.00  0.00    -0.744 OA
ENDBRANCH  78  79
ENDBRANCH  46  71
BRANCH  58  83
ATOM     83  C   UNL A   1      48.139  27.094  30.309  1.00  0.00     0.058 A 
ATOM     84  C   UNL A   1      49.136  27.187  29.326  1.00  0.00     0.135 A 
ATOM     85  C   UNL A   1      48.523  26.679  31.596  1.00  0.00     0.135 A 
ATOM     86  F   UNL A   1      48.822  27.572  28.079  1.00  0.00    -0.206 F 
ATOM     87  C   UNL A   1      50.459  26.861  29.603  1.00  0.00     0.059 A 
ATOM     88  C   UNL A   1      49.845  26.378  31.903  1.00  0.00     0.059 A 
ATOM     89  F   UNL A   1      47.610  26.583  32.575  1.00  0.00    -0.206 F 
ATOM     90  C   UNL A   1      50.806  26.462  30.896  1.00  0.00     0.060 A 
BRANCH  90  91
ATOM     91  S   UNL A   1      52.534  26.084  31.251  1.00  0.00     0.124 S 
ATOM     92  O   UNL A   1      53.155  26.290  29.946  1.00  0.00    -0.237 OA
ATOM     93  O   UNL A   1      52.866  27.071  32.274  1.00  0.00    -0.237 OA
ATOM     94  O   UNL A   1      52.492  24.700  31.714  1.00  0.00    -0.744 OA
ENDBRANCH  90  91
ENDBRANCH  58  83
ENDBRANCH  32  33
ENDBRANCH  24  27
ENDBRANCH  22  23
ENDBRANCH   1  22
TORSDOF 16
ENDMDL
