MODEL 1
REMARK VINA RESULT:     -12.5      0.000      0.000
REMARK SMILES O=C(NCCCNC(=O)[C@H]1O[C@@H](Oc2c(-c3cc(O)c(O)c(O)c3)oc3cc(O)cc(O)c3c2=O)[C@H](O)[C@@H](O)[C@@H]1O)c1ccc(-c2c3nc(c(-c4c(F)cc(S(=O)(=O)[O-])cc4F)c4ccc([nH]4)c(-c4c(F)cc(S(=O)(=O)[O-])cc4F)c4nc(c(-c5c(F)cc(S(=O)(=O)[O-])cc5F)c5ccc2[nH]5)C=C4)C=C3)cc1
REMARK SMILES IDX 5 1 4 2 3 3 1 4 2 5 42 7 43 8 107 9 44 10 106 11 45 12 46 13
REMARK SMILES IDX 47 14 100 15 48 16 105 17 99 18 101 19 49 20 104 21 98 22
REMARK SMILES IDX 97 23 50 25 84 26 63 27 83 28 64 29 67 30 82 31 102 32 65 33
REMARK SMILES IDX 66 34 81 36 103 37 68 38 51 39 52 40 61 41 53 42 54 43 60 44
REMARK SMILES IDX 62 45 55 46 56 47 57 48 58 49 59 50 85 51 86 52 95 53 87 54
REMARK SMILES IDX 88 55 94 56 96 57 89 58 90 59 91 60 92 61 93 62 69 63 70 64
REMARK SMILES IDX 79 65 71 66 72 67 78 68 80 69 73 70 74 71 75 72 76 73 77 74
REMARK SMILES IDX 6 75 7 76 8 77 9 79 10 80 11 81 40 82 12 83 38 84 36 85
REMARK SMILES IDX 41 86 13 88 14 89 15 90 34 91 25 92 33 93 35 94 26 95 31 96
REMARK SMILES IDX 27 97 30 98 28 99 16 100 17 101 24 102 18 103 22 104 20 105
REMARK SMILES IDX 19 106 23 108 21 110 32 112 29 114 39 116 37 118
REMARK H PARENT 3 6 101 24 67 35 7 78 41 87 19 107 23 109 21 111 32 113 29 115
REMARK H PARENT 39 117 37 119
REMARK Flexibility Score: inf
ROOT
ATOM      1  C   UNL A   1      33.119  28.201  25.817  1.00  0.00     0.042 C 
ENDROOT
BRANCH   1   2
ATOM      2  C   UNL A   1      34.346  28.915  26.351  1.00  0.00     0.118 C 
BRANCH   2   3
ATOM      3  N   UNL A   1      34.037  30.252  26.826  1.00  0.00    -0.352 N 
ATOM      4  O   UNL A   1      34.069  31.989  28.250  1.00  0.00    -0.269 OA
ATOM      5  C   UNL A   1      34.627  30.973  27.832  1.00  0.00     0.251 C 
ATOM      6  H   UNL A   1      33.299  30.705  26.358  1.00  0.00     0.163 HD
BRANCH   5   7
ATOM      7  C   UNL A   1      35.910  30.533  28.424  1.00  0.00     0.039 A 
ATOM      8  C   UNL A   1      37.132  30.992  27.924  1.00  0.00     0.014 A 
ATOM      9  C   UNL A   1      35.889  29.682  29.532  1.00  0.00     0.014 A 
ATOM     10  C   UNL A   1      38.327  30.500  28.439  1.00  0.00     0.010 A 
ATOM     11  C   UNL A   1      37.090  29.267  30.114  1.00  0.00     0.010 A 
ATOM     12  C   UNL A   1      38.320  29.660  29.562  1.00  0.00    -0.014 A 
BRANCH  12  13
ATOM     13  C   UNL A   1      39.601  29.277  30.206  1.00  0.00     0.031 A 
ATOM     14  C   UNL A   1      40.144  30.050  31.374  1.00  0.00     0.074 A 
ATOM     15  C   UNL A   1      40.294  28.238  29.699  1.00  0.00     0.049 A 
ATOM     16  N   UNL A   1      41.281  29.900  32.003  1.00  0.00    -0.248 NA
ATOM     17  C   UNL A   1      39.309  31.143  31.894  1.00  0.00     0.031 C 
ATOM     18  C   UNL A   1      39.871  27.426  28.555  1.00  0.00     0.029 A 
ATOM     19  N   UNL A   1      41.499  27.696  30.063  1.00  0.00    -0.354 N 
ATOM     20  C   UNL A   1      41.312  30.892  32.977  1.00  0.00     0.074 A 
ATOM     21  C   UNL A   1      40.089  31.653  32.837  1.00  0.00     0.031 C 
ATOM     22  C   UNL A   1      40.795  26.485  28.316  1.00  0.00     0.029 A 
ATOM     23  C   UNL A   1      41.907  26.671  29.241  1.00  0.00     0.049 A 
ATOM     24  H   UNL A   1      42.023  28.009  30.836  1.00  0.00     0.167 HD
ATOM     25  C   UNL A   1      42.275  31.139  33.899  1.00  0.00     0.037 A 
ATOM     26  C   UNL A   1      43.063  25.982  29.202  1.00  0.00     0.037 A 
ATOM     27  C   UNL A   1      43.488  30.369  34.021  1.00  0.00     0.049 A 
ATOM     28  C   UNL A   1      44.127  26.290  30.212  1.00  0.00     0.074 A 
ATOM     29  C   UNL A   1      44.503  30.505  34.951  1.00  0.00     0.029 A 
ATOM     30  N   UNL A   1      43.861  29.332  33.174  1.00  0.00    -0.354 N 
ATOM     31  N   UNL A   1      44.119  27.195  31.161  1.00  0.00    -0.248 NA
ATOM     32  C   UNL A   1      45.355  25.488  30.152  1.00  0.00     0.031 C 
ATOM     33  C   UNL A   1      45.515  29.595  34.631  1.00  0.00     0.029 A 
ATOM     34  C   UNL A   1      45.104  28.844  33.541  1.00  0.00     0.049 A 
ATOM     35  H   UNL A   1      43.321  28.995  32.424  1.00  0.00     0.167 HD
ATOM     36  C   UNL A   1      45.332  27.060  31.826  1.00  0.00     0.074 A 
ATOM     37  C   UNL A   1      46.045  25.980  31.174  1.00  0.00     0.031 C 
ATOM     38  C   UNL A   1      45.804  27.764  32.883  1.00  0.00     0.037 A 
BRANCH  25  39
ATOM     39  C   UNL A   1      42.070  32.312  34.822  1.00  0.00     0.058 A 
ATOM     40  C   UNL A   1      41.378  32.194  36.038  1.00  0.00     0.135 A 
ATOM     41  C   UNL A   1      42.582  33.576  34.485  1.00  0.00     0.135 A 
ATOM     42  F   UNL A   1      40.860  31.012  36.410  1.00  0.00    -0.206 F 
ATOM     43  C   UNL A   1      41.155  33.295  36.859  1.00  0.00     0.059 A 
ATOM     44  C   UNL A   1      42.398  34.685  35.307  1.00  0.00     0.059 A 
ATOM     45  F   UNL A   1      43.260  33.749  33.340  1.00  0.00    -0.206 F 
ATOM     46  C   UNL A   1      41.661  34.539  36.480  1.00  0.00     0.060 A 
BRANCH  46  47
ATOM     47  S   UNL A   1      41.319  35.966  37.531  1.00  0.00     0.124 S 
ATOM     48  O   UNL A   1      41.219  35.340  38.846  1.00  0.00    -0.237 OA
ATOM     49  O   UNL A   1      42.497  36.802  37.318  1.00  0.00    -0.237 OA
ATOM     50  O   UNL A   1      40.071  36.496  36.992  1.00  0.00    -0.744 OA
ENDBRANCH  46  47
ENDBRANCH  25  39
BRANCH  26  51
ATOM     51  C   UNL A   1      43.253  24.956  28.144  1.00  0.00     0.058 A 
ATOM     52  C   UNL A   1      43.860  25.273  26.923  1.00  0.00     0.135 A 
ATOM     53  C   UNL A   1      42.907  23.613  28.376  1.00  0.00     0.135 A 
ATOM     54  F   UNL A   1      44.204  26.542  26.654  1.00  0.00    -0.206 F 
ATOM     55  C   UNL A   1      44.127  24.295  25.969  1.00  0.00     0.059 A 
ATOM     56  C   UNL A   1      43.188  22.615  27.450  1.00  0.00     0.059 A 
ATOM     57  F   UNL A   1      42.341  23.256  29.540  1.00  0.00    -0.206 F 
ATOM     58  C   UNL A   1      43.799  22.968  26.249  1.00  0.00     0.060 A 
BRANCH  58  59
ATOM     59  S   UNL A   1      44.237  21.696  25.043  1.00  0.00     0.124 S 
ATOM     60  O   UNL A   1      45.640  21.462  25.359  1.00  0.00    -0.237 OA
ATOM     61  O   UNL A   1      43.316  20.618  25.388  1.00  0.00    -0.237 OA
ATOM     62  O   UNL A   1      43.978  22.344  23.760  1.00  0.00    -0.744 OA
ENDBRANCH  58  59
ENDBRANCH  26  51
BRANCH  38  63
ATOM     63  C   UNL A   1      47.147  27.375  33.437  1.00  0.00     0.058 A 
ATOM     64  C   UNL A   1      47.285  26.370  34.406  1.00  0.00     0.135 A 
ATOM     65  C   UNL A   1      48.318  27.954  32.921  1.00  0.00     0.135 A 
ATOM     66  F   UNL A   1      46.197  25.794  34.942  1.00  0.00    -0.206 F 
ATOM     67  C   UNL A   1      48.538  25.953  34.846  1.00  0.00     0.059 A 
ATOM     68  C   UNL A   1      49.580  27.534  33.325  1.00  0.00     0.059 A 
ATOM     69  F   UNL A   1      48.240  28.918  31.989  1.00  0.00    -0.206 F 
ATOM     70  C   UNL A   1      49.680  26.533  34.289  1.00  0.00     0.060 A 
BRANCH  70  71
ATOM     71  S   UNL A   1      51.299  25.928  34.811  1.00  0.00     0.124 S 
ATOM     72  O   UNL A   1      51.581  24.921  33.792  1.00  0.00    -0.237 OA
ATOM     73  O   UNL A   1      52.117  27.136  34.751  1.00  0.00    -0.237 OA
ATOM     74  O   UNL A   1      51.053  25.411  36.154  1.00  0.00    -0.744 OA
ENDBRANCH  70  71
ENDBRANCH  38  63
ENDBRANCH  12  13
ENDBRANCH   5   7
ENDBRANCH   2   3
ENDBRANCH   1   2
BRANCH   1  75
ATOM     75  C   UNL A   1      32.248  29.051  24.892  1.00  0.00     0.117 C 
BRANCH  75  76
ATOM     76  N   UNL A   1      30.967  28.422  24.592  1.00  0.00    -0.354 N 
ATOM     77  C   UNL A   1      30.689  27.245  23.947  1.00  0.00     0.252 C 
ATOM     78  H   UNL A   1      30.178  28.922  24.901  1.00  0.00     0.163 HD
ATOM     79  O   UNL A   1      29.506  26.980  23.727  1.00  0.00    -0.272 OA
BRANCH  77  80
ATOM     80  C   UNL A   1      31.833  26.281  23.582  1.00  0.00     0.242 C 
ATOM     81  O   UNL A   1      31.840  25.111  24.425  1.00  0.00    -0.324 OA
ATOM     82  C   UNL A   1      31.709  25.787  22.139  1.00  0.00     0.184 C 
ATOM     83  C   UNL A   1      33.030  24.334  24.278  1.00  0.00     0.340 C 
ATOM     84  C   UNL A   1      32.998  25.053  21.791  1.00  0.00     0.181 C 
ATOM     85  C   UNL A   1      33.308  23.965  22.802  1.00  0.00     0.214 C 
BRANCH  82  86
ATOM     86  O   UNL A   1      31.566  26.792  21.150  1.00  0.00    -0.387 OA
ATOM     87  H   UNL A   1      31.040  26.447  20.412  1.00  0.00     0.211 HD
ENDBRANCH  82  86
BRANCH  83  88
ATOM     88  O   UNL A   1      33.074  23.113  25.060  1.00  0.00    -0.454 OA
BRANCH  88  89
ATOM     89  C   UNL A   1      34.321  22.551  25.293  1.00  0.00     0.214 A 
ATOM     90  C   UNL A   1      34.678  21.303  24.915  1.00  0.00     0.181 A 
ATOM     91  C   UNL A   1      35.402  23.467  25.780  1.00  0.00     0.239 A 
ATOM     92  O   UNL A   1      35.922  20.744  25.119  1.00  0.00    -0.452 OA
ATOM     93  C   UNL A   1      36.770  22.894  25.879  1.00  0.00     0.111 A 
ATOM     94  O   UNL A   1      35.151  24.642  26.027  1.00  0.00    -0.285 OA
ATOM     95  C   UNL A   1      36.937  21.547  25.563  1.00  0.00     0.146 A 
ATOM     96  C   UNL A   1      37.901  23.637  26.255  1.00  0.00     0.134 A 
ATOM     97  C   UNL A   1      38.189  20.933  25.653  1.00  0.00     0.094 A 
ATOM     98  C   UNL A   1      39.163  23.032  26.338  1.00  0.00     0.093 A 
ATOM     99  C   UNL A   1      39.292  21.680  26.040  1.00  0.00     0.123 A 
BRANCH  90 100
ATOM    100  C   UNL A   1      33.744  20.345  24.289  1.00  0.00     0.029 A 
ATOM    101  C   UNL A   1      32.800  20.817  23.354  1.00  0.00     0.062 A 
ATOM    102  C   UNL A   1      33.892  18.962  24.484  1.00  0.00     0.062 A 
ATOM    103  C   UNL A   1      32.148  19.913  22.517  1.00  0.00     0.162 A 
ATOM    104  C   UNL A   1      33.181  18.078  23.678  1.00  0.00     0.162 A 
ATOM    105  C   UNL A   1      32.328  18.545  22.684  1.00  0.00     0.200 A 
BRANCH 103 106
ATOM    106  O   UNL A   1      31.447  20.412  21.456  1.00  0.00    -0.504 OA
ATOM    107  H   UNL A   1      30.872  21.141  21.576  1.00  0.00     0.293 HD
ENDBRANCH 103 106
BRANCH 104 108
ATOM    108  O   UNL A   1      33.385  16.735  23.826  1.00  0.00    -0.504 OA
ATOM    109  H   UNL A   1      33.841  16.255  23.163  1.00  0.00     0.293 HD
ENDBRANCH 104 108
BRANCH 105 110
ATOM    110  O   UNL A   1      31.715  17.628  21.875  1.00  0.00    -0.502 OA
ATOM    111  H   UNL A   1      30.809  17.423  21.999  1.00  0.00     0.293 HD
ENDBRANCH 105 110
ENDBRANCH  90 100
BRANCH  96 112
ATOM    112  O   UNL A   1      37.806  24.974  26.522  1.00  0.00    -0.507 OA
ATOM    113  H   UNL A   1      38.204  25.597  25.946  1.00  0.00     0.293 HD
ENDBRANCH  96 112
BRANCH  99 114
ATOM    114  O   UNL A   1      40.495  21.044  26.100  1.00  0.00    -0.508 OA
ATOM    115  H   UNL A   1      41.280  21.502  25.871  1.00  0.00     0.293 HD
ENDBRANCH  99 114
ENDBRANCH  88  89
ENDBRANCH  83  88
BRANCH  84 116
ATOM    116  O   UNL A   1      32.836  24.504  20.464  1.00  0.00    -0.387 OA
ATOM    117  H   UNL A   1      33.285  25.074  19.821  1.00  0.00     0.211 HD
ENDBRANCH  84 116
BRANCH  85 118
ATOM    118  O   UNL A   1      34.632  23.464  22.596  1.00  0.00    -0.384 OA
ATOM    119  H   UNL A   1      35.206  24.183  22.289  1.00  0.00     0.211 HD
ENDBRANCH  85 118
ENDBRANCH  77  80
ENDBRANCH  75  76
ENDBRANCH   1  75
TORSDOF 24
ENDMDL
MODEL 2
REMARK VINA RESULT:     -12.3      5.312     10.850
REMARK SMILES O=C(NCCCNC(=O)[C@H]1O[C@@H](Oc2c(-c3cc(O)c(O)c(O)c3)oc3cc(O)cc(O)c3c2=O)[C@H](O)[C@@H](O)[C@@H]1O)c1ccc(-c2c3nc(c(-c4c(F)cc(S(=O)(=O)[O-])cc4F)c4ccc([nH]4)c(-c4c(F)cc(S(=O)(=O)[O-])cc4F)c4nc(c(-c5c(F)cc(S(=O)(=O)[O-])cc5F)c5ccc2[nH]5)C=C4)C=C3)cc1
REMARK SMILES IDX 5 1 4 2 3 3 1 4 2 5 42 7 43 8 107 9 44 10 106 11 45 12 46 13
REMARK SMILES IDX 47 14 100 15 48 16 105 17 99 18 101 19 49 20 104 21 98 22
REMARK SMILES IDX 97 23 50 25 84 26 63 27 83 28 64 29 67 30 82 31 102 32 65 33
REMARK SMILES IDX 66 34 81 36 103 37 68 38 51 39 52 40 61 41 53 42 54 43 60 44
REMARK SMILES IDX 62 45 55 46 56 47 57 48 58 49 59 50 85 51 86 52 95 53 87 54
REMARK SMILES IDX 88 55 94 56 96 57 89 58 90 59 91 60 92 61 93 62 69 63 70 64
REMARK SMILES IDX 79 65 71 66 72 67 78 68 80 69 73 70 74 71 75 72 76 73 77 74
REMARK SMILES IDX 6 75 7 76 8 77 9 79 10 80 11 81 40 82 12 83 38 84 36 85
REMARK SMILES IDX 41 86 13 88 14 89 15 90 34 91 25 92 33 93 35 94 26 95 31 96
REMARK SMILES IDX 27 97 30 98 28 99 16 100 17 101 24 102 18 103 22 104 20 105
REMARK SMILES IDX 19 106 23 108 21 110 32 112 29 114 39 116 37 118
REMARK H PARENT 3 6 101 24 67 35 7 78 41 87 19 107 23 109 21 111 32 113 29 115
REMARK H PARENT 39 117 37 119
REMARK Flexibility Score: inf
ROOT
ATOM      1  C   UNL A   1      39.327  22.329  26.524  1.00  0.00     0.042 C 
ENDROOT
BRANCH   1   2
ATOM      2  C   UNL A   1      39.617  23.770  26.896  1.00  0.00     0.118 C 
BRANCH   2   3
ATOM      3  N   UNL A   1      40.594  24.378  26.011  1.00  0.00    -0.352 N 
ATOM      4  O   UNL A   1      41.792  26.047  25.103  1.00  0.00    -0.269 OA
ATOM      5  C   UNL A   1      41.173  25.618  26.078  1.00  0.00     0.251 C 
ATOM      6  H   UNL A   1      40.882  23.818  25.254  1.00  0.00     0.163 HD
BRANCH   5   7
ATOM      7  C   UNL A   1      41.045  26.445  27.300  1.00  0.00     0.039 A 
ATOM      8  C   UNL A   1      41.782  27.623  27.455  1.00  0.00     0.014 A 
ATOM      9  C   UNL A   1      40.136  26.060  28.288  1.00  0.00     0.014 A 
ATOM     10  C   UNL A   1      41.711  28.340  28.645  1.00  0.00     0.010 A 
ATOM     11  C   UNL A   1      39.991  26.836  29.441  1.00  0.00     0.010 A 
ATOM     12  C   UNL A   1      40.789  27.974  29.637  1.00  0.00    -0.014 A 
BRANCH  12  13
ATOM     13  C   UNL A   1      40.602  28.840  30.828  1.00  0.00     0.031 A 
ATOM     14  C   UNL A   1      39.544  29.905  30.854  1.00  0.00     0.074 A 
ATOM     15  C   UNL A   1      41.428  28.679  31.880  1.00  0.00     0.049 A 
ATOM     16  N   UNL A   1      39.296  30.798  31.778  1.00  0.00    -0.248 NA
ATOM     17  C   UNL A   1      38.656  29.990  29.684  1.00  0.00     0.031 C 
ATOM     18  C   UNL A   1      42.504  27.687  31.957  1.00  0.00     0.029 A 
ATOM     19  N   UNL A   1      41.507  29.347  33.074  1.00  0.00    -0.354 N 
ATOM     20  C   UNL A   1      38.244  31.566  31.295  1.00  0.00     0.074 A 
ATOM     21  C   UNL A   1      37.916  31.049  29.983  1.00  0.00     0.031 C 
ATOM     22  C   UNL A   1      43.129  27.805  33.137  1.00  0.00     0.029 A 
ATOM     23  C   UNL A   1      42.547  28.925  33.868  1.00  0.00     0.049 A 
ATOM     24  H   UNL A   1      40.882  30.061  33.337  1.00  0.00     0.167 HD
ATOM     25  C   UNL A   1      37.612  32.605  31.895  1.00  0.00     0.037 A 
ATOM     26  C   UNL A   1      43.014  29.407  35.036  1.00  0.00     0.037 A 
ATOM     27  C   UNL A   1      37.955  33.107  33.203  1.00  0.00     0.049 A 
ATOM     28  C   UNL A   1      42.321  30.575  35.669  1.00  0.00     0.074 A 
ATOM     29  C   UNL A   1      37.347  34.121  33.921  1.00  0.00     0.029 A 
ATOM     30  N   UNL A   1      39.010  32.646  33.980  1.00  0.00    -0.354 N 
ATOM     31  N   UNL A   1      41.292  31.257  35.225  1.00  0.00    -0.248 NA
ATOM     32  C   UNL A   1      42.845  31.042  36.959  1.00  0.00     0.031 C 
ATOM     33  C   UNL A   1      38.070  34.315  35.103  1.00  0.00     0.029 A 
ATOM     34  C   UNL A   1      39.090  33.377  35.154  1.00  0.00     0.049 A 
ATOM     35  H   UNL A   1      39.613  31.908  33.733  1.00  0.00     0.167 HD
ATOM     36  C   UNL A   1      41.031  32.222  36.190  1.00  0.00     0.074 A 
ATOM     37  C   UNL A   1      42.006  32.030  37.245  1.00  0.00     0.031 C 
ATOM     38  C   UNL A   1      40.067  33.175  36.200  1.00  0.00     0.037 A 
BRANCH  25  39
ATOM     39  C   UNL A   1      36.515  33.292  31.125  1.00  0.00     0.058 A 
ATOM     40  C   UNL A   1      36.779  34.093  30.002  1.00  0.00     0.135 A 
ATOM     41  C   UNL A   1      35.173  33.140  31.514  1.00  0.00     0.135 A 
ATOM     42  F   UNL A   1      38.042  34.281  29.587  1.00  0.00    -0.206 F 
ATOM     43  C   UNL A   1      35.761  34.760  29.327  1.00  0.00     0.059 A 
ATOM     44  C   UNL A   1      34.136  33.773  30.834  1.00  0.00     0.059 A 
ATOM     45  F   UNL A   1      34.858  32.379  32.574  1.00  0.00    -0.206 F 
ATOM     46  C   UNL A   1      34.443  34.601  29.757  1.00  0.00     0.060 A 
BRANCH  46  47
ATOM     47  S   UNL A   1      33.141  35.513  28.902  1.00  0.00     0.124 S 
ATOM     48  O   UNL A   1      32.377  36.048  30.025  1.00  0.00    -0.237 OA
ATOM     49  O   UNL A   1      33.900  36.493  28.130  1.00  0.00    -0.237 OA
ATOM     50  O   UNL A   1      32.465  34.487  28.115  1.00  0.00    -0.744 OA
ENDBRANCH  46  47
ENDBRANCH  25  39
BRANCH  26  51
ATOM     51  C   UNL A   1      44.215  28.777  35.644  1.00  0.00     0.058 A 
ATOM     52  C   UNL A   1      44.100  27.707  36.540  1.00  0.00     0.135 A 
ATOM     53  C   UNL A   1      45.508  29.182  35.268  1.00  0.00     0.135 A 
ATOM     54  F   UNL A   1      42.888  27.287  36.932  1.00  0.00    -0.206 F 
ATOM     55  C   UNL A   1      45.223  27.052  37.037  1.00  0.00     0.059 A 
ATOM     56  C   UNL A   1      46.643  28.527  35.729  1.00  0.00     0.059 A 
ATOM     57  F   UNL A   1      45.669  30.191  34.396  1.00  0.00    -0.206 F 
ATOM     58  C   UNL A   1      46.489  27.462  36.615  1.00  0.00     0.060 A 
BRANCH  58  59
ATOM     59  S   UNL A   1      47.933  26.544  37.193  1.00  0.00     0.124 S 
ATOM     60  O   UNL A   1      48.913  27.610  37.360  1.00  0.00    -0.237 OA
ATOM     61  O   UNL A   1      47.435  25.935  38.423  1.00  0.00    -0.237 OA
ATOM     62  O   UNL A   1      48.197  25.609  36.103  1.00  0.00    -0.744 OA
ENDBRANCH  58  59
ENDBRANCH  26  51
BRANCH  38  63
ATOM     63  C   UNL A   1      39.984  34.072  37.404  1.00  0.00     0.058 A 
ATOM     64  C   UNL A   1      40.747  35.244  37.507  1.00  0.00     0.135 A 
ATOM     65  C   UNL A   1      39.060  33.797  38.426  1.00  0.00     0.135 A 
ATOM     66  F   UNL A   1      41.655  35.545  36.565  1.00  0.00    -0.206 F 
ATOM     67  C   UNL A   1      40.598  36.115  38.582  1.00  0.00     0.059 A 
ATOM     68  C   UNL A   1      38.874  34.666  39.495  1.00  0.00     0.059 A 
ATOM     69  F   UNL A   1      38.304  32.689  38.373  1.00  0.00    -0.206 F 
ATOM     70  C   UNL A   1      39.649  35.823  39.565  1.00  0.00     0.060 A 
BRANCH  70  71
ATOM     71  S   UNL A   1      39.409  37.000  40.912  1.00  0.00     0.124 S 
ATOM     72  O   UNL A   1      40.743  37.578  41.042  1.00  0.00    -0.237 OA
ATOM     73  O   UNL A   1      38.384  37.887  40.372  1.00  0.00    -0.237 OA
ATOM     74  O   UNL A   1      38.979  36.160  42.027  1.00  0.00    -0.744 OA
ENDBRANCH  70  71
ENDBRANCH  38  63
ENDBRANCH  12  13
ENDBRANCH   5   7
ENDBRANCH   2   3
ENDBRANCH   1   2
BRANCH   1  75
ATOM     75  C   UNL A   1      40.488  21.610  25.837  1.00  0.00     0.117 C 
BRANCH  75  76
ATOM     76  N   UNL A   1      40.999  20.493  26.623  1.00  0.00    -0.354 N 
ATOM     77  C   UNL A   1      42.227  19.884  26.601  1.00  0.00     0.252 C 
ATOM     78  H   UNL A   1      40.361  20.115  27.270  1.00  0.00     0.163 HD
ATOM     79  O   UNL A   1      42.380  18.881  27.301  1.00  0.00    -0.272 OA
BRANCH  77  80
ATOM     80  C   UNL A   1      43.371  20.494  25.771  1.00  0.00     0.242 C 
ATOM     81  O   UNL A   1      44.195  21.378  26.559  1.00  0.00    -0.324 OA
ATOM     82  C   UNL A   1      44.295  19.411  25.209  1.00  0.00     0.184 C 
ATOM     83  C   UNL A   1      45.098  22.146  25.760  1.00  0.00     0.340 C 
ATOM     84  C   UNL A   1      45.232  20.077  24.210  1.00  0.00     0.181 C 
ATOM     85  C   UNL A   1      45.956  21.258  24.829  1.00  0.00     0.214 C 
BRANCH  82  86
ATOM     86  O   UNL A   1      43.659  18.366  24.493  1.00  0.00    -0.387 OA
ATOM     87  H   UNL A   1      43.234  18.729  23.700  1.00  0.00     0.211 HD
ENDBRANCH  82  86
BRANCH  83  88
ATOM     88  O   UNL A   1      45.993  23.016  26.500  1.00  0.00    -0.454 OA
BRANCH  88  89
ATOM     89  C   UNL A   1      45.820  24.384  26.349  1.00  0.00     0.214 A 
ATOM     90  C   UNL A   1      45.175  25.173  27.239  1.00  0.00     0.181 A 
ATOM     91  C   UNL A   1      46.596  25.055  25.258  1.00  0.00     0.239 A 
ATOM     92  O   UNL A   1      45.019  26.537  27.113  1.00  0.00    -0.452 OA
ATOM     93  C   UNL A   1      46.525  26.539  25.201  1.00  0.00     0.111 A 
ATOM     94  O   UNL A   1      47.289  24.390  24.495  1.00  0.00    -0.285 OA
ATOM     95  C   UNL A   1      45.711  27.188  26.128  1.00  0.00     0.146 A 
ATOM     96  C   UNL A   1      47.245  27.319  24.281  1.00  0.00     0.134 A 
ATOM     97  C   UNL A   1      45.577  28.579  26.123  1.00  0.00     0.094 A 
ATOM     98  C   UNL A   1      47.124  28.716  24.277  1.00  0.00     0.093 A 
ATOM     99  C   UNL A   1      46.285  29.332  25.197  1.00  0.00     0.123 A 
BRANCH  90 100
ATOM    100  C   UNL A   1      44.489  24.653  28.440  1.00  0.00     0.029 A 
ATOM    101  C   UNL A   1      43.373  23.806  28.280  1.00  0.00     0.062 A 
ATOM    102  C   UNL A   1      45.030  24.850  29.720  1.00  0.00     0.062 A 
ATOM    103  C   UNL A   1      42.923  23.048  29.360  1.00  0.00     0.162 A 
ATOM    104  C   UNL A   1      44.521  24.129  30.796  1.00  0.00     0.162 A 
ATOM    105  C   UNL A   1      43.487  23.214  30.619  1.00  0.00     0.200 A 
BRANCH 103 106
ATOM    106  O   UNL A   1      42.021  22.053  29.113  1.00  0.00    -0.504 OA
ATOM    107  H   UNL A   1      41.516  21.693  29.815  1.00  0.00     0.293 HD
ENDBRANCH 103 106
BRANCH 104 108
ATOM    108  O   UNL A   1      45.100  24.274  32.025  1.00  0.00    -0.504 OA
ATOM    109  H   UNL A   1      45.665  23.605  32.358  1.00  0.00     0.293 HD
ENDBRANCH 104 108
BRANCH 105 110
ATOM    110  O   UNL A   1      43.082  22.480  31.699  1.00  0.00    -0.502 OA
ATOM    111  H   UNL A   1      43.717  22.066  32.251  1.00  0.00     0.293 HD
ENDBRANCH 105 110
ENDBRANCH  90 100
BRANCH  96 112
ATOM    112  O   UNL A   1      48.100  26.740  23.388  1.00  0.00    -0.507 OA
ATOM    113  H   UNL A   1      48.628  26.011  23.649  1.00  0.00     0.293 HD
ENDBRANCH  96 112
BRANCH  99 114
ATOM    114  O   UNL A   1      46.136  30.686  25.240  1.00  0.00    -0.508 OA
ATOM    115  H   UNL A   1      45.369  31.085  24.877  1.00  0.00     0.293 HD
ENDBRANCH  99 114
ENDBRANCH  88  89
ENDBRANCH  83  88
BRANCH  84 116
ATOM    116  O   UNL A   1      46.165  19.070  23.757  1.00  0.00    -0.387 OA
ATOM    117  H   UNL A   1      46.983  19.499  23.459  1.00  0.00     0.211 HD
ENDBRANCH  84 116
BRANCH  85 118
ATOM    118  O   UNL A   1      46.632  22.009  23.817  1.00  0.00    -0.384 OA
ATOM    119  H   UNL A   1      47.571  21.763  23.806  1.00  0.00     0.211 HD
ENDBRANCH  85 118
ENDBRANCH  77  80
ENDBRANCH  75  76
ENDBRANCH   1  75
TORSDOF 24
ENDMDL
MODEL 3
REMARK VINA RESULT:     -12.1      5.479     11.417
REMARK SMILES O=C(NCCCNC(=O)[C@H]1O[C@@H](Oc2c(-c3cc(O)c(O)c(O)c3)oc3cc(O)cc(O)c3c2=O)[C@H](O)[C@@H](O)[C@@H]1O)c1ccc(-c2c3nc(c(-c4c(F)cc(S(=O)(=O)[O-])cc4F)c4ccc([nH]4)c(-c4c(F)cc(S(=O)(=O)[O-])cc4F)c4nc(c(-c5c(F)cc(S(=O)(=O)[O-])cc5F)c5ccc2[nH]5)C=C4)C=C3)cc1
REMARK SMILES IDX 5 1 4 2 3 3 1 4 2 5 42 7 43 8 107 9 44 10 106 11 45 12 46 13
REMARK SMILES IDX 47 14 100 15 48 16 105 17 99 18 101 19 49 20 104 21 98 22
REMARK SMILES IDX 97 23 50 25 84 26 63 27 83 28 64 29 67 30 82 31 102 32 65 33
REMARK SMILES IDX 66 34 81 36 103 37 68 38 51 39 52 40 61 41 53 42 54 43 60 44
REMARK SMILES IDX 62 45 55 46 56 47 57 48 58 49 59 50 85 51 86 52 95 53 87 54
REMARK SMILES IDX 88 55 94 56 96 57 89 58 90 59 91 60 92 61 93 62 69 63 70 64
REMARK SMILES IDX 79 65 71 66 72 67 78 68 80 69 73 70 74 71 75 72 76 73 77 74
REMARK SMILES IDX 6 75 7 76 8 77 9 79 10 80 11 81 40 82 12 83 38 84 36 85
REMARK SMILES IDX 41 86 13 88 14 89 15 90 34 91 25 92 33 93 35 94 26 95 31 96
REMARK SMILES IDX 27 97 30 98 28 99 16 100 17 101 24 102 18 103 22 104 20 105
REMARK SMILES IDX 19 106 23 108 21 110 32 112 29 114 39 116 37 118
REMARK H PARENT 3 6 101 24 67 35 7 78 41 87 19 107 23 109 21 111 32 113 29 115
REMARK H PARENT 39 117 37 119
REMARK Flexibility Score: inf
ROOT
ATOM      1  C   UNL A   1      40.404  21.827  27.079  1.00  0.00     0.042 C 
ENDROOT
BRANCH   1   2
ATOM      2  C   UNL A   1      40.108  23.308  27.220  1.00  0.00     0.118 C 
BRANCH   2   3
ATOM      3  N   UNL A   1      40.730  24.092  26.168  1.00  0.00    -0.352 N 
ATOM      4  O   UNL A   1      41.286  25.957  25.046  1.00  0.00    -0.269 OA
ATOM      5  C   UNL A   1      40.974  25.440  26.120  1.00  0.00     0.251 C 
ATOM      6  H   UNL A   1      41.018  23.583  25.377  1.00  0.00     0.163 HD
BRANCH   5   7
ATOM      7  C   UNL A   1      40.850  26.273  27.337  1.00  0.00     0.039 A 
ATOM      8  C   UNL A   1      41.677  27.382  27.542  1.00  0.00     0.014 A 
ATOM      9  C   UNL A   1      39.855  25.968  28.270  1.00  0.00     0.014 A 
ATOM     10  C   UNL A   1      41.601  28.100  28.730  1.00  0.00     0.010 A 
ATOM     11  C   UNL A   1      39.713  26.752  29.417  1.00  0.00     0.010 A 
ATOM     12  C   UNL A   1      40.596  27.816  29.666  1.00  0.00    -0.014 A 
BRANCH  12  13
ATOM     13  C   UNL A   1      40.417  28.694  30.850  1.00  0.00     0.031 A 
ATOM     14  C   UNL A   1      39.387  29.786  30.857  1.00  0.00     0.074 A 
ATOM     15  C   UNL A   1      41.227  28.517  31.912  1.00  0.00     0.049 A 
ATOM     16  N   UNL A   1      39.152  30.689  31.774  1.00  0.00    -0.248 NA
ATOM     17  C   UNL A   1      38.515  29.886  29.677  1.00  0.00     0.031 C 
ATOM     18  C   UNL A   1      42.277  27.499  32.007  1.00  0.00     0.029 A 
ATOM     19  N   UNL A   1      41.310  29.191  33.103  1.00  0.00    -0.354 N 
ATOM     20  C   UNL A   1      38.125  31.482  31.274  1.00  0.00     0.074 A 
ATOM     21  C   UNL A   1      37.799  30.965  29.962  1.00  0.00     0.031 C 
ATOM     22  C   UNL A   1      42.891  27.608  33.193  1.00  0.00     0.029 A 
ATOM     23  C   UNL A   1      42.330  28.746  33.912  1.00  0.00     0.049 A 
ATOM     24  H   UNL A   1      40.700  29.922  33.355  1.00  0.00     0.167 HD
ATOM     25  C   UNL A   1      37.514  32.540  31.861  1.00  0.00     0.037 A 
ATOM     26  C   UNL A   1      42.796  29.223  35.081  1.00  0.00     0.037 A 
ATOM     27  C   UNL A   1      37.855  33.041  33.170  1.00  0.00     0.049 A 
ATOM     28  C   UNL A   1      42.126  30.412  35.700  1.00  0.00     0.074 A 
ATOM     29  C   UNL A   1      37.265  34.074  33.876  1.00  0.00     0.029 A 
ATOM     30  N   UNL A   1      38.889  32.557  33.962  1.00  0.00    -0.354 N 
ATOM     31  N   UNL A   1      41.120  31.118  35.241  1.00  0.00    -0.248 NA
ATOM     32  C   UNL A   1      42.647  30.873  36.994  1.00  0.00     0.031 C 
ATOM     33  C   UNL A   1      37.979  34.257  35.064  1.00  0.00     0.029 A 
ATOM     34  C   UNL A   1      38.974  33.294  35.133  1.00  0.00     0.049 A 
ATOM     35  H   UNL A   1      39.475  31.803  33.726  1.00  0.00     0.167 HD
ATOM     36  C   UNL A   1      40.873  32.096  36.197  1.00  0.00     0.074 A 
ATOM     37  C   UNL A   1      41.831  31.885  37.264  1.00  0.00     0.031 C 
ATOM     38  C   UNL A   1      39.933  33.072  36.190  1.00  0.00     0.037 A 
BRANCH  25  39
ATOM     39  C   UNL A   1      36.443  33.250  31.075  1.00  0.00     0.058 A 
ATOM     40  C   UNL A   1      36.744  34.065  29.971  1.00  0.00     0.135 A 
ATOM     41  C   UNL A   1      35.091  33.108  31.428  1.00  0.00     0.135 A 
ATOM     42  F   UNL A   1      38.019  34.245  29.590  1.00  0.00    -0.206 F 
ATOM     43  C   UNL A   1      35.750  34.753  29.281  1.00  0.00     0.059 A 
ATOM     44  C   UNL A   1      34.078  33.762  30.733  1.00  0.00     0.059 A 
ATOM     45  F   UNL A   1      34.742  32.335  32.469  1.00  0.00    -0.206 F 
ATOM     46  C   UNL A   1      34.420  34.603  29.676  1.00  0.00     0.060 A 
BRANCH  46  47
ATOM     47  S   UNL A   1      33.150  35.542  28.803  1.00  0.00     0.124 S 
ATOM     48  O   UNL A   1      32.381  36.092  29.915  1.00  0.00    -0.237 OA
ATOM     49  O   UNL A   1      33.939  36.506  28.043  1.00  0.00    -0.237 OA
ATOM     50  O   UNL A   1      32.463  34.530  28.007  1.00  0.00    -0.744 OA
ENDBRANCH  46  47
ENDBRANCH  25  39
BRANCH  26  51
ATOM     51  C   UNL A   1      43.973  28.567  35.707  1.00  0.00     0.058 A 
ATOM     52  C   UNL A   1      43.825  27.459  36.552  1.00  0.00     0.135 A 
ATOM     53  C   UNL A   1      45.279  28.985  35.397  1.00  0.00     0.135 A 
ATOM     54  F   UNL A   1      42.599  27.026  36.881  1.00  0.00    -0.206 F 
ATOM     55  C   UNL A   1      44.929  26.783  37.062  1.00  0.00     0.059 A 
ATOM     56  C   UNL A   1      46.396  28.309  35.872  1.00  0.00     0.059 A 
ATOM     57  F   UNL A   1      45.473  30.029  34.574  1.00  0.00    -0.206 F 
ATOM     58  C   UNL A   1      46.210  27.208  36.706  1.00  0.00     0.060 A 
BRANCH  58  59
ATOM     59  S   UNL A   1      47.631  26.264  37.298  1.00  0.00     0.124 S 
ATOM     60  O   UNL A   1      47.023  25.433  38.330  1.00  0.00    -0.237 OA
ATOM     61  O   UNL A   1      48.060  25.568  36.089  1.00  0.00    -0.237 OA
ATOM     62  O   UNL A   1      48.546  27.296  37.776  1.00  0.00    -0.744 OA
ENDBRANCH  58  59
ENDBRANCH  26  51
BRANCH  38  63
ATOM     63  C   UNL A   1      39.861  33.978  37.389  1.00  0.00     0.058 A 
ATOM     64  C   UNL A   1      40.482  35.235  37.405  1.00  0.00     0.135 A 
ATOM     65  C   UNL A   1      39.081  33.617  38.499  1.00  0.00     0.135 A 
ATOM     66  F   UNL A   1      41.250  35.623  36.374  1.00  0.00    -0.206 F 
ATOM     67  C   UNL A   1      40.333  36.105  38.481  1.00  0.00     0.059 A 
ATOM     68  C   UNL A   1      38.896  34.480  39.574  1.00  0.00     0.059 A 
ATOM     69  F   UNL A   1      38.463  32.425  38.532  1.00  0.00    -0.206 F 
ATOM     70  C   UNL A   1      39.527  35.722  39.556  1.00  0.00     0.060 A 
BRANCH  70  71
ATOM     71  S   UNL A   1      39.280  36.890  40.910  1.00  0.00     0.124 S 
ATOM     72  O   UNL A   1      38.533  36.080  41.867  1.00  0.00    -0.237 OA
ATOM     73  O   UNL A   1      40.650  37.219  41.291  1.00  0.00    -0.237 OA
ATOM     74  O   UNL A   1      38.530  37.978  40.288  1.00  0.00    -0.744 OA
ENDBRANCH  70  71
ENDBRANCH  38  63
ENDBRANCH  12  13
ENDBRANCH   5   7
ENDBRANCH   2   3
ENDBRANCH   1   2
BRANCH   1  75
ATOM     75  C   UNL A   1      41.888  21.492  26.935  1.00  0.00     0.117 C 
BRANCH  75  76
ATOM     76  N   UNL A   1      42.641  21.744  28.160  1.00  0.00    -0.354 N 
ATOM     77  C   UNL A   1      43.656  22.630  28.407  1.00  0.00     0.252 C 
ATOM     78  H   UNL A   1      42.378  21.188  28.928  1.00  0.00     0.163 HD
ATOM     79  O   UNL A   1      44.203  22.578  29.511  1.00  0.00    -0.272 OA
BRANCH  77  80
ATOM     80  C   UNL A   1      44.034  23.681  27.348  1.00  0.00     0.242 C 
ATOM     81  O   UNL A   1      44.885  24.711  27.892  1.00  0.00    -0.324 OA
ATOM     82  C   UNL A   1      44.794  23.051  26.179  1.00  0.00     0.184 C 
ATOM     83  C   UNL A   1      45.037  25.823  27.007  1.00  0.00     0.340 C 
ATOM     84  C   UNL A   1      44.901  24.100  25.080  1.00  0.00     0.181 C 
ATOM     85  C   UNL A   1      45.509  25.389  25.599  1.00  0.00     0.214 C 
BRANCH  82  86
ATOM     86  O   UNL A   1      44.176  21.928  25.572  1.00  0.00    -0.387 OA
ATOM     87  H   UNL A   1      43.285  22.171  25.275  1.00  0.00     0.211 HD
ENDBRANCH  82  86
BRANCH  83  88
ATOM     88  O   UNL A   1      45.927  26.870  27.474  1.00  0.00    -0.454 OA
BRANCH  88  89
ATOM     89  C   UNL A   1      45.349  27.959  28.110  1.00  0.00     0.214 A 
ATOM     90  C   UNL A   1      45.275  28.108  29.452  1.00  0.00     0.181 A 
ATOM     91  C   UNL A   1      45.003  29.142  27.258  1.00  0.00     0.239 A 
ATOM     92  O   UNL A   1      44.727  29.197  30.094  1.00  0.00    -0.452 OA
ATOM     93  C   UNL A   1      44.529  30.360  27.966  1.00  0.00     0.111 A 
ATOM     94  O   UNL A   1      45.162  29.096  26.043  1.00  0.00    -0.285 OA
ATOM     95  C   UNL A   1      44.396  30.298  29.352  1.00  0.00     0.146 A 
ATOM     96  C   UNL A   1      44.227  31.570  27.319  1.00  0.00     0.134 A 
ATOM     97  C   UNL A   1      43.936  31.396  30.084  1.00  0.00     0.094 A 
ATOM     98  C   UNL A   1      43.776  32.680  28.048  1.00  0.00     0.093 A 
ATOM     99  C   UNL A   1      43.629  32.578  29.426  1.00  0.00     0.123 A 
BRANCH  90 100
ATOM    100  C   UNL A   1      45.718  27.073  30.410  1.00  0.00     0.029 A 
ATOM    101  C   UNL A   1      46.858  27.316  31.204  1.00  0.00     0.062 A 
ATOM    102  C   UNL A   1      44.932  25.937  30.657  1.00  0.00     0.062 A 
ATOM    103  C   UNL A   1      47.096  26.524  32.326  1.00  0.00     0.162 A 
ATOM    104  C   UNL A   1      45.229  25.123  31.746  1.00  0.00     0.162 A 
ATOM    105  C   UNL A   1      46.292  25.422  32.593  1.00  0.00     0.200 A 
BRANCH 103 106
ATOM    106  O   UNL A   1      48.045  26.941  33.215  1.00  0.00    -0.504 OA
ATOM    107  H   UNL A   1      48.698  27.557  32.949  1.00  0.00     0.293 HD
ENDBRANCH 103 106
BRANCH 104 108
ATOM    108  O   UNL A   1      44.416  24.060  32.021  1.00  0.00    -0.504 OA
ATOM    109  H   UNL A   1      44.287  23.391  31.378  1.00  0.00     0.293 HD
ENDBRANCH 104 108
BRANCH 105 110
ATOM    110  O   UNL A   1      46.487  24.629  33.690  1.00  0.00    -0.502 OA
ATOM    111  H   UNL A   1      45.760  24.388  34.230  1.00  0.00     0.293 HD
ENDBRANCH 105 110
ENDBRANCH  90 100
BRANCH  96 112
ATOM    112  O   UNL A   1      44.392  31.705  25.970  1.00  0.00    -0.507 OA
ATOM    113  H   UNL A   1      43.744  32.149  25.460  1.00  0.00     0.293 HD
ENDBRANCH  96 112
BRANCH  99 114
ATOM    114  O   UNL A   1      43.199  33.627  30.182  1.00  0.00    -0.508 OA
ATOM    115  H   UNL A   1      43.684  33.889  30.940  1.00  0.00     0.293 HD
ENDBRANCH  99 114
ENDBRANCH  88  89
ENDBRANCH  83  88
BRANCH  84 116
ATOM    116  O   UNL A   1      45.704  23.533  24.019  1.00  0.00    -0.387 OA
ATOM    117  H   UNL A   1      45.294  23.731  23.163  1.00  0.00     0.211 HD
ENDBRANCH  84 116
BRANCH  85 118
ATOM    118  O   UNL A   1      45.372  26.427  24.625  1.00  0.00    -0.384 OA
ATOM    119  H   UNL A   1      45.282  27.282  25.075  1.00  0.00     0.211 HD
ENDBRANCH  85 118
ENDBRANCH  77  80
ENDBRANCH  75  76
ENDBRANCH   1  75
TORSDOF 24
ENDMDL
