MODEL 1
REMARK VINA RESULT:     -12.0      0.000      0.000
REMARK SMILES CC1(C)[C@H]2CC[C@]1(C)C(=O)N(CC(=O)NCCCNC(=O)c1ccc(-c3c4nc(c(-c5c(F)cc(S(=O)(=O)[O-])cc5F)c5ccc([nH]5)c(-c5c(F)cc(S(=O)(=O)[O-])cc5F)c5nc(c(-c6c(F)cc(S(=O)(=O)[O-])cc6F)c6ccc3[nH]6)C=C5)C=C4)cc1)C2=O
REMARK SMILES IDX 18 1 17 2 16 3 15 4 13 5 14 6 12 8 11 9 1 10 2 11 4 12 7 13
REMARK SMILES IDX 3 14 5 15 88 16 6 17 9 18 8 19 89 20 10 21 19 22 20 23 21 25
REMARK SMILES IDX 22 26 23 27 87 28 24 29 86 30 25 31 26 32 27 33 80 34 28 35
REMARK SMILES IDX 85 36 79 37 81 38 29 39 84 40 78 41 77 42 30 44 64 45 43 46
REMARK SMILES IDX 63 47 44 48 47 49 62 50 82 51 45 52 46 53 61 55 83 56 48 57
REMARK SMILES IDX 31 58 32 59 41 60 33 61 34 62 40 63 42 64 35 65 36 66 37 67
REMARK SMILES IDX 38 68 39 69 65 70 66 71 75 72 67 73 68 74 74 75 76 76 69 77
REMARK SMILES IDX 70 78 71 79 72 80 73 81 49 82 50 83 59 84 51 85 52 86 58 87
REMARK SMILES IDX 60 88 53 89 54 90 55 91 56 92 57 93
REMARK H PARENT 15 7 19 24 81 43 47 54
REMARK Flexibility Score: inf
ROOT
ATOM      1  C   UNL A   1      33.317  28.507  27.246  1.00  0.00     0.118 C 
ENDROOT
BRANCH   1   2
ATOM      2  C   UNL A   1      31.888  28.023  27.412  1.00  0.00     0.042 C 
BRANCH   2   3
ATOM      3  C   UNL A   1      31.327  27.177  26.278  1.00  0.00     0.117 C 
BRANCH   3   4
ATOM      4  N   UNL A   1      31.032  25.838  26.760  1.00  0.00    -0.354 N 
ATOM      5  C   UNL A   1      31.207  24.641  26.116  1.00  0.00     0.240 C 
ATOM      6  O   UNL A   1      30.690  23.645  26.628  1.00  0.00    -0.273 OA
ATOM      7  H   UNL A   1      30.655  25.783  27.669  1.00  0.00     0.163 HD
BRANCH   5   8
ATOM      8  C   UNL A   1      31.994  24.557  24.794  1.00  0.00     0.228 C 
BRANCH   8   9
ATOM      9  N   UNL A   1      33.181  23.699  24.881  1.00  0.00    -0.272 N 
ATOM     10  C   UNL A   1      35.814  22.999  22.991  1.00  0.00     0.013 C 
ATOM     11  C   UNL A   1      35.716  22.357  24.388  1.00  0.00    -0.010 C 
ATOM     12  C   UNL A   1      34.406  21.551  24.481  1.00  0.00     0.086 C 
ATOM     13  C   UNL A   1      35.483  23.260  25.643  1.00  0.00     0.053 C 
ATOM     14  C   UNL A   1      36.969  21.456  24.546  1.00  0.00     0.013 C 
ATOM     15  C   UNL A   1      34.430  21.059  25.927  1.00  0.00     0.015 C 
ATOM     16  C   UNL A   1      33.208  22.486  24.200  1.00  0.00     0.233 C 
ATOM     17  C   UNL A   1      34.917  22.272  26.720  1.00  0.00     0.018 C 
ATOM     18  C   UNL A   1      34.360  24.267  25.347  1.00  0.00     0.236 C 
ATOM     19  C   UNL A   1      36.694  23.994  26.217  1.00  0.00     0.022 C 
ATOM     20  O   UNL A   1      32.365  22.182  23.356  1.00  0.00    -0.274 OA
ATOM     21  O   UNL A   1      34.525  25.484  25.448  1.00  0.00    -0.274 OA
ENDBRANCH   8   9
ENDBRANCH   5   8
ENDBRANCH   3   4
ENDBRANCH   2   3
ENDBRANCH   1   2
BRANCH   1  22
ATOM     22  N   UNL A   1      33.430  29.917  27.581  1.00  0.00    -0.352 N 
ATOM     23  C   UNL A   1      34.430  30.625  28.204  1.00  0.00     0.251 C 
ATOM     24  H   UNL A   1      32.653  30.460  27.316  1.00  0.00     0.163 HD
ATOM     25  O   UNL A   1      34.157  31.745  28.636  1.00  0.00    -0.269 OA
BRANCH  23  26
ATOM     26  C   UNL A   1      35.816  30.100  28.370  1.00  0.00     0.039 A 
ATOM     27  C   UNL A   1      36.197  29.606  29.628  1.00  0.00     0.014 A 
ATOM     28  C   UNL A   1      36.781  30.187  27.367  1.00  0.00     0.014 A 
ATOM     29  C   UNL A   1      37.516  29.194  29.869  1.00  0.00     0.010 A 
ATOM     30  C   UNL A   1      38.072  29.695  27.578  1.00  0.00     0.010 A 
ATOM     31  C   UNL A   1      38.466  29.223  28.839  1.00  0.00    -0.014 A 
BRANCH  31  32
ATOM     32  C   UNL A   1      39.893  28.852  29.054  1.00  0.00     0.031 A 
ATOM     33  C   UNL A   1      40.860  29.884  29.582  1.00  0.00     0.074 A 
ATOM     34  C   UNL A   1      40.350  27.632  28.711  1.00  0.00     0.049 A 
ATOM     35  N   UNL A   1      42.165  29.837  29.666  1.00  0.00    -0.248 NA
ATOM     36  C   UNL A   1      40.273  31.150  30.048  1.00  0.00     0.031 C 
ATOM     37  C   UNL A   1      39.530  26.530  28.206  1.00  0.00     0.029 A 
ATOM     38  N   UNL A   1      41.625  27.120  28.717  1.00  0.00    -0.354 N 
ATOM     39  C   UNL A   1      42.558  31.079  30.156  1.00  0.00     0.074 A 
ATOM     40  C   UNL A   1      41.355  31.868  30.310  1.00  0.00     0.031 C 
ATOM     41  C   UNL A   1      40.319  25.471  27.966  1.00  0.00     0.029 A 
ATOM     42  C   UNL A   1      41.707  25.831  28.245  1.00  0.00     0.049 A 
ATOM     43  H   UNL A   1      42.407  27.628  29.032  1.00  0.00     0.167 HD
ATOM     44  C   UNL A   1      43.803  31.519  30.460  1.00  0.00     0.037 A 
ATOM     45  C   UNL A   1      42.777  25.038  28.039  1.00  0.00     0.037 A 
ATOM     46  C   UNL A   1      44.994  30.720  30.337  1.00  0.00     0.049 A 
ATOM     47  C   UNL A   1      44.157  25.555  28.344  1.00  0.00     0.074 A 
ATOM     48  C   UNL A   1      46.297  31.059  30.660  1.00  0.00     0.029 A 
ATOM     49  N   UNL A   1      45.029  29.421  29.853  1.00  0.00    -0.354 N 
ATOM     50  N   UNL A   1      44.512  26.727  28.816  1.00  0.00    -0.248 NA
ATOM     51  C   UNL A   1      45.284  24.649  28.079  1.00  0.00     0.031 C 
ATOM     52  C   UNL A   1      47.124  29.982  30.329  1.00  0.00     0.029 A 
ATOM     53  C   UNL A   1      46.331  28.950  29.850  1.00  0.00     0.049 A 
ATOM     54  H   UNL A   1      44.242  28.908  29.555  1.00  0.00     0.167 HD
ATOM     55  C   UNL A   1      45.896  26.681  28.949  1.00  0.00     0.074 A 
ATOM     56  C   UNL A   1      46.317  25.372  28.492  1.00  0.00     0.031 C 
ATOM     57  C   UNL A   1      46.737  27.635  29.418  1.00  0.00     0.037 A 
BRANCH  44  58
ATOM     58  C   UNL A   1      43.936  32.944  30.930  1.00  0.00     0.058 A 
ATOM     59  C   UNL A   1      44.054  34.017  30.032  1.00  0.00     0.135 A 
ATOM     60  C   UNL A   1      43.963  33.240  32.304  1.00  0.00     0.135 A 
ATOM     61  F   UNL A   1      44.041  33.793  28.707  1.00  0.00    -0.206 F 
ATOM     62  C   UNL A   1      44.260  35.320  30.474  1.00  0.00     0.059 A 
ATOM     63  C   UNL A   1      44.134  34.540  32.770  1.00  0.00     0.059 A 
ATOM     64  F   UNL A   1      43.843  32.257  33.210  1.00  0.00    -0.206 F 
ATOM     65  C   UNL A   1      44.313  35.569  31.846  1.00  0.00     0.060 A 
BRANCH  65  66
ATOM     66  S   UNL A   1      44.646  37.251  32.407  1.00  0.00     0.124 S 
ATOM     67  O   UNL A   1      46.073  37.179  32.703  1.00  0.00    -0.237 OA
ATOM     68  O   UNL A   1      44.280  38.051  31.243  1.00  0.00    -0.237 OA
ATOM     69  O   UNL A   1      43.772  37.402  33.567  1.00  0.00    -0.744 OA
ENDBRANCH  65  66
ENDBRANCH  44  58
BRANCH  45  70
ATOM     70  C   UNL A   1      42.575  23.648  27.550  1.00  0.00     0.058 A 
ATOM     71  C   UNL A   1      42.606  23.367  26.177  1.00  0.00     0.135 A 
ATOM     72  C   UNL A   1      42.396  22.574  28.435  1.00  0.00     0.135 A 
ATOM     73  F   UNL A   1      42.762  24.362  25.292  1.00  0.00    -0.206 F 
ATOM     74  C   UNL A   1      42.473  22.068  25.696  1.00  0.00     0.059 A 
ATOM     75  C   UNL A   1      42.282  21.263  27.979  1.00  0.00     0.059 A 
ATOM     76  F   UNL A   1      42.372  22.789  29.760  1.00  0.00    -0.206 F 
ATOM     77  C   UNL A   1      42.321  21.022  26.607  1.00  0.00     0.060 A 
BRANCH  77  78
ATOM     78  S   UNL A   1      42.239  19.332  25.973  1.00  0.00     0.124 S 
ATOM     79  O   UNL A   1      42.806  18.574  27.083  1.00  0.00    -0.237 OA
ATOM     80  O   UNL A   1      40.808  19.161  25.748  1.00  0.00    -0.237 OA
ATOM     81  O   UNL A   1      43.054  19.387  24.764  1.00  0.00    -0.744 OA
ENDBRANCH  77  78
ENDBRANCH  45  70
BRANCH  57  82
ATOM     82  C   UNL A   1      48.198  27.297  29.531  1.00  0.00     0.058 A 
ATOM     83  C   UNL A   1      49.106  27.566  28.497  1.00  0.00     0.135 A 
ATOM     84  C   UNL A   1      48.710  26.796  30.741  1.00  0.00     0.135 A 
ATOM     85  F   UNL A   1      48.668  28.036  27.318  1.00  0.00    -0.206 F 
ATOM     86  C   UNL A   1      50.473  27.357  28.658  1.00  0.00     0.059 A 
ATOM     87  C   UNL A   1      50.075  26.601  30.931  1.00  0.00     0.059 A 
ATOM     88  F   UNL A   1      47.884  26.526  31.764  1.00  0.00    -0.206 F 
ATOM     89  C   UNL A   1      50.948  26.885  29.884  1.00  0.00     0.060 A 
BRANCH  89  90
ATOM     90  S   UNL A   1      52.732  26.703  30.110  1.00  0.00     0.124 S 
ATOM     91  O   UNL A   1      52.795  25.644  31.111  1.00  0.00    -0.237 OA
ATOM     92  O   UNL A   1      53.179  26.338  28.770  1.00  0.00    -0.237 OA
ATOM     93  O   UNL A   1      53.153  28.024  30.567  1.00  0.00    -0.744 OA
ENDBRANCH  89  90
ENDBRANCH  57  82
ENDBRANCH  31  32
ENDBRANCH  23  26
ENDBRANCH   1  22
TORSDOF 14
ENDMDL
MODEL 2
REMARK VINA RESULT:     -11.9      1.213      2.284
REMARK SMILES CC1(C)[C@H]2CC[C@]1(C)C(=O)N(CC(=O)NCCCNC(=O)c1ccc(-c3c4nc(c(-c5c(F)cc(S(=O)(=O)[O-])cc5F)c5ccc([nH]5)c(-c5c(F)cc(S(=O)(=O)[O-])cc5F)c5nc(c(-c6c(F)cc(S(=O)(=O)[O-])cc6F)c6ccc3[nH]6)C=C5)C=C4)cc1)C2=O
REMARK SMILES IDX 18 1 17 2 16 3 15 4 13 5 14 6 12 8 11 9 1 10 2 11 4 12 7 13
REMARK SMILES IDX 3 14 5 15 88 16 6 17 9 18 8 19 89 20 10 21 19 22 20 23 21 25
REMARK SMILES IDX 22 26 23 27 87 28 24 29 86 30 25 31 26 32 27 33 80 34 28 35
REMARK SMILES IDX 85 36 79 37 81 38 29 39 84 40 78 41 77 42 30 44 64 45 43 46
REMARK SMILES IDX 63 47 44 48 47 49 62 50 82 51 45 52 46 53 61 55 83 56 48 57
REMARK SMILES IDX 31 58 32 59 41 60 33 61 34 62 40 63 42 64 35 65 36 66 37 67
REMARK SMILES IDX 38 68 39 69 65 70 66 71 75 72 67 73 68 74 74 75 76 76 69 77
REMARK SMILES IDX 70 78 71 79 72 80 73 81 49 82 50 83 59 84 51 85 52 86 58 87
REMARK SMILES IDX 60 88 53 89 54 90 55 91 56 92 57 93
REMARK H PARENT 15 7 19 24 81 43 47 54
REMARK Flexibility Score: inf
ROOT
ATOM      1  C   UNL A   1      33.406  28.701  27.002  1.00  0.00     0.118 C 
ENDROOT
BRANCH   1   2
ATOM      2  C   UNL A   1      33.049  28.655  25.527  1.00  0.00     0.042 C 
BRANCH   2   3
ATOM      3  C   UNL A   1      31.661  29.153  25.153  1.00  0.00     0.117 C 
BRANCH   3   4
ATOM      4  N   UNL A   1      31.360  28.792  23.777  1.00  0.00    -0.354 N 
ATOM      5  C   UNL A   1      30.707  27.681  23.310  1.00  0.00     0.240 C 
ATOM      6  O   UNL A   1      30.751  27.471  22.096  1.00  0.00    -0.273 OA
ATOM      7  H   UNL A   1      31.665  29.429  23.091  1.00  0.00     0.163 HD
BRANCH   5   8
ATOM      8  C   UNL A   1      29.978  26.724  24.273  1.00  0.00     0.228 C 
BRANCH   8   9
ATOM      9  N   UNL A   1      30.838  25.648  24.781  1.00  0.00    -0.272 N 
ATOM     10  C   UNL A   1      30.458  22.856  26.527  1.00  0.00     0.013 C 
ATOM     11  C   UNL A   1      31.860  23.210  25.997  1.00  0.00    -0.010 C 
ATOM     12  C   UNL A   1      32.271  24.591  26.542  1.00  0.00     0.086 C 
ATOM     13  C   UNL A   1      32.058  23.529  24.479  1.00  0.00     0.053 C 
ATOM     14  C   UNL A   1      32.810  22.084  26.482  1.00  0.00     0.013 C 
ATOM     15  C   UNL A   1      33.622  24.818  25.868  1.00  0.00     0.015 C 
ATOM     16  C   UNL A   1      31.221  25.643  26.118  1.00  0.00     0.233 C 
ATOM     17  C   UNL A   1      33.403  24.332  24.434  1.00  0.00     0.018 C 
ATOM     18  C   UNL A   1      30.961  24.497  24.012  1.00  0.00     0.236 C 
ATOM     19  C   UNL A   1      32.144  22.345  23.516  1.00  0.00     0.022 C 
ATOM     20  O   UNL A   1      30.707  26.384  26.956  1.00  0.00    -0.274 OA
ATOM     21  O   UNL A   1      30.205  24.233  23.075  1.00  0.00    -0.274 OA
ENDBRANCH   8   9
ENDBRANCH   5   8
ENDBRANCH   3   4
ENDBRANCH   2   3
ENDBRANCH   1   2
BRANCH   1  22
ATOM     22  N   UNL A   1      33.501  30.073  27.470  1.00  0.00    -0.352 N 
ATOM     23  C   UNL A   1      34.475  30.719  28.195  1.00  0.00     0.251 C 
ATOM     24  H   UNL A   1      32.734  30.639  27.228  1.00  0.00     0.163 HD
ATOM     25  O   UNL A   1      34.183  31.794  28.718  1.00  0.00    -0.269 OA
BRANCH  23  26
ATOM     26  C   UNL A   1      35.855  30.179  28.366  1.00  0.00     0.039 A 
ATOM     27  C   UNL A   1      36.233  29.698  29.630  1.00  0.00     0.014 A 
ATOM     28  C   UNL A   1      36.818  30.240  27.359  1.00  0.00     0.014 A 
ATOM     29  C   UNL A   1      37.547  29.274  29.873  1.00  0.00     0.010 A 
ATOM     30  C   UNL A   1      38.103  29.735  27.574  1.00  0.00     0.010 A 
ATOM     31  C   UNL A   1      38.495  29.276  28.841  1.00  0.00    -0.014 A 
BRANCH  31  32
ATOM     32  C   UNL A   1      39.918  28.890  29.059  1.00  0.00     0.031 A 
ATOM     33  C   UNL A   1      40.893  29.912  29.590  1.00  0.00     0.074 A 
ATOM     34  C   UNL A   1      40.363  27.667  28.713  1.00  0.00     0.049 A 
ATOM     35  N   UNL A   1      42.198  29.852  29.677  1.00  0.00    -0.248 NA
ATOM     36  C   UNL A   1      40.319  31.183  30.058  1.00  0.00     0.031 C 
ATOM     37  C   UNL A   1      39.533  26.575  28.204  1.00  0.00     0.029 A 
ATOM     38  N   UNL A   1      41.633  27.142  28.721  1.00  0.00    -0.354 N 
ATOM     39  C   UNL A   1      42.603  31.089  30.170  1.00  0.00     0.074 A 
ATOM     40  C   UNL A   1      41.407  31.890  30.324  1.00  0.00     0.031 C 
ATOM     41  C   UNL A   1      40.312  25.508  27.964  1.00  0.00     0.029 A 
ATOM     42  C   UNL A   1      41.703  25.854  28.246  1.00  0.00     0.049 A 
ATOM     43  H   UNL A   1      42.420  27.642  29.039  1.00  0.00     0.167 HD
ATOM     44  C   UNL A   1      43.851  31.516  30.478  1.00  0.00     0.037 A 
ATOM     45  C   UNL A   1      42.766  25.050  28.041  1.00  0.00     0.037 A 
ATOM     46  C   UNL A   1      45.035  30.706  30.356  1.00  0.00     0.049 A 
ATOM     47  C   UNL A   1      44.151  25.554  28.349  1.00  0.00     0.074 A 
ATOM     48  C   UNL A   1      46.340  31.031  30.682  1.00  0.00     0.029 A 
ATOM     49  N   UNL A   1      45.057  29.407  29.869  1.00  0.00    -0.354 N 
ATOM     50  N   UNL A   1      44.516  26.720  28.825  1.00  0.00    -0.248 NA
ATOM     51  C   UNL A   1      45.269  24.637  28.085  1.00  0.00     0.031 C 
ATOM     52  C   UNL A   1      47.157  29.946  30.351  1.00  0.00     0.029 A 
ATOM     53  C   UNL A   1      46.355  28.924  29.868  1.00  0.00     0.049 A 
ATOM     54  H   UNL A   1      44.266  28.903  29.568  1.00  0.00     0.167 HD
ATOM     55  C   UNL A   1      45.899  26.661  28.960  1.00  0.00     0.074 A 
ATOM     56  C   UNL A   1      46.308  25.349  28.502  1.00  0.00     0.031 C 
ATOM     57  C   UNL A   1      46.749  27.605  29.434  1.00  0.00     0.037 A 
BRANCH  44  58
ATOM     58  C   UNL A   1      43.997  32.939  30.952  1.00  0.00     0.058 A 
ATOM     59  C   UNL A   1      43.977  33.275  32.315  1.00  0.00     0.135 A 
ATOM     60  C   UNL A   1      44.141  33.985  30.026  1.00  0.00     0.135 A 
ATOM     61  F   UNL A   1      43.834  32.317  33.246  1.00  0.00    -0.206 F 
ATOM     62  C   UNL A   1      44.027  34.599  32.740  1.00  0.00     0.059 A 
ATOM     63  C   UNL A   1      44.228  35.315  30.429  1.00  0.00     0.059 A 
ATOM     64  F   UNL A   1      44.179  33.724  28.709  1.00  0.00    -0.206 F 
ATOM     65  C   UNL A   1      44.139  35.613  31.788  1.00  0.00     0.060 A 
BRANCH  65  66
ATOM     66  S   UNL A   1      44.137  37.329  32.347  1.00  0.00     0.124 S 
ATOM     67  O   UNL A   1      43.794  38.033  31.115  1.00  0.00    -0.237 OA
ATOM     68  O   UNL A   1      43.109  37.323  33.381  1.00  0.00    -0.237 OA
ATOM     69  O   UNL A   1      45.502  37.531  32.825  1.00  0.00    -0.744 OA
ENDBRANCH  65  66
ENDBRANCH  44  58
BRANCH  45  70
ATOM     70  C   UNL A   1      42.551  23.664  27.548  1.00  0.00     0.058 A 
ATOM     71  C   UNL A   1      42.533  23.393  26.173  1.00  0.00     0.135 A 
ATOM     72  C   UNL A   1      42.408  22.582  28.431  1.00  0.00     0.135 A 
ATOM     73  F   UNL A   1      42.653  24.396  25.290  1.00  0.00    -0.206 F 
ATOM     74  C   UNL A   1      42.387  22.098  25.686  1.00  0.00     0.059 A 
ATOM     75  C   UNL A   1      42.283  21.275  27.969  1.00  0.00     0.059 A 
ATOM     76  F   UNL A   1      42.431  22.787  29.757  1.00  0.00    -0.206 F 
ATOM     77  C   UNL A   1      42.273  21.044  26.594  1.00  0.00     0.060 A 
BRANCH  77  78
ATOM     78  S   UNL A   1      42.174  19.359  25.950  1.00  0.00     0.124 S 
ATOM     79  O   UNL A   1      43.050  19.436  24.787  1.00  0.00    -0.237 OA
ATOM     80  O   UNL A   1      42.673  18.575  27.075  1.00  0.00    -0.237 OA
ATOM     81  O   UNL A   1      40.753  19.193  25.661  1.00  0.00    -0.744 OA
ENDBRANCH  77  78
ENDBRANCH  45  70
BRANCH  57  82
ATOM     82  C   UNL A   1      48.206  27.252  29.548  1.00  0.00     0.058 A 
ATOM     83  C   UNL A   1      49.128  27.562  28.539  1.00  0.00     0.135 A 
ATOM     84  C   UNL A   1      48.700  26.694  30.740  1.00  0.00     0.135 A 
ATOM     85  F   UNL A   1      48.708  28.088  27.377  1.00  0.00    -0.206 F 
ATOM     86  C   UNL A   1      50.492  27.337  28.707  1.00  0.00     0.059 A 
ATOM     87  C   UNL A   1      50.061  26.482  30.939  1.00  0.00     0.059 A 
ATOM     88  F   UNL A   1      47.859  26.384  31.740  1.00  0.00    -0.206 F 
ATOM     89  C   UNL A   1      50.949  26.807  29.916  1.00  0.00     0.060 A 
BRANCH  89  90
ATOM     90  S   UNL A   1      52.728  26.603  30.155  1.00  0.00     0.124 S 
ATOM     91  O   UNL A   1      52.772  25.518  31.129  1.00  0.00    -0.237 OA
ATOM     92  O   UNL A   1      53.186  26.267  28.811  1.00  0.00    -0.237 OA
ATOM     93  O   UNL A   1      53.156  27.908  30.649  1.00  0.00    -0.744 OA
ENDBRANCH  89  90
ENDBRANCH  57  82
ENDBRANCH  31  32
ENDBRANCH  23  26
ENDBRANCH   1  22
TORSDOF 14
ENDMDL
MODEL 3
REMARK VINA RESULT:     -11.6      2.286      3.130
REMARK SMILES CC1(C)[C@H]2CC[C@]1(C)C(=O)N(CC(=O)NCCCNC(=O)c1ccc(-c3c4nc(c(-c5c(F)cc(S(=O)(=O)[O-])cc5F)c5ccc([nH]5)c(-c5c(F)cc(S(=O)(=O)[O-])cc5F)c5nc(c(-c6c(F)cc(S(=O)(=O)[O-])cc6F)c6ccc3[nH]6)C=C5)C=C4)cc1)C2=O
REMARK SMILES IDX 18 1 17 2 16 3 15 4 13 5 14 6 12 8 11 9 1 10 2 11 4 12 7 13
REMARK SMILES IDX 3 14 5 15 88 16 6 17 9 18 8 19 89 20 10 21 19 22 20 23 21 25
REMARK SMILES IDX 22 26 23 27 87 28 24 29 86 30 25 31 26 32 27 33 80 34 28 35
REMARK SMILES IDX 85 36 79 37 81 38 29 39 84 40 78 41 77 42 30 44 64 45 43 46
REMARK SMILES IDX 63 47 44 48 47 49 62 50 82 51 45 52 46 53 61 55 83 56 48 57
REMARK SMILES IDX 31 58 32 59 41 60 33 61 34 62 40 63 42 64 35 65 36 66 37 67
REMARK SMILES IDX 38 68 39 69 65 70 66 71 75 72 67 73 68 74 74 75 76 76 69 77
REMARK SMILES IDX 70 78 71 79 72 80 73 81 49 82 50 83 59 84 51 85 52 86 58 87
REMARK SMILES IDX 60 88 53 89 54 90 55 91 56 92 57 93
REMARK H PARENT 15 7 19 24 81 43 47 54
REMARK Flexibility Score: inf
ROOT
ATOM      1  C   UNL A   1      34.637  29.300  27.527  1.00  0.00     0.118 C 
ENDROOT
BRANCH   1   2
ATOM      2  C   UNL A   1      33.188  29.277  27.076  1.00  0.00     0.042 C 
BRANCH   2   3
ATOM      3  C   UNL A   1      32.911  29.797  25.672  1.00  0.00     0.117 C 
BRANCH   3   4
ATOM      4  N   UNL A   1      31.828  29.038  25.069  1.00  0.00    -0.354 N 
ATOM      5  C   UNL A   1      31.903  28.039  24.134  1.00  0.00     0.240 C 
ATOM      6  O   UNL A   1      30.848  27.682  23.605  1.00  0.00    -0.273 OA
ATOM      7  H   UNL A   1      30.920  29.274  25.372  1.00  0.00     0.163 HD
BRANCH   5   8
ATOM      8  C   UNL A   1      33.257  27.415  23.745  1.00  0.00     0.228 C 
BRANCH   8   9
ATOM      9  N   UNL A   1      33.267  25.950  23.842  1.00  0.00    -0.272 N 
ATOM     10  C   UNL A   1      35.540  23.536  23.879  1.00  0.00     0.013 C 
ATOM     11  C   UNL A   1      34.058  23.158  24.059  1.00  0.00    -0.010 C 
ATOM     12  C   UNL A   1      33.259  23.655  22.839  1.00  0.00     0.086 C 
ATOM     13  C   UNL A   1      33.203  23.869  25.159  1.00  0.00     0.053 C 
ATOM     14  C   UNL A   1      34.012  21.614  24.198  1.00  0.00     0.013 C 
ATOM     15  C   UNL A   1      31.827  23.277  23.212  1.00  0.00     0.015 C 
ATOM     16  C   UNL A   1      33.442  25.183  22.695  1.00  0.00     0.233 C 
ATOM     17  C   UNL A   1      31.724  23.643  24.693  1.00  0.00     0.018 C 
ATOM     18  C   UNL A   1      33.449  25.384  25.098  1.00  0.00     0.236 C 
ATOM     19  C   UNL A   1      33.360  23.380  26.598  1.00  0.00     0.022 C 
ATOM     20  O   UNL A   1      33.795  25.670  21.621  1.00  0.00    -0.274 OA
ATOM     21  O   UNL A   1      33.846  26.026  26.072  1.00  0.00    -0.274 OA
ENDBRANCH   8   9
ENDBRANCH   5   8
ENDBRANCH   3   4
ENDBRANCH   2   3
ENDBRANCH   1   2
BRANCH   1  22
ATOM     22  N   UNL A   1      34.863  30.360  28.495  1.00  0.00    -0.352 N 
ATOM     23  C   UNL A   1      35.943  30.642  29.297  1.00  0.00     0.251 C 
ATOM     24  H   UNL A   1      34.110  30.986  28.595  1.00  0.00     0.163 HD
ATOM     25  O   UNL A   1      35.771  31.414  30.241  1.00  0.00    -0.269 OA
BRANCH  23  26
ATOM     26  C   UNL A   1      37.298  30.063  29.071  1.00  0.00     0.039 A 
ATOM     27  C   UNL A   1      38.053  29.671  30.189  1.00  0.00     0.014 A 
ATOM     28  C   UNL A   1      37.891  30.001  27.810  1.00  0.00     0.014 A 
ATOM     29  C   UNL A   1      39.371  29.215  30.041  1.00  0.00     0.010 A 
ATOM     30  C   UNL A   1      39.171  29.463  27.652  1.00  0.00     0.010 A 
ATOM     31  C   UNL A   1      39.940  29.094  28.766  1.00  0.00    -0.014 A 
BRANCH  31  32
ATOM     32  C   UNL A   1      41.353  28.669  28.556  1.00  0.00     0.031 A 
ATOM     33  C   UNL A   1      42.457  29.696  28.621  1.00  0.00     0.074 A 
ATOM     34  C   UNL A   1      41.652  27.396  28.231  1.00  0.00     0.049 A 
ATOM     35  N   UNL A   1      43.718  29.587  28.288  1.00  0.00    -0.248 NA
ATOM     36  C   UNL A   1      42.076  31.036  29.097  1.00  0.00     0.031 C 
ATOM     37  C   UNL A   1      40.693  26.295  28.149  1.00  0.00     0.029 A 
ATOM     38  N   UNL A   1      42.851  26.818  27.890  1.00  0.00    -0.354 N 
ATOM     39  C   UNL A   1      44.271  30.850  28.475  1.00  0.00     0.074 A 
ATOM     40  C   UNL A   1      43.197  31.717  28.912  1.00  0.00     0.031 C 
ATOM     41  C   UNL A   1      41.342  25.174  27.797  1.00  0.00     0.029 A 
ATOM     42  C   UNL A   1      42.752  25.484  27.573  1.00  0.00     0.049 A 
ATOM     43  H   UNL A   1      43.702  27.313  27.876  1.00  0.00     0.167 HD
ATOM     44  C   UNL A   1      45.555  31.251  28.311  1.00  0.00     0.037 A 
ATOM     45  C   UNL A   1      43.683  24.615  27.131  1.00  0.00     0.037 A 
ATOM     46  C   UNL A   1      46.628  30.378  27.909  1.00  0.00     0.049 A 
ATOM     47  C   UNL A   1      45.097  25.085  26.914  1.00  0.00     0.074 A 
ATOM     48  C   UNL A   1      47.970  30.677  27.756  1.00  0.00     0.029 A 
ATOM     49  N   UNL A   1      46.479  29.035  27.597  1.00  0.00    -0.354 N 
ATOM     50  N   UNL A   1      45.606  26.279  27.106  1.00  0.00    -0.248 NA
ATOM     51  C   UNL A   1      46.061  24.095  26.412  1.00  0.00     0.031 C 
ATOM     52  C   UNL A   1      48.627  29.527  27.308  1.00  0.00     0.029 A 
ATOM     53  C   UNL A   1      47.702  28.496  27.233  1.00  0.00     0.049 A 
ATOM     54  H   UNL A   1      45.630  28.538  27.629  1.00  0.00     0.167 HD
ATOM     55  C   UNL A   1      46.958  26.171  26.793  1.00  0.00     0.074 A 
ATOM     56  C   UNL A   1      47.185  24.800  26.385  1.00  0.00     0.031 C 
ATOM     57  C   UNL A   1      47.923  27.122  26.853  1.00  0.00     0.037 A 
BRANCH  44  58
ATOM     58  C   UNL A   1      45.859  32.708  28.542  1.00  0.00     0.058 A 
ATOM     59  C   UNL A   1      46.183  33.209  29.814  1.00  0.00     0.135 A 
ATOM     60  C   UNL A   1      45.807  33.623  27.477  1.00  0.00     0.135 A 
ATOM     61  F   UNL A   1      46.241  32.382  30.871  1.00  0.00    -0.206 F 
ATOM     62  C   UNL A   1      46.379  34.568  30.034  1.00  0.00     0.059 A 
ATOM     63  C   UNL A   1      46.033  34.983  27.666  1.00  0.00     0.059 A 
ATOM     64  F   UNL A   1      45.514  33.201  26.236  1.00  0.00    -0.206 F 
ATOM     65  C   UNL A   1      46.288  35.449  28.956  1.00  0.00     0.060 A 
BRANCH  65  66
ATOM     66  S   UNL A   1      46.480  37.217  29.264  1.00  0.00     0.124 S 
ATOM     67  O   UNL A   1      45.456  37.775  28.387  1.00  0.00    -0.237 OA
ATOM     68  O   UNL A   1      46.212  37.318  30.695  1.00  0.00    -0.237 OA
ATOM     69  O   UNL A   1      47.859  37.484  28.868  1.00  0.00    -0.744 OA
ENDBRANCH  65  66
ENDBRANCH  44  58
BRANCH  45  70
ATOM     70  C   UNL A   1      43.308  23.195  26.900  1.00  0.00     0.058 A 
ATOM     71  C   UNL A   1      43.202  22.691  25.596  1.00  0.00     0.135 A 
ATOM     72  C   UNL A   1      43.096  22.306  27.965  1.00  0.00     0.135 A 
ATOM     73  F   UNL A   1      43.384  23.505  24.545  1.00  0.00    -0.206 F 
ATOM     74  C   UNL A   1      42.905  21.354  25.353  1.00  0.00     0.059 A 
ATOM     75  C   UNL A   1      42.820  20.959  27.748  1.00  0.00     0.059 A 
ATOM     76  F   UNL A   1      43.199  22.737  29.232  1.00  0.00    -0.206 F 
ATOM     77  C   UNL A   1      42.726  20.494  26.437  1.00  0.00     0.060 A 
BRANCH  77  78
ATOM     78  S   UNL A   1      42.429  18.742  26.108  1.00  0.00     0.124 S 
ATOM     79  O   UNL A   1      42.705  18.147  27.411  1.00  0.00    -0.237 OA
ATOM     80  O   UNL A   1      41.032  18.744  25.690  1.00  0.00    -0.237 OA
ATOM     81  O   UNL A   1      43.390  18.431  25.055  1.00  0.00    -0.744 OA
ENDBRANCH  77  78
ENDBRANCH  45  70
BRANCH  57  82
ATOM     82  C   UNL A   1      49.335  26.717  26.531  1.00  0.00     0.058 A 
ATOM     83  C   UNL A   1      50.176  26.129  27.487  1.00  0.00     0.135 A 
ATOM     84  C   UNL A   1      49.810  26.820  25.212  1.00  0.00     0.135 A 
ATOM     85  F   UNL A   1      49.774  26.015  28.762  1.00  0.00    -0.206 F 
ATOM     86  C   UNL A   1      51.439  25.652  27.146  1.00  0.00     0.059 A 
ATOM     87  C   UNL A   1      51.059  26.329  24.845  1.00  0.00     0.059 A 
ATOM     88  F   UNL A   1      49.041  27.370  24.258  1.00  0.00    -0.206 F 
ATOM     89  C   UNL A   1      51.866  25.745  25.819  1.00  0.00     0.060 A 
BRANCH  89  90
ATOM     90  S   UNL A   1      53.469  25.042  25.373  1.00  0.00     0.124 S 
ATOM     91  O   UNL A   1      54.290  25.432  26.514  1.00  0.00    -0.237 OA
ATOM     92  O   UNL A   1      53.165  23.618  25.267  1.00  0.00    -0.237 OA
ATOM     93  O   UNL A   1      53.791  25.703  24.112  1.00  0.00    -0.744 OA
ENDBRANCH  89  90
ENDBRANCH  57  82
ENDBRANCH  31  32
ENDBRANCH  23  26
ENDBRANCH   1  22
TORSDOF 14
ENDMDL
