MODEL 1
REMARK VINA RESULT:     -13.5      0.000      0.000
REMARK SMILES O=C(NCCCNC(=O)c1cc(-c2cccc(C(F)(F)F)c2)nc2c(F)cccc12)c1ccc(-c2c3nc(c(-c4c(F)cc(S(=O)(=O)[O-])cc4F)c4ccc([nH]4)c(-c4c(F)cc(S(=O)(=O)[O-])cc4F)c4nc(c(-c5c(F)cc(S(=O)(=O)[O-])cc5F)c5ccc2[nH]5)C=C4)C=C3)cc1
REMARK SMILES IDX 4 1 3 2 1 3 2 4 31 6 32 7 96 8 33 9 95 10 34 11 35 12 36 13
REMARK SMILES IDX 89 14 37 15 94 16 88 17 90 18 38 19 93 20 87 21 86 22 39 24
REMARK SMILES IDX 73 25 52 26 72 27 53 28 56 29 71 30 91 31 54 32 55 33 70 35
REMARK SMILES IDX 92 36 57 37 40 38 41 39 50 40 42 41 43 42 49 43 51 44 44 45
REMARK SMILES IDX 45 46 46 47 47 48 48 49 74 50 75 51 84 52 76 53 77 54 83 55
REMARK SMILES IDX 85 56 78 57 79 58 80 59 81 60 82 61 58 62 59 63 68 64 60 65
REMARK SMILES IDX 61 66 67 67 69 68 62 69 63 70 64 71 65 72 66 73 5 74 6 75
REMARK SMILES IDX 7 76 8 77 9 79 10 80 11 81 30 82 12 83 24 84 29 85 23 86
REMARK SMILES IDX 25 87 28 88 26 89 27 90 13 91 14 92 22 93 15 94 17 95 16 96
REMARK SMILES IDX 18 97 19 98 20 99 21 100
REMARK H PARENT 3 5 90 23 56 34 7 78
REMARK Flexibility Score: inf
ROOT
ATOM      1  C   UNL A   1      40.057  23.227  27.134  1.00  0.00     0.118 C 
ENDROOT
BRANCH   1   2
ATOM      2  N   UNL A   1      40.880  23.902  26.143  1.00  0.00    -0.352 N 
ATOM      3  O   UNL A   1      41.805  25.602  25.011  1.00  0.00    -0.269 OA
ATOM      4  C   UNL A   1      41.297  25.208  26.058  1.00  0.00     0.251 C 
ATOM      5  H   UNL A   1      41.191  23.325  25.407  1.00  0.00     0.163 HD
BRANCH   4   6
ATOM      6  C   UNL A   1      41.124  26.139  27.195  1.00  0.00     0.039 A 
ATOM      7  C   UNL A   1      40.137  25.932  28.160  1.00  0.00     0.014 A 
ATOM      8  C   UNL A   1      42.014  27.210  27.329  1.00  0.00     0.014 A 
ATOM      9  C   UNL A   1      39.945  26.867  29.174  1.00  0.00     0.010 A 
ATOM     10  C   UNL A   1      41.875  28.102  28.395  1.00  0.00     0.010 A 
ATOM     11  C   UNL A   1      40.821  27.954  29.309  1.00  0.00    -0.014 A 
BRANCH  11  12
ATOM     12  C   UNL A   1      40.661  28.900  30.442  1.00  0.00     0.031 A 
ATOM     13  C   UNL A   1      41.521  28.781  31.668  1.00  0.00     0.074 A 
ATOM     14  C   UNL A   1      39.717  29.856  30.368  1.00  0.00     0.049 A 
ATOM     15  N   UNL A   1      41.470  29.469  32.778  1.00  0.00    -0.248 NA
ATOM     16  C   UNL A   1      42.568  27.747  31.646  1.00  0.00     0.031 C 
ATOM     17  C   UNL A   1      38.815  30.062  29.232  1.00  0.00     0.029 A 
ATOM     18  N   UNL A   1      39.352  30.829  31.263  1.00  0.00    -0.354 N 
ATOM     19  C   UNL A   1      42.452  28.933  33.603  1.00  0.00     0.074 A 
ATOM     20  C   UNL A   1      43.077  27.854  32.866  1.00  0.00     0.031 C 
ATOM     21  C   UNL A   1      38.009  31.101  29.494  1.00  0.00     0.029 A 
ATOM     22  C   UNL A   1      38.299  31.600  30.835  1.00  0.00     0.049 A 
ATOM     23  H   UNL A   1      39.801  30.961  32.129  1.00  0.00     0.167 HD
ATOM     24  C   UNL A   1      42.800  29.308  34.858  1.00  0.00     0.037 A 
ATOM     25  C   UNL A   1      37.617  32.578  31.459  1.00  0.00     0.037 A 
ATOM     26  C   UNL A   1      42.187  30.396  35.574  1.00  0.00     0.049 A 
ATOM     27  C   UNL A   1      38.016  32.979  32.847  1.00  0.00     0.074 A 
ATOM     28  C   UNL A   1      42.498  30.883  36.832  1.00  0.00     0.029 A 
ATOM     29  N   UNL A   1      41.132  31.162  35.099  1.00  0.00    -0.354 N 
ATOM     30  N   UNL A   1      38.968  32.484  33.600  1.00  0.00    -0.248 NA
ATOM     31  C   UNL A   1      37.254  34.067  33.473  1.00  0.00     0.031 C 
ATOM     32  C   UNL A   1      41.611  31.924  37.129  1.00  0.00     0.029 A 
ATOM     33  C   UNL A   1      40.769  32.108  36.044  1.00  0.00     0.049 A 
ATOM     34  H   UNL A   1      40.705  31.051  34.219  1.00  0.00     0.167 HD
ATOM     35  C   UNL A   1      38.928  33.205  34.786  1.00  0.00     0.074 A 
ATOM     36  C   UNL A   1      37.861  34.177  34.648  1.00  0.00     0.031 C 
ATOM     37  C   UNL A   1      39.707  33.071  35.887  1.00  0.00     0.037 A 
BRANCH  24  38
ATOM     38  C   UNL A   1      43.874  28.511  35.541  1.00  0.00     0.058 A 
ATOM     39  C   UNL A   1      45.235  28.805  35.368  1.00  0.00     0.135 A 
ATOM     40  C   UNL A   1      43.536  27.433  36.374  1.00  0.00     0.135 A 
ATOM     41  F   UNL A   1      45.614  29.816  34.572  1.00  0.00    -0.206 F 
ATOM     42  C   UNL A   1      46.226  28.030  35.964  1.00  0.00     0.059 A 
ATOM     43  C   UNL A   1      44.509  26.657  36.996  1.00  0.00     0.059 A 
ATOM     44  F   UNL A   1      42.247  27.112  36.574  1.00  0.00    -0.206 F 
ATOM     45  C   UNL A   1      45.853  26.950  36.766  1.00  0.00     0.060 A 
BRANCH  45  46
ATOM     46  S   UNL A   1      47.144  25.920  37.497  1.00  0.00     0.124 S 
ATOM     47  O   UNL A   1      48.188  26.907  37.749  1.00  0.00    -0.237 OA
ATOM     48  O   UNL A   1      46.485  25.379  38.682  1.00  0.00    -0.237 OA
ATOM     49  O   UNL A   1      47.435  24.949  36.448  1.00  0.00    -0.744 OA
ENDBRANCH  45  46
ENDBRANCH  24  38
BRANCH  25  50
ATOM     50  C   UNL A   1      36.482  33.221  30.752  1.00  0.00     0.058 A 
ATOM     51  C   UNL A   1      35.161  33.017  31.173  1.00  0.00     0.135 A 
ATOM     52  C   UNL A   1      36.708  34.139  29.713  1.00  0.00     0.135 A 
ATOM     53  F   UNL A   1      34.898  32.149  32.161  1.00  0.00    -0.206 F 
ATOM     54  C   UNL A   1      34.102  33.714  30.601  1.00  0.00     0.059 A 
ATOM     55  C   UNL A   1      35.668  34.862  29.140  1.00  0.00     0.059 A 
ATOM     56  F   UNL A   1      37.960  34.380  29.292  1.00  0.00    -0.206 F 
ATOM     57  C   UNL A   1      34.368  34.645  29.593  1.00  0.00     0.060 A 
BRANCH  57  58
ATOM     58  S   UNL A   1      33.005  35.634  28.942  1.00  0.00     0.124 S 
ATOM     59  O   UNL A   1      32.358  34.686  28.042  1.00  0.00    -0.237 OA
ATOM     60  O   UNL A   1      32.264  35.975  30.152  1.00  0.00    -0.237 OA
ATOM     61  O   UNL A   1      33.684  36.756  28.299  1.00  0.00    -0.744 OA
ENDBRANCH  57  58
ENDBRANCH  25  50
BRANCH  37  62
ATOM     62  C   UNL A   1      39.455  34.011  37.030  1.00  0.00     0.058 A 
ATOM     63  C   UNL A   1      38.730  33.608  38.160  1.00  0.00     0.135 A 
ATOM     64  C   UNL A   1      40.021  35.296  37.029  1.00  0.00     0.135 A 
ATOM     65  F   UNL A   1      38.164  32.393  38.202  1.00  0.00    -0.206 F 
ATOM     66  C   UNL A   1      38.575  34.450  39.257  1.00  0.00     0.059 A 
ATOM     67  C   UNL A   1      39.892  36.147  38.121  1.00  0.00     0.059 A 
ATOM     68  F   UNL A   1      40.728  35.722  35.970  1.00  0.00    -0.206 F 
ATOM     69  C   UNL A   1      39.165  35.716  39.230  1.00  0.00     0.060 A 
BRANCH  69  70
ATOM     70  S   UNL A   1      39.022  36.773  40.687  1.00  0.00     0.124 S 
ATOM     71  O   UNL A   1      40.415  36.885  41.106  1.00  0.00    -0.237 OA
ATOM     72  O   UNL A   1      38.426  37.988  40.138  1.00  0.00    -0.237 OA
ATOM     73  O   UNL A   1      38.156  36.006  41.577  1.00  0.00    -0.744 OA
ENDBRANCH  69  70
ENDBRANCH  37  62
ENDBRANCH  11  12
ENDBRANCH   4   6
ENDBRANCH   1   2
BRANCH   1  74
ATOM     74  C   UNL A   1      38.888  22.475  26.514  1.00  0.00     0.042 C 
BRANCH  74  75
ATOM     75  C   UNL A   1      37.741  23.366  26.065  1.00  0.00     0.118 C 
BRANCH  75  76
ATOM     76  N   UNL A   1      37.548  23.362  24.620  1.00  0.00    -0.352 N 
ATOM     77  C   UNL A   1      36.386  23.452  23.897  1.00  0.00     0.252 C 
ATOM     78  H   UNL A   1      38.370  23.282  24.085  1.00  0.00     0.163 HD
ATOM     79  O   UNL A   1      36.399  23.369  22.673  1.00  0.00    -0.269 OA
BRANCH  77  80
ATOM     80  C   UNL A   1      35.100  23.602  24.600  1.00  0.00     0.051 A 
ATOM     81  C   UNL A   1      34.791  24.888  25.032  1.00  0.00     0.043 A 
ATOM     82  C   UNL A   1      34.218  22.520  24.805  1.00  0.00     0.016 A 
ATOM     83  C   UNL A   1      33.570  25.091  25.641  1.00  0.00     0.072 A 
ATOM     84  C   UNL A   1      32.973  22.837  25.375  1.00  0.00     0.107 A 
ATOM     85  C   UNL A   1      34.508  21.174  24.454  1.00  0.00     0.011 A 
ATOM     86  N   UNL A   1      32.675  24.088  25.799  1.00  0.00    -0.245 NA
ATOM     87  C   UNL A   1      32.036  21.805  25.480  1.00  0.00     0.149 A 
ATOM     88  C   UNL A   1      33.551  20.172  24.575  1.00  0.00     0.004 A 
ATOM     89  F   UNL A   1      30.815  22.065  25.978  1.00  0.00    -0.205 F 
ATOM     90  C   UNL A   1      32.300  20.496  25.075  1.00  0.00     0.041 A 
BRANCH  83  91
ATOM     91  C   UNL A   1      33.175  26.398  26.183  1.00  0.00     0.001 A 
ATOM     92  C   UNL A   1      31.825  26.753  26.345  1.00  0.00     0.010 A 
ATOM     93  C   UNL A   1      34.152  27.346  26.532  1.00  0.00     0.023 A 
ATOM     94  C   UNL A   1      31.464  28.014  26.827  1.00  0.00     0.001 A 
ATOM     95  C   UNL A   1      33.805  28.623  27.003  1.00  0.00     0.056 A 
ATOM     96  C   UNL A   1      32.448  28.946  27.147  1.00  0.00     0.013 A 
BRANCH  95  97
ATOM     97  C   UNL A   1      34.863  29.647  27.330  1.00  0.00     0.416 C 
ATOM     98  F   UNL A   1      34.434  30.921  27.102  1.00  0.00    -0.166 F 
ATOM     99  F   UNL A   1      35.245  29.615  28.637  1.00  0.00    -0.166 F 
ATOM    100  F   UNL A   1      36.008  29.511  26.604  1.00  0.00    -0.166 F 
ENDBRANCH  95  97
ENDBRANCH  83  91
ENDBRANCH  77  80
ENDBRANCH  75  76
ENDBRANCH  74  75
ENDBRANCH   1  74
TORSDOF 15
ENDMDL
MODEL 2
REMARK VINA RESULT:     -13.3      6.440     11.856
REMARK SMILES O=C(NCCCNC(=O)c1cc(-c2cccc(C(F)(F)F)c2)nc2c(F)cccc12)c1ccc(-c2c3nc(c(-c4c(F)cc(S(=O)(=O)[O-])cc4F)c4ccc([nH]4)c(-c4c(F)cc(S(=O)(=O)[O-])cc4F)c4nc(c(-c5c(F)cc(S(=O)(=O)[O-])cc5F)c5ccc2[nH]5)C=C4)C=C3)cc1
REMARK SMILES IDX 4 1 3 2 1 3 2 4 31 6 32 7 96 8 33 9 95 10 34 11 35 12 36 13
REMARK SMILES IDX 89 14 37 15 94 16 88 17 90 18 38 19 93 20 87 21 86 22 39 24
REMARK SMILES IDX 73 25 52 26 72 27 53 28 56 29 71 30 91 31 54 32 55 33 70 35
REMARK SMILES IDX 92 36 57 37 40 38 41 39 50 40 42 41 43 42 49 43 51 44 44 45
REMARK SMILES IDX 45 46 46 47 47 48 48 49 74 50 75 51 84 52 76 53 77 54 83 55
REMARK SMILES IDX 85 56 78 57 79 58 80 59 81 60 82 61 58 62 59 63 68 64 60 65
REMARK SMILES IDX 61 66 67 67 69 68 62 69 63 70 64 71 65 72 66 73 5 74 6 75
REMARK SMILES IDX 7 76 8 77 9 79 10 80 11 81 30 82 12 83 24 84 29 85 23 86
REMARK SMILES IDX 25 87 28 88 26 89 27 90 13 91 14 92 22 93 15 94 17 95 16 96
REMARK SMILES IDX 18 97 19 98 20 99 21 100
REMARK H PARENT 3 5 90 23 56 34 7 78
REMARK Flexibility Score: inf
ROOT
ATOM      1  C   UNL A   1      35.202  29.682  28.002  1.00  0.00     0.118 C 
ENDROOT
BRANCH   1   2
ATOM      2  N   UNL A   1      35.282  30.544  29.172  1.00  0.00    -0.352 N 
ATOM      3  O   UNL A   1      36.101  31.407  31.071  1.00  0.00    -0.269 OA
ATOM      4  C   UNL A   1      36.328  30.817  30.018  1.00  0.00     0.251 C 
ATOM      5  H   UNL A   1      34.443  31.011  29.393  1.00  0.00     0.163 HD
BRANCH   4   6
ATOM      6  C   UNL A   1      37.707  30.393  29.688  1.00  0.00     0.039 A 
ATOM      7  C   UNL A   1      38.137  30.286  28.363  1.00  0.00     0.014 A 
ATOM      8  C   UNL A   1      38.607  30.159  30.732  1.00  0.00     0.014 A 
ATOM      9  C   UNL A   1      39.413  29.809  28.081  1.00  0.00     0.010 A 
ATOM     10  C   UNL A   1      39.916  29.761  30.448  1.00  0.00     0.010 A 
ATOM     11  C   UNL A   1      40.320  29.554  29.120  1.00  0.00    -0.014 A 
BRANCH  11  12
ATOM     12  C   UNL A   1      41.707  29.127  28.807  1.00  0.00     0.031 A 
ATOM     13  C   UNL A   1      42.839  30.113  28.839  1.00  0.00     0.074 A 
ATOM     14  C   UNL A   1      41.936  27.843  28.472  1.00  0.00     0.049 A 
ATOM     15  N   UNL A   1      44.095  29.933  28.523  1.00  0.00    -0.248 NA
ATOM     16  C   UNL A   1      42.516  31.481  29.271  1.00  0.00     0.031 C 
ATOM     17  C   UNL A   1      40.912  26.797  28.398  1.00  0.00     0.029 A 
ATOM     18  N   UNL A   1      43.095  27.199  28.125  1.00  0.00    -0.354 N 
ATOM     19  C   UNL A   1      44.708  31.169  28.685  1.00  0.00     0.074 A 
ATOM     20  C   UNL A   1      43.682  32.094  29.118  1.00  0.00     0.031 C 
ATOM     21  C   UNL A   1      41.491  25.642  28.039  1.00  0.00     0.029 A 
ATOM     22  C   UNL A   1      42.912  25.876  27.805  1.00  0.00     0.049 A 
ATOM     23  H   UNL A   1      43.974  27.642  28.106  1.00  0.00     0.167 HD
ATOM     24  C   UNL A   1      46.008  31.500  28.490  1.00  0.00     0.037 A 
ATOM     25  C   UNL A   1      43.780  24.956  27.343  1.00  0.00     0.037 A 
ATOM     26  C   UNL A   1      47.026  30.569  28.080  1.00  0.00     0.049 A 
ATOM     27  C   UNL A   1      45.213  25.341  27.135  1.00  0.00     0.074 A 
ATOM     28  C   UNL A   1      48.379  30.796  27.899  1.00  0.00     0.029 A 
ATOM     29  N   UNL A   1      46.802  29.233  27.781  1.00  0.00    -0.354 N 
ATOM     30  N   UNL A   1      45.783  26.507  27.324  1.00  0.00    -0.248 NA
ATOM     31  C   UNL A   1      46.123  24.294  26.652  1.00  0.00     0.031 C 
ATOM     32  C   UNL A   1      48.968  29.604  27.460  1.00  0.00     0.029 A 
ATOM     33  C   UNL A   1      47.988  28.626  27.399  1.00  0.00     0.049 A 
ATOM     34  H   UNL A   1      45.928  28.781  27.832  1.00  0.00     0.167 HD
ATOM     35  C   UNL A   1      47.121  26.333  26.993  1.00  0.00     0.074 A 
ATOM     36  C   UNL A   1      47.277  24.947  26.598  1.00  0.00     0.031 C 
ATOM     37  C   UNL A   1      48.125  27.243  27.015  1.00  0.00     0.037 A 
BRANCH  24  38
ATOM     38  C   UNL A   1      46.389  32.940  28.693  1.00  0.00     0.058 A 
ATOM     39  C   UNL A   1      46.799  33.427  29.943  1.00  0.00     0.135 A 
ATOM     40  C   UNL A   1      46.334  33.845  27.621  1.00  0.00     0.135 A 
ATOM     41  F   UNL A   1      46.856  32.607  31.004  1.00  0.00    -0.206 F 
ATOM     42  C   UNL A   1      47.101  34.772  30.134  1.00  0.00     0.059 A 
ATOM     43  C   UNL A   1      46.651  35.189  27.784  1.00  0.00     0.059 A 
ATOM     44  F   UNL A   1      45.949  33.428  26.404  1.00  0.00    -0.206 F 
ATOM     45  C   UNL A   1      47.011  35.648  29.051  1.00  0.00     0.060 A 
BRANCH  45  46
ATOM     46  S   UNL A   1      47.358  37.400  29.317  1.00  0.00     0.124 S 
ATOM     47  O   UNL A   1      48.182  37.349  30.519  1.00  0.00    -0.237 OA
ATOM     48  O   UNL A   1      48.053  37.776  28.089  1.00  0.00    -0.237 OA
ATOM     49  O   UNL A   1      46.032  37.985  29.486  1.00  0.00    -0.744 OA
ENDBRANCH  45  46
ENDBRANCH  24  38
BRANCH  25  50
ATOM     50  C   UNL A   1      43.283  23.590  27.046  1.00  0.00     0.058 A 
ATOM     51  C   UNL A   1      43.025  23.188  25.729  1.00  0.00     0.135 A 
ATOM     52  C   UNL A   1      43.165  22.630  28.064  1.00  0.00     0.135 A 
ATOM     53  F   UNL A   1      43.124  24.071  24.726  1.00  0.00    -0.206 F 
ATOM     54  C   UNL A   1      42.684  21.874  25.427  1.00  0.00     0.059 A 
ATOM     55  C   UNL A   1      42.844  21.307  27.784  1.00  0.00     0.059 A 
ATOM     56  F   UNL A   1      43.422  22.967  29.337  1.00  0.00    -0.206 F 
ATOM     57  C   UNL A   1      42.609  20.937  26.461  1.00  0.00     0.060 A 
BRANCH  57  58
ATOM     58  S   UNL A   1      42.286  19.209  26.047  1.00  0.00     0.124 S 
ATOM     59  O   UNL A   1      42.728  18.528  27.259  1.00  0.00    -0.237 OA
ATOM     60  O   UNL A   1      40.847  19.212  25.804  1.00  0.00    -0.237 OA
ATOM     61  O   UNL A   1      43.110  18.991  24.861  1.00  0.00    -0.744 OA
ENDBRANCH  57  58
ENDBRANCH  25  50
BRANCH  37  62
ATOM     62  C   UNL A   1      49.495  26.770  26.623  1.00  0.00     0.058 A 
ATOM     63  C   UNL A   1      50.339  26.135  27.544  1.00  0.00     0.135 A 
ATOM     64  C   UNL A   1      49.928  26.879  25.292  1.00  0.00     0.135 A 
ATOM     65  F   UNL A   1      49.971  26.016  28.829  1.00  0.00    -0.206 F 
ATOM     66  C   UNL A   1      51.571  25.617  27.157  1.00  0.00     0.059 A 
ATOM     67  C   UNL A   1      51.148  26.354  24.881  1.00  0.00     0.059 A 
ATOM     68  F   UNL A   1      49.150  27.476  24.375  1.00  0.00    -0.206 F 
ATOM     69  C   UNL A   1      51.965  25.726  25.821  1.00  0.00     0.060 A 
BRANCH  69  70
ATOM     70  S   UNL A   1      53.531  24.987  25.312  1.00  0.00     0.124 S 
ATOM     71  O   UNL A   1      53.206  23.565  25.337  1.00  0.00    -0.237 OA
ATOM     72  O   UNL A   1      53.739  25.567  23.988  1.00  0.00    -0.237 OA
ATOM     73  O   UNL A   1      54.466  25.437  26.339  1.00  0.00    -0.744 OA
ENDBRANCH  69  70
ENDBRANCH  37  62
ENDBRANCH  11  12
ENDBRANCH   4   6
ENDBRANCH   1   2
BRANCH   1  74
ATOM     74  C   UNL A   1      33.972  29.960  27.149  1.00  0.00     0.042 C 
BRANCH  74  75
ATOM     75  C   UNL A   1      33.561  28.804  26.251  1.00  0.00     0.118 C 
BRANCH  75  76
ATOM     76  N   UNL A   1      32.593  27.912  26.878  1.00  0.00    -0.352 N 
ATOM     77  C   UNL A   1      32.227  26.639  26.524  1.00  0.00     0.252 C 
ATOM     78  H   UNL A   1      32.135  28.277  27.669  1.00  0.00     0.163 HD
ATOM     79  O   UNL A   1      31.340  26.048  27.131  1.00  0.00    -0.269 OA
BRANCH  77  80
ATOM     80  C   UNL A   1      32.873  25.988  25.371  1.00  0.00     0.051 A 
ATOM     81  C   UNL A   1      33.918  25.120  25.671  1.00  0.00     0.043 A 
ATOM     82  C   UNL A   1      32.450  26.207  24.043  1.00  0.00     0.016 A 
ATOM     83  C   UNL A   1      34.515  24.440  24.629  1.00  0.00     0.072 A 
ATOM     84  C   UNL A   1      33.074  25.422  23.057  1.00  0.00     0.107 A 
ATOM     85  C   UNL A   1      31.441  27.134  23.667  1.00  0.00     0.011 A 
ATOM     86  N   UNL A   1      34.094  24.581  23.350  1.00  0.00    -0.245 NA
ATOM     87  C   UNL A   1      32.592  25.532  21.751  1.00  0.00     0.149 A 
ATOM     88  C   UNL A   1      30.987  27.219  22.355  1.00  0.00     0.004 A 
ATOM     89  F   UNL A   1      33.124  24.772  20.779  1.00  0.00    -0.205 F 
ATOM     90  C   UNL A   1      31.556  26.398  21.395  1.00  0.00     0.041 A 
BRANCH  83  91
ATOM     91  C   UNL A   1      35.662  23.546  24.835  1.00  0.00     0.001 A 
ATOM     92  C   UNL A   1      35.687  22.243  24.308  1.00  0.00     0.010 A 
ATOM     93  C   UNL A   1      36.765  23.970  25.596  1.00  0.00     0.023 A 
ATOM     94  C   UNL A   1      36.768  21.391  24.543  1.00  0.00     0.001 A 
ATOM     95  C   UNL A   1      37.853  23.120  25.854  1.00  0.00     0.056 A 
ATOM     96  C   UNL A   1      37.842  21.824  25.318  1.00  0.00     0.013 A 
BRANCH  95  97
ATOM     97  C   UNL A   1      39.008  23.572  26.711  1.00  0.00     0.416 C 
ATOM     98  F   UNL A   1      39.866  24.386  26.032  1.00  0.00    -0.166 F 
ATOM     99  F   UNL A   1      38.611  24.284  27.803  1.00  0.00    -0.166 F 
ATOM    100  F   UNL A   1      39.774  22.552  27.191  1.00  0.00    -0.166 F 
ENDBRANCH  95  97
ENDBRANCH  83  91
ENDBRANCH  77  80
ENDBRANCH  75  76
ENDBRANCH  74  75
ENDBRANCH   1  74
TORSDOF 15
ENDMDL
MODEL 3
REMARK VINA RESULT:     -13.2      6.509     12.172
REMARK SMILES O=C(NCCCNC(=O)c1cc(-c2cccc(C(F)(F)F)c2)nc2c(F)cccc12)c1ccc(-c2c3nc(c(-c4c(F)cc(S(=O)(=O)[O-])cc4F)c4ccc([nH]4)c(-c4c(F)cc(S(=O)(=O)[O-])cc4F)c4nc(c(-c5c(F)cc(S(=O)(=O)[O-])cc5F)c5ccc2[nH]5)C=C4)C=C3)cc1
REMARK SMILES IDX 4 1 3 2 1 3 2 4 31 6 32 7 96 8 33 9 95 10 34 11 35 12 36 13
REMARK SMILES IDX 89 14 37 15 94 16 88 17 90 18 38 19 93 20 87 21 86 22 39 24
REMARK SMILES IDX 73 25 52 26 72 27 53 28 56 29 71 30 91 31 54 32 55 33 70 35
REMARK SMILES IDX 92 36 57 37 40 38 41 39 50 40 42 41 43 42 49 43 51 44 44 45
REMARK SMILES IDX 45 46 46 47 47 48 48 49 74 50 75 51 84 52 76 53 77 54 83 55
REMARK SMILES IDX 85 56 78 57 79 58 80 59 81 60 82 61 58 62 59 63 68 64 60 65
REMARK SMILES IDX 61 66 67 67 69 68 62 69 63 70 64 71 65 72 66 73 5 74 6 75
REMARK SMILES IDX 7 76 8 77 9 79 10 80 11 81 30 82 12 83 24 84 29 85 23 86
REMARK SMILES IDX 25 87 28 88 26 89 27 90 13 91 14 92 22 93 15 94 17 95 16 96
REMARK SMILES IDX 18 97 19 98 20 99 21 100
REMARK H PARENT 3 5 90 23 56 34 7 78
REMARK Flexibility Score: inf
ROOT
ATOM      1  C   UNL A   1      35.558  31.027  28.172  1.00  0.00     0.118 C 
ENDROOT
BRANCH   1   2
ATOM      2  N   UNL A   1      35.524  30.912  29.622  1.00  0.00    -0.352 N 
ATOM      3  O   UNL A   1      36.080  30.182  31.667  1.00  0.00    -0.269 OA
ATOM      4  C   UNL A   1      36.424  30.363  30.502  1.00  0.00     0.251 C 
ATOM      5  H   UNL A   1      34.719  31.292  30.044  1.00  0.00     0.163 HD
BRANCH   4   6
ATOM      6  C   UNL A   1      37.782  29.973  30.061  1.00  0.00     0.039 A 
ATOM      7  C   UNL A   1      38.173  30.086  28.725  1.00  0.00     0.014 A 
ATOM      8  C   UNL A   1      38.703  29.541  31.020  1.00  0.00     0.014 A 
ATOM      9  C   UNL A   1      39.427  29.637  28.324  1.00  0.00     0.010 A 
ATOM     10  C   UNL A   1      39.993  29.170  30.631  1.00  0.00     0.010 A 
ATOM     11  C   UNL A   1      40.355  29.187  29.275  1.00  0.00    -0.014 A 
BRANCH  11  12
ATOM     12  C   UNL A   1      41.721  28.789  28.850  1.00  0.00     0.031 A 
ATOM     13  C   UNL A   1      42.831  29.799  28.793  1.00  0.00     0.074 A 
ATOM     14  C   UNL A   1      41.949  27.511  28.494  1.00  0.00     0.049 A 
ATOM     15  N   UNL A   1      44.060  29.647  28.376  1.00  0.00    -0.248 NA
ATOM     16  C   UNL A   1      42.515  31.160  29.254  1.00  0.00     0.031 C 
ATOM     17  C   UNL A   1      40.945  26.444  28.500  1.00  0.00     0.029 A 
ATOM     18  N   UNL A   1      43.089  26.893  28.053  1.00  0.00    -0.354 N 
ATOM     19  C   UNL A   1      44.658  30.896  28.491  1.00  0.00     0.074 A 
ATOM     20  C   UNL A   1      43.651  31.798  29.008  1.00  0.00     0.031 C 
ATOM     21  C   UNL A   1      41.517  25.301  28.092  1.00  0.00     0.029 A 
ATOM     22  C   UNL A   1      42.909  25.566  27.745  1.00  0.00     0.049 A 
ATOM     23  H   UNL A   1      43.954  27.354  27.964  1.00  0.00     0.167 HD
ATOM     24  C   UNL A   1      45.931  31.254  28.193  1.00  0.00     0.037 A 
ATOM     25  C   UNL A   1      43.756  24.666  27.212  1.00  0.00     0.037 A 
ATOM     26  C   UNL A   1      46.932  30.345  27.700  1.00  0.00     0.049 A 
ATOM     27  C   UNL A   1      45.160  25.081  26.889  1.00  0.00     0.074 A 
ATOM     28  C   UNL A   1      48.261  30.602  27.410  1.00  0.00     0.029 A 
ATOM     29  N   UNL A   1      46.712  29.005  27.415  1.00  0.00    -0.354 N 
ATOM     30  N   UNL A   1      45.718  26.259  27.035  1.00  0.00    -0.248 NA
ATOM     31  C   UNL A   1      46.049  24.055  26.332  1.00  0.00     0.031 C 
ATOM     32  C   UNL A   1      48.837  29.423  26.922  1.00  0.00     0.029 A 
ATOM     33  C   UNL A   1      47.876  28.424  26.938  1.00  0.00     0.049 A 
ATOM     34  H   UNL A   1      45.856  28.535  27.536  1.00  0.00     0.167 HD
ATOM     35  C   UNL A   1      47.028  26.114  26.596  1.00  0.00     0.074 A 
ATOM     36  C   UNL A   1      47.181  24.732  26.186  1.00  0.00     0.031 C 
ATOM     37  C   UNL A   1      48.011  27.045  26.540  1.00  0.00     0.037 A 
BRANCH  24  38
ATOM     38  C   UNL A   1      46.296  32.701  28.368  1.00  0.00     0.058 A 
ATOM     39  C   UNL A   1      46.894  33.176  29.545  1.00  0.00     0.135 A 
ATOM     40  C   UNL A   1      46.036  33.627  27.345  1.00  0.00     0.135 A 
ATOM     41  F   UNL A   1      47.152  32.335  30.560  1.00  0.00    -0.206 F 
ATOM     42  C   UNL A   1      47.183  34.526  29.719  1.00  0.00     0.059 A 
ATOM     43  C   UNL A   1      46.334  34.978  27.489  1.00  0.00     0.059 A 
ATOM     44  F   UNL A   1      45.467  33.223  26.198  1.00  0.00    -0.206 F 
ATOM     45  C   UNL A   1      46.887  35.421  28.690  1.00  0.00     0.060 A 
BRANCH  45  46
ATOM     46  S   UNL A   1      47.220  37.178  28.942  1.00  0.00     0.124 S 
ATOM     47  O   UNL A   1      46.405  37.778  27.890  1.00  0.00    -0.237 OA
ATOM     48  O   UNL A   1      46.751  37.398  30.307  1.00  0.00    -0.237 OA
ATOM     49  O   UNL A   1      48.664  37.278  28.755  1.00  0.00    -0.744 OA
ENDBRANCH  45  46
ENDBRANCH  24  38
BRANCH  25  50
ATOM     50  C   UNL A   1      43.266  23.289  26.952  1.00  0.00     0.058 A 
ATOM     51  C   UNL A   1      43.031  22.843  25.645  1.00  0.00     0.135 A 
ATOM     52  C   UNL A   1      43.131  22.364  27.999  1.00  0.00     0.135 A 
ATOM     53  F   UNL A   1      43.146  23.693  24.614  1.00  0.00    -0.206 F 
ATOM     54  C   UNL A   1      42.697  21.519  25.381  1.00  0.00     0.059 A 
ATOM     55  C   UNL A   1      42.817  21.031  27.758  1.00  0.00     0.059 A 
ATOM     56  F   UNL A   1      43.367  22.744  29.265  1.00  0.00    -0.206 F 
ATOM     57  C   UNL A   1      42.605  20.617  26.444  1.00  0.00     0.060 A 
BRANCH  57  58
ATOM     58  S   UNL A   1      42.291  18.875  26.083  1.00  0.00     0.124 S 
ATOM     59  O   UNL A   1      43.224  18.629  24.990  1.00  0.00    -0.237 OA
ATOM     60  O   UNL A   1      42.611  18.233  27.353  1.00  0.00    -0.237 OA
ATOM     61  O   UNL A   1      40.876  18.860  25.724  1.00  0.00    -0.744 OA
ENDBRANCH  57  58
ENDBRANCH  25  50
BRANCH  37  62
ATOM     62  C   UNL A   1      49.354  26.602  26.037  1.00  0.00     0.058 A 
ATOM     63  C   UNL A   1      49.765  26.863  24.722  1.00  0.00     0.135 A 
ATOM     64  C   UNL A   1      50.269  25.988  26.907  1.00  0.00     0.135 A 
ATOM     65  F   UNL A   1      48.921  27.440  23.853  1.00  0.00    -0.206 F 
ATOM     66  C   UNL A   1      51.044  26.533  24.285  1.00  0.00     0.059 A 
ATOM     67  C   UNL A   1      51.558  25.664  26.495  1.00  0.00     0.059 A 
ATOM     68  F   UNL A   1      49.922  25.722  28.176  1.00  0.00    -0.206 F 
ATOM     69  C   UNL A   1      51.935  25.939  25.181  1.00  0.00     0.060 A 
BRANCH  69  70
ATOM     70  S   UNL A   1      53.616  25.580  24.627  1.00  0.00     0.124 S 
ATOM     71  O   UNL A   1      53.573  26.042  23.243  1.00  0.00    -0.237 OA
ATOM     72  O   UNL A   1      54.427  26.384  25.537  1.00  0.00    -0.237 OA
ATOM     73  O   UNL A   1      53.730  24.136  24.806  1.00  0.00    -0.744 OA
ENDBRANCH  69  70
ENDBRANCH  37  62
ENDBRANCH  11  12
ENDBRANCH   4   6
ENDBRANCH   1   2
BRANCH   1  74
ATOM     74  C   UNL A   1      35.068  29.768  27.471  1.00  0.00     0.042 C 
BRANCH  74  75
ATOM     75  C   UNL A   1      33.705  29.912  26.811  1.00  0.00     0.118 C 
BRANCH  75  76
ATOM     76  N   UNL A   1      32.633  29.287  27.574  1.00  0.00    -0.352 N 
ATOM     77  C   UNL A   1      31.883  28.179  27.273  1.00  0.00     0.252 C 
ATOM     78  H   UNL A   1      32.415  29.723  28.429  1.00  0.00     0.163 HD
ATOM     79  O   UNL A   1      30.967  27.821  28.008  1.00  0.00    -0.269 OA
BRANCH  77  80
ATOM     80  C   UNL A   1      32.147  27.435  26.029  1.00  0.00     0.051 A 
ATOM     81  C   UNL A   1      32.934  26.295  26.159  1.00  0.00     0.043 A 
ATOM     82  C   UNL A   1      31.618  27.832  24.783  1.00  0.00     0.016 A 
ATOM     83  C   UNL A   1      33.159  25.532  25.032  1.00  0.00     0.072 A 
ATOM     84  C   UNL A   1      31.847  26.957  23.707  1.00  0.00     0.107 A 
ATOM     85  C   UNL A   1      30.872  29.023  24.573  1.00  0.00     0.011 A 
ATOM     86  N   UNL A   1      32.617  25.850  23.833  1.00  0.00    -0.245 NA
ATOM     87  C   UNL A   1      31.236  27.266  22.489  1.00  0.00     0.149 A 
ATOM     88  C   UNL A   1      30.279  29.299  23.346  1.00  0.00     0.004 A 
ATOM     89  F   UNL A   1      31.387  26.439  21.441  1.00  0.00    -0.205 F 
ATOM     90  C   UNL A   1      30.449  28.404  22.302  1.00  0.00     0.041 A 
BRANCH  83  91
ATOM     91  C   UNL A   1      34.022  24.343  25.054  1.00  0.00     0.001 A 
ATOM     92  C   UNL A   1      35.417  24.445  25.188  1.00  0.00     0.010 A 
ATOM     93  C   UNL A   1      33.465  23.059  24.913  1.00  0.00     0.023 A 
ATOM     94  C   UNL A   1      36.227  23.308  25.170  1.00  0.00     0.001 A 
ATOM     95  C   UNL A   1      34.268  21.907  24.878  1.00  0.00     0.056 A 
ATOM     96  C   UNL A   1      35.658  22.047  25.009  1.00  0.00     0.013 A 
BRANCH  95  97
ATOM     97  C   UNL A   1      33.662  20.541  24.679  1.00  0.00     0.416 C 
ATOM     98  F   UNL A   1      32.833  20.192  25.704  1.00  0.00    -0.166 F 
ATOM     99  F   UNL A   1      32.907  20.456  23.549  1.00  0.00    -0.166 F 
ATOM    100  F   UNL A   1      34.579  19.537  24.591  1.00  0.00    -0.166 F 
ENDBRANCH  95  97
ENDBRANCH  83  91
ENDBRANCH  77  80
ENDBRANCH  75  76
ENDBRANCH  74  75
ENDBRANCH   1  74
TORSDOF 15
ENDMDL
