MODEL 1
REMARK VINA RESULT:     -12.5      0.000      0.000
REMARK SMILES CCc1ccc(CNc2ccc(Cl)c(C(=O)NCCCNC(=O)c3ccc(-c4c5nc(c(-c6c(F)cc(S(=O)(=O)[O-])cc6F)c6ccc([nH]6)c(-c6c(F)cc(S(=O)(=O)[O-])cc6F)c6nc(c(-c7c(F)cc(S(=O)(=O)[O-])cc7F)c7ccc4[nH]7)C=C6)C=C5)cc3)c2)cc1
REMARK SMILES IDX 18 1 17 2 15 3 16 4 14 6 9 7 10 8 90 9 11 10 12 11 13 12
REMARK SMILES IDX 8 13 7 15 6 16 3 17 4 18 92 19 5 20 91 21 2 22 1 23 19 24
REMARK SMILES IDX 20 25 21 26 22 27 23 29 24 30 25 31 89 32 26 33 88 34 27 35
REMARK SMILES IDX 28 36 29 37 82 38 30 39 87 40 81 41 83 42 31 43 86 44 80 45
REMARK SMILES IDX 79 46 32 48 66 49 45 50 65 51 46 52 49 53 64 54 84 55 47 56
REMARK SMILES IDX 48 57 63 59 85 60 50 61 33 62 34 63 43 64 35 65 36 66 42 67
REMARK SMILES IDX 44 68 37 69 38 70 39 71 40 72 41 73 67 74 68 75 77 76 69 77
REMARK SMILES IDX 70 78 76 79 78 80 71 81 72 82 73 83 74 84 75 85 51 86 52 87
REMARK SMILES IDX 61 88 53 89 54 90 60 91 62 92 55 93 56 94 57 95 58 96 59 97
REMARK H PARENT 17 5 8 14 21 28 83 47 49 58
REMARK Flexibility Score: inf
ROOT
ATOM      1  C   UNL A   1      36.993  22.111  25.424  1.00  0.00     0.118 C 
ENDROOT
BRANCH   1   2
ATOM      2  N   UNL A   1      35.966  21.850  26.430  1.00  0.00    -0.352 N 
ATOM      3  C   UNL A   1      34.586  21.780  26.411  1.00  0.00     0.252 C 
ATOM      4  O   UNL A   1      34.041  21.424  27.454  1.00  0.00    -0.269 OA
ATOM      5  H   UNL A   1      36.342  21.688  27.326  1.00  0.00     0.163 HD
BRANCH   3   6
ATOM      6  C   UNL A   1      33.770  22.134  25.212  1.00  0.00     0.060 A 
ATOM      7  C   UNL A   1      32.495  23.886  24.074  1.00  0.00     0.035 A 
ATOM      8  C   UNL A   1      31.951  22.917  23.233  1.00  0.00     0.027 A 
ATOM      9  C   UNL A   1      33.513  23.481  24.934  1.00  0.00     0.041 A 
ATOM     10  C   UNL A   1      32.350  21.582  23.329  1.00  0.00     0.023 A 
ATOM     11  C   UNL A   1      33.223  21.178  24.347  1.00  0.00     0.053 A 
ATOM     12  Cl  UNL A   1      33.550  19.484  24.430  1.00  0.00    -0.083 Cl
BRANCH   7  13
ATOM     13  N   UNL A   1      32.035  25.178  24.011  1.00  0.00    -0.381 N 
ATOM     14  H   UNL A   1      32.145  25.643  23.149  1.00  0.00     0.160 HD
BRANCH  13  15
ATOM     15  C   UNL A   1      31.401  25.931  25.082  1.00  0.00     0.148 C 
BRANCH  15  16
ATOM     16  C   UNL A   1      30.716  27.128  24.478  1.00  0.00    -0.029 A 
ATOM     17  C   UNL A   1      29.530  29.385  23.293  1.00  0.00    -0.048 A 
ATOM     18  C   UNL A   1      30.640  29.529  24.131  1.00  0.00     0.004 A 
ATOM     19  C   UNL A   1      28.980  28.109  23.105  1.00  0.00     0.004 A 
ATOM     20  C   UNL A   1      31.222  28.413  24.721  1.00  0.00     0.006 A 
ATOM     21  C   UNL A   1      29.566  26.988  23.694  1.00  0.00     0.006 A 
BRANCH  17  22
ATOM     22  C   UNL A   1      28.935  30.587  22.607  1.00  0.00     0.032 C 
ATOM     23  C   UNL A   1      27.968  31.351  23.506  1.00  0.00     0.009 C 
ENDBRANCH  17  22
ENDBRANCH  15  16
ENDBRANCH  13  15
ENDBRANCH   7  13
ENDBRANCH   3   6
ENDBRANCH   1   2
BRANCH   1  24
ATOM     24  C   UNL A   1      37.421  23.562  25.314  1.00  0.00     0.042 C 
BRANCH  24  25
ATOM     25  C   UNL A   1      38.289  24.053  26.456  1.00  0.00     0.118 C 
BRANCH  25  26
ATOM     26  N   UNL A   1      39.716  23.924  26.181  1.00  0.00    -0.352 N 
ATOM     27  C   UNL A   1      40.780  24.715  26.554  1.00  0.00     0.251 C 
ATOM     28  H   UNL A   1      39.960  23.141  25.636  1.00  0.00     0.163 HD
ATOM     29  O   UNL A   1      41.876  24.533  26.037  1.00  0.00    -0.269 OA
BRANCH  27  30
ATOM     30  C   UNL A   1      40.602  25.792  27.554  1.00  0.00     0.039 A 
ATOM     31  C   UNL A   1      39.647  25.641  28.564  1.00  0.00     0.014 A 
ATOM     32  C   UNL A   1      41.364  26.959  27.492  1.00  0.00     0.014 A 
ATOM     33  C   UNL A   1      39.522  26.621  29.554  1.00  0.00     0.010 A 
ATOM     34  C   UNL A   1      41.319  27.875  28.536  1.00  0.00     0.010 A 
ATOM     35  C   UNL A   1      40.390  27.724  29.574  1.00  0.00    -0.014 A 
BRANCH  35  36
ATOM     36  C   UNL A   1      40.342  28.748  30.650  1.00  0.00     0.031 A 
ATOM     37  C   UNL A   1      41.233  28.605  31.856  1.00  0.00     0.074 A 
ATOM     38  C   UNL A   1      39.438  29.746  30.586  1.00  0.00     0.049 A 
ATOM     39  N   UNL A   1      41.254  29.311  32.958  1.00  0.00    -0.248 NA
ATOM     40  C   UNL A   1      42.208  27.501  31.837  1.00  0.00     0.031 C 
ATOM     41  C   UNL A   1      38.486  29.961  29.494  1.00  0.00     0.029 A 
ATOM     42  N   UNL A   1      39.158  30.761  31.468  1.00  0.00    -0.354 N 
ATOM     43  C   UNL A   1      42.218  28.723  33.767  1.00  0.00     0.074 A 
ATOM     44  C   UNL A   1      42.721  27.569  33.056  1.00  0.00     0.031 C 
ATOM     45  C   UNL A   1      37.742  31.048  29.761  1.00  0.00     0.029 A 
ATOM     46  C   UNL A   1      38.128  31.579  31.064  1.00  0.00     0.049 A 
ATOM     47  H   UNL A   1      39.648  30.890  32.313  1.00  0.00     0.167 HD
ATOM     48  C   UNL A   1      42.666  29.124  34.980  1.00  0.00     0.037 A 
ATOM     49  C   UNL A   1      37.550  32.629  31.681  1.00  0.00     0.037 A 
ATOM     50  C   UNL A   1      42.183  30.295  35.662  1.00  0.00     0.049 A 
ATOM     51  C   UNL A   1      38.064  33.055  33.030  1.00  0.00     0.074 A 
ATOM     52  C   UNL A   1      42.613  30.826  36.866  1.00  0.00     0.029 A 
ATOM     53  N   UNL A   1      41.164  31.118  35.203  1.00  0.00    -0.354 N 
ATOM     54  N   UNL A   1      39.023  32.524  33.752  1.00  0.00    -0.248 NA
ATOM     55  C   UNL A   1      37.423  34.223  33.649  1.00  0.00     0.031 C 
ATOM     56  C   UNL A   1      41.820  31.939  37.159  1.00  0.00     0.029 A 
ATOM     57  C   UNL A   1      40.938  32.139  36.109  1.00  0.00     0.049 A 
ATOM     58  H   UNL A   1      40.676  30.993  34.358  1.00  0.00     0.167 HD
ATOM     59  C   UNL A   1      39.123  33.316  34.891  1.00  0.00     0.074 A 
ATOM     60  C   UNL A   1      38.134  34.365  34.759  1.00  0.00     0.031 C 
ATOM     61  C   UNL A   1      39.961  33.188  35.951  1.00  0.00     0.037 A 
BRANCH  48  62
ATOM     62  C   UNL A   1      43.733  28.298  35.646  1.00  0.00     0.058 A 
ATOM     63  C   UNL A   1      43.417  27.264  36.542  1.00  0.00     0.135 A 
ATOM     64  C   UNL A   1      45.089  28.508  35.344  1.00  0.00     0.135 A 
ATOM     65  F   UNL A   1      42.138  27.030  36.880  1.00  0.00    -0.206 F 
ATOM     66  C   UNL A   1      44.405  26.486  37.134  1.00  0.00     0.059 A 
ATOM     67  C   UNL A   1      46.093  27.720  35.900  1.00  0.00     0.059 A 
ATOM     68  F   UNL A   1      45.450  29.484  34.496  1.00  0.00    -0.206 F 
ATOM     69  C   UNL A   1      45.740  26.718  36.803  1.00  0.00     0.060 A 
BRANCH  69  70
ATOM     70  S   UNL A   1      47.007  25.681  37.563  1.00  0.00     0.124 S 
ATOM     71  O   UNL A   1      48.081  26.645  37.782  1.00  0.00    -0.237 OA
ATOM     72  O   UNL A   1      46.334  25.200  38.766  1.00  0.00    -0.237 OA
ATOM     73  O   UNL A   1      47.273  24.667  36.548  1.00  0.00    -0.744 OA
ENDBRANCH  69  70
ENDBRANCH  48  62
BRANCH  49  74
ATOM     74  C   UNL A   1      36.431  33.359  31.024  1.00  0.00     0.058 A 
ATOM     75  C   UNL A   1      36.654  34.160  29.895  1.00  0.00     0.135 A 
ATOM     76  C   UNL A   1      35.117  33.274  31.512  1.00  0.00     0.135 A 
ATOM     77  F   UNL A   1      37.893  34.280  29.391  1.00  0.00    -0.206 F 
ATOM     78  C   UNL A   1      35.624  34.871  29.287  1.00  0.00     0.059 A 
ATOM     79  C   UNL A   1      34.065  33.951  30.903  1.00  0.00     0.059 A 
ATOM     80  F   UNL A   1      34.844  32.506  32.578  1.00  0.00    -0.206 F 
ATOM     81  C   UNL A   1      34.331  34.758  29.799  1.00  0.00     0.060 A 
BRANCH  81  82
ATOM     82  S   UNL A   1      32.995  35.659  28.982  1.00  0.00     0.124 S 
ATOM     83  O   UNL A   1      32.363  34.603  28.201  1.00  0.00    -0.237 OA
ATOM     84  O   UNL A   1      32.227  36.163  30.117  1.00  0.00    -0.237 OA
ATOM     85  O   UNL A   1      33.701  36.679  28.212  1.00  0.00    -0.744 OA
ENDBRANCH  81  82
ENDBRANCH  49  74
BRANCH  61  86
ATOM     86  C   UNL A   1      39.886  34.232  37.030  1.00  0.00     0.058 A 
ATOM     87  C   UNL A   1      40.452  35.506  36.870  1.00  0.00     0.135 A 
ATOM     88  C   UNL A   1      39.173  33.974  38.212  1.00  0.00     0.135 A 
ATOM     89  F   UNL A   1      41.149  35.802  35.762  1.00  0.00    -0.206 F 
ATOM     90  C   UNL A   1      40.329  36.483  37.853  1.00  0.00     0.059 A 
ATOM     91  C   UNL A   1      39.010  34.945  39.194  1.00  0.00     0.059 A 
ATOM     92  F   UNL A   1      38.603  32.775  38.410  1.00  0.00    -0.206 F 
ATOM     93  C   UNL A   1      39.601  36.194  39.010  1.00  0.00     0.060 A 
BRANCH  93  94
ATOM     94  S   UNL A   1      39.408  37.486  40.255  1.00  0.00     0.124 S 
ATOM     95  O   UNL A   1      38.609  38.472  39.534  1.00  0.00    -0.237 OA
ATOM     96  O   UNL A   1      38.723  36.780  41.333  1.00  0.00    -0.237 OA
ATOM     97  O   UNL A   1      40.782  37.885  40.548  1.00  0.00    -0.744 OA
ENDBRANCH  93  94
ENDBRANCH  61  86
ENDBRANCH  35  36
ENDBRANCH  27  30
ENDBRANCH  25  26
ENDBRANCH  24  25
ENDBRANCH   1  24
TORSDOF 17
ENDMDL
MODEL 2
REMARK VINA RESULT:     -12.3      6.709     12.336
REMARK SMILES CCc1ccc(CNc2ccc(Cl)c(C(=O)NCCCNC(=O)c3ccc(-c4c5nc(c(-c6c(F)cc(S(=O)(=O)[O-])cc6F)c6ccc([nH]6)c(-c6c(F)cc(S(=O)(=O)[O-])cc6F)c6nc(c(-c7c(F)cc(S(=O)(=O)[O-])cc7F)c7ccc4[nH]7)C=C6)C=C5)cc3)c2)cc1
REMARK SMILES IDX 18 1 17 2 15 3 16 4 14 6 9 7 10 8 90 9 11 10 12 11 13 12
REMARK SMILES IDX 8 13 7 15 6 16 3 17 4 18 92 19 5 20 91 21 2 22 1 23 19 24
REMARK SMILES IDX 20 25 21 26 22 27 23 29 24 30 25 31 89 32 26 33 88 34 27 35
REMARK SMILES IDX 28 36 29 37 82 38 30 39 87 40 81 41 83 42 31 43 86 44 80 45
REMARK SMILES IDX 79 46 32 48 66 49 45 50 65 51 46 52 49 53 64 54 84 55 47 56
REMARK SMILES IDX 48 57 63 59 85 60 50 61 33 62 34 63 43 64 35 65 36 66 42 67
REMARK SMILES IDX 44 68 37 69 38 70 39 71 40 72 41 73 67 74 68 75 77 76 69 77
REMARK SMILES IDX 70 78 76 79 78 80 71 81 72 82 73 83 74 84 75 85 51 86 52 87
REMARK SMILES IDX 61 88 53 89 54 90 60 91 62 92 55 93 56 94 57 95 58 96 59 97
REMARK H PARENT 17 5 8 14 21 28 83 47 49 58
REMARK Flexibility Score: inf
ROOT
ATOM      1  C   UNL A   1      33.380  28.613  26.232  1.00  0.00     0.118 C 
ENDROOT
BRANCH   1   2
ATOM      2  N   UNL A   1      32.234  27.826  26.685  1.00  0.00    -0.352 N 
ATOM      3  C   UNL A   1      31.413  26.882  26.097  1.00  0.00     0.252 C 
ATOM      4  O   UNL A   1      30.592  26.337  26.832  1.00  0.00    -0.269 OA
ATOM      5  H   UNL A   1      31.991  28.010  27.621  1.00  0.00     0.163 HD
BRANCH   3   6
ATOM      6  C   UNL A   1      31.477  26.540  24.645  1.00  0.00     0.060 A 
ATOM      7  C   UNL A   1      32.292  24.952  22.972  1.00  0.00     0.035 A 
ATOM      8  C   UNL A   1      32.005  25.883  21.976  1.00  0.00     0.027 A 
ATOM      9  C   UNL A   1      31.867  25.252  24.263  1.00  0.00     0.041 A 
ATOM     10  C   UNL A   1      31.405  27.103  22.291  1.00  0.00     0.023 A 
ATOM     11  C   UNL A   1      31.182  27.456  23.627  1.00  0.00     0.053 A 
ATOM     12  Cl  UNL A   1      30.539  29.038  23.892  1.00  0.00    -0.083 Cl
BRANCH   7  13
ATOM     13  N   UNL A   1      32.949  23.790  22.648  1.00  0.00    -0.381 N 
ATOM     14  H   UNL A   1      33.233  23.692  21.709  1.00  0.00     0.160 HD
BRANCH  13  15
ATOM     15  C   UNL A   1      33.271  22.691  23.545  1.00  0.00     0.148 C 
BRANCH  15  16
ATOM     16  C   UNL A   1      34.587  22.993  24.211  1.00  0.00    -0.029 A 
ATOM     17  C   UNL A   1      37.035  23.463  25.511  1.00  0.00    -0.048 A 
ATOM     18  C   UNL A   1      35.847  23.396  26.246  1.00  0.00     0.004 A 
ATOM     19  C   UNL A   1      36.978  23.357  24.115  1.00  0.00     0.004 A 
ATOM     20  C   UNL A   1      34.637  23.170  25.601  1.00  0.00     0.006 A 
ATOM     21  C   UNL A   1      35.763  23.126  23.467  1.00  0.00     0.006 A 
BRANCH  17  22
ATOM     22  C   UNL A   1      38.354  23.650  26.215  1.00  0.00     0.032 C 
ATOM     23  C   UNL A   1      39.151  22.352  26.312  1.00  0.00     0.009 C 
ENDBRANCH  17  22
ENDBRANCH  15  16
ENDBRANCH  13  15
ENDBRANCH   7  13
ENDBRANCH   3   6
ENDBRANCH   1   2
BRANCH   1  24
ATOM     24  C   UNL A   1      33.733  29.791  27.121  1.00  0.00     0.042 C 
BRANCH  24  25
ATOM     25  C   UNL A   1      35.137  29.752  27.690  1.00  0.00     0.118 C 
BRANCH  25  26
ATOM     26  N   UNL A   1      35.250  30.445  28.970  1.00  0.00    -0.352 N 
ATOM     27  C   UNL A   1      36.282  30.490  29.881  1.00  0.00     0.251 C 
ATOM     28  H   UNL A   1      34.456  30.967  29.225  1.00  0.00     0.163 HD
ATOM     29  O   UNL A   1      36.084  30.971  30.991  1.00  0.00    -0.269 OA
BRANCH  27  30
ATOM     30  C   UNL A   1      37.615  29.946  29.536  1.00  0.00     0.039 A 
ATOM     31  C   UNL A   1      38.009  29.893  28.196  1.00  0.00     0.014 A 
ATOM     32  C   UNL A   1      38.473  29.473  30.529  1.00  0.00     0.014 A 
ATOM     33  C   UNL A   1      39.293  29.446  27.867  1.00  0.00     0.010 A 
ATOM     34  C   UNL A   1      39.785  29.139  30.213  1.00  0.00     0.010 A 
ATOM     35  C   UNL A   1      40.208  29.110  28.878  1.00  0.00    -0.014 A 
BRANCH  35  36
ATOM     36  C   UNL A   1      41.606  28.705  28.576  1.00  0.00     0.031 A 
ATOM     37  C   UNL A   1      42.692  29.748  28.531  1.00  0.00     0.074 A 
ATOM     38  C   UNL A   1      41.878  27.424  28.253  1.00  0.00     0.049 A 
ATOM     39  N   UNL A   1      43.941  29.625  28.162  1.00  0.00    -0.248 NA
ATOM     40  C   UNL A   1      42.316  31.118  28.919  1.00  0.00     0.031 C 
ATOM     41  C   UNL A   1      40.901  26.333  28.211  1.00  0.00     0.029 A 
ATOM     42  N   UNL A   1      43.055  26.824  27.880  1.00  0.00    -0.354 N 
ATOM     43  C   UNL A   1      44.488  30.900  28.249  1.00  0.00     0.074 A 
ATOM     44  C   UNL A   1      43.424  31.792  28.649  1.00  0.00     0.031 C 
ATOM     45  C   UNL A   1      41.522  25.197  27.853  1.00  0.00     0.029 A 
ATOM     46  C   UNL A   1      42.928  25.484  27.592  1.00  0.00     0.049 A 
ATOM     47  H   UNL A   1      43.912  27.308  27.822  1.00  0.00     0.167 HD
ATOM     48  C   UNL A   1      45.769  31.288  28.041  1.00  0.00     0.037 A 
ATOM     49  C   UNL A   1      43.839  24.593  27.153  1.00  0.00     0.037 A 
ATOM     50  C   UNL A   1      46.829  30.385  27.678  1.00  0.00     0.049 A 
ATOM     51  C   UNL A   1      45.256  25.049  26.928  1.00  0.00     0.074 A 
ATOM     52  C   UNL A   1      48.173  30.664  27.506  1.00  0.00     0.029 A 
ATOM     53  N   UNL A   1      46.666  29.029  27.432  1.00  0.00    -0.354 N 
ATOM     54  N   UNL A   1      45.770  26.247  27.079  1.00  0.00    -0.248 NA
ATOM     55  C   UNL A   1      46.219  24.034  26.479  1.00  0.00     0.031 C 
ATOM     56  C   UNL A   1      48.814  29.488  27.106  1.00  0.00     0.029 A 
ATOM     57  C   UNL A   1      47.882  28.464  27.089  1.00  0.00     0.049 A 
ATOM     58  H   UNL A   1      45.813  28.543  27.493  1.00  0.00     0.167 HD
ATOM     59  C   UNL A   1      47.122  26.120  26.778  1.00  0.00     0.074 A 
ATOM     60  C   UNL A   1      47.347  24.730  26.445  1.00  0.00     0.031 C 
ATOM     61  C   UNL A   1      48.091  27.070  26.779  1.00  0.00     0.037 A 
BRANCH  48  62
ATOM     62  C   UNL A   1      46.099  32.746  28.209  1.00  0.00     0.058 A 
ATOM     63  C   UNL A   1      45.998  33.654  27.142  1.00  0.00     0.135 A 
ATOM     64  C   UNL A   1      46.470  33.255  29.465  1.00  0.00     0.135 A 
ATOM     65  F   UNL A   1      45.665  33.222  25.915  1.00  0.00    -0.206 F 
ATOM     66  C   UNL A   1      46.278  35.006  27.307  1.00  0.00     0.059 A 
ATOM     67  C   UNL A   1      46.724  34.609  29.661  1.00  0.00     0.059 A 
ATOM     68  F   UNL A   1      46.584  32.432  30.520  1.00  0.00    -0.206 F 
ATOM     69  C   UNL A   1      46.635  35.475  28.572  1.00  0.00     0.060 A 
BRANCH  69  70
ATOM     70  S   UNL A   1      46.970  37.238  28.772  1.00  0.00     0.124 S 
ATOM     71  O   UNL A   1      48.300  37.350  28.183  1.00  0.00    -0.237 OA
ATOM     72  O   UNL A   1      45.886  37.848  28.008  1.00  0.00    -0.237 OA
ATOM     73  O   UNL A   1      46.906  37.435  30.216  1.00  0.00    -0.744 OA
ENDBRANCH  69  70
ENDBRANCH  48  62
BRANCH  49  74
ATOM     74  C   UNL A   1      43.443  23.178  26.910  1.00  0.00     0.058 A 
ATOM     75  C   UNL A   1      43.308  22.680  25.605  1.00  0.00     0.135 A 
ATOM     76  C   UNL A   1      43.190  22.296  27.972  1.00  0.00     0.135 A 
ATOM     77  F   UNL A   1      43.534  23.483  24.553  1.00  0.00    -0.206 F 
ATOM     78  C   UNL A   1      42.911  21.369  25.361  1.00  0.00     0.059 A 
ATOM     79  C   UNL A   1      42.821  20.973  27.754  1.00  0.00     0.059 A 
ATOM     80  F   UNL A   1      43.324  22.715  29.240  1.00  0.00    -0.206 F 
ATOM     81  C   UNL A   1      42.671  20.522  26.444  1.00  0.00     0.060 A 
BRANCH  81  82
ATOM     82  S   UNL A   1      42.189  18.812  26.115  1.00  0.00     0.124 S 
ATOM     83  O   UNL A   1      43.124  18.442  25.060  1.00  0.00    -0.237 OA
ATOM     84  O   UNL A   1      42.403  18.179  27.413  1.00  0.00    -0.237 OA
ATOM     85  O   UNL A   1      40.791  18.931  25.708  1.00  0.00    -0.744 OA
ENDBRANCH  81  82
ENDBRANCH  49  74
BRANCH  61  86
ATOM     86  C   UNL A   1      49.494  26.636  26.462  1.00  0.00     0.058 A 
ATOM     87  C   UNL A   1      50.328  26.055  27.430  1.00  0.00     0.135 A 
ATOM     88  C   UNL A   1      49.984  26.737  25.149  1.00  0.00     0.135 A 
ATOM     89  F   UNL A   1      49.912  25.941  28.700  1.00  0.00    -0.206 F 
ATOM     90  C   UNL A   1      51.606  25.606  27.111  1.00  0.00     0.059 A 
ATOM     91  C   UNL A   1      51.245  26.266  24.801  1.00  0.00     0.059 A 
ATOM     92  F   UNL A   1      49.222  27.275  24.183  1.00  0.00    -0.206 F 
ATOM     93  C   UNL A   1      52.053  25.712  25.792  1.00  0.00     0.060 A 
BRANCH  93  94
ATOM     94  S   UNL A   1      53.694  25.081  25.383  1.00  0.00     0.124 S 
ATOM     95  O   UNL A   1      53.450  23.643  25.325  1.00  0.00    -0.237 OA
ATOM     96  O   UNL A   1      53.967  25.729  24.105  1.00  0.00    -0.237 OA
ATOM     97  O   UNL A   1      54.521  25.533  26.499  1.00  0.00    -0.744 OA
ENDBRANCH  93  94
ENDBRANCH  61  86
ENDBRANCH  35  36
ENDBRANCH  27  30
ENDBRANCH  25  26
ENDBRANCH  24  25
ENDBRANCH   1  24
TORSDOF 17
ENDMDL
MODEL 3
REMARK VINA RESULT:     -12.2      1.620      2.171
REMARK SMILES CCc1ccc(CNc2ccc(Cl)c(C(=O)NCCCNC(=O)c3ccc(-c4c5nc(c(-c6c(F)cc(S(=O)(=O)[O-])cc6F)c6ccc([nH]6)c(-c6c(F)cc(S(=O)(=O)[O-])cc6F)c6nc(c(-c7c(F)cc(S(=O)(=O)[O-])cc7F)c7ccc4[nH]7)C=C6)C=C5)cc3)c2)cc1
REMARK SMILES IDX 18 1 17 2 15 3 16 4 14 6 9 7 10 8 90 9 11 10 12 11 13 12
REMARK SMILES IDX 8 13 7 15 6 16 3 17 4 18 92 19 5 20 91 21 2 22 1 23 19 24
REMARK SMILES IDX 20 25 21 26 22 27 23 29 24 30 25 31 89 32 26 33 88 34 27 35
REMARK SMILES IDX 28 36 29 37 82 38 30 39 87 40 81 41 83 42 31 43 86 44 80 45
REMARK SMILES IDX 79 46 32 48 66 49 45 50 65 51 46 52 49 53 64 54 84 55 47 56
REMARK SMILES IDX 48 57 63 59 85 60 50 61 33 62 34 63 43 64 35 65 36 66 42 67
REMARK SMILES IDX 44 68 37 69 38 70 39 71 40 72 41 73 67 74 68 75 77 76 69 77
REMARK SMILES IDX 70 78 76 79 78 80 71 81 72 82 73 83 74 84 75 85 51 86 52 87
REMARK SMILES IDX 61 88 53 89 54 90 60 91 62 92 55 93 56 94 57 95 58 96 59 97
REMARK H PARENT 17 5 8 14 21 28 83 47 49 58
REMARK Flexibility Score: inf
ROOT
ATOM      1  C   UNL A   1      37.741  22.635  25.861  1.00  0.00     0.118 C 
ENDROOT
BRANCH   1   2
ATOM      2  N   UNL A   1      37.378  22.736  24.449  1.00  0.00    -0.352 N 
ATOM      3  C   UNL A   1      36.184  22.734  23.752  1.00  0.00     0.252 C 
ATOM      4  O   UNL A   1      36.255  22.951  22.544  1.00  0.00    -0.269 OA
ATOM      5  H   UNL A   1      38.162  22.824  23.859  1.00  0.00     0.163 HD
BRANCH   3   6
ATOM      6  C   UNL A   1      34.866  22.463  24.398  1.00  0.00     0.060 A 
ATOM      7  C   UNL A   1      32.815  23.440  25.306  1.00  0.00     0.035 A 
ATOM      8  C   UNL A   1      32.518  22.215  25.901  1.00  0.00     0.027 A 
ATOM      9  C   UNL A   1      33.903  23.476  24.437  1.00  0.00     0.041 A 
ATOM     10  C   UNL A   1      33.343  21.106  25.704  1.00  0.00     0.023 A 
ATOM     11  C   UNL A   1      34.542  21.236  24.992  1.00  0.00     0.053 A 
ATOM     12  Cl  UNL A   1      35.529  19.821  24.913  1.00  0.00    -0.083 Cl
BRANCH   7  13
ATOM     13  N   UNL A   1      32.030  24.534  25.574  1.00  0.00    -0.381 N 
ATOM     14  H   UNL A   1      31.518  24.513  26.416  1.00  0.00     0.160 HD
BRANCH  13  15
ATOM     15  C   UNL A   1      31.876  25.720  24.746  1.00  0.00     0.148 C 
BRANCH  15  16
ATOM     16  C   UNL A   1      32.340  26.913  25.537  1.00  0.00    -0.029 A 
ATOM     17  C   UNL A   1      33.210  29.201  26.922  1.00  0.00    -0.048 A 
ATOM     18  C   UNL A   1      34.020  28.618  25.942  1.00  0.00     0.004 A 
ATOM     19  C   UNL A   1      31.991  28.591  27.248  1.00  0.00     0.004 A 
ATOM     20  C   UNL A   1      33.592  27.484  25.263  1.00  0.00     0.006 A 
ATOM     21  C   UNL A   1      31.559  27.454  26.563  1.00  0.00     0.006 A 
BRANCH  17  22
ATOM     22  C   UNL A   1      33.649  30.464  27.617  1.00  0.00     0.032 C 
ATOM     23  C   UNL A   1      35.162  30.531  27.800  1.00  0.00     0.009 C 
ENDBRANCH  17  22
ENDBRANCH  15  16
ENDBRANCH  13  15
ENDBRANCH   7  13
ENDBRANCH   3   6
ENDBRANCH   1   2
BRANCH   1  24
ATOM     24  C   UNL A   1      39.135  22.096  26.122  1.00  0.00     0.042 C 
BRANCH  24  25
ATOM     25  C   UNL A   1      40.040  23.036  26.894  1.00  0.00     0.118 C 
BRANCH  25  26
ATOM     26  N   UNL A   1      41.196  23.476  26.120  1.00  0.00    -0.352 N 
ATOM     27  C   UNL A   1      41.868  24.678  26.109  1.00  0.00     0.251 C 
ATOM     28  H   UNL A   1      41.556  22.800  25.501  1.00  0.00     0.163 HD
ATOM     29  O   UNL A   1      42.690  24.900  25.227  1.00  0.00    -0.269 OA
BRANCH  27  30
ATOM     30  C   UNL A   1      41.589  25.706  27.138  1.00  0.00     0.039 A 
ATOM     31  C   UNL A   1      40.592  25.471  28.090  1.00  0.00     0.014 A 
ATOM     32  C   UNL A   1      42.296  26.908  27.159  1.00  0.00     0.014 A 
ATOM     33  C   UNL A   1      40.371  26.404  29.108  1.00  0.00     0.010 A 
ATOM     34  C   UNL A   1      42.155  27.779  28.233  1.00  0.00     0.010 A 
ATOM     35  C   UNL A   1      41.183  27.544  29.214  1.00  0.00    -0.014 A 
BRANCH  35  36
ATOM     36  C   UNL A   1      41.032  28.522  30.324  1.00  0.00     0.031 A 
ATOM     37  C   UNL A   1      41.890  28.391  31.555  1.00  0.00     0.074 A 
ATOM     38  C   UNL A   1      40.068  29.461  30.263  1.00  0.00     0.049 A 
ATOM     39  N   UNL A   1      41.827  29.054  32.681  1.00  0.00    -0.248 NA
ATOM     40  C   UNL A   1      42.935  27.353  31.532  1.00  0.00     0.031 C 
ATOM     41  C   UNL A   1      39.141  29.655  29.145  1.00  0.00     0.029 A 
ATOM     42  N   UNL A   1      39.693  30.422  31.170  1.00  0.00    -0.354 N 
ATOM     43  C   UNL A   1      42.801  28.499  33.503  1.00  0.00     0.074 A 
ATOM     44  C   UNL A   1      43.402  27.407  32.771  1.00  0.00     0.031 C 
ATOM     45  C   UNL A   1      38.319  30.681  29.424  1.00  0.00     0.029 A 
ATOM     46  C   UNL A   1      38.626  31.187  30.758  1.00  0.00     0.049 A 
ATOM     47  H   UNL A   1      40.145  30.550  32.036  1.00  0.00     0.167 HD
ATOM     48  C   UNL A   1      43.180  28.881  34.745  1.00  0.00     0.037 A 
ATOM     49  C   UNL A   1      37.960  32.174  31.391  1.00  0.00     0.037 A 
ATOM     50  C   UNL A   1      42.599  29.993  35.451  1.00  0.00     0.049 A 
ATOM     51  C   UNL A   1      38.399  32.580  32.772  1.00  0.00     0.074 A 
ATOM     52  C   UNL A   1      42.952  30.504  36.687  1.00  0.00     0.029 A 
ATOM     53  N   UNL A   1      41.545  30.765  34.985  1.00  0.00    -0.354 N 
ATOM     54  N   UNL A   1      39.366  32.085  33.509  1.00  0.00    -0.248 NA
ATOM     55  C   UNL A   1      37.662  33.681  33.409  1.00  0.00     0.031 C 
ATOM     56  C   UNL A   1      42.079  31.553  36.991  1.00  0.00     0.029 A 
ATOM     57  C   UNL A   1      41.222  31.735  35.918  1.00  0.00     0.049 A 
ATOM     58  H   UNL A   1      41.094  30.642  34.118  1.00  0.00     0.167 HD
ATOM     59  C   UNL A   1      39.376  32.839  34.678  1.00  0.00     0.074 A 
ATOM     60  C   UNL A   1      38.325  33.825  34.548  1.00  0.00     0.031 C 
ATOM     61  C   UNL A   1      40.184  32.724  35.761  1.00  0.00     0.037 A 
BRANCH  48  62
ATOM     62  C   UNL A   1      44.276  28.102  35.419  1.00  0.00     0.058 A 
ATOM     63  C   UNL A   1      45.629  28.442  35.261  1.00  0.00     0.135 A 
ATOM     64  C   UNL A   1      43.969  27.032  36.276  1.00  0.00     0.135 A 
ATOM     65  F   UNL A   1      45.983  29.445  34.440  1.00  0.00    -0.206 F 
ATOM     66  C   UNL A   1      46.639  27.736  35.906  1.00  0.00     0.059 A 
ATOM     67  C   UNL A   1      44.960  26.332  36.957  1.00  0.00     0.059 A 
ATOM     68  F   UNL A   1      42.692  26.661  36.463  1.00  0.00    -0.206 F 
ATOM     69  C   UNL A   1      46.294  26.685  36.756  1.00  0.00     0.060 A 
BRANCH  69  70
ATOM     70  S   UNL A   1      47.616  25.797  37.605  1.00  0.00     0.124 S 
ATOM     71  O   UNL A   1      48.368  25.249  36.480  1.00  0.00    -0.237 OA
ATOM     72  O   UNL A   1      48.279  26.864  38.349  1.00  0.00    -0.237 OA
ATOM     73  O   UNL A   1      46.902  24.818  38.418  1.00  0.00    -0.744 OA
ENDBRANCH  69  70
ENDBRANCH  48  62
BRANCH  49  74
ATOM     74  C   UNL A   1      36.817  32.854  30.721  1.00  0.00     0.058 A 
ATOM     75  C   UNL A   1      37.034  33.830  29.736  1.00  0.00     0.135 A 
ATOM     76  C   UNL A   1      35.488  32.548  31.051  1.00  0.00     0.135 A 
ATOM     77  F   UNL A   1      38.287  34.163  29.386  1.00  0.00    -0.206 F 
ATOM     78  C   UNL A   1      35.978  34.495  29.121  1.00  0.00     0.059 A 
ATOM     79  C   UNL A   1      34.415  33.178  30.429  1.00  0.00     0.059 A 
ATOM     80  F   UNL A   1      35.223  31.609  31.972  1.00  0.00    -0.206 F 
ATOM     81  C   UNL A   1      34.670  34.161  29.475  1.00  0.00     0.060 A 
BRANCH  81  82
ATOM     82  S   UNL A   1      33.306  35.007  28.646  1.00  0.00     0.124 S 
ATOM     83  O   UNL A   1      32.705  33.919  27.885  1.00  0.00    -0.237 OA
ATOM     84  O   UNL A   1      32.527  35.507  29.774  1.00  0.00    -0.237 OA
ATOM     85  O   UNL A   1      33.980  36.034  27.856  1.00  0.00    -0.744 OA
ENDBRANCH  81  82
ENDBRANCH  49  74
BRANCH  61  86
ATOM     86  C   UNL A   1      40.005  33.720  36.874  1.00  0.00     0.058 A 
ATOM     87  C   UNL A   1      40.646  34.968  36.863  1.00  0.00     0.135 A 
ATOM     88  C   UNL A   1      39.119  33.446  37.929  1.00  0.00     0.135 A 
ATOM     89  F   UNL A   1      41.507  35.277  35.881  1.00  0.00    -0.206 F 
ATOM     90  C   UNL A   1      40.429  35.903  37.870  1.00  0.00     0.059 A 
ATOM     91  C   UNL A   1      38.864  34.378  38.930  1.00  0.00     0.059 A 
ATOM     92  F   UNL A   1      38.472  32.271  37.982  1.00  0.00    -0.206 F 
ATOM     93  C   UNL A   1      39.532  35.600  38.896  1.00  0.00     0.060 A 
BRANCH  93  94
ATOM     94  S   UNL A   1      39.224  36.842  40.169  1.00  0.00     0.124 S 
ATOM     95  O   UNL A   1      38.246  36.163  41.013  1.00  0.00    -0.237 OA
ATOM     96  O   UNL A   1      40.548  37.023  40.754  1.00  0.00    -0.237 OA
ATOM     97  O   UNL A   1      38.716  37.985  39.415  1.00  0.00    -0.744 OA
ENDBRANCH  93  94
ENDBRANCH  61  86
ENDBRANCH  35  36
ENDBRANCH  27  30
ENDBRANCH  25  26
ENDBRANCH  24  25
ENDBRANCH   1  24
TORSDOF 17
ENDMDL
