MODEL 1
REMARK VINA RESULT:     -12.6      0.000      0.000
REMARK SMILES COc1cccc([C@@H]2[NH2+][C@@](C)(C(=O)NCCCNC(=O)c3ccc(-c4c5nc(c(-c6c(F)cc(S(=O)(=O)[O-])cc6F)c6ccc([nH]6)c(-c6c(F)cc(S(=O)(=O)[O-])cc6F)c6nc(c(-c7c(F)cc(S(=O)(=O)[O-])cc7F)c7ccc4[nH]7)C=C6)C=C5)cc3)[C@@H]3C(=O)N(C)C(=O)[C@@H]32)c1O
REMARK SMILES IDX 16 1 15 2 14 3 12 4 13 5 10 7 8 8 9 9 94 10 87 13 92 14
REMARK SMILES IDX 11 15 88 16 90 17 93 18 89 19 91 20 7 21 3 22 4 23 95 24
REMARK SMILES IDX 5 25 6 26 2 27 1 28 96 29 17 31 18 32 19 33 20 35 21 36
REMARK SMILES IDX 22 37 86 38 23 39 85 40 24 41 25 42 26 43 79 44 27 45 84 46
REMARK SMILES IDX 78 47 80 48 28 49 83 50 77 51 76 52 29 54 63 55 42 56 62 57
REMARK SMILES IDX 43 58 46 59 61 60 81 61 44 62 45 63 60 65 82 66 47 67 30 68
REMARK SMILES IDX 31 69 40 70 32 71 33 72 39 73 41 74 34 75 35 76 36 77 37 78
REMARK SMILES IDX 38 79 64 80 65 81 74 82 66 83 67 84 73 85 75 86 68 87 69 88
REMARK SMILES IDX 70 89 71 90 72 91 48 92 49 93 58 94 50 95 51 96 57 97 59 98
REMARK SMILES IDX 52 99 53 100 54 101 55 102 56 103
REMARK H PARENT 14 6 9 11 9 12 96 30 18 34 80 53 46 64
REMARK Flexibility Score: inf
ROOT
ATOM      1  C   UNL A   1      33.687  28.250  25.395  1.00  0.00     0.042 C 
ENDROOT
BRANCH   1   2
ATOM      2  C   UNL A   1      32.365  27.766  24.823  1.00  0.00     0.118 C 
BRANCH   2   3
ATOM      3  N   UNL A   1      31.579  27.025  25.796  1.00  0.00    -0.351 N 
ATOM      4  C   UNL A   1      31.209  25.710  25.813  1.00  0.00     0.281 C 
ATOM      5  O   UNL A   1      30.475  25.347  26.737  1.00  0.00    -0.268 OA
ATOM      6  H   UNL A   1      31.264  27.554  26.564  1.00  0.00     0.163 HD
BRANCH   4   7
ATOM      7  C   UNL A   1      31.743  24.711  24.738  1.00  0.00     0.185 C 
ATOM      8  C   UNL A   1      32.172  22.495  25.624  1.00  0.00     0.232 C 
ATOM      9  N   UNL A   1      31.145  23.378  25.024  1.00  0.00    -0.326 N 
ATOM     10  C   UNL A   1      33.407  23.371  25.879  1.00  0.00     0.161 C 
ATOM     11  H   UNL A   1      30.368  23.487  25.676  1.00  0.00     0.347 HD
ATOM     12  H   UNL A   1      30.805  22.964  24.156  1.00  0.00     0.347 HD
ATOM     13  C   UNL A   1      33.254  24.543  24.920  1.00  0.00     0.169 C 
ATOM     14  C   UNL A   1      34.732  22.780  25.481  1.00  0.00     0.239 C 
ATOM     15  C   UNL A   1      31.365  25.299  23.366  1.00  0.00     0.091 C 
ATOM     16  C   UNL A   1      34.111  24.116  23.751  1.00  0.00     0.240 C 
ATOM     17  N   UNL A   1      35.029  23.218  24.218  1.00  0.00    -0.285 N 
ATOM     18  O   UNL A   1      35.392  22.009  26.155  1.00  0.00    -0.274 OA
ATOM     19  O   UNL A   1      34.029  24.511  22.597  1.00  0.00    -0.274 OA
ATOM     20  C   UNL A   1      36.125  22.691  23.442  1.00  0.00     0.156 C 
BRANCH   8  21
ATOM     21  C   UNL A   1      32.420  21.217  24.818  1.00  0.00     0.056 A 
ATOM     22  C   UNL A   1      32.728  18.787  24.658  1.00  0.00     0.161 A 
ATOM     23  C   UNL A   1      32.533  18.869  23.278  1.00  0.00     0.050 A 
ATOM     24  C   UNL A   1      32.737  19.972  25.402  1.00  0.00     0.166 A 
ATOM     25  C   UNL A   1      32.304  20.098  22.661  1.00  0.00     0.005 A 
ATOM     26  C   UNL A   1      32.223  21.259  23.427  1.00  0.00     0.014 A 
BRANCH  22  27
ATOM     27  O   UNL A   1      32.969  17.520  25.117  1.00  0.00    -0.493 OA
ATOM     28  C   UNL A   1      33.411  16.556  24.171  1.00  0.00     0.278 C 
ENDBRANCH  22  27
BRANCH  24  29
ATOM     29  O   UNL A   1      33.152  19.998  26.703  1.00  0.00    -0.504 OA
ATOM     30  H   UNL A   1      32.561  19.749  27.388  1.00  0.00     0.293 HD
ENDBRANCH  24  29
ENDBRANCH   8  21
ENDBRANCH   4   7
ENDBRANCH   2   3
ENDBRANCH   1   2
BRANCH   1  31
ATOM     31  C   UNL A   1      33.692  28.371  26.912  1.00  0.00     0.118 C 
BRANCH  31  32
ATOM     32  N   UNL A   1      33.603  29.753  27.371  1.00  0.00    -0.352 N 
ATOM     33  C   UNL A   1      34.508  30.518  28.063  1.00  0.00     0.251 C 
ATOM     34  H   UNL A   1      32.759  30.209  27.148  1.00  0.00     0.163 HD
ATOM     35  O   UNL A   1      34.160  31.605  28.513  1.00  0.00    -0.269 OA
BRANCH  33  36
ATOM     36  C   UNL A   1      35.885  30.026  28.286  1.00  0.00     0.039 A 
ATOM     37  C   UNL A   1      36.809  30.109  27.242  1.00  0.00     0.014 A 
ATOM     38  C   UNL A   1      36.266  29.479  29.513  1.00  0.00     0.014 A 
ATOM     39  C   UNL A   1      38.131  29.710  27.456  1.00  0.00     0.010 A 
ATOM     40  C   UNL A   1      37.603  29.179  29.755  1.00  0.00     0.010 A 
ATOM     41  C   UNL A   1      38.549  29.282  28.727  1.00  0.00    -0.014 A 
BRANCH  41  42
ATOM     42  C   UNL A   1      39.969  28.936  28.996  1.00  0.00     0.031 A 
ATOM     43  C   UNL A   1      40.895  29.958  29.601  1.00  0.00     0.074 A 
ATOM     44  C   UNL A   1      40.437  27.721  28.642  1.00  0.00     0.049 A 
ATOM     45  N   UNL A   1      42.173  29.859  29.865  1.00  0.00    -0.248 NA
ATOM     46  C   UNL A   1      40.319  31.272  29.927  1.00  0.00     0.031 C 
ATOM     47  C   UNL A   1      39.649  26.664  28.003  1.00  0.00     0.029 A 
ATOM     48  N   UNL A   1      41.688  27.171  28.765  1.00  0.00    -0.354 N 
ATOM     49  C   UNL A   1      42.553  31.098  30.369  1.00  0.00     0.074 A 
ATOM     50  C   UNL A   1      41.387  31.949  30.322  1.00  0.00     0.031 C 
ATOM     51  C   UNL A   1      40.426  25.584  27.823  1.00  0.00     0.029 A 
ATOM     52  C   UNL A   1      41.775  25.883  28.290  1.00  0.00     0.049 A 
ATOM     53  H   UNL A   1      42.452  27.652  29.157  1.00  0.00     0.167 HD
ATOM     54  C   UNL A   1      43.760  31.481  30.850  1.00  0.00     0.037 A 
ATOM     55  C   UNL A   1      42.826  25.041  28.230  1.00  0.00     0.037 A 
ATOM     56  C   UNL A   1      44.909  30.617  30.918  1.00  0.00     0.049 A 
ATOM     57  C   UNL A   1      44.158  25.497  28.762  1.00  0.00     0.074 A 
ATOM     58  C   UNL A   1      46.158  30.889  31.451  1.00  0.00     0.029 A 
ATOM     59  N   UNL A   1      44.955  29.318  30.435  1.00  0.00    -0.354 N 
ATOM     60  N   UNL A   1      44.480  26.646  29.307  1.00  0.00    -0.248 NA
ATOM     61  C   UNL A   1      45.269  24.539  28.677  1.00  0.00     0.031 C 
ATOM     62  C   UNL A   1      46.975  29.775  31.236  1.00  0.00     0.029 A 
ATOM     63  C   UNL A   1      46.220  28.786  30.629  1.00  0.00     0.049 A 
ATOM     64  H   UNL A   1      44.202  28.844  30.015  1.00  0.00     0.167 HD
ATOM     65  C   UNL A   1      45.820  26.536  29.662  1.00  0.00     0.074 A 
ATOM     66  C   UNL A   1      46.245  25.206  29.279  1.00  0.00     0.031 C 
ATOM     67  C   UNL A   1      46.625  27.453  30.254  1.00  0.00     0.037 A 
BRANCH  54  68
ATOM     68  C   UNL A   1      43.904  32.898  31.341  1.00  0.00     0.058 A 
ATOM     69  C   UNL A   1      44.344  33.933  30.500  1.00  0.00     0.135 A 
ATOM     70  C   UNL A   1      43.549  33.233  32.658  1.00  0.00     0.135 A 
ATOM     71  F   UNL A   1      44.711  33.668  29.236  1.00  0.00    -0.206 F 
ATOM     72  C   UNL A   1      44.452  35.244  30.954  1.00  0.00     0.059 A 
ATOM     73  C   UNL A   1      43.619  34.543  33.123  1.00  0.00     0.059 A 
ATOM     74  F   UNL A   1      43.123  32.284  33.506  1.00  0.00    -0.206 F 
ATOM     75  C   UNL A   1      44.083  35.539  32.266  1.00  0.00     0.060 A 
BRANCH  75  76
ATOM     76  S   UNL A   1      44.214  37.248  32.833  1.00  0.00     0.124 S 
ATOM     77  O   UNL A   1      45.605  37.304  33.272  1.00  0.00    -0.237 OA
ATOM     78  O   UNL A   1      43.901  38.002  31.622  1.00  0.00    -0.237 OA
ATOM     79  O   UNL A   1      43.218  37.334  33.896  1.00  0.00    -0.744 OA
ENDBRANCH  75  76
ENDBRANCH  54  68
BRANCH  55  80
ATOM     80  C   UNL A   1      42.657  23.672  27.668  1.00  0.00     0.058 A 
ATOM     81  C   UNL A   1      42.423  22.572  28.506  1.00  0.00     0.135 A 
ATOM     82  C   UNL A   1      42.731  23.433  26.286  1.00  0.00     0.135 A 
ATOM     83  F   UNL A   1      42.348  22.746  29.835  1.00  0.00    -0.206 F 
ATOM     84  C   UNL A   1      42.293  21.282  28.001  1.00  0.00     0.059 A 
ATOM     85  C   UNL A   1      42.575  22.157  25.754  1.00  0.00     0.059 A 
ATOM     86  F   UNL A   1      42.938  24.453  25.437  1.00  0.00    -0.206 F 
ATOM     87  C   UNL A   1      42.371  21.085  26.621  1.00  0.00     0.060 A 
BRANCH  87  88
ATOM     88  S   UNL A   1      42.171  19.412  25.974  1.00  0.00     0.124 S 
ATOM     89  O   UNL A   1      42.993  19.462  24.771  1.00  0.00    -0.237 OA
ATOM     90  O   UNL A   1      42.690  18.597  27.068  1.00  0.00    -0.237 OA
ATOM     91  O   UNL A   1      40.733  19.307  25.752  1.00  0.00    -0.744 OA
ENDBRANCH  87  88
ENDBRANCH  55  80
BRANCH  67  92
ATOM     92  C   UNL A   1      48.037  27.038  30.571  1.00  0.00     0.058 A 
ATOM     93  C   UNL A   1      49.092  27.242  29.669  1.00  0.00     0.135 A 
ATOM     94  C   UNL A   1      48.344  26.478  31.823  1.00  0.00     0.135 A 
ATOM     95  F   UNL A   1      48.853  27.768  28.457  1.00  0.00    -0.206 F 
ATOM     96  C   UNL A   1      50.398  26.882  29.985  1.00  0.00     0.059 A 
ATOM     97  C   UNL A   1      49.648  26.141  32.173  1.00  0.00     0.059 A 
ATOM     98  F   UNL A   1      47.374  26.272  32.728  1.00  0.00    -0.206 F 
ATOM     99  C   UNL A   1      50.666  26.334  31.242  1.00  0.00     0.060 A 
BRANCH  99 100
ATOM    100  S   UNL A   1      52.371  25.906  31.652  1.00  0.00     0.124 S 
ATOM    101  O   UNL A   1      52.668  26.866  32.710  1.00  0.00    -0.237 OA
ATOM    102  O   UNL A   1      52.250  24.515  32.075  1.00  0.00    -0.237 OA
ATOM    103  O   UNL A   1      53.086  26.115  30.397  1.00  0.00    -0.744 OA
ENDBRANCH  99 100
ENDBRANCH  67  92
ENDBRANCH  41  42
ENDBRANCH  33  36
ENDBRANCH  31  32
ENDBRANCH   1  31
TORSDOF 16
ENDMDL
MODEL 2
REMARK VINA RESULT:     -12.4      4.837     10.538
REMARK SMILES COc1cccc([C@@H]2[NH2+][C@@](C)(C(=O)NCCCNC(=O)c3ccc(-c4c5nc(c(-c6c(F)cc(S(=O)(=O)[O-])cc6F)c6ccc([nH]6)c(-c6c(F)cc(S(=O)(=O)[O-])cc6F)c6nc(c(-c7c(F)cc(S(=O)(=O)[O-])cc7F)c7ccc4[nH]7)C=C6)C=C5)cc3)[C@@H]3C(=O)N(C)C(=O)[C@@H]32)c1O
REMARK SMILES IDX 16 1 15 2 14 3 12 4 13 5 10 7 8 8 9 9 94 10 87 13 92 14
REMARK SMILES IDX 11 15 88 16 90 17 93 18 89 19 91 20 7 21 3 22 4 23 95 24
REMARK SMILES IDX 5 25 6 26 2 27 1 28 96 29 17 31 18 32 19 33 20 35 21 36
REMARK SMILES IDX 22 37 86 38 23 39 85 40 24 41 25 42 26 43 79 44 27 45 84 46
REMARK SMILES IDX 78 47 80 48 28 49 83 50 77 51 76 52 29 54 63 55 42 56 62 57
REMARK SMILES IDX 43 58 46 59 61 60 81 61 44 62 45 63 60 65 82 66 47 67 30 68
REMARK SMILES IDX 31 69 40 70 32 71 33 72 39 73 41 74 34 75 35 76 36 77 37 78
REMARK SMILES IDX 38 79 64 80 65 81 74 82 66 83 67 84 73 85 75 86 68 87 69 88
REMARK SMILES IDX 70 89 71 90 72 91 48 92 49 93 58 94 50 95 51 96 57 97 59 98
REMARK SMILES IDX 52 99 53 100 54 101 55 102 56 103
REMARK H PARENT 14 6 9 11 9 12 96 30 18 34 80 53 46 64
REMARK Flexibility Score: inf
ROOT
ATOM      1  C   UNL A   1      37.230  23.064  25.766  1.00  0.00     0.042 C 
ENDROOT
BRANCH   1   2
ATOM      2  C   UNL A   1      35.846  23.544  25.362  1.00  0.00     0.118 C 
BRANCH   2   3
ATOM      3  N   UNL A   1      35.595  23.372  23.940  1.00  0.00    -0.351 N 
ATOM      4  C   UNL A   1      34.461  23.596  23.212  1.00  0.00     0.281 C 
ATOM      5  O   UNL A   1      34.497  23.302  22.013  1.00  0.00    -0.268 OA
ATOM      6  H   UNL A   1      36.363  23.043  23.420  1.00  0.00     0.163 HD
BRANCH   4   7
ATOM      7  C   UNL A   1      33.201  24.247  23.867  1.00  0.00     0.185 C 
ATOM      8  C   UNL A   1      32.588  26.366  22.858  1.00  0.00     0.232 C 
ATOM      9  N   UNL A   1      32.414  24.897  22.783  1.00  0.00    -0.326 N 
ATOM     10  C   UNL A   1      33.665  26.624  23.923  1.00  0.00     0.161 C 
ATOM     11  H   UNL A   1      32.742  24.562  21.877  1.00  0.00     0.347 HD
ATOM     12  H   UNL A   1      31.426  24.665  22.894  1.00  0.00     0.347 HD
ATOM     13  C   UNL A   1      33.651  25.378  24.797  1.00  0.00     0.169 C 
ATOM     14  C   UNL A   1      33.375  27.727  24.904  1.00  0.00     0.239 C 
ATOM     15  C   UNL A   1      32.459  23.120  24.608  1.00  0.00     0.091 C 
ATOM     16  C   UNL A   1      32.769  25.802  25.948  1.00  0.00     0.240 C 
ATOM     17  N   UNL A   1      32.806  27.167  26.017  1.00  0.00    -0.285 N 
ATOM     18  O   UNL A   1      33.571  28.914  24.710  1.00  0.00    -0.274 OA
ATOM     19  O   UNL A   1      32.148  25.072  26.706  1.00  0.00    -0.274 OA
ATOM     20  C   UNL A   1      32.217  27.949  27.076  1.00  0.00     0.156 C 
BRANCH   8  21
ATOM     21  C   UNL A   1      31.273  27.125  23.047  1.00  0.00     0.056 A 
ATOM     22  C   UNL A   1      29.754  28.983  22.530  1.00  0.00     0.161 A 
ATOM     23  C   UNL A   1      28.720  28.295  23.167  1.00  0.00     0.050 A 
ATOM     24  C   UNL A   1      31.035  28.420  22.538  1.00  0.00     0.166 A 
ATOM     25  C   UNL A   1      28.946  27.053  23.756  1.00  0.00     0.005 A 
ATOM     26  C   UNL A   1      30.206  26.461  23.676  1.00  0.00     0.014 A 
BRANCH  22  27
ATOM     27  O   UNL A   1      29.390  30.201  22.022  1.00  0.00    -0.493 OA
ATOM     28  C   UNL A   1      28.019  30.390  21.697  1.00  0.00     0.278 C 
ENDBRANCH  22  27
BRANCH  24  29
ATOM     29  O   UNL A   1      32.133  29.131  22.148  1.00  0.00    -0.504 OA
ATOM     30  H   UNL A   1      32.110  30.069  22.153  1.00  0.00     0.293 HD
ENDBRANCH  24  29
ENDBRANCH   8  21
ENDBRANCH   4   7
ENDBRANCH   2   3
ENDBRANCH   1   2
BRANCH   1  31
ATOM     31  C   UNL A   1      38.096  24.146  26.395  1.00  0.00     0.118 C 
BRANCH  31  32
ATOM     32  N   UNL A   1      39.521  23.933  26.170  1.00  0.00    -0.352 N 
ATOM     33  C   UNL A   1      40.606  24.652  26.607  1.00  0.00     0.251 C 
ATOM     34  H   UNL A   1      39.740  23.149  25.616  1.00  0.00     0.163 HD
ATOM     35  O   UNL A   1      41.718  24.406  26.149  1.00  0.00    -0.269 OA
BRANCH  33  36
ATOM     36  C   UNL A   1      40.434  25.729  27.606  1.00  0.00     0.039 A 
ATOM     37  C   UNL A   1      39.501  25.558  28.631  1.00  0.00     0.014 A 
ATOM     38  C   UNL A   1      41.182  26.906  27.533  1.00  0.00     0.014 A 
ATOM     39  C   UNL A   1      39.372  26.535  29.619  1.00  0.00     0.010 A 
ATOM     40  C   UNL A   1      41.126  27.830  28.572  1.00  0.00     0.010 A 
ATOM     41  C   UNL A   1      40.214  27.660  29.623  1.00  0.00    -0.014 A 
BRANCH  41  42
ATOM     42  C   UNL A   1      40.152  28.669  30.713  1.00  0.00     0.031 A 
ATOM     43  C   UNL A   1      41.056  28.544  31.911  1.00  0.00     0.074 A 
ATOM     44  C   UNL A   1      39.241  29.661  30.650  1.00  0.00     0.049 A 
ATOM     45  N   UNL A   1      41.116  29.294  32.981  1.00  0.00    -0.248 NA
ATOM     46  C   UNL A   1      41.998  27.413  31.923  1.00  0.00     0.031 C 
ATOM     47  C   UNL A   1      38.277  29.858  29.565  1.00  0.00     0.029 A 
ATOM     48  N   UNL A   1      38.974  30.690  31.519  1.00  0.00    -0.354 N 
ATOM     49  C   UNL A   1      42.084  28.718  33.796  1.00  0.00     0.074 A 
ATOM     50  C   UNL A   1      42.546  27.525  33.123  1.00  0.00     0.031 C 
ATOM     51  C   UNL A   1      37.549  30.958  29.816  1.00  0.00     0.029 A 
ATOM     52  C   UNL A   1      37.961  31.520  31.098  1.00  0.00     0.049 A 
ATOM     53  H   UNL A   1      39.462  30.821  32.364  1.00  0.00     0.167 HD
ATOM     54  C   UNL A   1      42.561  29.158  34.984  1.00  0.00     0.037 A 
ATOM     55  C   UNL A   1      37.420  32.608  31.683  1.00  0.00     0.037 A 
ATOM     56  C   UNL A   1      42.113  30.363  35.633  1.00  0.00     0.049 A 
ATOM     57  C   UNL A   1      37.962  33.069  33.009  1.00  0.00     0.074 A 
ATOM     58  C   UNL A   1      42.582  30.932  36.805  1.00  0.00     0.029 A 
ATOM     59  N   UNL A   1      41.092  31.181  35.172  1.00  0.00    -0.354 N 
ATOM     60  N   UNL A   1      38.933  32.556  33.728  1.00  0.00    -0.248 NA
ATOM     61  C   UNL A   1      37.341  34.261  33.601  1.00  0.00     0.031 C 
ATOM     62  C   UNL A   1      41.804  32.060  37.082  1.00  0.00     0.029 A 
ATOM     63  C   UNL A   1      40.895  32.233  36.052  1.00  0.00     0.049 A 
ATOM     64  H   UNL A   1      40.583  31.036  34.342  1.00  0.00     0.167 HD
ATOM     65  C   UNL A   1      39.062  33.383  34.839  1.00  0.00     0.074 A 
ATOM     66  C   UNL A   1      38.077  34.434  34.691  1.00  0.00     0.031 C 
ATOM     67  C   UNL A   1      39.919  33.281  35.884  1.00  0.00     0.037 A 
BRANCH  54  68
ATOM     68  C   UNL A   1      43.621  28.335  35.665  1.00  0.00     0.058 A 
ATOM     69  C   UNL A   1      44.990  28.540  35.423  1.00  0.00     0.135 A 
ATOM     70  C   UNL A   1      43.266  27.359  36.611  1.00  0.00     0.135 A 
ATOM     71  F   UNL A   1      45.388  29.449  34.518  1.00  0.00    -0.206 F 
ATOM     72  C   UNL A   1      45.965  27.791  36.074  1.00  0.00     0.059 A 
ATOM     73  C   UNL A   1      44.226  26.620  37.297  1.00  0.00     0.059 A 
ATOM     74  F   UNL A   1      41.973  27.119  36.882  1.00  0.00    -0.206 F 
ATOM     75  C   UNL A   1      45.573  26.836  37.012  1.00  0.00     0.060 A 
BRANCH  75  76
ATOM     76  S   UNL A   1      46.853  25.885  37.858  1.00  0.00     0.124 S 
ATOM     77  O   UNL A   1      46.184  24.603  38.051  1.00  0.00    -0.237 OA
ATOM     78  O   UNL A   1      47.940  25.893  36.884  1.00  0.00    -0.237 OA
ATOM     79  O   UNL A   1      47.100  26.652  39.075  1.00  0.00    -0.744 OA
ENDBRANCH  75  76
ENDBRANCH  54  68
BRANCH  55  80
ATOM     80  C   UNL A   1      36.320  33.351  31.009  1.00  0.00     0.058 A 
ATOM     81  C   UNL A   1      36.571  34.135  29.873  1.00  0.00     0.135 A 
ATOM     82  C   UNL A   1      35.001  33.299  31.486  1.00  0.00     0.135 A 
ATOM     83  F   UNL A   1      37.815  34.223  29.380  1.00  0.00    -0.206 F 
ATOM     84  C   UNL A   1      35.561  34.861  29.249  1.00  0.00     0.059 A 
ATOM     85  C   UNL A   1      33.968  33.991  30.861  1.00  0.00     0.059 A 
ATOM     86  F   UNL A   1      34.703  32.550  32.560  1.00  0.00    -0.206 F 
ATOM     87  C   UNL A   1      34.261  34.782  29.751  1.00  0.00     0.060 A 
BRANCH  87  88
ATOM     88  S   UNL A   1      32.953  35.703  28.915  1.00  0.00     0.124 S 
ATOM     89  O   UNL A   1      33.719  36.721  28.205  1.00  0.00    -0.237 OA
ATOM     90  O   UNL A   1      32.336  34.673  28.085  1.00  0.00    -0.237 OA
ATOM     91  O   UNL A   1      32.127  36.188  30.016  1.00  0.00    -0.744 OA
ENDBRANCH  87  88
ENDBRANCH  55  80
BRANCH  67  92
ATOM     92  C   UNL A   1      39.869  34.361  36.932  1.00  0.00     0.058 A 
ATOM     93  C   UNL A   1      40.620  35.541  36.820  1.00  0.00     0.135 A 
ATOM     94  C   UNL A   1      39.011  34.233  38.038  1.00  0.00     0.135 A 
ATOM     95  F   UNL A   1      41.460  35.711  35.787  1.00  0.00    -0.206 F 
ATOM     96  C   UNL A   1      40.543  36.545  37.780  1.00  0.00     0.059 A 
ATOM     97  C   UNL A   1      38.894  35.239  38.993  1.00  0.00     0.059 A 
ATOM     98  F   UNL A   1      38.261  33.130  38.189  1.00  0.00    -0.206 F 
ATOM     99  C   UNL A   1      39.674  36.385  38.862  1.00  0.00     0.060 A 
BRANCH  99 100
ATOM    100  S   UNL A   1      39.558  37.713  40.080  1.00  0.00     0.124 S 
ATOM    101  O   UNL A   1      38.413  38.468  39.581  1.00  0.00    -0.237 OA
ATOM    102  O   UNL A   1      39.340  36.978  41.322  1.00  0.00    -0.237 OA
ATOM    103  O   UNL A   1      40.849  38.387  39.973  1.00  0.00    -0.744 OA
ENDBRANCH  99 100
ENDBRANCH  67  92
ENDBRANCH  41  42
ENDBRANCH  33  36
ENDBRANCH  31  32
ENDBRANCH   1  31
TORSDOF 16
ENDMDL
MODEL 3
REMARK VINA RESULT:     -12.3      2.586      3.111
REMARK SMILES COc1cccc([C@@H]2[NH2+][C@@](C)(C(=O)NCCCNC(=O)c3ccc(-c4c5nc(c(-c6c(F)cc(S(=O)(=O)[O-])cc6F)c6ccc([nH]6)c(-c6c(F)cc(S(=O)(=O)[O-])cc6F)c6nc(c(-c7c(F)cc(S(=O)(=O)[O-])cc7F)c7ccc4[nH]7)C=C6)C=C5)cc3)[C@@H]3C(=O)N(C)C(=O)[C@@H]32)c1O
REMARK SMILES IDX 16 1 15 2 14 3 12 4 13 5 10 7 8 8 9 9 94 10 87 13 92 14
REMARK SMILES IDX 11 15 88 16 90 17 93 18 89 19 91 20 7 21 3 22 4 23 95 24
REMARK SMILES IDX 5 25 6 26 2 27 1 28 96 29 17 31 18 32 19 33 20 35 21 36
REMARK SMILES IDX 22 37 86 38 23 39 85 40 24 41 25 42 26 43 79 44 27 45 84 46
REMARK SMILES IDX 78 47 80 48 28 49 83 50 77 51 76 52 29 54 63 55 42 56 62 57
REMARK SMILES IDX 43 58 46 59 61 60 81 61 44 62 45 63 60 65 82 66 47 67 30 68
REMARK SMILES IDX 31 69 40 70 32 71 33 72 39 73 41 74 34 75 35 76 36 77 37 78
REMARK SMILES IDX 38 79 64 80 65 81 74 82 66 83 67 84 73 85 75 86 68 87 69 88
REMARK SMILES IDX 70 89 71 90 72 91 48 92 49 93 58 94 50 95 51 96 57 97 59 98
REMARK SMILES IDX 52 99 53 100 54 101 55 102 56 103
REMARK H PARENT 14 6 9 11 9 12 96 30 18 34 80 53 46 64
REMARK Flexibility Score: inf
ROOT
ATOM      1  C   UNL A   1      33.075  27.691  26.544  1.00  0.00     0.042 C 
ENDROOT
BRANCH   1   2
ATOM      2  C   UNL A   1      31.897  27.285  25.675  1.00  0.00     0.118 C 
BRANCH   2   3
ATOM      3  N   UNL A   1      30.941  26.454  26.391  1.00  0.00    -0.351 N 
ATOM      4  C   UNL A   1      30.519  25.180  26.139  1.00  0.00     0.281 C 
ATOM      5  O   UNL A   1      29.638  24.726  26.877  1.00  0.00    -0.268 OA
ATOM      6  H   UNL A   1      30.537  26.876  27.183  1.00  0.00     0.163 HD
BRANCH   4   7
ATOM      7  C   UNL A   1      31.167  24.328  25.002  1.00  0.00     0.185 C 
ATOM      8  C   UNL A   1      31.820  22.107  25.727  1.00  0.00     0.232 C 
ATOM      9  N   UNL A   1      30.712  22.921  25.176  1.00  0.00    -0.326 N 
ATOM     10  C   UNL A   1      32.951  23.087  26.071  1.00  0.00     0.161 C 
ATOM     11  H   UNL A   1      29.920  22.898  25.820  1.00  0.00     0.347 HD
ATOM     12  H   UNL A   1      30.426  22.541  24.273  1.00  0.00     0.347 HD
ATOM     13  C   UNL A   1      32.686  24.306  25.200  1.00  0.00     0.169 C 
ATOM     14  C   UNL A   1      34.336  22.671  25.655  1.00  0.00     0.239 C 
ATOM     15  C   UNL A   1      30.744  24.976  23.671  1.00  0.00     0.091 C 
ATOM     16  C   UNL A   1      33.595  24.062  24.019  1.00  0.00     0.240 C 
ATOM     17  N   UNL A   1      34.599  23.232  24.433  1.00  0.00    -0.285 N 
ATOM     18  O   UNL A   1      35.067  21.923  26.281  1.00  0.00    -0.274 OA
ATOM     19  O   UNL A   1      33.485  24.534  22.896  1.00  0.00    -0.274 OA
ATOM     20  C   UNL A   1      35.753  22.885  23.641  1.00  0.00     0.156 C 
BRANCH   8  21
ATOM     21  C   UNL A   1      32.211  20.928  24.833  1.00  0.00     0.056 A 
ATOM     22  C   UNL A   1      32.759  18.560  24.493  1.00  0.00     0.161 A 
ATOM     23  C   UNL A   1      32.590  18.734  23.119  1.00  0.00     0.050 A 
ATOM     24  C   UNL A   1      32.635  19.677  25.327  1.00  0.00     0.166 A 
ATOM     25  C   UNL A   1      32.256  19.980  22.592  1.00  0.00     0.005 A 
ATOM     26  C   UNL A   1      32.044  21.063  23.444  1.00  0.00     0.014 A 
BRANCH  22  27
ATOM     27  O   UNL A   1      33.112  17.290  24.860  1.00  0.00    -0.493 OA
ATOM     28  C   UNL A   1      33.869  16.527  23.929  1.00  0.00     0.278 C 
ENDBRANCH  22  27
BRANCH  24  29
ATOM     29  O   UNL A   1      33.014  19.637  26.639  1.00  0.00    -0.504 OA
ATOM     30  H   UNL A   1      32.368  19.703  27.315  1.00  0.00     0.293 HD
ENDBRANCH  24  29
ENDBRANCH   8  21
ENDBRANCH   4   7
ENDBRANCH   2   3
ENDBRANCH   1   2
BRANCH   1  31
ATOM     31  C   UNL A   1      34.007  28.697  25.885  1.00  0.00     0.118 C 
BRANCH  31  32
ATOM     32  N   UNL A   1      33.781  30.063  26.343  1.00  0.00    -0.352 N 
ATOM     33  C   UNL A   1      34.420  30.789  27.317  1.00  0.00     0.251 C 
ATOM     34  H   UNL A   1      33.055  30.540  25.879  1.00  0.00     0.163 HD
ATOM     35  O   UNL A   1      33.950  31.866  27.673  1.00  0.00    -0.269 OA
BRANCH  33  36
ATOM     36  C   UNL A   1      35.651  30.269  27.950  1.00  0.00     0.039 A 
ATOM     37  C   UNL A   1      36.867  30.407  27.276  1.00  0.00     0.014 A 
ATOM     38  C   UNL A   1      35.612  29.641  29.197  1.00  0.00     0.014 A 
ATOM     39  C   UNL A   1      38.048  29.981  27.888  1.00  0.00     0.010 A 
ATOM     40  C   UNL A   1      36.797  29.312  29.846  1.00  0.00     0.010 A 
ATOM     41  C   UNL A   1      38.029  29.468  29.196  1.00  0.00    -0.014 A 
BRANCH  41  42
ATOM     42  C   UNL A   1      39.284  29.090  29.896  1.00  0.00     0.031 A 
ATOM     43  C   UNL A   1      39.712  29.831  31.134  1.00  0.00     0.074 A 
ATOM     44  C   UNL A   1      40.065  28.118  29.382  1.00  0.00     0.049 A 
ATOM     45  N   UNL A   1      40.794  29.679  31.854  1.00  0.00    -0.248 NA
ATOM     46  C   UNL A   1      38.824  30.903  31.613  1.00  0.00     0.031 C 
ATOM     47  C   UNL A   1      39.782  27.361  28.160  1.00  0.00     0.029 A 
ATOM     48  N   UNL A   1      41.259  27.601  29.820  1.00  0.00    -0.354 N 
ATOM     49  C   UNL A   1      40.724  30.642  32.854  1.00  0.00     0.074 A 
ATOM     50  C   UNL A   1      39.523  31.410  32.617  1.00  0.00     0.031 C 
ATOM     51  C   UNL A   1      40.755  26.456  27.966  1.00  0.00     0.029 A 
ATOM     52  C   UNL A   1      41.753  26.596  29.021  1.00  0.00     0.049 A 
ATOM     53  H   UNL A   1      41.719  27.920  30.629  1.00  0.00     0.167 HD
ATOM     54  C   UNL A   1      41.572  30.850  33.890  1.00  0.00     0.037 A 
ATOM     55  C   UNL A   1      42.886  25.874  29.122  1.00  0.00     0.037 A 
ATOM     56  C   UNL A   1      42.751  30.062  34.133  1.00  0.00     0.049 A 
ATOM     57  C   UNL A   1      43.816  26.133  30.278  1.00  0.00     0.074 A 
ATOM     58  C   UNL A   1      43.638  30.147  35.193  1.00  0.00     0.029 A 
ATOM     59  N   UNL A   1      43.213  29.048  33.307  1.00  0.00    -0.354 N 
ATOM     60  N   UNL A   1      43.693  26.996  31.258  1.00  0.00    -0.248 NA
ATOM     61  C   UNL A   1      45.035  25.315  30.345  1.00  0.00     0.031 C 
ATOM     62  C   UNL A   1      44.667  29.227  34.975  1.00  0.00     0.029 A 
ATOM     63  C   UNL A   1      44.389  28.522  33.816  1.00  0.00     0.049 A 
ATOM     64  H   UNL A   1      42.771  28.747  32.481  1.00  0.00     0.167 HD
ATOM     65  C   UNL A   1      44.801  26.800  32.077  1.00  0.00     0.074 A 
ATOM     66  C   UNL A   1      45.575  25.732  31.482  1.00  0.00     0.031 C 
ATOM     67  C   UNL A   1      45.143  27.446  33.219  1.00  0.00     0.037 A 
BRANCH  54  68
ATOM     68  C   UNL A   1      41.258  31.975  34.840  1.00  0.00     0.058 A 
ATOM     69  C   UNL A   1      41.829  33.250  34.695  1.00  0.00     0.135 A 
ATOM     70  C   UNL A   1      40.336  31.788  35.883  1.00  0.00     0.135 A 
ATOM     71  F   UNL A   1      42.729  33.482  33.725  1.00  0.00    -0.206 F 
ATOM     72  C   UNL A   1      41.516  34.292  35.563  1.00  0.00     0.059 A 
ATOM     73  C   UNL A   1      39.985  32.825  36.744  1.00  0.00     0.059 A 
ATOM     74  F   UNL A   1      39.760  30.591  36.071  1.00  0.00    -0.206 F 
ATOM     75  C   UNL A   1      40.590  34.070  36.582  1.00  0.00     0.060 A 
BRANCH  75  76
ATOM     76  S   UNL A   1      40.185  35.437  37.689  1.00  0.00     0.124 S 
ATOM     77  O   UNL A   1      39.074  34.876  38.450  1.00  0.00    -0.237 OA
ATOM     78  O   UNL A   1      41.432  35.618  38.427  1.00  0.00    -0.237 OA
ATOM     79  O   UNL A   1      39.836  36.523  36.778  1.00  0.00    -0.744 OA
ENDBRANCH  75  76
ENDBRANCH  54  68
BRANCH  55  80
ATOM     80  C   UNL A   1      43.195  24.819  28.117  1.00  0.00     0.058 A 
ATOM     81  C   UNL A   1      42.871  23.476  28.359  1.00  0.00     0.135 A 
ATOM     82  C   UNL A   1      43.823  25.128  26.900  1.00  0.00     0.135 A 
ATOM     83  F   UNL A   1      42.275  23.126  29.509  1.00  0.00    -0.206 F 
ATOM     84  C   UNL A   1      43.179  22.474  27.445  1.00  0.00     0.059 A 
ATOM     85  C   UNL A   1      44.114  24.149  25.956  1.00  0.00     0.059 A 
ATOM     86  F   UNL A   1      44.140  26.401  26.611  1.00  0.00    -0.206 F 
ATOM     87  C   UNL A   1      43.802  22.821  26.244  1.00  0.00     0.060 A 
BRANCH  87  88
ATOM     88  S   UNL A   1      44.170  21.516  25.052  1.00  0.00     0.124 S 
ATOM     89  O   UNL A   1      43.101  20.562  25.323  1.00  0.00    -0.237 OA
ATOM     90  O   UNL A   1      44.083  22.230  23.782  1.00  0.00    -0.237 OA
ATOM     91  O   UNL A   1      45.512  21.085  25.430  1.00  0.00    -0.744 OA
ENDBRANCH  87  88
ENDBRANCH  55  80
BRANCH  67  92
ATOM     92  C   UNL A   1      46.386  26.986  33.933  1.00  0.00     0.058 A 
ATOM     93  C   UNL A   1      47.641  27.563  33.688  1.00  0.00     0.135 A 
ATOM     94  C   UNL A   1      46.305  25.988  34.920  1.00  0.00     0.135 A 
ATOM     95  F   UNL A   1      47.775  28.515  32.751  1.00  0.00    -0.206 F 
ATOM     96  C   UNL A   1      48.777  27.149  34.375  1.00  0.00     0.059 A 
ATOM     97  C   UNL A   1      47.422  25.582  35.643  1.00  0.00     0.059 A 
ATOM     98  F   UNL A   1      45.126  25.410  35.203  1.00  0.00    -0.206 F 
ATOM     99  C   UNL A   1      48.657  26.160  35.354  1.00  0.00     0.060 A 
BRANCH  99 100
ATOM    100  S   UNL A   1      50.133  25.660  36.264  1.00  0.00     0.124 S 
ATOM    101  O   UNL A   1      50.220  26.704  37.279  1.00  0.00    -0.237 OA
ATOM    102  O   UNL A   1      49.767  24.333  36.749  1.00  0.00    -0.237 OA
ATOM    103  O   UNL A   1      51.183  25.683  35.249  1.00  0.00    -0.744 OA
ENDBRANCH  99 100
ENDBRANCH  67  92
ENDBRANCH  41  42
ENDBRANCH  33  36
ENDBRANCH  31  32
ENDBRANCH   1  31
TORSDOF 16
ENDMDL
