MODEL 1
REMARK VINA RESULT:      -9.8      0.000      0.000
REMARK SMILES Cc1cccc(C[NH+]2CCC(OCC(=O)NCCCNC(=O)c3ccc(-c4c5nc(c(-c6c(F)cc(S(=O)(=O)[O-])cc6F)c6ccc([nH]6)c(-c6c(F)cc(S(=O)(=O)[O-])cc6F)c6nc(c(-c7c(F)cc(S(=O)(=O)[O-])cc7F)c7ccc4[nH]7)C=C6)C=C5)cc3)CC2)n1
REMARK SMILES IDX 17 1 16 2 14 3 15 4 13 6 12 7 11 8 8 9 9 10 90 11 10 13
REMARK SMILES IDX 89 14 7 15 6 16 1 17 2 18 3 19 91 20 4 21 5 22 18 23 19 24
REMARK SMILES IDX 20 25 21 26 22 28 23 29 24 30 88 31 25 32 87 33 26 34 27 35
REMARK SMILES IDX 28 36 81 37 29 38 86 39 80 40 82 41 30 42 85 43 79 44 78 45
REMARK SMILES IDX 31 47 65 48 44 49 64 50 45 51 48 52 63 53 83 54 46 55 47 56
REMARK SMILES IDX 62 58 84 59 49 60 32 61 33 62 42 63 34 64 35 65 41 66 43 67
REMARK SMILES IDX 36 68 37 69 38 70 39 71 40 72 66 73 67 74 76 75 68 76 69 77
REMARK SMILES IDX 75 78 77 79 70 80 71 81 72 82 73 83 74 84 50 85 51 86 60 87
REMARK SMILES IDX 52 88 53 89 59 90 61 91 54 92 55 93 56 94 57 95 58 96
REMARK H PARENT 16 5 8 12 20 27 82 46 48 57
REMARK Flexibility Score: inf
ROOT
ATOM      1  C   UNL A   1      42.300  19.511  27.190  1.00  0.00     0.117 C 
ENDROOT
BRANCH   1   2
ATOM      2  N   UNL A   1      42.927  18.754  26.121  1.00  0.00    -0.354 N 
ATOM      3  C   UNL A   1      43.868  19.168  25.221  1.00  0.00     0.246 C 
ATOM      4  O   UNL A   1      44.431  18.322  24.523  1.00  0.00    -0.272 OA
ATOM      5  H   UNL A   1      42.635  17.819  26.033  1.00  0.00     0.163 HD
BRANCH   3   6
ATOM      6  C   UNL A   1      44.214  20.660  25.109  1.00  0.00     0.260 C 
BRANCH   6   7
ATOM      7  O   UNL A   1      45.579  21.023  25.006  1.00  0.00    -0.368 OA
BRANCH   7   8
ATOM      8  C   UNL A   1      45.974  22.305  25.510  1.00  0.00     0.130 C 
ATOM      9  N   UNL A   1      45.709  25.145  26.021  1.00  0.00    -0.330 N 
ATOM     10  C   UNL A   1      46.702  24.683  25.046  1.00  0.00     0.265 C 
ATOM     11  C   UNL A   1      45.557  24.175  27.115  1.00  0.00     0.265 C 
ATOM     12  H   UNL A   1      44.824  25.210  25.520  1.00  0.00     0.348 HD
ATOM     13  C   UNL A   1      46.259  23.350  24.425  1.00  0.00     0.093 C 
ATOM     14  C   UNL A   1      45.024  22.863  26.567  1.00  0.00     0.093 C 
BRANCH   9  15
ATOM     15  C   UNL A   1      45.980  26.505  26.538  1.00  0.00     0.319 C 
BRANCH  15  16
ATOM     16  C   UNL A   1      44.809  27.474  26.569  1.00  0.00     0.095 A 
ATOM     17  C   UNL A   1      44.225  30.737  28.155  1.00  0.00     0.067 C 
ATOM     18  C   UNL A   1      43.958  29.500  27.354  1.00  0.00     0.038 A 
ATOM     19  C   UNL A   1      42.830  29.375  26.557  1.00  0.00     0.023 A 
ATOM     20  N   UNL A   1      44.920  28.552  27.386  1.00  0.00    -0.252 NA
ATOM     21  C   UNL A   1      42.692  28.239  25.765  1.00  0.00     0.004 A 
ATOM     22  C   UNL A   1      43.698  27.277  25.759  1.00  0.00     0.030 A 
ENDBRANCH  15  16
ENDBRANCH   9  15
ENDBRANCH   7   8
ENDBRANCH   6   7
ENDBRANCH   3   6
ENDBRANCH   1   2
BRANCH   1  23
ATOM     23  C   UNL A   1      40.892  20.009  26.874  1.00  0.00     0.042 C 
BRANCH  23  24
ATOM     24  C   UNL A   1      40.782  21.486  26.499  1.00  0.00     0.118 C 
BRANCH  24  25
ATOM     25  N   UNL A   1      39.541  21.806  25.807  1.00  0.00    -0.352 N 
ATOM     26  C   UNL A   1      38.732  22.913  25.869  1.00  0.00     0.251 C 
ATOM     27  H   UNL A   1      39.228  21.108  25.188  1.00  0.00     0.163 HD
ATOM     28  O   UNL A   1      37.633  22.874  25.315  1.00  0.00    -0.269 OA
BRANCH  26  29
ATOM     29  C   UNL A   1      39.137  24.137  26.600  1.00  0.00     0.039 A 
ATOM     30  C   UNL A   1      38.684  24.309  27.913  1.00  0.00     0.014 A 
ATOM     31  C   UNL A   1      39.903  25.139  25.999  1.00  0.00     0.014 A 
ATOM     32  C   UNL A   1      39.058  25.442  28.643  1.00  0.00     0.010 A 
ATOM     33  C   UNL A   1      40.325  26.242  26.747  1.00  0.00     0.010 A 
ATOM     34  C   UNL A   1      39.916  26.401  28.080  1.00  0.00    -0.014 A 
BRANCH  34  35
ATOM     35  C   UNL A   1      40.427  27.542  28.890  1.00  0.00     0.031 A 
ATOM     36  C   UNL A   1      41.784  27.482  29.539  1.00  0.00     0.074 A 
ATOM     37  C   UNL A   1      39.634  28.614  29.092  1.00  0.00     0.049 A 
ATOM     38  N   UNL A   1      42.356  28.351  30.333  1.00  0.00    -0.248 NA
ATOM     39  C   UNL A   1      42.598  26.283  29.278  1.00  0.00     0.031 C 
ATOM     40  C   UNL A   1      38.281  28.777  28.553  1.00  0.00     0.029 A 
ATOM     41  N   UNL A   1      39.841  29.763  29.815  1.00  0.00    -0.354 N 
ATOM     42  C   UNL A   1      43.586  27.803  30.679  1.00  0.00     0.074 A 
ATOM     43  C   UNL A   1      43.664  26.508  30.035  1.00  0.00     0.031 C 
ATOM     44  C   UNL A   1      37.787  29.961  28.952  1.00  0.00     0.029 A 
ATOM     45  C   UNL A   1      38.767  30.624  29.805  1.00  0.00     0.049 A 
ATOM     46  H   UNL A   1      40.679  29.953  30.295  1.00  0.00     0.167 HD
ATOM     47  C   UNL A   1      44.566  28.335  31.450  1.00  0.00     0.037 A 
ATOM     48  C   UNL A   1      38.582  31.806  30.427  1.00  0.00     0.037 A 
ATOM     49  C   UNL A   1      44.498  29.637  32.065  1.00  0.00     0.049 A 
ATOM     50  C   UNL A   1      39.685  32.368  31.282  1.00  0.00     0.074 A 
ATOM     51  C   UNL A   1      45.473  30.290  32.803  1.00  0.00     0.029 A 
ATOM     52  N   UNL A   1      43.400  30.483  32.021  1.00  0.00    -0.354 N 
ATOM     53  N   UNL A   1      40.867  31.864  31.540  1.00  0.00    -0.248 NA
ATOM     54  C   UNL A   1      39.429  33.663  31.931  1.00  0.00     0.031 C 
ATOM     55  C   UNL A   1      44.948  31.509  33.242  1.00  0.00     0.029 A 
ATOM     56  C   UNL A   1      43.663  31.638  32.739  1.00  0.00     0.049 A 
ATOM     57  H   UNL A   1      42.559  30.290  31.549  1.00  0.00     0.167 HD
ATOM     58  C   UNL A   1      41.504  32.790  32.358  1.00  0.00     0.074 A 
ATOM     59  C   UNL A   1      40.583  33.892  32.541  1.00  0.00     0.031 C 
ATOM     60  C   UNL A   1      42.742  32.733  32.909  1.00  0.00     0.037 A 
BRANCH  47  61
ATOM     61  C   UNL A   1      45.809  27.520  31.678  1.00  0.00     0.058 A 
ATOM     62  C   UNL A   1      46.936  27.652  30.852  1.00  0.00     0.135 A 
ATOM     63  C   UNL A   1      45.906  26.660  32.784  1.00  0.00     0.135 A 
ATOM     64  F   UNL A   1      46.895  28.451  29.774  1.00  0.00    -0.206 F 
ATOM     65  C   UNL A   1      48.112  26.953  31.109  1.00  0.00     0.059 A 
ATOM     66  C   UNL A   1      47.080  25.969  33.074  1.00  0.00     0.059 A 
ATOM     67  F   UNL A   1      44.858  26.497  33.606  1.00  0.00    -0.206 F 
ATOM     68  C   UNL A   1      48.175  26.117  32.225  1.00  0.00     0.060 A 
BRANCH  68  69
ATOM     69  S   UNL A   1      49.721  25.247  32.566  1.00  0.00     0.124 S 
ATOM     70  O   UNL A   1      50.521  26.306  33.176  1.00  0.00    -0.237 OA
ATOM     71  O   UNL A   1      49.286  24.183  33.468  1.00  0.00    -0.237 OA
ATOM     72  O   UNL A   1      50.162  24.806  31.250  1.00  0.00    -0.744 OA
ENDBRANCH  68  69
ENDBRANCH  47  61
BRANCH  48  73
ATOM     73  C   UNL A   1      37.303  32.545  30.264  1.00  0.00     0.058 A 
ATOM     74  C   UNL A   1      37.111  33.434  29.196  1.00  0.00     0.135 A 
ATOM     75  C   UNL A   1      36.252  32.391  31.182  1.00  0.00     0.135 A 
ATOM     76  F   UNL A   1      38.090  33.619  28.297  1.00  0.00    -0.206 F 
ATOM     77  C   UNL A   1      35.939  34.168  29.058  1.00  0.00     0.059 A 
ATOM     78  C   UNL A   1      35.058  33.094  31.051  1.00  0.00     0.059 A 
ATOM     79  F   UNL A   1      36.376  31.541  32.213  1.00  0.00    -0.206 F 
ATOM     80  C   UNL A   1      34.918  33.993  29.994  1.00  0.00     0.060 A 
BRANCH  80  81
ATOM     81  S   UNL A   1      33.388  34.933  29.797  1.00  0.00     0.124 S 
ATOM     82  O   UNL A   1      32.680  34.135  28.805  1.00  0.00    -0.237 OA
ATOM     83  O   UNL A   1      32.836  34.911  31.149  1.00  0.00    -0.237 OA
ATOM     84  O   UNL A   1      33.856  36.239  29.342  1.00  0.00    -0.744 OA
ENDBRANCH  80  81
ENDBRANCH  48  73
BRANCH  60  85
ATOM     85  C   UNL A   1      43.186  33.906  33.739  1.00  0.00     0.058 A 
ATOM     86  C   UNL A   1      43.011  33.932  35.131  1.00  0.00     0.135 A 
ATOM     87  C   UNL A   1      43.832  34.998  33.138  1.00  0.00     0.135 A 
ATOM     88  F   UNL A   1      42.392  32.916  35.753  1.00  0.00    -0.206 F 
ATOM     89  C   UNL A   1      43.442  35.010  35.896  1.00  0.00     0.059 A 
ATOM     90  C   UNL A   1      44.295  36.075  33.887  1.00  0.00     0.059 A 
ATOM     91  F   UNL A   1      44.033  35.019  31.810  1.00  0.00    -0.206 F 
ATOM     92  C   UNL A   1      44.084  36.078  35.266  1.00  0.00     0.060 A 
BRANCH  92  93
ATOM     93  S   UNL A   1      44.666  37.457  36.275  1.00  0.00     0.124 S 
ATOM     94  O   UNL A   1      43.455  37.820  37.002  1.00  0.00    -0.237 OA
ATOM     95  O   UNL A   1      45.722  36.839  37.071  1.00  0.00    -0.237 OA
ATOM     96  O   UNL A   1      45.123  38.431  35.288  1.00  0.00    -0.744 OA
ENDBRANCH  92  93
ENDBRANCH  60  85
ENDBRANCH  34  35
ENDBRANCH  26  29
ENDBRANCH  24  25
ENDBRANCH  23  24
ENDBRANCH   1  23
TORSDOF 17
ENDMDL
MODEL 2
REMARK VINA RESULT:      -9.6      4.234     10.990
REMARK SMILES Cc1cccc(C[NH+]2CCC(OCC(=O)NCCCNC(=O)c3ccc(-c4c5nc(c(-c6c(F)cc(S(=O)(=O)[O-])cc6F)c6ccc([nH]6)c(-c6c(F)cc(S(=O)(=O)[O-])cc6F)c6nc(c(-c7c(F)cc(S(=O)(=O)[O-])cc7F)c7ccc4[nH]7)C=C6)C=C5)cc3)CC2)n1
REMARK SMILES IDX 17 1 16 2 14 3 15 4 13 6 12 7 11 8 8 9 9 10 90 11 10 13
REMARK SMILES IDX 89 14 7 15 6 16 1 17 2 18 3 19 91 20 4 21 5 22 18 23 19 24
REMARK SMILES IDX 20 25 21 26 22 28 23 29 24 30 88 31 25 32 87 33 26 34 27 35
REMARK SMILES IDX 28 36 81 37 29 38 86 39 80 40 82 41 30 42 85 43 79 44 78 45
REMARK SMILES IDX 31 47 65 48 44 49 64 50 45 51 48 52 63 53 83 54 46 55 47 56
REMARK SMILES IDX 62 58 84 59 49 60 32 61 33 62 42 63 34 64 35 65 41 66 43 67
REMARK SMILES IDX 36 68 37 69 38 70 39 71 40 72 66 73 67 74 76 75 68 76 69 77
REMARK SMILES IDX 75 78 77 79 70 80 71 81 72 82 73 83 74 84 50 85 51 86 60 87
REMARK SMILES IDX 52 88 53 89 59 90 61 91 54 92 55 93 56 94 57 95 58 96
REMARK H PARENT 16 5 8 12 20 27 82 46 48 57
REMARK Flexibility Score: inf
ROOT
ATOM      1  C   UNL A   1      31.671  28.809  25.294  1.00  0.00     0.117 C 
ENDROOT
BRANCH   1   2
ATOM      2  N   UNL A   1      31.431  28.703  23.866  1.00  0.00    -0.354 N 
ATOM      3  C   UNL A   1      30.491  27.956  23.214  1.00  0.00     0.246 C 
ATOM      4  O   UNL A   1      30.307  28.159  22.012  1.00  0.00    -0.272 OA
ATOM      5  H   UNL A   1      32.023  29.240  23.293  1.00  0.00     0.163 HD
BRANCH   3   6
ATOM      6  C   UNL A   1      29.683  26.902  23.983  1.00  0.00     0.260 C 
BRANCH   6   7
ATOM      7  O   UNL A   1      29.658  25.579  23.477  1.00  0.00    -0.368 OA
BRANCH   7   8
ATOM      8  C   UNL A   1      30.347  24.564  24.217  1.00  0.00     0.130 C 
ATOM      9  N   UNL A   1      32.575  23.375  25.641  1.00  0.00    -0.330 N 
ATOM     10  C   UNL A   1      32.203  22.846  24.326  1.00  0.00     0.265 C 
ATOM     11  C   UNL A   1      31.389  23.846  26.373  1.00  0.00     0.265 C 
ATOM     12  H   UNL A   1      33.185  24.173  25.467  1.00  0.00     0.348 HD
ATOM     13  C   UNL A   1      31.538  23.941  23.478  1.00  0.00     0.093 C 
ATOM     14  C   UNL A   1      30.749  25.000  25.624  1.00  0.00     0.093 C 
BRANCH   9  15
ATOM     15  C   UNL A   1      33.372  22.429  26.453  1.00  0.00     0.319 C 
BRANCH  15  16
ATOM     16  C   UNL A   1      34.747  22.057  25.922  1.00  0.00     0.095 A 
ATOM     17  C   UNL A   1      38.041  23.684  25.977  1.00  0.00     0.067 C 
ATOM     18  C   UNL A   1      36.987  22.662  25.681  1.00  0.00     0.038 A 
ATOM     19  C   UNL A   1      37.304  21.415  25.162  1.00  0.00     0.023 A 
ATOM     20  N   UNL A   1      35.724  22.993  26.028  1.00  0.00    -0.252 NA
ATOM     21  C   UNL A   1      36.287  20.479  24.999  1.00  0.00     0.004 A 
ATOM     22  C   UNL A   1      34.990  20.796  25.394  1.00  0.00     0.030 A 
ENDBRANCH  15  16
ENDBRANCH   9  15
ENDBRANCH   7   8
ENDBRANCH   6   7
ENDBRANCH   3   6
ENDBRANCH   1   2
BRANCH   1  23
ATOM     23  C   UNL A   1      32.865  28.003  25.799  1.00  0.00     0.042 C 
BRANCH  23  24
ATOM     24  C   UNL A   1      33.342  28.341  27.211  1.00  0.00     0.118 C 
BRANCH  24  25
ATOM     25  N   UNL A   1      33.311  29.769  27.495  1.00  0.00    -0.352 N 
ATOM     26  C   UNL A   1      34.252  30.598  28.054  1.00  0.00     0.251 C 
ATOM     27  H   UNL A   1      32.472  30.216  27.244  1.00  0.00     0.163 HD
ATOM     28  O   UNL A   1      33.923  31.746  28.355  1.00  0.00    -0.269 OA
BRANCH  26  29
ATOM     29  C   UNL A   1      35.636  30.143  28.322  1.00  0.00     0.039 A 
ATOM     30  C   UNL A   1      36.544  30.109  27.257  1.00  0.00     0.014 A 
ATOM     31  C   UNL A   1      36.037  29.696  29.583  1.00  0.00     0.014 A 
ATOM     32  C   UNL A   1      37.865  29.702  27.472  1.00  0.00     0.010 A 
ATOM     33  C   UNL A   1      37.371  29.345  29.810  1.00  0.00     0.010 A 
ATOM     34  C   UNL A   1      38.302  29.354  28.760  1.00  0.00    -0.014 A 
BRANCH  34  35
ATOM     35  C   UNL A   1      39.735  29.047  29.026  1.00  0.00     0.031 A 
ATOM     36  C   UNL A   1      40.663  30.100  29.570  1.00  0.00     0.074 A 
ATOM     37  C   UNL A   1      40.215  27.825  28.717  1.00  0.00     0.049 A 
ATOM     38  N   UNL A   1      41.951  30.027  29.794  1.00  0.00    -0.248 NA
ATOM     39  C   UNL A   1      40.074  31.411  29.886  1.00  0.00     0.031 C 
ATOM     40  C   UNL A   1      39.430  26.728  28.145  1.00  0.00     0.029 A 
ATOM     41  N   UNL A   1      41.481  27.302  28.824  1.00  0.00    -0.354 N 
ATOM     42  C   UNL A   1      42.330  31.281  30.261  1.00  0.00     0.074 A 
ATOM     43  C   UNL A   1      41.141  32.107  30.257  1.00  0.00     0.031 C 
ATOM     44  C   UNL A   1      40.226  25.662  27.966  1.00  0.00     0.029 A 
ATOM     45  C   UNL A   1      41.585  26.007  28.370  1.00  0.00     0.049 A 
ATOM     46  H   UNL A   1      42.243  27.807  29.190  1.00  0.00     0.167 HD
ATOM     47  C   UNL A   1      43.553  31.699  30.670  1.00  0.00     0.037 A 
ATOM     48  C   UNL A   1      42.654  25.192  28.273  1.00  0.00     0.037 A 
ATOM     49  C   UNL A   1      44.728  30.865  30.702  1.00  0.00     0.049 A 
ATOM     50  C   UNL A   1      44.000  25.687  28.728  1.00  0.00     0.074 A 
ATOM     51  C   UNL A   1      45.993  31.182  31.170  1.00  0.00     0.029 A 
ATOM     52  N   UNL A   1      44.789  29.557  30.248  1.00  0.00    -0.354 N 
ATOM     53  N   UNL A   1      44.323  26.853  29.231  1.00  0.00    -0.248 NA
ATOM     54  C   UNL A   1      45.130  24.753  28.604  1.00  0.00     0.031 C 
ATOM     55  C   UNL A   1      46.829  30.081  30.956  1.00  0.00     0.029 A 
ATOM     56  C   UNL A   1      46.074  29.062  30.399  1.00  0.00     0.049 A 
ATOM     57  H   UNL A   1      44.031  29.054  29.873  1.00  0.00     0.167 HD
ATOM     58  C   UNL A   1      45.684  26.785  29.507  1.00  0.00     0.074 A 
ATOM     59  C   UNL A   1      46.122  25.458  29.128  1.00  0.00     0.031 C 
ATOM     60  C   UNL A   1      46.498  27.736  30.025  1.00  0.00     0.037 A 
BRANCH  47  61
ATOM     61  C   UNL A   1      43.697  33.125  31.126  1.00  0.00     0.058 A 
ATOM     62  C   UNL A   1      43.559  33.483  32.476  1.00  0.00     0.135 A 
ATOM     63  C   UNL A   1      44.062  34.131  30.217  1.00  0.00     0.135 A 
ATOM     64  F   UNL A   1      43.200  32.563  33.386  1.00  0.00    -0.206 F 
ATOM     65  C   UNL A   1      43.766  34.790  32.907  1.00  0.00     0.059 A 
ATOM     66  C   UNL A   1      44.298  35.440  30.629  1.00  0.00     0.059 A 
ATOM     67  F   UNL A   1      44.208  33.843  28.914  1.00  0.00    -0.206 F 
ATOM     68  C   UNL A   1      44.141  35.761  31.977  1.00  0.00     0.060 A 
BRANCH  68  69
ATOM     69  S   UNL A   1      44.444  37.444  32.559  1.00  0.00     0.124 S 
ATOM     70  O   UNL A   1      44.204  38.218  31.343  1.00  0.00    -0.237 OA
ATOM     71  O   UNL A   1      43.443  37.594  33.612  1.00  0.00    -0.237 OA
ATOM     72  O   UNL A   1      45.827  37.403  33.014  1.00  0.00    -0.744 OA
ENDBRANCH  68  69
ENDBRANCH  47  61
BRANCH  48  73
ATOM     73  C   UNL A   1      42.501  23.819  27.725  1.00  0.00     0.058 A 
ATOM     74  C   UNL A   1      42.384  22.709  28.575  1.00  0.00     0.135 A 
ATOM     75  C   UNL A   1      42.489  23.585  26.341  1.00  0.00     0.135 A 
ATOM     76  F   UNL A   1      42.398  22.882  29.906  1.00  0.00    -0.206 F 
ATOM     77  C   UNL A   1      42.289  21.415  28.077  1.00  0.00     0.059 A 
ATOM     78  C   UNL A   1      42.367  22.301  25.817  1.00  0.00     0.059 A 
ATOM     79  F   UNL A   1      42.582  24.613  25.483  1.00  0.00    -0.206 F 
ATOM     80  C   UNL A   1      42.285  21.220  26.695  1.00  0.00     0.060 A 
BRANCH  80  81
ATOM     81  S   UNL A   1      42.140  19.538  26.054  1.00  0.00     0.124 S 
ATOM     82  O   UNL A   1      43.032  19.587  24.903  1.00  0.00    -0.237 OA
ATOM     83  O   UNL A   1      42.598  18.737  27.185  1.00  0.00    -0.237 OA
ATOM     84  O   UNL A   1      40.718  19.419  25.749  1.00  0.00    -0.744 OA
ENDBRANCH  80  81
ENDBRANCH  48  73
BRANCH  60  85
ATOM     85  C   UNL A   1      47.941  27.370  30.244  1.00  0.00     0.058 A 
ATOM     86  C   UNL A   1      48.900  27.520  29.231  1.00  0.00     0.135 A 
ATOM     87  C   UNL A   1      48.374  26.903  31.495  1.00  0.00     0.135 A 
ATOM     88  F   UNL A   1      48.535  27.955  28.015  1.00  0.00    -0.206 F 
ATOM     89  C   UNL A   1      50.237  27.200  29.444  1.00  0.00     0.059 A 
ATOM     90  C   UNL A   1      49.711  26.601  31.738  1.00  0.00     0.059 A 
ATOM     91  F   UNL A   1      47.499  26.750  32.501  1.00  0.00    -0.206 F 
ATOM     92  C   UNL A   1      50.633  26.741  30.702  1.00  0.00     0.060 A 
BRANCH  92  93
ATOM     93  S   UNL A   1      52.376  26.357  30.974  1.00  0.00     0.124 S 
ATOM     94  O   UNL A   1      52.887  26.328  29.608  1.00  0.00    -0.237 OA
ATOM     95  O   UNL A   1      52.821  27.481  31.792  1.00  0.00    -0.237 OA
ATOM     96  O   UNL A   1      52.338  25.068  31.659  1.00  0.00    -0.744 OA
ENDBRANCH  92  93
ENDBRANCH  60  85
ENDBRANCH  34  35
ENDBRANCH  26  29
ENDBRANCH  24  25
ENDBRANCH  23  24
ENDBRANCH   1  23
TORSDOF 17
ENDMDL
MODEL 3
REMARK VINA RESULT:      -9.6      4.838      7.427
REMARK SMILES Cc1cccc(C[NH+]2CCC(OCC(=O)NCCCNC(=O)c3ccc(-c4c5nc(c(-c6c(F)cc(S(=O)(=O)[O-])cc6F)c6ccc([nH]6)c(-c6c(F)cc(S(=O)(=O)[O-])cc6F)c6nc(c(-c7c(F)cc(S(=O)(=O)[O-])cc7F)c7ccc4[nH]7)C=C6)C=C5)cc3)CC2)n1
REMARK SMILES IDX 17 1 16 2 14 3 15 4 13 6 12 7 11 8 8 9 9 10 90 11 10 13
REMARK SMILES IDX 89 14 7 15 6 16 1 17 2 18 3 19 91 20 4 21 5 22 18 23 19 24
REMARK SMILES IDX 20 25 21 26 22 28 23 29 24 30 88 31 25 32 87 33 26 34 27 35
REMARK SMILES IDX 28 36 81 37 29 38 86 39 80 40 82 41 30 42 85 43 79 44 78 45
REMARK SMILES IDX 31 47 65 48 44 49 64 50 45 51 48 52 63 53 83 54 46 55 47 56
REMARK SMILES IDX 62 58 84 59 49 60 32 61 33 62 42 63 34 64 35 65 41 66 43 67
REMARK SMILES IDX 36 68 37 69 38 70 39 71 40 72 66 73 67 74 76 75 68 76 69 77
REMARK SMILES IDX 75 78 77 79 70 80 71 81 72 82 73 83 74 84 50 85 51 86 60 87
REMARK SMILES IDX 52 88 53 89 59 90 61 91 54 92 55 93 56 94 57 95 58 96
REMARK H PARENT 16 5 8 12 20 27 82 46 48 57
REMARK Flexibility Score: inf
ROOT
ATOM      1  C   UNL A   1      36.823  22.209  25.366  1.00  0.00     0.117 C 
ENDROOT
BRANCH   1   2
ATOM      2  N   UNL A   1      35.980  21.901  26.507  1.00  0.00    -0.354 N 
ATOM      3  C   UNL A   1      34.617  21.943  26.595  1.00  0.00     0.246 C 
ATOM      4  O   UNL A   1      34.074  21.443  27.583  1.00  0.00    -0.272 OA
ATOM      5  H   UNL A   1      36.452  21.625  27.324  1.00  0.00     0.163 HD
BRANCH   3   6
ATOM      6  C   UNL A   1      33.797  22.588  25.469  1.00  0.00     0.260 C 
BRANCH   6   7
ATOM      7  O   UNL A   1      32.917  23.646  25.805  1.00  0.00    -0.368 OA
BRANCH   7   8
ATOM      8  C   UNL A   1      32.640  24.634  24.805  1.00  0.00     0.130 C 
ATOM      9  N   UNL A   1      31.316  26.942  23.658  1.00  0.00    -0.330 N 
ATOM     10  C   UNL A   1      31.031  25.611  23.114  1.00  0.00     0.265 C 
ATOM     11  C   UNL A   1      32.710  27.036  24.117  1.00  0.00     0.265 C 
ATOM     12  H   UNL A   1      30.702  27.060  24.463  1.00  0.00     0.348 HD
ATOM     13  C   UNL A   1      31.237  24.538  24.194  1.00  0.00     0.093 C 
ATOM     14  C   UNL A   1      32.941  26.061  25.257  1.00  0.00     0.093 C 
BRANCH   9  15
ATOM     15  C   UNL A   1      30.977  28.043  22.728  1.00  0.00     0.319 C 
BRANCH  15  16
ATOM     16  C   UNL A   1      29.670  28.778  22.981  1.00  0.00     0.095 A 
ATOM     17  C   UNL A   1      28.721  32.321  23.184  1.00  0.00     0.067 C 
ATOM     18  C   UNL A   1      28.585  30.830  23.212  1.00  0.00     0.038 A 
ATOM     19  C   UNL A   1      27.345  30.210  23.253  1.00  0.00     0.023 A 
ATOM     20  N   UNL A   1      29.735  30.127  23.109  1.00  0.00    -0.252 NA
ATOM     21  C   UNL A   1      27.289  28.821  23.181  1.00  0.00     0.004 A 
ATOM     22  C   UNL A   1      28.464  28.090  23.032  1.00  0.00     0.030 A 
ENDBRANCH  15  16
ENDBRANCH   9  15
ENDBRANCH   7   8
ENDBRANCH   6   7
ENDBRANCH   3   6
ENDBRANCH   1   2
BRANCH   1  23
ATOM     23  C   UNL A   1      37.440  23.606  25.392  1.00  0.00     0.042 C 
BRANCH  23  24
ATOM     24  C   UNL A   1      38.343  23.908  26.588  1.00  0.00     0.118 C 
BRANCH  24  25
ATOM     25  N   UNL A   1      39.759  23.752  26.285  1.00  0.00    -0.352 N 
ATOM     26  C   UNL A   1      40.845  24.514  26.635  1.00  0.00     0.251 C 
ATOM     27  H   UNL A   1      39.974  22.965  25.736  1.00  0.00     0.163 HD
ATOM     28  O   UNL A   1      41.931  24.273  26.105  1.00  0.00    -0.269 OA
BRANCH  26  29
ATOM     29  C   UNL A   1      40.740  25.626  27.608  1.00  0.00     0.039 A 
ATOM     30  C   UNL A   1      39.608  25.689  28.428  1.00  0.00     0.014 A 
ATOM     31  C   UNL A   1      41.705  26.634  27.688  1.00  0.00     0.014 A 
ATOM     32  C   UNL A   1      39.479  26.714  29.372  1.00  0.00     0.010 A 
ATOM     33  C   UNL A   1      41.605  27.624  28.671  1.00  0.00     0.010 A 
ATOM     34  C   UNL A   1      40.496  27.668  29.530  1.00  0.00    -0.014 A 
BRANCH  34  35
ATOM     35  C   UNL A   1      40.432  28.683  30.618  1.00  0.00     0.031 A 
ATOM     36  C   UNL A   1      41.314  28.569  31.834  1.00  0.00     0.074 A 
ATOM     37  C   UNL A   1      39.528  29.680  30.537  1.00  0.00     0.049 A 
ATOM     38  N   UNL A   1      41.341  29.321  32.905  1.00  0.00    -0.248 NA
ATOM     39  C   UNL A   1      42.279  27.457  31.858  1.00  0.00     0.031 C 
ATOM     40  C   UNL A   1      38.586  29.879  29.433  1.00  0.00     0.029 A 
ATOM     41  N   UNL A   1      39.239  30.706  31.404  1.00  0.00    -0.354 N 
ATOM     42  C   UNL A   1      42.309  28.768  33.736  1.00  0.00     0.074 A 
ATOM     43  C   UNL A   1      42.824  27.596  33.059  1.00  0.00     0.031 C 
ATOM     44  C   UNL A   1      37.837  30.965  29.681  1.00  0.00     0.029 A 
ATOM     45  C   UNL A   1      38.213  31.518  30.978  1.00  0.00     0.049 A 
ATOM     46  H   UNL A   1      39.721  30.847  32.251  1.00  0.00     0.167 HD
ATOM     47  C   UNL A   1      42.739  29.205  34.946  1.00  0.00     0.037 A 
ATOM     48  C   UNL A   1      37.628  32.579  31.569  1.00  0.00     0.037 A 
ATOM     49  C   UNL A   1      42.246  30.389  35.604  1.00  0.00     0.049 A 
ATOM     50  C   UNL A   1      38.122  33.037  32.915  1.00  0.00     0.074 A 
ATOM     51  C   UNL A   1      42.674  30.951  36.796  1.00  0.00     0.029 A 
ATOM     52  N   UNL A   1      41.217  31.192  35.133  1.00  0.00    -0.354 N 
ATOM     53  N   UNL A   1      39.085  32.541  33.652  1.00  0.00    -0.248 NA
ATOM     54  C   UNL A   1      37.449  34.202  33.510  1.00  0.00     0.031 C 
ATOM     55  C   UNL A   1      41.874  32.065  37.069  1.00  0.00     0.029 A 
ATOM     56  C   UNL A   1      40.979  32.226  36.024  1.00  0.00     0.049 A 
ATOM     57  H   UNL A   1      40.728  31.047  34.292  1.00  0.00     0.167 HD
ATOM     58  C   UNL A   1      39.151  33.347  34.783  1.00  0.00     0.074 A 
ATOM     59  C   UNL A   1      38.140  34.371  34.627  1.00  0.00     0.031 C 
ATOM     60  C   UNL A   1      39.974  33.246  35.856  1.00  0.00     0.037 A 
BRANCH  47  61
ATOM     61  C   UNL A   1      43.804  28.410  35.648  1.00  0.00     0.058 A 
ATOM     62  C   UNL A   1      45.167  28.696  35.481  1.00  0.00     0.135 A 
ATOM     63  C   UNL A   1      43.455  27.405  36.566  1.00  0.00     0.135 A 
ATOM     64  F   UNL A   1      45.557  29.638  34.607  1.00  0.00    -0.206 F 
ATOM     65  C   UNL A   1      46.148  28.008  36.189  1.00  0.00     0.059 A 
ATOM     66  C   UNL A   1      44.418  26.721  37.304  1.00  0.00     0.059 A 
ATOM     67  F   UNL A   1      42.165  27.092  36.766  1.00  0.00    -0.206 F 
ATOM     68  C   UNL A   1      45.763  27.026  37.102  1.00  0.00     0.060 A 
BRANCH  68  69
ATOM     69  S   UNL A   1      47.046  26.169  38.042  1.00  0.00     0.124 S 
ATOM     70  O   UNL A   1      48.180  26.250  37.124  1.00  0.00    -0.237 OA
ATOM     71  O   UNL A   1      47.148  26.989  39.247  1.00  0.00    -0.237 OA
ATOM     72  O   UNL A   1      46.492  24.837  38.240  1.00  0.00    -0.744 OA
ENDBRANCH  68  69
ENDBRANCH  47  61
BRANCH  48  73
ATOM     73  C   UNL A   1      36.508  33.288  30.896  1.00  0.00     0.058 A 
ATOM     74  C   UNL A   1      36.746  34.161  29.824  1.00  0.00     0.135 A 
ATOM     75  C   UNL A   1      35.181  33.121  31.320  1.00  0.00     0.135 A 
ATOM     76  F   UNL A   1      38.000  34.358  29.387  1.00  0.00    -0.206 F 
ATOM     77  C   UNL A   1      35.715  34.868  29.216  1.00  0.00     0.059 A 
ATOM     78  C   UNL A   1      34.128  33.796  30.710  1.00  0.00     0.059 A 
ATOM     79  F   UNL A   1      34.896  32.285  32.331  1.00  0.00    -0.206 F 
ATOM     80  C   UNL A   1      34.408  34.681  29.669  1.00  0.00     0.060 A 
BRANCH  80  81
ATOM     81  S   UNL A   1      33.070  35.585  28.861  1.00  0.00     0.124 S 
ATOM     82  O   UNL A   1      33.813  36.543  28.051  1.00  0.00    -0.237 OA
ATOM     83  O   UNL A   1      32.380  34.528  28.129  1.00  0.00    -0.237 OA
ATOM     84  O   UNL A   1      32.324  36.149  29.982  1.00  0.00    -0.744 OA
ENDBRANCH  80  81
ENDBRANCH  48  73
BRANCH  60  85
ATOM     85  C   UNL A   1      39.840  34.287  36.933  1.00  0.00     0.058 A 
ATOM     86  C   UNL A   1      40.462  35.540  36.828  1.00  0.00     0.135 A 
ATOM     87  C   UNL A   1      39.044  34.042  38.063  1.00  0.00     0.135 A 
ATOM     88  F   UNL A   1      41.241  35.821  35.771  1.00  0.00    -0.206 F 
ATOM     89  C   UNL A   1      40.319  36.507  37.818  1.00  0.00     0.059 A 
ATOM     90  C   UNL A   1      38.864  35.004  39.053  1.00  0.00     0.059 A 
ATOM     91  F   UNL A   1      38.418  32.862  38.208  1.00  0.00    -0.206 F 
ATOM     92  C   UNL A   1      39.517  36.230  38.927  1.00  0.00     0.060 A 
BRANCH  92  93
ATOM     93  S   UNL A   1      39.313  37.505  40.189  1.00  0.00     0.124 S 
ATOM     94  O   UNL A   1      38.245  38.317  39.616  1.00  0.00    -0.237 OA
ATOM     95  O   UNL A   1      38.953  36.724  41.368  1.00  0.00    -0.237 OA
ATOM     96  O   UNL A   1      40.626  38.141  40.243  1.00  0.00    -0.744 OA
ENDBRANCH  92  93
ENDBRANCH  60  85
ENDBRANCH  34  35
ENDBRANCH  26  29
ENDBRANCH  24  25
ENDBRANCH  23  24
ENDBRANCH   1  23
TORSDOF 17
ENDMDL
