MODEL 1
REMARK VINA RESULT:     -11.9      0.000      0.000
REMARK SMILES C[C@H](Oc1ccc(-c2ccccc2)cc1)C(=O)N[C@H](C)C(=O)NCCCNC(=O)c1ccc(-c2c3nc(c(-c4c(F)cc(S(=O)(=O)[O-])cc4F)c4ccc([nH]4)c(-c4c(F)cc(S(=O)(=O)[O-])cc4F)c4nc(c(-c5c(F)cc(S(=O)(=O)[O-])cc5F)c5ccc2[nH]5)C=C4)C=C3)cc1
REMARK SMILES IDX 24 1 23 2 21 3 22 4 19 6 20 7 18 8 16 9 17 10 2 12 1 13 3 14
REMARK SMILES IDX 4 15 5 16 15 17 6 18 14 19 7 20 8 21 9 22 13 23 10 24 12 25
REMARK SMILES IDX 11 26 25 27 26 28 27 29 28 30 29 32 30 33 31 34 95 35 32 36
REMARK SMILES IDX 94 37 33 38 34 39 35 40 88 41 36 42 93 43 87 44 89 45 37 46
REMARK SMILES IDX 92 47 86 48 85 49 38 51 72 52 51 53 71 54 52 55 55 56 70 57
REMARK SMILES IDX 90 58 53 59 54 60 69 62 91 63 56 64 39 65 40 66 49 67 41 68
REMARK SMILES IDX 42 69 48 70 50 71 43 72 44 73 45 74 46 75 47 76 73 77 74 78
REMARK SMILES IDX 83 79 75 80 76 81 82 82 84 83 77 84 78 85 79 86 80 87 81 88
REMARK SMILES IDX 57 89 58 90 67 91 59 92 60 93 66 94 68 95 61 96 62 97 63 98
REMARK SMILES IDX 64 99 65 100
REMARK H PARENT 23 5 18 11 27 31 89 50 55 61
REMARK Flexibility Score: inf
ROOT
ATOM      1  C   UNL A   1      36.546  23.721  25.904  1.00  0.00     0.117 C 
ENDROOT
BRANCH   1   2
ATOM      2  N   UNL A   1      35.815  22.947  26.899  1.00  0.00    -0.354 N 
ATOM      3  C   UNL A   1      34.748  22.099  26.762  1.00  0.00     0.242 C 
ATOM      4  O   UNL A   1      34.311  21.553  27.779  1.00  0.00    -0.273 OA
ATOM      5  H   UNL A   1      36.142  23.051  27.821  1.00  0.00     0.163 HD
BRANCH   3   6
ATOM      6  C   UNL A   1      34.041  21.926  25.398  1.00  0.00     0.168 C 
ATOM      7  C   UNL A   1      34.590  20.649  24.796  1.00  0.00     0.041 C 
BRANCH   6   8
ATOM      8  N   UNL A   1      32.596  22.091  25.610  1.00  0.00    -0.341 N 
ATOM      9  C   UNL A   1      31.566  22.723  24.991  1.00  0.00     0.261 C 
ATOM     10  O   UNL A   1      30.529  22.835  25.659  1.00  0.00    -0.271 OA
ATOM     11  H   UNL A   1      32.293  21.614  26.417  1.00  0.00     0.164 HD
BRANCH   9  12
ATOM     12  C   UNL A   1      31.579  23.166  23.521  1.00  0.00     0.258 C 
ATOM     13  C   UNL A   1      31.797  21.926  22.657  1.00  0.00     0.064 C 
BRANCH  12  14
ATOM     14  O   UNL A   1      32.371  24.344  23.426  1.00  0.00    -0.481 OA
BRANCH  14  15
ATOM     15  C   UNL A   1      32.471  25.328  24.350  1.00  0.00     0.120 A 
ATOM     16  C   UNL A   1      31.459  26.129  24.853  1.00  0.00     0.047 A 
ATOM     17  C   UNL A   1      33.789  25.595  24.736  1.00  0.00     0.047 A 
ATOM     18  C   UNL A   1      31.775  27.281  25.585  1.00  0.00     0.012 A 
ATOM     19  C   UNL A   1      34.102  26.724  25.499  1.00  0.00     0.012 A 
ATOM     20  C   UNL A   1      33.102  27.619  25.901  1.00  0.00    -0.018 A 
BRANCH  20  21
ATOM     21  C   UNL A   1      33.415  28.876  26.607  1.00  0.00    -0.018 A 
ATOM     22  C   UNL A   1      32.526  29.965  26.573  1.00  0.00     0.009 A 
ATOM     23  C   UNL A   1      34.629  29.052  27.295  1.00  0.00     0.009 A 
ATOM     24  C   UNL A   1      32.840  31.181  27.184  1.00  0.00     0.001 A 
ATOM     25  C   UNL A   1      34.944  30.266  27.914  1.00  0.00     0.001 A 
ATOM     26  C   UNL A   1      34.049  31.331  27.854  1.00  0.00     0.000 A 
ENDBRANCH  20  21
ENDBRANCH  14  15
ENDBRANCH  12  14
ENDBRANCH   9  12
ENDBRANCH   6   8
ENDBRANCH   3   6
ENDBRANCH   1   2
BRANCH   1  27
ATOM     27  C   UNL A   1      37.991  23.269  25.706  1.00  0.00     0.042 C 
BRANCH  27  28
ATOM     28  C   UNL A   1      38.940  23.632  26.839  1.00  0.00     0.118 C 
BRANCH  28  29
ATOM     29  N   UNL A   1      40.333  23.659  26.422  1.00  0.00    -0.352 N 
ATOM     30  C   UNL A   1      41.316  24.593  26.643  1.00  0.00     0.251 C 
ATOM     31  H   UNL A   1      40.620  22.879  25.893  1.00  0.00     0.163 HD
ATOM     32  O   UNL A   1      42.378  24.496  26.036  1.00  0.00    -0.269 OA
BRANCH  30  33
ATOM     33  C   UNL A   1      41.100  25.723  27.578  1.00  0.00     0.039 A 
ATOM     34  C   UNL A   1      40.001  25.677  28.440  1.00  0.00     0.014 A 
ATOM     35  C   UNL A   1      41.950  26.832  27.597  1.00  0.00     0.014 A 
ATOM     36  C   UNL A   1      39.805  26.695  29.378  1.00  0.00     0.010 A 
ATOM     37  C   UNL A   1      41.796  27.810  28.578  1.00  0.00     0.010 A 
ATOM     38  C   UNL A   1      40.731  27.745  29.489  1.00  0.00    -0.014 A 
BRANCH  38  39
ATOM     39  C   UNL A   1      40.635  28.746  30.585  1.00  0.00     0.031 A 
ATOM     40  C   UNL A   1      41.485  28.619  31.819  1.00  0.00     0.074 A 
ATOM     41  C   UNL A   1      39.712  29.727  30.497  1.00  0.00     0.049 A 
ATOM     42  N   UNL A   1      41.469  29.345  32.908  1.00  0.00    -0.248 NA
ATOM     43  C   UNL A   1      42.470  27.525  31.845  1.00  0.00     0.031 C 
ATOM     44  C   UNL A   1      38.796  29.929  29.369  1.00  0.00     0.029 A 
ATOM     45  N   UNL A   1      39.375  30.728  31.374  1.00  0.00    -0.354 N 
ATOM     46  C   UNL A   1      42.420  28.787  33.754  1.00  0.00     0.074 A 
ATOM     47  C   UNL A   1      42.978  27.643  33.065  1.00  0.00     0.031 C 
ATOM     48  C   UNL A   1      38.015  30.991  29.618  1.00  0.00     0.029 A 
ATOM     49  C   UNL A   1      38.336  31.520  30.939  1.00  0.00     0.049 A 
ATOM     50  H   UNL A   1      39.834  30.867  32.234  1.00  0.00     0.167 HD
ATOM     51  C   UNL A   1      42.801  29.201  34.986  1.00  0.00     0.037 A 
ATOM     52  C   UNL A   1      37.696  32.541  31.544  1.00  0.00     0.037 A 
ATOM     53  C   UNL A   1      42.267  30.364  35.648  1.00  0.00     0.049 A 
ATOM     54  C   UNL A   1      38.129  32.962  32.923  1.00  0.00     0.074 A 
ATOM     55  C   UNL A   1      42.662  30.920  36.853  1.00  0.00     0.029 A 
ATOM     56  N   UNL A   1      41.220  31.139  35.176  1.00  0.00    -0.354 N 
ATOM     57  N   UNL A   1      39.098  32.482  33.664  1.00  0.00    -0.248 NA
ATOM     58  C   UNL A   1      37.379  34.058  33.552  1.00  0.00     0.031 C 
ATOM     59  C   UNL A   1      41.815  31.995  37.138  1.00  0.00     0.029 A 
ATOM     60  C   UNL A   1      40.926  32.141  36.086  1.00  0.00     0.049 A 
ATOM     61  H   UNL A   1      40.755  31.000  34.320  1.00  0.00     0.167 HD
ATOM     62  C   UNL A   1      39.085  33.230  34.836  1.00  0.00     0.074 A 
ATOM     63  C   UNL A   1      38.028  34.209  34.697  1.00  0.00     0.031 C 
ATOM     64  C   UNL A   1      39.874  33.114  35.933  1.00  0.00     0.037 A 
BRANCH  51  65
ATOM     65  C   UNL A   1      43.849  28.408  35.715  1.00  0.00     0.058 A 
ATOM     66  C   UNL A   1      45.217  28.673  35.561  1.00  0.00     0.135 A 
ATOM     67  C   UNL A   1      43.471  27.441  36.663  1.00  0.00     0.135 A 
ATOM     68  F   UNL A   1      45.633  29.577  34.661  1.00  0.00    -0.206 F 
ATOM     69  C   UNL A   1      46.176  28.007  36.319  1.00  0.00     0.059 A 
ATOM     70  C   UNL A   1      44.411  26.780  37.448  1.00  0.00     0.059 A 
ATOM     71  F   UNL A   1      42.175  27.146  36.848  1.00  0.00    -0.206 F 
ATOM     72  C   UNL A   1      45.763  27.069  37.267  1.00  0.00     0.060 A 
BRANCH  72  73
ATOM     73  S   UNL A   1      47.018  26.257  38.278  1.00  0.00     0.124 S 
ATOM     74  O   UNL A   1      47.932  27.362  38.552  1.00  0.00    -0.237 OA
ATOM     75  O   UNL A   1      46.239  25.783  39.418  1.00  0.00    -0.237 OA
ATOM     76  O   UNL A   1      47.541  25.214  37.401  1.00  0.00    -0.744 OA
ENDBRANCH  72  73
ENDBRANCH  51  65
BRANCH  52  77
ATOM     77  C   UNL A   1      36.565  33.231  30.866  1.00  0.00     0.058 A 
ATOM     78  C   UNL A   1      36.792  34.121  29.805  1.00  0.00     0.135 A 
ATOM     79  C   UNL A   1      35.239  33.043  31.287  1.00  0.00     0.135 A 
ATOM     80  F   UNL A   1      38.042  34.340  29.371  1.00  0.00    -0.206 F 
ATOM     81  C   UNL A   1      35.752  34.827  29.210  1.00  0.00     0.059 A 
ATOM     82  C   UNL A   1      34.179  33.714  30.687  1.00  0.00     0.059 A 
ATOM     83  F   UNL A   1      34.963  32.188  32.285  1.00  0.00    -0.206 F 
ATOM     84  C   UNL A   1      34.447  34.619  29.662  1.00  0.00     0.060 A 
BRANCH  84  85
ATOM     85  S   UNL A   1      33.101  35.535  28.880  1.00  0.00     0.124 S 
ATOM     86  O   UNL A   1      33.836  36.532  28.112  1.00  0.00    -0.237 OA
ATOM     87  O   UNL A   1      32.432  34.495  28.106  1.00  0.00    -0.237 OA
ATOM     88  O   UNL A   1      32.343  36.045  30.018  1.00  0.00    -0.744 OA
ENDBRANCH  84  85
ENDBRANCH  52  77
BRANCH  64  89
ATOM     89  C   UNL A   1      39.637  34.075  37.064  1.00  0.00     0.058 A 
ATOM     90  C   UNL A   1      38.841  33.727  38.166  1.00  0.00     0.135 A 
ATOM     91  C   UNL A   1      40.263  35.333  37.076  1.00  0.00     0.135 A 
ATOM     92  F   UNL A   1      38.211  32.543  38.197  1.00  0.00    -0.206 F 
ATOM     93  C   UNL A   1      38.659  34.599  39.234  1.00  0.00     0.059 A 
ATOM     94  C   UNL A   1      40.120  36.208  38.148  1.00  0.00     0.059 A 
ATOM     95  F   UNL A   1      41.042  35.710  36.051  1.00  0.00    -0.206 F 
ATOM     96  C   UNL A   1      39.309  35.835  39.219  1.00  0.00     0.060 A 
BRANCH  96  97
ATOM     97  S   UNL A   1      39.105  36.934  40.637  1.00  0.00     0.124 S 
ATOM     98  O   UNL A   1      38.273  37.992  40.072  1.00  0.00    -0.237 OA
ATOM     99  O   UNL A   1      38.452  36.066  41.612  1.00  0.00    -0.237 OA
ATOM    100  O   UNL A   1      40.473  37.321  40.967  1.00  0.00    -0.744 OA
ENDBRANCH  96  97
ENDBRANCH  64  89
ENDBRANCH  38  39
ENDBRANCH  30  33
ENDBRANCH  28  29
ENDBRANCH  27  28
ENDBRANCH   1  27
TORSDOF 18
ENDMDL
MODEL 2
REMARK VINA RESULT:     -11.8      4.076      6.979
REMARK SMILES C[C@H](Oc1ccc(-c2ccccc2)cc1)C(=O)N[C@H](C)C(=O)NCCCNC(=O)c1ccc(-c2c3nc(c(-c4c(F)cc(S(=O)(=O)[O-])cc4F)c4ccc([nH]4)c(-c4c(F)cc(S(=O)(=O)[O-])cc4F)c4nc(c(-c5c(F)cc(S(=O)(=O)[O-])cc5F)c5ccc2[nH]5)C=C4)C=C3)cc1
REMARK SMILES IDX 24 1 23 2 21 3 22 4 19 6 20 7 18 8 16 9 17 10 2 12 1 13 3 14
REMARK SMILES IDX 4 15 5 16 15 17 6 18 14 19 7 20 8 21 9 22 13 23 10 24 12 25
REMARK SMILES IDX 11 26 25 27 26 28 27 29 28 30 29 32 30 33 31 34 95 35 32 36
REMARK SMILES IDX 94 37 33 38 34 39 35 40 88 41 36 42 93 43 87 44 89 45 37 46
REMARK SMILES IDX 92 47 86 48 85 49 38 51 72 52 51 53 71 54 52 55 55 56 70 57
REMARK SMILES IDX 90 58 53 59 54 60 69 62 91 63 56 64 39 65 40 66 49 67 41 68
REMARK SMILES IDX 42 69 48 70 50 71 43 72 44 73 45 74 46 75 47 76 73 77 74 78
REMARK SMILES IDX 83 79 75 80 76 81 82 82 84 83 77 84 78 85 79 86 80 87 81 88
REMARK SMILES IDX 57 89 58 90 67 91 59 92 60 93 66 94 68 95 61 96 62 97 63 98
REMARK SMILES IDX 64 99 65 100
REMARK H PARENT 23 5 18 11 27 31 89 50 55 61
REMARK Flexibility Score: inf
ROOT
ATOM      1  C   UNL A   1      42.050  19.817  26.640  1.00  0.00     0.117 C 
ENDROOT
BRANCH   1   2
ATOM      2  N   UNL A   1      42.732  18.988  25.654  1.00  0.00    -0.354 N 
ATOM      3  C   UNL A   1      43.981  19.103  25.103  1.00  0.00     0.242 C 
ATOM      4  O   UNL A   1      44.329  18.251  24.280  1.00  0.00    -0.273 OA
ATOM      5  H   UNL A   1      42.209  18.220  25.330  1.00  0.00     0.163 HD
BRANCH   3   6
ATOM      6  C   UNL A   1      44.877  20.323  25.415  1.00  0.00     0.168 C 
ATOM      7  C   UNL A   1      46.272  19.954  24.952  1.00  0.00     0.041 C 
BRANCH   6   8
ATOM      8  N   UNL A   1      44.210  21.523  24.890  1.00  0.00    -0.341 N 
ATOM      9  C   UNL A   1      43.957  22.787  25.316  1.00  0.00     0.261 C 
ATOM     10  O   UNL A   1      43.112  23.413  24.661  1.00  0.00    -0.271 OA
ATOM     11  H   UNL A   1      43.851  21.370  23.986  1.00  0.00     0.164 HD
BRANCH   9  12
ATOM     12  C   UNL A   1      44.729  23.493  26.440  1.00  0.00     0.258 C 
ATOM     13  C   UNL A   1      43.854  23.481  27.692  1.00  0.00     0.064 C 
BRANCH  12  14
ATOM     14  O   UNL A   1      45.314  24.670  25.897  1.00  0.00    -0.481 OA
BRANCH  14  15
ATOM     15  C   UNL A   1      45.125  25.940  26.327  1.00  0.00     0.120 A 
ATOM     16  C   UNL A   1      44.109  26.813  25.978  1.00  0.00     0.047 A 
ATOM     17  C   UNL A   1      46.162  26.411  27.140  1.00  0.00     0.047 A 
ATOM     18  C   UNL A   1      44.217  28.175  26.289  1.00  0.00     0.012 A 
ATOM     19  C   UNL A   1      46.252  27.763  27.483  1.00  0.00     0.012 A 
ATOM     20  C   UNL A   1      45.302  28.685  27.023  1.00  0.00    -0.018 A 
BRANCH  20  21
ATOM     21  C   UNL A   1      45.434  30.134  27.271  1.00  0.00    -0.018 A 
ATOM     22  C   UNL A   1      46.300  30.924  26.496  1.00  0.00     0.009 A 
ATOM     23  C   UNL A   1      44.740  30.767  28.318  1.00  0.00     0.009 A 
ATOM     24  C   UNL A   1      46.481  32.283  26.763  1.00  0.00     0.001 A 
ATOM     25  C   UNL A   1      44.912  32.130  28.582  1.00  0.00     0.001 A 
ATOM     26  C   UNL A   1      45.786  32.885  27.806  1.00  0.00     0.000 A 
ENDBRANCH  20  21
ENDBRANCH  14  15
ENDBRANCH  12  14
ENDBRANCH   9  12
ENDBRANCH   6   8
ENDBRANCH   3   6
ENDBRANCH   1   2
BRANCH   1  27
ATOM     27  C   UNL A   1      40.716  20.382  26.158  1.00  0.00     0.042 C 
BRANCH  27  28
ATOM     28  C   UNL A   1      40.437  21.819  26.573  1.00  0.00     0.118 C 
BRANCH  28  29
ATOM     29  N   UNL A   1      39.258  22.374  25.928  1.00  0.00    -0.352 N 
ATOM     30  C   UNL A   1      38.641  23.592  26.086  1.00  0.00     0.251 C 
ATOM     31  H   UNL A   1      38.831  21.780  25.269  1.00  0.00     0.163 HD
ATOM     32  O   UNL A   1      37.544  23.775  25.567  1.00  0.00    -0.269 OA
BRANCH  30  33
ATOM     33  C   UNL A   1      39.267  24.667  26.891  1.00  0.00     0.039 A 
ATOM     34  C   UNL A   1      40.145  25.552  26.258  1.00  0.00     0.014 A 
ATOM     35  C   UNL A   1      39.018  24.798  28.260  1.00  0.00     0.014 A 
ATOM     36  C   UNL A   1      40.702  26.615  26.974  1.00  0.00     0.010 A 
ATOM     37  C   UNL A   1      39.516  25.898  28.956  1.00  0.00     0.010 A 
ATOM     38  C   UNL A   1      40.351  26.827  28.318  1.00  0.00    -0.014 A 
BRANCH  38  39
ATOM     39  C   UNL A   1      40.799  28.042  29.049  1.00  0.00     0.031 A 
ATOM     40  C   UNL A   1      42.153  28.091  29.703  1.00  0.00     0.074 A 
ATOM     41  C   UNL A   1      39.941  29.074  29.193  1.00  0.00     0.049 A 
ATOM     42  N   UNL A   1      42.670  29.029  30.455  1.00  0.00    -0.248 NA
ATOM     43  C   UNL A   1      43.036  26.930  29.504  1.00  0.00     0.031 C 
ATOM     44  C   UNL A   1      38.582  29.127  28.643  1.00  0.00     0.029 A 
ATOM     45  N   UNL A   1      40.071  30.268  29.858  1.00  0.00    -0.354 N 
ATOM     46  C   UNL A   1      43.925  28.566  30.835  1.00  0.00     0.074 A 
ATOM     47  C   UNL A   1      44.082  27.249  30.254  1.00  0.00     0.031 C 
ATOM     48  C   UNL A   1      38.013  30.295  28.982  1.00  0.00     0.029 A 
ATOM     49  C   UNL A   1      38.942  31.055  29.811  1.00  0.00     0.049 A 
ATOM     50  H   UNL A   1      40.895  30.537  30.324  1.00  0.00     0.167 HD
ATOM     51  C   UNL A   1      44.862  29.190  31.587  1.00  0.00     0.037 A 
ATOM     52  C   UNL A   1      38.673  32.242  30.390  1.00  0.00     0.037 A 
ATOM     53  C   UNL A   1      44.712  30.516  32.130  1.00  0.00     0.049 A 
ATOM     54  C   UNL A   1      39.729  32.898  31.239  1.00  0.00     0.074 A 
ATOM     55  C   UNL A   1      45.647  31.270  32.819  1.00  0.00     0.029 A 
ATOM     56  N   UNL A   1      43.557  31.280  32.059  1.00  0.00    -0.354 N 
ATOM     57  N   UNL A   1      40.946  32.486  31.504  1.00  0.00    -0.248 NA
ATOM     58  C   UNL A   1      39.375  34.175  31.874  1.00  0.00     0.031 C 
ATOM     59  C   UNL A   1      45.038  32.464  33.217  1.00  0.00     0.029 A 
ATOM     60  C   UNL A   1      43.742  32.477  32.731  1.00  0.00     0.049 A 
ATOM     61  H   UNL A   1      42.730  31.011  31.599  1.00  0.00     0.167 HD
ATOM     62  C   UNL A   1      41.507  33.464  32.319  1.00  0.00     0.074 A 
ATOM     63  C   UNL A   1      40.507  34.497  32.485  1.00  0.00     0.031 C 
ATOM     64  C   UNL A   1      42.738  33.501  32.884  1.00  0.00     0.037 A 
BRANCH  51  65
ATOM     65  C   UNL A   1      46.146  28.463  31.878  1.00  0.00     0.058 A 
ATOM     66  C   UNL A   1      46.264  27.574  32.956  1.00  0.00     0.135 A 
ATOM     67  C   UNL A   1      47.237  28.577  30.999  1.00  0.00     0.135 A 
ATOM     68  F   UNL A   1      45.256  27.437  33.833  1.00  0.00    -0.206 F 
ATOM     69  C   UNL A   1      47.419  26.824  33.157  1.00  0.00     0.059 A 
ATOM     70  C   UNL A   1      48.393  27.819  31.167  1.00  0.00     0.059 A 
ATOM     71  F   UNL A   1      47.178  29.415  29.953  1.00  0.00    -0.206 F 
ATOM     72  C   UNL A   1      48.475  26.947  32.252  1.00  0.00     0.060 A 
BRANCH  72  73
ATOM     73  S   UNL A   1      49.943  25.925  32.497  1.00  0.00     0.124 S 
ATOM     74  O   UNL A   1      50.342  26.309  33.848  1.00  0.00    -0.237 OA
ATOM     75  O   UNL A   1      49.408  24.574  32.355  1.00  0.00    -0.237 OA
ATOM     76  O   UNL A   1      50.841  26.357  31.432  1.00  0.00    -0.744 OA
ENDBRANCH  72  73
ENDBRANCH  51  65
BRANCH  52  77
ATOM     77  C   UNL A   1      37.345  32.888  30.208  1.00  0.00     0.058 A 
ATOM     78  C   UNL A   1      37.130  33.823  29.184  1.00  0.00     0.135 A 
ATOM     79  C   UNL A   1      36.275  32.611  31.074  1.00  0.00     0.135 A 
ATOM     80  F   UNL A   1      38.123  34.127  28.335  1.00  0.00    -0.206 F 
ATOM     81  C   UNL A   1      35.915  34.487  29.046  1.00  0.00     0.059 A 
ATOM     82  C   UNL A   1      35.042  33.240  30.937  1.00  0.00     0.059 A 
ATOM     83  F   UNL A   1      36.420  31.711  32.059  1.00  0.00    -0.206 F 
ATOM     84  C   UNL A   1      34.878  34.191  29.932  1.00  0.00     0.060 A 
BRANCH  84  85
ATOM     85  S   UNL A   1      33.302  35.053  29.743  1.00  0.00     0.124 S 
ATOM     86  O   UNL A   1      32.829  35.100  31.121  1.00  0.00    -0.237 OA
ATOM     87  O   UNL A   1      33.717  36.327  29.165  1.00  0.00    -0.237 OA
ATOM     88  O   UNL A   1      32.551  34.181  28.846  1.00  0.00    -0.744 OA
ENDBRANCH  84  85
ENDBRANCH  52  77
BRANCH  64  89
ATOM     89  C   UNL A   1      43.083  34.699  33.723  1.00  0.00     0.058 A 
ATOM     90  C   UNL A   1      42.959  34.674  35.121  1.00  0.00     0.135 A 
ATOM     91  C   UNL A   1      43.600  35.862  33.130  1.00  0.00     0.135 A 
ATOM     92  F   UNL A   1      42.459  33.591  35.736  1.00  0.00    -0.206 F 
ATOM     93  C   UNL A   1      43.321  35.767  35.901  1.00  0.00     0.059 A 
ATOM     94  C   UNL A   1      43.997  36.956  33.893  1.00  0.00     0.059 A 
ATOM     95  F   UNL A   1      43.746  35.934  31.798  1.00  0.00    -0.206 F 
ATOM     96  C   UNL A   1      43.846  36.902  35.278  1.00  0.00     0.060 A 
BRANCH  96  97
ATOM     97  S   UNL A   1      44.360  38.292  36.308  1.00  0.00     0.124 S 
ATOM     98  O   UNL A   1      44.121  39.423  35.417  1.00  0.00    -0.237 OA
ATOM     99  O   UNL A   1      43.456  38.184  37.450  1.00  0.00    -0.237 OA
ATOM    100  O   UNL A   1      45.761  38.004  36.595  1.00  0.00    -0.744 OA
ENDBRANCH  96  97
ENDBRANCH  64  89
ENDBRANCH  38  39
ENDBRANCH  30  33
ENDBRANCH  28  29
ENDBRANCH  27  28
ENDBRANCH   1  27
TORSDOF 18
ENDMDL
MODEL 3
REMARK VINA RESULT:     -11.7      3.508      9.157
REMARK SMILES C[C@H](Oc1ccc(-c2ccccc2)cc1)C(=O)N[C@H](C)C(=O)NCCCNC(=O)c1ccc(-c2c3nc(c(-c4c(F)cc(S(=O)(=O)[O-])cc4F)c4ccc([nH]4)c(-c4c(F)cc(S(=O)(=O)[O-])cc4F)c4nc(c(-c5c(F)cc(S(=O)(=O)[O-])cc5F)c5ccc2[nH]5)C=C4)C=C3)cc1
REMARK SMILES IDX 24 1 23 2 21 3 22 4 19 6 20 7 18 8 16 9 17 10 2 12 1 13 3 14
REMARK SMILES IDX 4 15 5 16 15 17 6 18 14 19 7 20 8 21 9 22 13 23 10 24 12 25
REMARK SMILES IDX 11 26 25 27 26 28 27 29 28 30 29 32 30 33 31 34 95 35 32 36
REMARK SMILES IDX 94 37 33 38 34 39 35 40 88 41 36 42 93 43 87 44 89 45 37 46
REMARK SMILES IDX 92 47 86 48 85 49 38 51 72 52 51 53 71 54 52 55 55 56 70 57
REMARK SMILES IDX 90 58 53 59 54 60 69 62 91 63 56 64 39 65 40 66 49 67 41 68
REMARK SMILES IDX 42 69 48 70 50 71 43 72 44 73 45 74 46 75 47 76 73 77 74 78
REMARK SMILES IDX 83 79 75 80 76 81 82 82 84 83 77 84 78 85 79 86 80 87 81 88
REMARK SMILES IDX 57 89 58 90 67 91 59 92 60 93 66 94 68 95 61 96 62 97 63 98
REMARK SMILES IDX 64 99 65 100
REMARK H PARENT 23 5 18 11 27 31 89 50 55 61
REMARK Flexibility Score: inf
ROOT
ATOM      1  C   UNL A   1      33.389  26.290  25.843  1.00  0.00     0.117 C 
ENDROOT
BRANCH   1   2
ATOM      2  N   UNL A   1      32.482  25.293  26.396  1.00  0.00    -0.354 N 
ATOM      3  C   UNL A   1      32.682  23.970  26.689  1.00  0.00     0.242 C 
ATOM      4  O   UNL A   1      31.736  23.334  27.164  1.00  0.00    -0.273 OA
ATOM      5  H   UNL A   1      31.575  25.624  26.590  1.00  0.00     0.163 HD
BRANCH   3   6
ATOM      6  C   UNL A   1      34.011  23.269  26.327  1.00  0.00     0.168 C 
ATOM      7  C   UNL A   1      33.898  21.851  26.849  1.00  0.00     0.041 C 
BRANCH   6   8
ATOM      8  N   UNL A   1      34.286  23.521  24.906  1.00  0.00    -0.341 N 
ATOM      9  C   UNL A   1      33.741  23.174  23.711  1.00  0.00     0.261 C 
ATOM     10  O   UNL A   1      34.453  23.383  22.719  1.00  0.00    -0.271 OA
ATOM     11  H   UNL A   1      35.076  24.097  24.787  1.00  0.00     0.164 HD
BRANCH   9  12
ATOM     12  C   UNL A   1      32.299  22.683  23.527  1.00  0.00     0.258 C 
ATOM     13  C   UNL A   1      32.344  21.181  23.255  1.00  0.00     0.064 C 
BRANCH  12  14
ATOM     14  O   UNL A   1      31.621  23.616  22.695  1.00  0.00    -0.481 OA
BRANCH  14  15
ATOM     15  C   UNL A   1      31.152  24.833  23.059  1.00  0.00     0.120 A 
ATOM     16  C   UNL A   1      30.210  25.125  24.031  1.00  0.00     0.047 A 
ATOM     17  C   UNL A   1      31.634  25.876  22.261  1.00  0.00     0.047 A 
ATOM     18  C   UNL A   1      29.631  26.400  24.086  1.00  0.00     0.012 A 
ATOM     19  C   UNL A   1      31.084  27.158  22.340  1.00  0.00     0.012 A 
ATOM     20  C   UNL A   1      30.035  27.436  23.226  1.00  0.00    -0.018 A 
BRANCH  20  21
ATOM     21  C   UNL A   1      29.357  28.747  23.251  1.00  0.00    -0.018 A 
ATOM     22  C   UNL A   1      30.005  29.886  23.760  1.00  0.00     0.009 A 
ATOM     23  C   UNL A   1      28.029  28.897  22.813  1.00  0.00     0.009 A 
ATOM     24  C   UNL A   1      29.352  31.117  23.847  1.00  0.00     0.001 A 
ATOM     25  C   UNL A   1      27.374  30.131  22.891  1.00  0.00     0.001 A 
ATOM     26  C   UNL A   1      28.036  31.239  23.411  1.00  0.00     0.000 A 
ENDBRANCH  20  21
ENDBRANCH  14  15
ENDBRANCH  12  14
ENDBRANCH   9  12
ENDBRANCH   6   8
ENDBRANCH   3   6
ENDBRANCH   1   2
BRANCH   1  27
ATOM     27  C   UNL A   1      33.242  27.676  26.469  1.00  0.00     0.042 C 
BRANCH  27  28
ATOM     28  C   UNL A   1      34.125  28.755  25.859  1.00  0.00     0.118 C 
BRANCH  28  29
ATOM     29  N   UNL A   1      33.884  30.070  26.431  1.00  0.00    -0.352 N 
ATOM     30  C   UNL A   1      34.519  30.729  27.457  1.00  0.00     0.251 C 
ATOM     31  H   UNL A   1      33.146  30.571  26.016  1.00  0.00     0.163 HD
ATOM     32  O   UNL A   1      34.025  31.764  27.896  1.00  0.00    -0.269 OA
BRANCH  30  33
ATOM     33  C   UNL A   1      35.765  30.195  28.054  1.00  0.00     0.039 A 
ATOM     34  C   UNL A   1      36.977  30.437  27.400  1.00  0.00     0.014 A 
ATOM     35  C   UNL A   1      35.751  29.441  29.231  1.00  0.00     0.014 A 
ATOM     36  C   UNL A   1      38.177  30.001  27.970  1.00  0.00     0.010 A 
ATOM     37  C   UNL A   1      36.952  29.070  29.835  1.00  0.00     0.010 A 
ATOM     38  C   UNL A   1      38.179  29.359  29.218  1.00  0.00    -0.014 A 
BRANCH  38  39
ATOM     39  C   UNL A   1      39.450  29.037  29.919  1.00  0.00     0.031 A 
ATOM     40  C   UNL A   1      39.922  29.872  31.079  1.00  0.00     0.074 A 
ATOM     41  C   UNL A   1      40.223  28.036  29.448  1.00  0.00     0.049 A 
ATOM     42  N   UNL A   1      41.043  29.792  31.747  1.00  0.00    -0.248 NA
ATOM     43  C   UNL A   1      39.027  30.947  31.538  1.00  0.00     0.031 C 
ATOM     44  C   UNL A   1      39.896  27.183  28.301  1.00  0.00     0.029 A 
ATOM     45  N   UNL A   1      41.449  27.575  29.859  1.00  0.00    -0.354 N 
ATOM     46  C   UNL A   1      41.001  30.815  32.689  1.00  0.00     0.074 A 
ATOM     47  C   UNL A   1      39.754  31.520  32.488  1.00  0.00     0.031 C 
ATOM     48  C   UNL A   1      40.887  26.299  28.111  1.00  0.00     0.029 A 
ATOM     49  C   UNL A   1      41.943  26.547  29.087  1.00  0.00     0.049 A 
ATOM     50  H   UNL A   1      41.931  27.944  30.634  1.00  0.00     0.167 HD
ATOM     51  C   UNL A   1      41.914  31.124  33.640  1.00  0.00     0.037 A 
ATOM     52  C   UNL A   1      43.120  25.895  29.141  1.00  0.00     0.037 A 
ATOM     53  C   UNL A   1      43.135  30.392  33.857  1.00  0.00     0.049 A 
ATOM     54  C   UNL A   1      44.122  26.278  30.196  1.00  0.00     0.074 A 
ATOM     55  C   UNL A   1      44.073  30.569  34.861  1.00  0.00     0.029 A 
ATOM     56  N   UNL A   1      43.597  29.358  33.057  1.00  0.00    -0.354 N 
ATOM     57  N   UNL A   1      44.019  27.184  31.139  1.00  0.00    -0.248 NA
ATOM     58  C   UNL A   1      45.404  25.559  30.192  1.00  0.00     0.031 C 
ATOM     59  C   UNL A   1      45.130  29.683  34.633  1.00  0.00     0.029 A 
ATOM     60  C   UNL A   1      44.827  28.918  33.518  1.00  0.00     0.049 A 
ATOM     61  H   UNL A   1      43.122  28.991  32.278  1.00  0.00     0.167 HD
ATOM     62  C   UNL A   1      45.213  27.127  31.851  1.00  0.00     0.074 A 
ATOM     63  C   UNL A   1      46.014  26.084  31.245  1.00  0.00     0.031 C 
ATOM     64  C   UNL A   1      45.613  27.875  32.909  1.00  0.00     0.037 A 
BRANCH  51  65
ATOM     65  C   UNL A   1      41.643  32.302  34.535  1.00  0.00     0.058 A 
ATOM     66  C   UNL A   1      42.104  33.589  34.222  1.00  0.00     0.135 A 
ATOM     67  C   UNL A   1      40.818  32.157  35.664  1.00  0.00     0.135 A 
ATOM     68  F   UNL A   1      42.905  33.780  33.162  1.00  0.00    -0.206 F 
ATOM     69  C   UNL A   1      41.761  34.692  34.997  1.00  0.00     0.059 A 
ATOM     70  C   UNL A   1      40.442  33.250  36.440  1.00  0.00     0.059 A 
ATOM     71  F   UNL A   1      40.352  30.947  36.009  1.00  0.00    -0.206 F 
ATOM     72  C   UNL A   1      40.921  34.514  36.098  1.00  0.00     0.060 A 
BRANCH  72  73
ATOM     73  S   UNL A   1      40.441  35.966  37.059  1.00  0.00     0.124 S 
ATOM     74  O   UNL A   1      41.736  36.432  37.548  1.00  0.00    -0.237 OA
ATOM     75  O   UNL A   1      39.805  36.808  36.051  1.00  0.00    -0.237 OA
ATOM     76  O   UNL A   1      39.547  35.422  38.075  1.00  0.00    -0.744 OA
ENDBRANCH  72  73
ENDBRANCH  51  65
BRANCH  52  77
ATOM     77  C   UNL A   1      43.435  24.821  28.159  1.00  0.00     0.058 A 
ATOM     78  C   UNL A   1      44.090  25.114  26.953  1.00  0.00     0.135 A 
ATOM     79  C   UNL A   1      43.057  23.489  28.389  1.00  0.00     0.135 A 
ATOM     80  F   UNL A   1      44.465  26.373  26.682  1.00  0.00    -0.206 F 
ATOM     81  C   UNL A   1      44.326  24.133  25.995  1.00  0.00     0.059 A 
ATOM     82  C   UNL A   1      43.310  22.485  27.460  1.00  0.00     0.059 A 
ATOM     83  F   UNL A   1      42.445  23.150  29.535  1.00  0.00    -0.206 F 
ATOM     84  C   UNL A   1      43.928  22.821  26.257  1.00  0.00     0.060 A 
BRANCH  84  85
ATOM     85  S   UNL A   1      44.244  21.552  25.011  1.00  0.00     0.124 S 
ATOM     86  O   UNL A   1      43.180  20.596  25.292  1.00  0.00    -0.237 OA
ATOM     87  O   UNL A   1      44.116  22.305  23.767  1.00  0.00    -0.237 OA
ATOM     88  O   UNL A   1      45.597  21.104  25.328  1.00  0.00    -0.744 OA
ENDBRANCH  84  85
ENDBRANCH  52  77
BRANCH  64  89
ATOM     89  C   UNL A   1      46.968  27.587  33.490  1.00  0.00     0.058 A 
ATOM     90  C   UNL A   1      47.147  26.613  34.484  1.00  0.00     0.135 A 
ATOM     91  C   UNL A   1      48.109  28.247  33.005  1.00  0.00     0.135 A 
ATOM     92  F   UNL A   1      46.088  25.962  34.991  1.00  0.00    -0.206 F 
ATOM     93  C   UNL A   1      48.408  26.314  34.990  1.00  0.00     0.059 A 
ATOM     94  C   UNL A   1      49.383  27.943  33.474  1.00  0.00     0.059 A 
ATOM     95  F   UNL A   1      47.994  29.181  32.047  1.00  0.00    -0.206 F 
ATOM     96  C   UNL A   1      49.521  26.981  34.472  1.00  0.00     0.060 A 
BRANCH  96  97
ATOM     97  S   UNL A   1      51.156  26.545  35.102  1.00  0.00     0.124 S 
ATOM     98  O   UNL A   1      50.886  25.277  35.772  1.00  0.00    -0.237 OA
ATOM     99  O   UNL A   1      51.948  26.458  33.879  1.00  0.00    -0.237 OA
ATOM    100  O   UNL A   1      51.491  27.660  35.981  1.00  0.00    -0.744 OA
ENDBRANCH  96  97
ENDBRANCH  64  89
ENDBRANCH  38  39
ENDBRANCH  30  33
ENDBRANCH  28  29
ENDBRANCH  27  28
ENDBRANCH   1  27
TORSDOF 18
ENDMDL
