MODEL 1
REMARK VINA RESULT:     -11.4      0.000      0.000
REMARK SMILES C[C@@H](CC(=O)NCCCNC(=O)c1ccc(-c2c3nc(c(-c4c(F)cc(S(=O)(=O)[O-])cc4F)c4ccc([nH]4)c(-c4c(F)cc(S(=O)(=O)[O-])cc4F)c4nc(c(-c5c(F)cc(S(=O)(=O)[O-])cc5F)c5ccc2[nH]5)C=C4)C=C3)cc1)CC(=O)N1C[C@H](C)[C@@H](C)C1
REMARK SMILES IDX 8 1 7 2 6 3 4 4 5 5 3 7 2 8 1 9 79 10 80 11 81 12 82 13
REMARK SMILES IDX 83 14 88 15 84 16 86 17 85 18 87 19 9 20 10 21 11 22 12 24
REMARK SMILES IDX 13 25 14 26 78 27 15 28 77 29 16 30 17 31 18 32 71 33 19 34
REMARK SMILES IDX 76 35 70 36 72 37 20 38 75 39 69 40 68 41 21 43 55 44 34 45
REMARK SMILES IDX 54 46 35 47 38 48 53 49 73 50 36 51 37 52 52 54 74 55 39 56
REMARK SMILES IDX 22 57 23 58 32 59 24 60 25 61 31 62 33 63 26 64 27 65 28 66
REMARK SMILES IDX 29 67 30 68 56 69 57 70 66 71 58 72 59 73 65 74 67 75 60 76
REMARK SMILES IDX 61 77 62 78 63 79 64 80 40 81 41 82 50 83 42 84 43 85 49 86
REMARK SMILES IDX 51 87 44 88 45 89 46 90 47 91 48 92
REMARK H PARENT 6 6 10 23 72 42 38 53
REMARK Flexibility Score: inf
ROOT
ATOM      1  C   UNL A   1      33.589  28.956  27.281  1.00  0.00     0.042 C 
ENDROOT
BRANCH   1   2
ATOM      2  C   UNL A   1      32.861  29.919  26.344  1.00  0.00     0.117 C 
BRANCH   2   3
ATOM      3  N   UNL A   1      33.367  29.848  24.984  1.00  0.00    -0.356 N 
ATOM      4  C   UNL A   1      33.022  29.036  23.947  1.00  0.00     0.220 C 
ATOM      5  O   UNL A   1      33.628  29.171  22.883  1.00  0.00    -0.275 OA
ATOM      6  H   UNL A   1      34.077  30.496  24.777  1.00  0.00     0.163 HD
BRANCH   4   7
ATOM      7  C   UNL A   1      31.917  27.999  24.085  1.00  0.00     0.103 C 
BRANCH   7   8
ATOM      8  C   UNL A   1      31.137  27.596  22.806  1.00  0.00     0.004 C 
ATOM      9  C   UNL A   1      29.649  27.887  22.991  1.00  0.00     0.009 C 
BRANCH   8  10
ATOM     10  C   UNL A   1      31.462  26.175  22.328  1.00  0.00     0.104 C 
BRANCH  10  11
ATOM     11  C   UNL A   1      32.894  25.681  22.461  1.00  0.00     0.222 C 
ATOM     12  O   UNL A   1      33.762  26.003  21.654  1.00  0.00    -0.275 OA
ATOM     13  N   UNL A   1      33.158  25.002  23.639  1.00  0.00    -0.342 N 
ATOM     14  C   UNL A   1      34.357  25.281  24.415  1.00  0.00     0.123 C 
ATOM     15  C   UNL A   1      32.730  23.628  23.838  1.00  0.00     0.123 C 
ATOM     16  C   UNL A   1      34.808  23.936  24.990  1.00  0.00     0.010 C 
ATOM     17  C   UNL A   1      33.509  23.115  25.045  1.00  0.00     0.010 C 
ATOM     18  C   UNL A   1      35.852  23.287  24.082  1.00  0.00     0.010 C 
ATOM     19  C   UNL A   1      32.728  23.342  26.338  1.00  0.00     0.010 C 
ENDBRANCH  10  11
ENDBRANCH   8  10
ENDBRANCH   7   8
ENDBRANCH   4   7
ENDBRANCH   2   3
ENDBRANCH   1   2
BRANCH   1  20
ATOM     20  C   UNL A   1      35.034  29.332  27.596  1.00  0.00     0.118 C 
BRANCH  20  21
ATOM     21  N   UNL A   1      35.126  30.248  28.720  1.00  0.00    -0.352 N 
ATOM     22  C   UNL A   1      36.167  30.508  29.581  1.00  0.00     0.251 C 
ATOM     23  H   UNL A   1      34.308  30.768  28.896  1.00  0.00     0.163 HD
ATOM     24  O   UNL A   1      35.938  31.168  30.593  1.00  0.00    -0.269 OA
BRANCH  22  25
ATOM     25  C   UNL A   1      37.540  30.001  29.330  1.00  0.00     0.039 A 
ATOM     26  C   UNL A   1      37.983  29.910  28.005  1.00  0.00     0.014 A 
ATOM     27  C   UNL A   1      38.371  29.553  30.360  1.00  0.00     0.014 A 
ATOM     28  C   UNL A   1      39.268  29.433  27.720  1.00  0.00     0.010 A 
ATOM     29  C   UNL A   1      39.678  29.143  30.081  1.00  0.00     0.010 A 
ATOM     30  C   UNL A   1      40.143  29.080  28.758  1.00  0.00    -0.014 A 
BRANCH  30  31
ATOM     31  C   UNL A   1      41.550  28.678  28.483  1.00  0.00     0.031 A 
ATOM     32  C   UNL A   1      42.655  29.699  28.461  1.00  0.00     0.074 A 
ATOM     33  C   UNL A   1      41.826  27.393  28.180  1.00  0.00     0.049 A 
ATOM     34  N   UNL A   1      43.922  29.540  28.167  1.00  0.00    -0.248 NA
ATOM     35  C   UNL A   1      42.288  31.081  28.802  1.00  0.00     0.031 C 
ATOM     36  C   UNL A   1      40.848  26.306  28.153  1.00  0.00     0.029 A 
ATOM     37  N   UNL A   1      43.003  26.787  27.818  1.00  0.00    -0.354 N 
ATOM     38  C   UNL A   1      44.502  30.797  28.284  1.00  0.00     0.074 A 
ATOM     39  C   UNL A   1      43.438  31.718  28.624  1.00  0.00     0.031 C 
ATOM     40  C   UNL A   1      41.460  25.169  27.788  1.00  0.00     0.029 A 
ATOM     41  C   UNL A   1      42.868  25.448  27.532  1.00  0.00     0.049 A 
ATOM     42  H   UNL A   1      43.863  27.264  27.768  1.00  0.00     0.167 HD
ATOM     43  C   UNL A   1      45.804  31.149  28.143  1.00  0.00     0.037 A 
ATOM     44  C   UNL A   1      43.771  24.544  27.104  1.00  0.00     0.037 A 
ATOM     45  C   UNL A   1      46.862  30.228  27.814  1.00  0.00     0.049 A 
ATOM     46  C   UNL A   1      45.199  24.965  26.903  1.00  0.00     0.074 A 
ATOM     47  C   UNL A   1      48.221  30.476  27.717  1.00  0.00     0.029 A 
ATOM     48  N   UNL A   1      46.682  28.886  27.512  1.00  0.00    -0.354 N 
ATOM     49  N   UNL A   1      45.741  26.144  27.087  1.00  0.00    -0.248 NA
ATOM     50  C   UNL A   1      46.138  23.932  26.444  1.00  0.00     0.031 C 
ATOM     51  C   UNL A   1      48.855  29.296  27.311  1.00  0.00     0.029 A 
ATOM     52  C   UNL A   1      47.898  28.301  27.196  1.00  0.00     0.049 A 
ATOM     53  H   UNL A   1      45.817  28.417  27.523  1.00  0.00     0.167 HD
ATOM     54  C   UNL A   1      47.089  25.993  26.784  1.00  0.00     0.074 A 
ATOM     55  C   UNL A   1      47.281  24.604  26.415  1.00  0.00     0.031 C 
ATOM     56  C   UNL A   1      48.077  26.921  26.814  1.00  0.00     0.037 A 
BRANCH  43  57
ATOM     57  C   UNL A   1      46.152  32.600  28.341  1.00  0.00     0.058 A 
ATOM     58  C   UNL A   1      46.519  33.104  29.600  1.00  0.00     0.135 A 
ATOM     59  C   UNL A   1      46.123  33.498  27.262  1.00  0.00     0.135 A 
ATOM     60  F   UNL A   1      46.554  32.292  30.669  1.00  0.00    -0.206 F 
ATOM     61  C   UNL A   1      46.797  34.454  29.792  1.00  0.00     0.059 A 
ATOM     62  C   UNL A   1      46.425  34.847  27.425  1.00  0.00     0.059 A 
ATOM     63  F   UNL A   1      45.787  33.070  26.035  1.00  0.00    -0.206 F 
ATOM     64  C   UNL A   1      46.737  35.320  28.699  1.00  0.00     0.060 A 
BRANCH  64  65
ATOM     65  S   UNL A   1      47.062  37.075  28.969  1.00  0.00     0.124 S 
ATOM     66  O   UNL A   1      48.152  37.020  29.938  1.00  0.00    -0.237 OA
ATOM     67  O   UNL A   1      47.424  37.539  27.635  1.00  0.00    -0.237 OA
ATOM     68  O   UNL A   1      45.792  37.581  29.482  1.00  0.00    -0.744 OA
ENDBRANCH  64  65
ENDBRANCH  43  57
BRANCH  44  69
ATOM     69  C   UNL A   1      43.342  23.141  26.872  1.00  0.00     0.058 A 
ATOM     70  C   UNL A   1      43.255  22.626  25.571  1.00  0.00     0.135 A 
ATOM     71  C   UNL A   1      43.067  22.274  27.941  1.00  0.00     0.135 A 
ATOM     72  F   UNL A   1      43.503  23.420  24.517  1.00  0.00    -0.206 F 
ATOM     73  C   UNL A   1      42.917  21.298  25.335  1.00  0.00     0.059 A 
ATOM     74  C   UNL A   1      42.746  20.937  27.732  1.00  0.00     0.059 A 
ATOM     75  F   UNL A   1      43.155  22.716  29.205  1.00  0.00    -0.206 F 
ATOM     76  C   UNL A   1      42.673  20.459  26.424  1.00  0.00     0.060 A 
BRANCH  76  77
ATOM     77  S   UNL A   1      42.327  18.714  26.107  1.00  0.00     0.124 S 
ATOM     78  O   UNL A   1      42.602  18.118  27.408  1.00  0.00    -0.237 OA
ATOM     79  O   UNL A   1      40.925  18.750  25.703  1.00  0.00    -0.237 OA
ATOM     80  O   UNL A   1      43.268  18.375  25.043  1.00  0.00    -0.744 OA
ENDBRANCH  76  77
ENDBRANCH  44  69
BRANCH  56  81
ATOM     81  C   UNL A   1      49.462  26.468  26.440  1.00  0.00     0.058 A 
ATOM     82  C   UNL A   1      49.972  26.669  25.148  1.00  0.00     0.135 A 
ATOM     83  C   UNL A   1      50.303  25.874  27.393  1.00  0.00     0.135 A 
ATOM     84  F   UNL A   1      49.204  27.222  24.196  1.00  0.00    -0.206 F 
ATOM     85  C   UNL A   1      51.266  26.284  24.812  1.00  0.00     0.059 A 
ATOM     86  C   UNL A   1      51.608  25.503  27.085  1.00  0.00     0.059 A 
ATOM     87  F   UNL A   1      49.864  25.664  28.645  1.00  0.00    -0.206 F 
ATOM     88  C   UNL A   1      52.078  25.705  25.788  1.00  0.00     0.060 A 
BRANCH  88  89
ATOM     89  S   UNL A   1      53.770  25.251  25.349  1.00  0.00     0.124 S 
ATOM     90  O   UNL A   1      54.544  26.059  26.286  1.00  0.00    -0.237 OA
ATOM     91  O   UNL A   1      53.781  23.812  25.593  1.00  0.00    -0.237 OA
ATOM     92  O   UNL A   1      53.874  25.643  23.947  1.00  0.00    -0.744 OA
ENDBRANCH  88  89
ENDBRANCH  56  81
ENDBRANCH  30  31
ENDBRANCH  22  25
ENDBRANCH  20  21
ENDBRANCH   1  20
TORSDOF 16
ENDMDL
MODEL 2
REMARK VINA RESULT:     -11.4      2.866      3.770
REMARK SMILES C[C@@H](CC(=O)NCCCNC(=O)c1ccc(-c2c3nc(c(-c4c(F)cc(S(=O)(=O)[O-])cc4F)c4ccc([nH]4)c(-c4c(F)cc(S(=O)(=O)[O-])cc4F)c4nc(c(-c5c(F)cc(S(=O)(=O)[O-])cc5F)c5ccc2[nH]5)C=C4)C=C3)cc1)CC(=O)N1C[C@H](C)[C@@H](C)C1
REMARK SMILES IDX 8 1 7 2 6 3 4 4 5 5 3 7 2 8 1 9 79 10 80 11 81 12 82 13
REMARK SMILES IDX 83 14 88 15 84 16 86 17 85 18 87 19 9 20 10 21 11 22 12 24
REMARK SMILES IDX 13 25 14 26 78 27 15 28 77 29 16 30 17 31 18 32 71 33 19 34
REMARK SMILES IDX 76 35 70 36 72 37 20 38 75 39 69 40 68 41 21 43 55 44 34 45
REMARK SMILES IDX 54 46 35 47 38 48 53 49 73 50 36 51 37 52 52 54 74 55 39 56
REMARK SMILES IDX 22 57 23 58 32 59 24 60 25 61 31 62 33 63 26 64 27 65 28 66
REMARK SMILES IDX 29 67 30 68 56 69 57 70 66 71 58 72 59 73 65 74 67 75 60 76
REMARK SMILES IDX 61 77 62 78 63 79 64 80 40 81 41 82 50 83 42 84 43 85 49 86
REMARK SMILES IDX 51 87 44 88 45 89 46 90 47 91 48 92
REMARK H PARENT 6 6 10 23 72 42 38 53
REMARK Flexibility Score: inf
ROOT
ATOM      1  C   UNL A   1      33.324  27.844  25.843  1.00  0.00     0.042 C 
ENDROOT
BRANCH   1   2
ATOM      2  C   UNL A   1      31.937  27.822  25.205  1.00  0.00     0.117 C 
BRANCH   2   3
ATOM      3  N   UNL A   1      31.016  26.957  25.922  1.00  0.00    -0.356 N 
ATOM      4  C   UNL A   1      30.696  25.647  25.736  1.00  0.00     0.220 C 
ATOM      5  O   UNL A   1      29.856  25.147  26.485  1.00  0.00    -0.275 OA
ATOM      6  H   UNL A   1      30.545  27.391  26.669  1.00  0.00     0.163 HD
BRANCH   4   7
ATOM      7  C   UNL A   1      31.357  24.816  24.647  1.00  0.00     0.103 C 
BRANCH   7   8
ATOM      8  C   UNL A   1      32.290  23.657  25.085  1.00  0.00     0.004 C 
ATOM      9  C   UNL A   1      31.565  22.320  24.933  1.00  0.00     0.009 C 
BRANCH   8  10
ATOM     10  C   UNL A   1      32.931  23.890  26.459  1.00  0.00     0.104 C 
BRANCH  10  11
ATOM     11  C   UNL A   1      34.220  23.151  26.786  1.00  0.00     0.222 C 
ATOM     12  O   UNL A   1      34.437  22.703  27.909  1.00  0.00    -0.275 OA
ATOM     13  N   UNL A   1      35.020  22.883  25.687  1.00  0.00    -0.342 N 
ATOM     14  C   UNL A   1      35.622  21.572  25.499  1.00  0.00     0.123 C 
ATOM     15  C   UNL A   1      35.839  23.914  25.073  1.00  0.00     0.123 C 
ATOM     16  C   UNL A   1      37.001  21.826  24.885  1.00  0.00     0.010 C 
ATOM     17  C   UNL A   1      36.834  23.183  24.178  1.00  0.00     0.010 C 
ATOM     18  C   UNL A   1      38.072  21.882  25.974  1.00  0.00     0.010 C 
ATOM     19  C   UNL A   1      36.290  23.038  22.758  1.00  0.00     0.010 C 
ENDBRANCH  10  11
ENDBRANCH   8  10
ENDBRANCH   7   8
ENDBRANCH   4   7
ENDBRANCH   2   3
ENDBRANCH   1   2
BRANCH   1  20
ATOM     20  C   UNL A   1      33.348  28.223  27.321  1.00  0.00     0.118 C 
BRANCH  20  21
ATOM     21  N   UNL A   1      33.315  29.662  27.516  1.00  0.00    -0.352 N 
ATOM     22  C   UNL A   1      34.251  30.514  28.053  1.00  0.00     0.251 C 
ATOM     23  H   UNL A   1      32.486  30.099  27.214  1.00  0.00     0.163 HD
ATOM     24  O   UNL A   1      33.911  31.667  28.313  1.00  0.00    -0.269 OA
BRANCH  22  25
ATOM     25  C   UNL A   1      35.641  30.076  28.341  1.00  0.00     0.039 A 
ATOM     26  C   UNL A   1      36.578  30.114  27.301  1.00  0.00     0.014 A 
ATOM     27  C   UNL A   1      36.022  29.570  29.586  1.00  0.00     0.014 A 
ATOM     28  C   UNL A   1      37.898  29.706  27.525  1.00  0.00     0.010 A 
ATOM     29  C   UNL A   1      37.356  29.229  29.828  1.00  0.00     0.010 A 
ATOM     30  C   UNL A   1      38.311  29.296  28.801  1.00  0.00    -0.014 A 
BRANCH  30  31
ATOM     31  C   UNL A   1      39.734  28.966  29.087  1.00  0.00     0.031 A 
ATOM     32  C   UNL A   1      40.669  30.001  29.653  1.00  0.00     0.074 A 
ATOM     33  C   UNL A   1      40.210  27.745  28.770  1.00  0.00     0.049 A 
ATOM     34  N   UNL A   1      41.953  29.912  29.894  1.00  0.00    -0.248 NA
ATOM     35  C   UNL A   1      40.087  31.312  29.979  1.00  0.00     0.031 C 
ATOM     36  C   UNL A   1      39.416  26.653  28.205  1.00  0.00     0.029 A 
ATOM     37  N   UNL A   1      41.475  27.221  28.857  1.00  0.00    -0.354 N 
ATOM     38  C   UNL A   1      42.335  31.150  30.395  1.00  0.00     0.074 A 
ATOM     39  C   UNL A   1      41.156  31.990  30.375  1.00  0.00     0.031 C 
ATOM     40  C   UNL A   1      40.210  25.594  27.989  1.00  0.00     0.029 A 
ATOM     41  C   UNL A   1      41.574  25.935  28.377  1.00  0.00     0.049 A 
ATOM     42  H   UNL A   1      42.240  27.717  29.228  1.00  0.00     0.167 HD
ATOM     43  C   UNL A   1      43.549  31.545  30.852  1.00  0.00     0.037 A 
ATOM     44  C   UNL A   1      42.641  25.121  28.254  1.00  0.00     0.037 A 
ATOM     45  C   UNL A   1      44.718  30.702  30.881  1.00  0.00     0.049 A 
ATOM     46  C   UNL A   1      43.989  25.595  28.718  1.00  0.00     0.074 A 
ATOM     47  C   UNL A   1      45.974  30.989  31.389  1.00  0.00     0.029 A 
ATOM     48  N   UNL A   1      44.782  29.415  30.368  1.00  0.00    -0.354 N 
ATOM     49  N   UNL A   1      44.314  26.745  29.254  1.00  0.00    -0.248 NA
ATOM     50  C   UNL A   1      45.111  24.659  28.565  1.00  0.00     0.031 C 
ATOM     51  C   UNL A   1      46.809  29.893  31.139  1.00  0.00     0.029 A 
ATOM     52  C   UNL A   1      46.063  28.907  30.515  1.00  0.00     0.049 A 
ATOM     53  H   UNL A   1      44.027  28.932  29.961  1.00  0.00     0.167 HD
ATOM     54  C   UNL A   1      45.676  26.667  29.522  1.00  0.00     0.074 A 
ATOM     55  C   UNL A   1      46.110  25.350  29.098  1.00  0.00     0.031 C 
ATOM     56  C   UNL A   1      46.490  27.600  30.074  1.00  0.00     0.037 A 
BRANCH  43  57
ATOM     57  C   UNL A   1      43.671  32.958  31.355  1.00  0.00     0.058 A 
ATOM     58  C   UNL A   1      43.913  34.032  30.483  1.00  0.00     0.135 A 
ATOM     59  C   UNL A   1      43.540  33.245  32.724  1.00  0.00     0.135 A 
ATOM     60  F   UNL A   1      44.055  33.814  29.166  1.00  0.00    -0.206 F 
ATOM     61  C   UNL A   1      44.070  35.332  30.954  1.00  0.00     0.059 A 
ATOM     62  C   UNL A   1      43.666  34.542  33.214  1.00  0.00     0.059 A 
ATOM     63  F   UNL A   1      43.302  32.259  33.602  1.00  0.00    -0.206 F 
ATOM     64  C   UNL A   1      43.955  35.575  32.323  1.00  0.00     0.060 A 
BRANCH  64  65
ATOM     65  S   UNL A   1      44.200  37.260  32.924  1.00  0.00     0.124 S 
ATOM     66  O   UNL A   1      45.344  37.086  33.813  1.00  0.00    -0.237 OA
ATOM     67  O   UNL A   1      44.462  37.999  31.694  1.00  0.00    -0.237 OA
ATOM     68  O   UNL A   1      42.935  37.573  33.583  1.00  0.00    -0.744 OA
ENDBRANCH  64  65
ENDBRANCH  43  57
BRANCH  44  69
ATOM     69  C   UNL A   1      42.455  23.758  27.693  1.00  0.00     0.058 A 
ATOM     70  C   UNL A   1      42.429  23.554  26.306  1.00  0.00     0.135 A 
ATOM     71  C   UNL A   1      42.358  22.632  28.525  1.00  0.00     0.135 A 
ATOM     72  F   UNL A   1      42.513  24.602  25.472  1.00  0.00    -0.206 F 
ATOM     73  C   UNL A   1      42.320  22.279  25.761  1.00  0.00     0.059 A 
ATOM     74  C   UNL A   1      42.267  21.346  28.004  1.00  0.00     0.059 A 
ATOM     75  F   UNL A   1      42.396  22.775  29.859  1.00  0.00    -0.206 F 
ATOM     76  C   UNL A   1      42.249  21.180  26.619  1.00  0.00     0.060 A 
BRANCH  76  77
ATOM     77  S   UNL A   1      42.202  19.524  25.898  1.00  0.00     0.124 S 
ATOM     78  O   UNL A   1      42.684  18.707  27.004  1.00  0.00    -0.237 OA
ATOM     79  O   UNL A   1      40.789  19.379  25.562  1.00  0.00    -0.237 OA
ATOM     80  O   UNL A   1      43.101  19.634  24.752  1.00  0.00    -0.744 OA
ENDBRANCH  76  77
ENDBRANCH  44  69
BRANCH  56  81
ATOM     81  C   UNL A   1      47.937  27.235  30.255  1.00  0.00     0.058 A 
ATOM     82  C   UNL A   1      48.923  27.685  29.363  1.00  0.00     0.135 A 
ATOM     83  C   UNL A   1      48.350  26.469  31.357  1.00  0.00     0.135 A 
ATOM     84  F   UNL A   1      48.579  28.410  28.286  1.00  0.00    -0.206 F 
ATOM     85  C   UNL A   1      50.266  27.378  29.551  1.00  0.00     0.059 A 
ATOM     86  C   UNL A   1      49.691  26.171  31.578  1.00  0.00     0.059 A 
ATOM     87  F   UNL A   1      47.447  26.018  32.244  1.00  0.00    -0.206 F 
ATOM     88  C   UNL A   1      50.642  26.623  30.663  1.00  0.00     0.060 A 
BRANCH  88  89
ATOM     89  S   UNL A   1      52.394  26.269  30.918  1.00  0.00     0.124 S 
ATOM     90  O   UNL A   1      52.335  25.013  31.659  1.00  0.00    -0.237 OA
ATOM     91  O   UNL A   1      52.897  26.176  29.551  1.00  0.00    -0.237 OA
ATOM     92  O   UNL A   1      52.867  27.423  31.677  1.00  0.00    -0.744 OA
ENDBRANCH  88  89
ENDBRANCH  56  81
ENDBRANCH  30  31
ENDBRANCH  22  25
ENDBRANCH  20  21
ENDBRANCH   1  20
TORSDOF 16
ENDMDL
MODEL 3
REMARK VINA RESULT:     -11.4      0.962      1.911
REMARK SMILES C[C@@H](CC(=O)NCCCNC(=O)c1ccc(-c2c3nc(c(-c4c(F)cc(S(=O)(=O)[O-])cc4F)c4ccc([nH]4)c(-c4c(F)cc(S(=O)(=O)[O-])cc4F)c4nc(c(-c5c(F)cc(S(=O)(=O)[O-])cc5F)c5ccc2[nH]5)C=C4)C=C3)cc1)CC(=O)N1C[C@H](C)[C@@H](C)C1
REMARK SMILES IDX 8 1 7 2 6 3 4 4 5 5 3 7 2 8 1 9 79 10 80 11 81 12 82 13
REMARK SMILES IDX 83 14 88 15 84 16 86 17 85 18 87 19 9 20 10 21 11 22 12 24
REMARK SMILES IDX 13 25 14 26 78 27 15 28 77 29 16 30 17 31 18 32 71 33 19 34
REMARK SMILES IDX 76 35 70 36 72 37 20 38 75 39 69 40 68 41 21 43 55 44 34 45
REMARK SMILES IDX 54 46 35 47 38 48 53 49 73 50 36 51 37 52 52 54 74 55 39 56
REMARK SMILES IDX 22 57 23 58 32 59 24 60 25 61 31 62 33 63 26 64 27 65 28 66
REMARK SMILES IDX 29 67 30 68 56 69 57 70 66 71 58 72 59 73 65 74 67 75 60 76
REMARK SMILES IDX 61 77 62 78 63 79 64 80 40 81 41 82 50 83 42 84 43 85 49 86
REMARK SMILES IDX 51 87 44 88 45 89 46 90 47 91 48 92
REMARK H PARENT 6 6 10 23 72 42 38 53
REMARK Flexibility Score: inf
ROOT
ATOM      1  C   UNL A   1      33.598  29.148  27.290  1.00  0.00     0.042 C 
ENDROOT
BRANCH   1   2
ATOM      2  C   UNL A   1      32.922  30.004  26.219  1.00  0.00     0.117 C 
BRANCH   2   3
ATOM      3  N   UNL A   1      33.278  29.583  24.875  1.00  0.00    -0.356 N 
ATOM      4  C   UNL A   1      32.591  28.841  23.963  1.00  0.00     0.220 C 
ATOM      5  O   UNL A   1      33.136  28.608  22.883  1.00  0.00    -0.275 OA
ATOM      6  H   UNL A   1      34.164  29.886  24.573  1.00  0.00     0.163 HD
BRANCH   4   7
ATOM      7  C   UNL A   1      31.192  28.322  24.254  1.00  0.00     0.103 C 
BRANCH   7   8
ATOM      8  C   UNL A   1      31.022  26.801  24.511  1.00  0.00     0.004 C 
ATOM      9  C   UNL A   1      29.552  26.411  24.365  1.00  0.00     0.009 C 
BRANCH   8  10
ATOM     10  C   UNL A   1      31.687  26.335  25.812  1.00  0.00     0.104 C 
BRANCH  10  11
ATOM     11  C   UNL A   1      31.708  24.844  26.115  1.00  0.00     0.222 C 
ATOM     12  O   UNL A   1      31.293  24.400  27.182  1.00  0.00    -0.275 OA
ATOM     13  N   UNL A   1      32.062  24.047  25.039  1.00  0.00    -0.342 N 
ATOM     14  C   UNL A   1      31.312  22.842  24.718  1.00  0.00     0.123 C 
ATOM     15  C   UNL A   1      33.443  23.917  24.610  1.00  0.00     0.123 C 
ATOM     16  C   UNL A   1      32.342  21.825  24.222  1.00  0.00     0.010 C 
ATOM     17  C   UNL A   1      33.485  22.704  23.686  1.00  0.00     0.010 C 
ATOM     18  C   UNL A   1      32.806  20.927  25.369  1.00  0.00     0.010 C 
ATOM     19  C   UNL A   1      33.273  23.115  22.231  1.00  0.00     0.010 C 
ENDBRANCH  10  11
ENDBRANCH   8  10
ENDBRANCH   7   8
ENDBRANCH   4   7
ENDBRANCH   2   3
ENDBRANCH   1   2
BRANCH   1  20
ATOM     20  C   UNL A   1      35.036  29.541  27.615  1.00  0.00     0.118 C 
BRANCH  20  21
ATOM     21  N   UNL A   1      35.114  30.410  28.777  1.00  0.00    -0.352 N 
ATOM     22  C   UNL A   1      36.143  30.630  29.662  1.00  0.00     0.251 C 
ATOM     23  H   UNL A   1      34.296  30.924  28.962  1.00  0.00     0.163 HD
ATOM     24  O   UNL A   1      35.901  31.248  30.697  1.00  0.00    -0.269 OA
BRANCH  22  25
ATOM     25  C   UNL A   1      37.518  30.128  29.412  1.00  0.00     0.039 A 
ATOM     26  C   UNL A   1      37.959  30.034  28.086  1.00  0.00     0.014 A 
ATOM     27  C   UNL A   1      38.353  29.689  30.442  1.00  0.00     0.014 A 
ATOM     28  C   UNL A   1      39.246  29.562  27.801  1.00  0.00     0.010 A 
ATOM     29  C   UNL A   1      39.661  29.285  30.163  1.00  0.00     0.010 A 
ATOM     30  C   UNL A   1      40.125  29.218  28.839  1.00  0.00    -0.014 A 
BRANCH  30  31
ATOM     31  C   UNL A   1      41.533  28.822  28.563  1.00  0.00     0.031 A 
ATOM     32  C   UNL A   1      42.636  29.845  28.555  1.00  0.00     0.074 A 
ATOM     33  C   UNL A   1      41.813  27.541  28.246  1.00  0.00     0.049 A 
ATOM     34  N   UNL A   1      43.904  29.692  28.263  1.00  0.00    -0.248 NA
ATOM     35  C   UNL A   1      42.265  31.223  28.911  1.00  0.00     0.031 C 
ATOM     36  C   UNL A   1      40.836  26.452  28.204  1.00  0.00     0.029 A 
ATOM     37  N   UNL A   1      42.991  26.941  27.881  1.00  0.00    -0.354 N 
ATOM     38  C   UNL A   1      44.481  30.949  28.395  1.00  0.00     0.074 A 
ATOM     39  C   UNL A   1      43.414  31.864  28.743  1.00  0.00     0.031 C 
ATOM     40  C   UNL A   1      41.451  25.321  27.829  1.00  0.00     0.029 A 
ATOM     41  C   UNL A   1      42.860  25.606  27.579  1.00  0.00     0.049 A 
ATOM     42  H   UNL A   1      43.850  27.421  27.838  1.00  0.00     0.167 HD
ATOM     43  C   UNL A   1      45.783  31.305  28.262  1.00  0.00     0.037 A 
ATOM     44  C   UNL A   1      43.766  24.708  27.143  1.00  0.00     0.037 A 
ATOM     45  C   UNL A   1      46.844  30.390  27.926  1.00  0.00     0.049 A 
ATOM     46  C   UNL A   1      45.193  25.134  26.951  1.00  0.00     0.074 A 
ATOM     47  C   UNL A   1      48.203  30.642  27.835  1.00  0.00     0.029 A 
ATOM     48  N   UNL A   1      46.667  29.051  27.608  1.00  0.00    -0.354 N 
ATOM     49  N   UNL A   1      45.733  26.312  27.149  1.00  0.00    -0.248 NA
ATOM     50  C   UNL A   1      46.135  24.108  26.483  1.00  0.00     0.031 C 
ATOM     51  C   UNL A   1      48.840  29.467  27.417  1.00  0.00     0.029 A 
ATOM     52  C   UNL A   1      47.885  28.472  27.288  1.00  0.00     0.049 A 
ATOM     53  H   UNL A   1      45.803  28.580  27.612  1.00  0.00     0.167 HD
ATOM     54  C   UNL A   1      47.081  26.167  26.849  1.00  0.00     0.074 A 
ATOM     55  C   UNL A   1      47.277  24.783  26.465  1.00  0.00     0.031 C 
ATOM     56  C   UNL A   1      48.068  27.096  26.891  1.00  0.00     0.037 A 
BRANCH  43  57
ATOM     57  C   UNL A   1      46.128  32.755  28.478  1.00  0.00     0.058 A 
ATOM     58  C   UNL A   1      46.050  33.693  27.436  1.00  0.00     0.135 A 
ATOM     59  C   UNL A   1      46.536  33.213  29.741  1.00  0.00     0.135 A 
ATOM     60  F   UNL A   1      45.674  33.308  26.206  1.00  0.00    -0.206 F 
ATOM     61  C   UNL A   1      46.412  35.023  27.625  1.00  0.00     0.059 A 
ATOM     62  C   UNL A   1      46.875  34.545  29.960  1.00  0.00     0.059 A 
ATOM     63  F   UNL A   1      46.621  32.362  30.775  1.00  0.00    -0.206 F 
ATOM     64  C   UNL A   1      46.833  35.437  28.889  1.00  0.00     0.060 A 
BRANCH  64  65
ATOM     65  S   UNL A   1      47.336  37.158  29.110  1.00  0.00     0.124 S 
ATOM     66  O   UNL A   1      46.060  37.793  29.421  1.00  0.00    -0.237 OA
ATOM     67  O   UNL A   1      48.286  37.069  30.214  1.00  0.00    -0.237 OA
ATOM     68  O   UNL A   1      47.914  37.511  27.817  1.00  0.00    -0.744 OA
ENDBRANCH  64  65
ENDBRANCH  43  57
BRANCH  44  69
ATOM     69  C   UNL A   1      43.340  23.307  26.894  1.00  0.00     0.058 A 
ATOM     70  C   UNL A   1      43.154  22.838  25.586  1.00  0.00     0.135 A 
ATOM     71  C   UNL A   1      43.167  22.397  27.949  1.00  0.00     0.135 A 
ATOM     72  F   UNL A   1      43.303  23.674  24.547  1.00  0.00    -0.206 F 
ATOM     73  C   UNL A   1      42.817  21.514  25.329  1.00  0.00     0.059 A 
ATOM     74  C   UNL A   1      42.849  21.063  27.717  1.00  0.00     0.059 A 
ATOM     75  F   UNL A   1      43.352  22.794  29.217  1.00  0.00    -0.206 F 
ATOM     76  C   UNL A   1      42.677  20.631  26.401  1.00  0.00     0.060 A 
BRANCH  76  77
ATOM     77  S   UNL A   1      42.331  18.893  26.048  1.00  0.00     0.124 S 
ATOM     78  O   UNL A   1      40.922  18.942  25.680  1.00  0.00    -0.237 OA
ATOM     79  O   UNL A   1      43.267  18.610  24.965  1.00  0.00    -0.237 OA
ATOM     80  O   UNL A   1      42.633  18.230  27.315  1.00  0.00    -0.744 OA
ENDBRANCH  76  77
ENDBRANCH  44  69
BRANCH  56  81
ATOM     81  C   UNL A   1      49.454  26.651  26.516  1.00  0.00     0.058 A 
ATOM     82  C   UNL A   1      50.255  25.923  27.410  1.00  0.00     0.135 A 
ATOM     83  C   UNL A   1      49.967  26.909  25.235  1.00  0.00     0.135 A 
ATOM     84  F   UNL A   1      49.816  25.660  28.651  1.00  0.00    -0.206 F 
ATOM     85  C   UNL A   1      51.523  25.479  27.050  1.00  0.00     0.059 A 
ATOM     86  C   UNL A   1      51.224  26.453  24.847  1.00  0.00     0.059 A 
ATOM     87  F   UNL A   1      49.239  27.597  24.341  1.00  0.00    -0.206 F 
ATOM     88  C   UNL A   1      51.998  25.745  25.765  1.00  0.00     0.060 A 
BRANCH  88  89
ATOM     89  S   UNL A   1      53.628  25.124  25.297  1.00  0.00     0.124 S 
ATOM     90  O   UNL A   1      54.504  25.944  26.129  1.00  0.00    -0.237 OA
ATOM     91  O   UNL A   1      53.543  23.714  25.664  1.00  0.00    -0.237 OA
ATOM     92  O   UNL A   1      53.694  25.390  23.863  1.00  0.00    -0.744 OA
ENDBRANCH  88  89
ENDBRANCH  56  81
ENDBRANCH  30  31
ENDBRANCH  22  25
ENDBRANCH  20  21
ENDBRANCH   1  20
TORSDOF 16
ENDMDL
