MODEL 1
REMARK VINA RESULT:     -13.1      0.000      0.000
REMARK SMILES C[C@]12C[C@@H](O)[C@H]3[C@@H](CCC4=CC(=O)C=C[C@]43C)[C@H]1CC[C@]2(O)C(=O)COC(=O)CCC(=O)NCCCNC(=O)c1ccc(-c2c3nc(c(-c4c(F)cc(S(=O)(=O)[O-])cc4F)c4ccc([nH]4)c(-c4c(F)cc(S(=O)(=O)[O-])cc4F)c4nc(c(-c5c(F)cc(S(=O)(=O)[O-])cc5F)c5ccc2[nH]5)C=C4)C=C3)cc1
REMARK SMILES IDX 31 1 32 2 33 3 30 5 29 6 27 7 28 8 26 9 25 10 23 11 24 12
REMARK SMILES IDX 21 13 17 14 16 15 15 16 10 17 6 18 14 19 11 20 9 21 7 22
REMARK SMILES IDX 4 23 12 24 8 25 18 26 3 27 13 28 2 29 19 30 1 31 20 32 5 33
REMARK SMILES IDX 22 35 34 37 35 38 36 39 37 40 38 41 39 43 40 44 41 45 105 46
REMARK SMILES IDX 42 47 104 48 43 49 44 50 45 51 98 52 46 53 103 54 97 55
REMARK SMILES IDX 99 56 47 57 102 58 96 59 95 60 48 62 82 63 61 64 81 65 62 66
REMARK SMILES IDX 65 67 80 68 100 69 63 70 64 71 79 73 101 74 66 75 49 76
REMARK SMILES IDX 50 77 59 78 51 79 52 80 58 81 60 82 53 83 54 84 55 85 56 86
REMARK SMILES IDX 57 87 83 88 84 89 93 90 85 91 86 92 92 93 94 94 87 95 88 96
REMARK SMILES IDX 89 97 90 98 91 99 67 100 68 101 77 102 69 103 70 104 76 105
REMARK SMILES IDX 78 106 71 107 72 108 73 109 74 110 75 111
REMARK H PARENT 33 4 5 34 22 36 37 42 99 61 65 72
REMARK Flexibility Score: inf
ROOT
ATOM      1  C   UNL A   1      31.776  28.457  26.729  1.00  0.00     0.220 C 
ATOM      2  O   UNL A   1      31.263  27.434  27.187  1.00  0.00    -0.275 OA
ATOM      3  N   UNL A   1      32.502  29.237  27.570  1.00  0.00    -0.356 N 
ATOM      4  H   UNL A   1      32.530  28.917  28.500  1.00  0.00     0.163 HD
ENDROOT
BRANCH   1   5
ATOM      5  C   UNL A   1      31.641  28.796  25.262  1.00  0.00     0.111 C 
BRANCH   5   6
ATOM      6  C   UNL A   1      30.674  27.908  24.489  1.00  0.00     0.132 C 
BRANCH   6   7
ATOM      7  C   UNL A   1      31.174  27.678  23.083  1.00  0.00     0.306 C 
ATOM      8  O   UNL A   1      30.581  28.065  22.081  1.00  0.00    -0.252 OA
BRANCH   7   9
ATOM      9  O   UNL A   1      32.274  26.883  23.055  1.00  0.00    -0.458 OA
BRANCH   9  10
ATOM     10  C   UNL A   1      32.330  25.843  24.026  1.00  0.00     0.311 C 
BRANCH  10  11
ATOM     11  C   UNL A   1      33.607  25.087  24.484  1.00  0.00     0.202 C 
ATOM     12  O   UNL A   1      34.298  25.594  25.379  1.00  0.00    -0.293 OA
BRANCH  11  13
ATOM     13  C   UNL A   1      34.079  23.785  23.779  1.00  0.00     0.132 C 
ATOM     14  C   UNL A   1      33.688  17.156  22.640  1.00  0.00     0.021 C 
ATOM     15  C   UNL A   1      33.744  17.821  24.053  1.00  0.00     0.013 C 
ATOM     16  C   UNL A   1      32.465  17.366  24.775  1.00  0.00    -0.012 C 
ATOM     17  C   UNL A   1      34.937  17.197  24.810  1.00  0.00    -0.056 C 
ATOM     18  C   UNL A   1      33.872  19.387  23.811  1.00  0.00     0.035 C 
ATOM     19  C   UNL A   1      32.350  16.150  25.334  1.00  0.00     0.048 C 
ATOM     20  C   UNL A   1      34.839  15.961  25.345  1.00  0.00     0.052 C 
ATOM     21  C   UNL A   1      36.171  17.982  25.155  1.00  0.00     0.032 C 
ATOM     22  C   UNL A   1      34.806  20.081  24.826  1.00  0.00    -0.000 C 
ATOM     23  C   UNL A   1      32.535  20.137  23.662  1.00  0.00     0.119 C 
ATOM     24  C   UNL A   1      33.533  15.265  25.390  1.00  0.00     0.178 C 
ATOM     25  C   UNL A   1      36.190  19.436  24.728  1.00  0.00     0.009 C 
ATOM     26  C   UNL A   1      34.920  21.624  24.707  1.00  0.00     0.002 C 
ATOM     27  C   UNL A   1      32.791  21.595  23.321  1.00  0.00     0.042 C 
ATOM     28  O   UNL A   1      33.442  14.061  25.578  1.00  0.00    -0.290 OA
ATOM     29  C   UNL A   1      33.601  22.378  24.381  1.00  0.00     0.009 C 
ATOM     30  C   UNL A   1      35.924  22.217  23.723  1.00  0.00     0.008 C 
ATOM     31  C   UNL A   1      32.801  22.403  25.692  1.00  0.00     0.015 C 
ATOM     32  C   UNL A   1      35.623  23.707  23.865  1.00  0.00     0.044 C 
BRANCH  23  33
ATOM     33  O   UNL A   1      31.768  19.625  22.572  1.00  0.00    -0.393 OA
ATOM     34  H   UNL A   1      31.086  19.025  22.911  1.00  0.00     0.210 HD
ENDBRANCH  23  33
BRANCH  13  35
ATOM     35  O   UNL A   1      33.810  23.810  22.379  1.00  0.00    -0.381 OA
ATOM     36  H   UNL A   1      33.543  24.704  22.117  1.00  0.00     0.212 HD
ENDBRANCH  13  35
ENDBRANCH  11  13
ENDBRANCH  10  11
ENDBRANCH   9  10
ENDBRANCH   7   9
ENDBRANCH   6   7
ENDBRANCH   5   6
ENDBRANCH   1   5
BRANCH   3  37
ATOM     37  C   UNL A   1      33.245  30.462  27.335  1.00  0.00     0.117 C 
BRANCH  37  38
ATOM     38  C   UNL A   1      34.745  30.221  27.452  1.00  0.00     0.042 C 
BRANCH  38  39
ATOM     39  C   UNL A   1      35.523  31.344  28.124  1.00  0.00     0.118 C 
BRANCH  39  40
ATOM     40  N   UNL A   1      35.567  31.275  29.572  1.00  0.00    -0.352 N 
ATOM     41  C   UNL A   1      36.453  30.695  30.444  1.00  0.00     0.251 C 
ATOM     42  H   UNL A   1      34.814  31.730  30.014  1.00  0.00     0.163 HD
ATOM     43  O   UNL A   1      36.194  30.742  31.645  1.00  0.00    -0.269 OA
BRANCH  41  44
ATOM     44  C   UNL A   1      37.647  29.931  30.045  1.00  0.00     0.039 A 
ATOM     45  C   UNL A   1      38.053  30.057  28.705  1.00  0.00     0.014 A 
ATOM     46  C   UNL A   1      38.404  29.160  30.918  1.00  0.00     0.014 A 
ATOM     47  C   UNL A   1      39.270  29.541  28.287  1.00  0.00     0.010 A 
ATOM     48  C   UNL A   1      39.679  28.766  30.543  1.00  0.00     0.010 A 
ATOM     49  C   UNL A   1      40.128  28.975  29.232  1.00  0.00    -0.014 A 
BRANCH  49  50
ATOM     50  C   UNL A   1      41.511  28.606  28.883  1.00  0.00     0.031 A 
ATOM     51  C   UNL A   1      42.563  29.672  28.856  1.00  0.00     0.074 A 
ATOM     52  C   UNL A   1      41.766  27.342  28.490  1.00  0.00     0.049 A 
ATOM     53  N   UNL A   1      43.778  29.618  28.386  1.00  0.00    -0.248 NA
ATOM     54  C   UNL A   1      42.174  30.995  29.376  1.00  0.00     0.031 C 
ATOM     55  C   UNL A   1      40.785  26.251  28.438  1.00  0.00     0.029 A 
ATOM     56  N   UNL A   1      42.922  26.762  28.044  1.00  0.00    -0.354 N 
ATOM     57  C   UNL A   1      44.282  30.907  28.510  1.00  0.00     0.074 A 
ATOM     58  C   UNL A   1      43.226  31.732  29.052  1.00  0.00     0.031 C 
ATOM     59  C   UNL A   1      41.389  25.130  28.017  1.00  0.00     0.029 A 
ATOM     60  C   UNL A   1      42.782  25.433  27.717  1.00  0.00     0.049 A 
ATOM     61  H   UNL A   1      43.775  27.248  27.966  1.00  0.00     0.167 HD
ATOM     62  C   UNL A   1      45.525  31.347  28.213  1.00  0.00     0.037 A 
ATOM     63  C   UNL A   1      43.681  24.567  27.215  1.00  0.00     0.037 A 
ATOM     64  C   UNL A   1      46.569  30.483  27.735  1.00  0.00     0.049 A 
ATOM     65  C   UNL A   1      45.071  25.071  26.950  1.00  0.00     0.074 A 
ATOM     66  C   UNL A   1      47.889  30.791  27.463  1.00  0.00     0.029 A 
ATOM     67  N   UNL A   1      46.409  29.128  27.474  1.00  0.00    -0.354 N 
ATOM     68  N   UNL A   1      45.546  26.285  27.099  1.00  0.00    -0.248 NA
ATOM     69  C   UNL A   1      46.046  24.094  26.452  1.00  0.00     0.031 C 
ATOM     70  C   UNL A   1      48.520  29.626  27.014  1.00  0.00     0.029 A 
ATOM     71  C   UNL A   1      47.604  28.585  27.042  1.00  0.00     0.049 A 
ATOM     72  H   UNL A   1      45.568  28.628  27.582  1.00  0.00     0.167 HD
ATOM     73  C   UNL A   1      46.884  26.216  26.736  1.00  0.00     0.074 A 
ATOM     74  C   UNL A   1      47.143  24.835  26.373  1.00  0.00     0.031 C 
ATOM     75  C   UNL A   1      47.817  27.199  26.702  1.00  0.00     0.037 A 
BRANCH  62  76
ATOM     76  C   UNL A   1      45.809  32.811  28.406  1.00  0.00     0.058 A 
ATOM     77  C   UNL A   1      46.340  33.309  29.607  1.00  0.00     0.135 A 
ATOM     78  C   UNL A   1      45.542  33.729  27.379  1.00  0.00     0.135 A 
ATOM     79  F   UNL A   1      46.589  32.479  30.633  1.00  0.00    -0.206 F 
ATOM     80  C   UNL A   1      46.563  34.669  29.796  1.00  0.00     0.059 A 
ATOM     81  C   UNL A   1      45.786  35.091  27.535  1.00  0.00     0.059 A 
ATOM     82  F   UNL A   1      45.025  33.309  26.213  1.00  0.00    -0.206 F 
ATOM     83  C   UNL A   1      46.281  35.553  28.754  1.00  0.00     0.060 A 
BRANCH  83  84
ATOM     84  S   UNL A   1      46.576  37.314  29.013  1.00  0.00     0.124 S 
ATOM     85  O   UNL A   1      47.197  37.694  27.747  1.00  0.00    -0.237 OA
ATOM     86  O   UNL A   1      45.229  37.828  29.237  1.00  0.00    -0.237 OA
ATOM     87  O   UNL A   1      47.457  37.343  30.178  1.00  0.00    -0.744 OA
ENDBRANCH  83  84
ENDBRANCH  62  76
BRANCH  63  88
ATOM     88  C   UNL A   1      43.300  23.152  26.967  1.00  0.00     0.058 A 
ATOM     89  C   UNL A   1      43.105  22.682  25.660  1.00  0.00     0.135 A 
ATOM     90  C   UNL A   1      43.155  22.233  28.019  1.00  0.00     0.135 A 
ATOM     91  F   UNL A   1      43.236  23.519  24.621  1.00  0.00    -0.206 F 
ATOM     92  C   UNL A   1      42.762  21.358  25.404  1.00  0.00     0.059 A 
ATOM     93  C   UNL A   1      42.835  20.899  27.787  1.00  0.00     0.059 A 
ATOM     94  F   UNL A   1      43.356  22.625  29.287  1.00  0.00    -0.206 F 
ATOM     95  C   UNL A   1      42.629  20.473  26.475  1.00  0.00     0.060 A 
BRANCH  95  96
ATOM     96  S   UNL A   1      42.224  18.746  26.128  1.00  0.00     0.124 S 
ATOM     97  O   UNL A   1      42.470  18.124  27.424  1.00  0.00    -0.237 OA
ATOM     98  O   UNL A   1      40.826  18.835  25.717  1.00  0.00    -0.237 OA
ATOM     99  O   UNL A   1      43.160  18.390  25.067  1.00  0.00    -0.744 OA
ENDBRANCH  95  96
ENDBRANCH  63  88
BRANCH  75 100
ATOM    100  C   UNL A   1      49.203  26.801  26.293  1.00  0.00     0.058 A 
ATOM    101  C   UNL A   1      49.675  27.023  24.991  1.00  0.00     0.135 A 
ATOM    102  C   UNL A   1      50.082  26.238  27.232  1.00  0.00     0.135 A 
ATOM    103  F   UNL A   1      48.866  27.551  24.059  1.00  0.00    -0.206 F 
ATOM    104  C   UNL A   1      50.970  26.678  24.625  1.00  0.00     0.059 A 
ATOM    105  C   UNL A   1      51.389  25.910  26.894  1.00  0.00     0.059 A 
ATOM    106  F   UNL A   1      49.677  26.018  28.492  1.00  0.00    -0.206 F 
ATOM    107  C   UNL A   1      51.820  26.125  25.584  1.00  0.00     0.060 A 
BRANCH 107 108
ATOM    108  S   UNL A   1      53.511  25.714  25.108  1.00  0.00     0.124 S 
ATOM    109  O   UNL A   1      54.280  26.644  25.930  1.00  0.00    -0.237 OA
ATOM    110  O   UNL A   1      53.608  24.306  25.483  1.00  0.00    -0.237 OA
ATOM    111  O   UNL A   1      53.531  25.977  23.673  1.00  0.00    -0.744 OA
ENDBRANCH 107 108
ENDBRANCH  75 100
ENDBRANCH  49  50
ENDBRANCH  41  44
ENDBRANCH  39  40
ENDBRANCH  38  39
ENDBRANCH  37  38
ENDBRANCH   3  37
TORSDOF 21
ENDMDL
MODEL 2
REMARK VINA RESULT:     -12.0      5.989      7.858
REMARK SMILES C[C@]12C[C@@H](O)[C@H]3[C@@H](CCC4=CC(=O)C=C[C@]43C)[C@H]1CC[C@]2(O)C(=O)COC(=O)CCC(=O)NCCCNC(=O)c1ccc(-c2c3nc(c(-c4c(F)cc(S(=O)(=O)[O-])cc4F)c4ccc([nH]4)c(-c4c(F)cc(S(=O)(=O)[O-])cc4F)c4nc(c(-c5c(F)cc(S(=O)(=O)[O-])cc5F)c5ccc2[nH]5)C=C4)C=C3)cc1
REMARK SMILES IDX 31 1 32 2 33 3 30 5 29 6 27 7 28 8 26 9 25 10 23 11 24 12
REMARK SMILES IDX 21 13 17 14 16 15 15 16 10 17 6 18 14 19 11 20 9 21 7 22
REMARK SMILES IDX 4 23 12 24 8 25 18 26 3 27 13 28 2 29 19 30 1 31 20 32 5 33
REMARK SMILES IDX 22 35 34 37 35 38 36 39 37 40 38 41 39 43 40 44 41 45 105 46
REMARK SMILES IDX 42 47 104 48 43 49 44 50 45 51 98 52 46 53 103 54 97 55
REMARK SMILES IDX 99 56 47 57 102 58 96 59 95 60 48 62 82 63 61 64 81 65 62 66
REMARK SMILES IDX 65 67 80 68 100 69 63 70 64 71 79 73 101 74 66 75 49 76
REMARK SMILES IDX 50 77 59 78 51 79 52 80 58 81 60 82 53 83 54 84 55 85 56 86
REMARK SMILES IDX 57 87 83 88 84 89 93 90 85 91 86 92 92 93 94 94 87 95 88 96
REMARK SMILES IDX 89 97 90 98 91 99 67 100 68 101 77 102 69 103 70 104 76 105
REMARK SMILES IDX 78 106 71 107 72 108 73 109 74 110 75 111
REMARK H PARENT 33 4 5 34 22 36 37 42 99 61 65 72
REMARK Flexibility Score: inf
ROOT
ATOM      1  C   UNL A   1      32.494  29.227  26.639  1.00  0.00     0.220 C 
ATOM      2  O   UNL A   1      32.562  28.048  26.992  1.00  0.00    -0.275 OA
ATOM      3  N   UNL A   1      32.886  30.180  27.522  1.00  0.00    -0.356 N 
ATOM      4  H   UNL A   1      33.172  29.831  28.397  1.00  0.00     0.163 HD
ENDROOT
BRANCH   1   5
ATOM      5  C   UNL A   1      32.039  29.589  25.244  1.00  0.00     0.111 C 
BRANCH   5   6
ATOM      6  C   UNL A   1      30.993  28.652  24.652  1.00  0.00     0.132 C 
BRANCH   6   7
ATOM      7  C   UNL A   1      31.538  27.951  23.431  1.00  0.00     0.306 C 
ATOM      8  O   UNL A   1      30.922  27.852  22.374  1.00  0.00    -0.252 OA
BRANCH   7   9
ATOM      9  O   UNL A   1      32.720  27.333  23.681  1.00  0.00    -0.458 OA
BRANCH   9  10
ATOM     10  C   UNL A   1      32.648  25.979  24.118  1.00  0.00     0.311 C 
BRANCH  10  11
ATOM     11  C   UNL A   1      33.837  25.115  24.619  1.00  0.00     0.202 C 
ATOM     12  O   UNL A   1      34.505  25.536  25.574  1.00  0.00    -0.293 OA
BRANCH  11  13
ATOM     13  C   UNL A   1      34.259  23.810  23.889  1.00  0.00     0.132 C 
ATOM     14  C   UNL A   1      33.643  17.214  22.658  1.00  0.00     0.021 C 
ATOM     15  C   UNL A   1      33.739  17.856  24.079  1.00  0.00     0.013 C 
ATOM     16  C   UNL A   1      32.456  17.431  24.812  1.00  0.00    -0.012 C 
ATOM     17  C   UNL A   1      34.921  17.183  24.810  1.00  0.00    -0.056 C 
ATOM     18  C   UNL A   1      33.913  19.420  23.859  1.00  0.00     0.035 C 
ATOM     19  C   UNL A   1      32.311  16.210  25.355  1.00  0.00     0.048 C 
ATOM     20  C   UNL A   1      34.792  15.943  25.329  1.00  0.00     0.052 C 
ATOM     21  C   UNL A   1      36.185  17.924  25.151  1.00  0.00     0.032 C 
ATOM     22  C   UNL A   1      34.882  20.070  24.871  1.00  0.00    -0.000 C 
ATOM     23  C   UNL A   1      32.599  20.214  23.739  1.00  0.00     0.119 C 
ATOM     24  C   UNL A   1      33.466  15.288  25.382  1.00  0.00     0.178 C 
ATOM     25  C   UNL A   1      36.243  19.383  24.744  1.00  0.00     0.009 C 
ATOM     26  C   UNL A   1      35.043  21.610  24.773  1.00  0.00     0.002 C 
ATOM     27  C   UNL A   1      32.896  21.668  23.416  1.00  0.00     0.042 C 
ATOM     28  O   UNL A   1      33.338  14.084  25.553  1.00  0.00    -0.290 OA
ATOM     29  C   UNL A   1      33.744  22.409  24.476  1.00  0.00     0.009 C 
ATOM     30  C   UNL A   1      36.052  22.186  23.785  1.00  0.00     0.008 C 
ATOM     31  C   UNL A   1      32.963  22.439  25.799  1.00  0.00     0.015 C 
ATOM     32  C   UNL A   1      35.800  23.682  23.953  1.00  0.00     0.044 C 
BRANCH  23  33
ATOM     33  O   UNL A   1      31.802  19.743  22.652  1.00  0.00    -0.393 OA
ATOM     34  H   UNL A   1      32.374  19.327  21.989  1.00  0.00     0.210 HD
ENDBRANCH  23  33
BRANCH  13  35
ATOM     35  O   UNL A   1      33.972  23.865  22.493  1.00  0.00    -0.381 OA
ATOM     36  H   UNL A   1      34.801  23.932  21.995  1.00  0.00     0.212 HD
ENDBRANCH  13  35
ENDBRANCH  11  13
ENDBRANCH  10  11
ENDBRANCH   9  10
ENDBRANCH   7   9
ENDBRANCH   6   7
ENDBRANCH   5   6
ENDBRANCH   1   5
BRANCH   3  37
ATOM     37  C   UNL A   1      32.959  31.624  27.401  1.00  0.00     0.117 C 
BRANCH  37  38
ATOM     38  C   UNL A   1      34.222  32.165  28.057  1.00  0.00     0.042 C 
BRANCH  38  39
ATOM     39  C   UNL A   1      34.354  33.682  28.040  1.00  0.00     0.118 C 
BRANCH  39  40
ATOM     40  N   UNL A   1      33.493  34.380  28.975  1.00  0.00    -0.352 N 
ATOM     41  C   UNL A   1      33.600  34.631  30.320  1.00  0.00     0.251 C 
ATOM     42  H   UNL A   1      32.674  34.741  28.567  1.00  0.00     0.163 HD
ATOM     43  O   UNL A   1      32.664  35.204  30.874  1.00  0.00    -0.269 OA
BRANCH  41  44
ATOM     44  C   UNL A   1      34.711  34.179  31.174  1.00  0.00     0.039 A 
ATOM     45  C   UNL A   1      34.593  32.891  31.725  1.00  0.00     0.014 A 
ATOM     46  C   UNL A   1      35.863  34.919  31.408  1.00  0.00     0.014 A 
ATOM     47  C   UNL A   1      35.669  32.302  32.373  1.00  0.00     0.010 A 
ATOM     48  C   UNL A   1      36.980  34.287  31.928  1.00  0.00     0.010 A 
ATOM     49  C   UNL A   1      36.896  32.967  32.392  1.00  0.00    -0.014 A 
BRANCH  49  50
ATOM     50  C   UNL A   1      38.118  32.300  32.877  1.00  0.00     0.031 A 
ATOM     51  C   UNL A   1      38.585  32.566  34.276  1.00  0.00     0.074 A 
ATOM     52  C   UNL A   1      38.840  31.560  32.012  1.00  0.00     0.049 A 
ATOM     53  N   UNL A   1      39.720  32.258  34.837  1.00  0.00    -0.248 NA
ATOM     54  C   UNL A   1      37.671  33.332  35.141  1.00  0.00     0.031 C 
ATOM     55  C   UNL A   1      38.482  31.293  30.614  1.00  0.00     0.029 A 
ATOM     56  N   UNL A   1      40.032  30.909  32.174  1.00  0.00    -0.354 N 
ATOM     57  C   UNL A   1      39.678  32.832  36.101  1.00  0.00     0.074 A 
ATOM     58  C   UNL A   1      38.426  33.547  36.207  1.00  0.00     0.031 C 
ATOM     59  C   UNL A   1      39.418  30.508  30.058  1.00  0.00     0.029 A 
ATOM     60  C   UNL A   1      40.466  30.264  31.039  1.00  0.00     0.049 A 
ATOM     61  H   UNL A   1      40.533  30.901  33.022  1.00  0.00     0.167 HD
ATOM     62  C   UNL A   1      40.599  32.745  37.087  1.00  0.00     0.037 A 
ATOM     63  C   UNL A   1      41.596  29.567  30.820  1.00  0.00     0.037 A 
ATOM     64  C   UNL A   1      41.804  31.971  36.967  1.00  0.00     0.049 A 
ATOM     65  C   UNL A   1      42.575  29.439  31.952  1.00  0.00     0.074 A 
ATOM     66  C   UNL A   1      42.784  31.746  37.915  1.00  0.00     0.029 A 
ATOM     67  N   UNL A   1      42.182  31.278  35.823  1.00  0.00    -0.354 N 
ATOM     68  N   UNL A   1      42.511  29.961  33.155  1.00  0.00    -0.248 NA
ATOM     69  C   UNL A   1      43.774  28.632  31.704  1.00  0.00     0.031 C 
ATOM     70  C   UNL A   1      43.767  30.937  37.336  1.00  0.00     0.029 A 
ATOM     71  C   UNL A   1      43.382  30.627  36.040  1.00  0.00     0.049 A 
ATOM     72  H   UNL A   1      41.670  31.254  34.983  1.00  0.00     0.167 HD
ATOM     73  C   UNL A   1      43.650  29.525  33.818  1.00  0.00     0.074 A 
ATOM     74  C   UNL A   1      44.378  28.687  32.884  1.00  0.00     0.031 C 
ATOM     75  C   UNL A   1      44.063  29.792  35.082  1.00  0.00     0.037 A 
BRANCH  62  76
ATOM     76  C   UNL A   1      40.327  33.496  38.360  1.00  0.00     0.058 A 
ATOM     77  C   UNL A   1      39.321  33.094  39.255  1.00  0.00     0.135 A 
ATOM     78  C   UNL A   1      41.077  34.634  38.690  1.00  0.00     0.135 A 
ATOM     79  F   UNL A   1      38.555  32.028  38.977  1.00  0.00    -0.206 F 
ATOM     80  C   UNL A   1      39.046  33.814  40.413  1.00  0.00     0.059 A 
ATOM     81  C   UNL A   1      40.840  35.354  39.859  1.00  0.00     0.059 A 
ATOM     82  F   UNL A   1      42.045  35.069  37.867  1.00  0.00    -0.206 F 
ATOM     83  C   UNL A   1      39.810  34.945  40.705  1.00  0.00     0.060 A 
BRANCH  83  84
ATOM     84  S   UNL A   1      39.442  35.869  42.210  1.00  0.00     0.124 S 
ATOM     85  O   UNL A   1      38.865  37.094  41.665  1.00  0.00    -0.237 OA
ATOM     86  O   UNL A   1      38.510  34.983  42.902  1.00  0.00    -0.237 OA
ATOM     87  O   UNL A   1      40.748  36.018  42.846  1.00  0.00    -0.744 OA
ENDBRANCH  83  84
ENDBRANCH  62  76
BRANCH  63  88
ATOM     88  C   UNL A   1      41.837  28.925  29.500  1.00  0.00     0.058 A 
ATOM     89  C   UNL A   1      41.319  27.652  29.219  1.00  0.00     0.135 A 
ATOM     90  C   UNL A   1      42.554  29.577  28.485  1.00  0.00     0.135 A 
ATOM     91  F   UNL A   1      40.623  26.991  30.156  1.00  0.00    -0.206 F 
ATOM     92  C   UNL A   1      41.519  27.039  27.986  1.00  0.00     0.059 A 
ATOM     93  C   UNL A   1      42.748  28.994  27.236  1.00  0.00     0.059 A 
ATOM     94  F   UNL A   1      43.048  30.808  28.693  1.00  0.00    -0.206 F 
ATOM     95  C   UNL A   1      42.236  27.718  27.000  1.00  0.00     0.060 A 
BRANCH  95  96
ATOM     96  S   UNL A   1      42.455  26.930  25.389  1.00  0.00     0.124 S 
ATOM     97  O   UNL A   1      42.633  28.088  24.520  1.00  0.00    -0.237 OA
ATOM     98  O   UNL A   1      43.641  26.107  25.607  1.00  0.00    -0.237 OA
ATOM     99  O   UNL A   1      41.211  26.189  25.208  1.00  0.00    -0.744 OA
ENDBRANCH  95  96
ENDBRANCH  63  88
BRANCH  75 100
ATOM    100  C   UNL A   1      45.337  29.140  35.527  1.00  0.00     0.058 A 
ATOM    101  C   UNL A   1      45.348  27.848  36.071  1.00  0.00     0.135 A 
ATOM    102  C   UNL A   1      46.565  29.799  35.357  1.00  0.00     0.135 A 
ATOM    103  F   UNL A   1      44.196  27.184  36.258  1.00  0.00    -0.206 F 
ATOM    104  C   UNL A   1      46.534  27.236  36.454  1.00  0.00     0.059 A 
ATOM    105  C   UNL A   1      47.766  29.196  35.710  1.00  0.00     0.059 A 
ATOM    106  F   UNL A   1      46.604  31.033  34.830  1.00  0.00    -0.206 F 
ATOM    107  C   UNL A   1      47.739  27.918  36.268  1.00  0.00     0.060 A 
BRANCH 107 108
ATOM    108  S   UNL A   1      49.277  27.101  36.736  1.00  0.00     0.124 S 
ATOM    109  O   UNL A   1      49.958  28.160  37.473  1.00  0.00    -0.237 OA
ATOM    110  O   UNL A   1      48.803  25.974  37.535  1.00  0.00    -0.237 OA
ATOM    111  O   UNL A   1      49.874  26.743  35.453  1.00  0.00    -0.744 OA
ENDBRANCH 107 108
ENDBRANCH  75 100
ENDBRANCH  49  50
ENDBRANCH  41  44
ENDBRANCH  39  40
ENDBRANCH  38  39
ENDBRANCH  37  38
ENDBRANCH   3  37
TORSDOF 21
ENDMDL
MODEL 3
REMARK VINA RESULT:     -11.7      6.152     11.733
REMARK SMILES C[C@]12C[C@@H](O)[C@H]3[C@@H](CCC4=CC(=O)C=C[C@]43C)[C@H]1CC[C@]2(O)C(=O)COC(=O)CCC(=O)NCCCNC(=O)c1ccc(-c2c3nc(c(-c4c(F)cc(S(=O)(=O)[O-])cc4F)c4ccc([nH]4)c(-c4c(F)cc(S(=O)(=O)[O-])cc4F)c4nc(c(-c5c(F)cc(S(=O)(=O)[O-])cc5F)c5ccc2[nH]5)C=C4)C=C3)cc1
REMARK SMILES IDX 31 1 32 2 33 3 30 5 29 6 27 7 28 8 26 9 25 10 23 11 24 12
REMARK SMILES IDX 21 13 17 14 16 15 15 16 10 17 6 18 14 19 11 20 9 21 7 22
REMARK SMILES IDX 4 23 12 24 8 25 18 26 3 27 13 28 2 29 19 30 1 31 20 32 5 33
REMARK SMILES IDX 22 35 34 37 35 38 36 39 37 40 38 41 39 43 40 44 41 45 105 46
REMARK SMILES IDX 42 47 104 48 43 49 44 50 45 51 98 52 46 53 103 54 97 55
REMARK SMILES IDX 99 56 47 57 102 58 96 59 95 60 48 62 82 63 61 64 81 65 62 66
REMARK SMILES IDX 65 67 80 68 100 69 63 70 64 71 79 73 101 74 66 75 49 76
REMARK SMILES IDX 50 77 59 78 51 79 52 80 58 81 60 82 53 83 54 84 55 85 56 86
REMARK SMILES IDX 57 87 83 88 84 89 93 90 85 91 86 92 92 93 94 94 87 95 88 96
REMARK SMILES IDX 89 97 90 98 91 99 67 100 68 101 77 102 69 103 70 104 76 105
REMARK SMILES IDX 78 106 71 107 72 108 73 109 74 110 75 111
REMARK H PARENT 33 4 5 34 22 36 37 42 99 61 65 72
REMARK Flexibility Score: inf
ROOT
ATOM      1  C   UNL A   1      40.230  25.573  27.331  1.00  0.00     0.220 C 
ATOM      2  O   UNL A   1      40.008  25.954  28.482  1.00  0.00    -0.275 OA
ATOM      3  N   UNL A   1      41.343  26.037  26.709  1.00  0.00    -0.356 N 
ATOM      4  H   UNL A   1      41.871  26.674  27.243  1.00  0.00     0.163 HD
ENDROOT
BRANCH   1   5
ATOM      5  C   UNL A   1      39.313  24.576  26.659  1.00  0.00     0.111 C 
BRANCH   5   6
ATOM      6  C   UNL A   1      39.555  23.124  27.051  1.00  0.00     0.132 C 
BRANCH   6   7
ATOM      7  C   UNL A   1      38.845  22.192  26.098  1.00  0.00     0.306 C 
ATOM      8  O   UNL A   1      39.284  21.094  25.769  1.00  0.00    -0.252 OA
BRANCH   7   9
ATOM      9  O   UNL A   1      37.743  22.764  25.548  1.00  0.00    -0.458 OA
BRANCH   9  10
ATOM     10  C   UNL A   1      36.996  21.960  24.641  1.00  0.00     0.311 C 
BRANCH  10  11
ATOM     11  C   UNL A   1      35.694  21.181  24.969  1.00  0.00     0.202 C 
ATOM     12  O   UNL A   1      35.686  19.955  24.791  1.00  0.00    -0.293 OA
BRANCH  11  13
ATOM     13  C   UNL A   1      34.395  21.913  25.407  1.00  0.00     0.132 C 
ATOM     14  C   UNL A   1      29.344  26.236  24.315  1.00  0.00     0.021 C 
ATOM     15  C   UNL A   1      30.857  26.550  24.089  1.00  0.00     0.013 C 
ATOM     16  C   UNL A   1      30.981  26.944  22.608  1.00  0.00    -0.012 C 
ATOM     17  C   UNL A   1      31.197  27.806  24.921  1.00  0.00    -0.056 C 
ATOM     18  C   UNL A   1      31.659  25.247  24.519  1.00  0.00     0.035 C 
ATOM     19  C   UNL A   1      30.644  28.165  22.159  1.00  0.00     0.048 C 
ATOM     20  C   UNL A   1      30.831  29.034  24.491  1.00  0.00     0.052 C 
ATOM     21  C   UNL A   1      32.100  27.758  26.122  1.00  0.00     0.032 C 
ATOM     22  C   UNL A   1      32.988  25.565  25.239  1.00  0.00    -0.000 C 
ATOM     23  C   UNL A   1      31.852  24.200  23.405  1.00  0.00     0.119 C 
ATOM     24  C   UNL A   1      30.278  29.217  23.130  1.00  0.00     0.178 C 
ATOM     25  C   UNL A   1      32.675  26.402  26.480  1.00  0.00     0.009 C 
ATOM     26  C   UNL A   1      33.868  24.345  25.619  1.00  0.00     0.002 C 
ATOM     27  C   UNL A   1      32.525  22.960  23.967  1.00  0.00     0.042 C 
ATOM     28  O   UNL A   1      29.663  30.223  22.806  1.00  0.00    -0.290 OA
ATOM     29  C   UNL A   1      33.928  23.199  24.571  1.00  0.00     0.009 C 
ATOM     30  C   UNL A   1      33.596  23.616  26.931  1.00  0.00     0.008 C 
ATOM     31  C   UNL A   1      34.864  23.701  23.460  1.00  0.00     0.015 C 
ATOM     32  C   UNL A   1      34.596  22.467  26.838  1.00  0.00     0.044 C 
BRANCH  23  33
ATOM     33  O   UNL A   1      30.598  23.748  22.892  1.00  0.00    -0.393 OA
ATOM     34  H   UNL A   1      29.966  24.484  22.889  1.00  0.00     0.210 HD
ENDBRANCH  23  33
BRANCH  13  35
ATOM     35  O   UNL A   1      33.295  21.014  25.534  1.00  0.00    -0.381 OA
ATOM     36  H   UNL A   1      32.624  21.404  26.114  1.00  0.00     0.212 HD
ENDBRANCH  13  35
ENDBRANCH  11  13
ENDBRANCH  10  11
ENDBRANCH   9  10
ENDBRANCH   7   9
ENDBRANCH   6   7
ENDBRANCH   5   6
ENDBRANCH   1   5
BRANCH   3  37
ATOM     37  C   UNL A   1      41.892  25.757  25.395  1.00  0.00     0.117 C 
BRANCH  37  38
ATOM     38  C   UNL A   1      42.650  24.436  25.390  1.00  0.00     0.042 C 
BRANCH  38  39
ATOM     39  C   UNL A   1      43.184  23.998  26.747  1.00  0.00     0.118 C 
BRANCH  39  40
ATOM     40  N   UNL A   1      44.568  24.349  27.000  1.00  0.00    -0.352 N 
ATOM     41  C   UNL A   1      45.148  25.368  27.713  1.00  0.00     0.251 C 
ATOM     42  H   UNL A   1      45.216  23.740  26.578  1.00  0.00     0.163 HD
ATOM     43  O   UNL A   1      46.375  25.455  27.698  1.00  0.00    -0.269 OA
BRANCH  41  44
ATOM     44  C   UNL A   1      44.409  26.430  28.416  1.00  0.00     0.039 A 
ATOM     45  C   UNL A   1      43.649  26.031  29.531  1.00  0.00     0.014 A 
ATOM     46  C   UNL A   1      44.470  27.775  28.078  1.00  0.00     0.014 A 
ATOM     47  C   UNL A   1      43.084  26.977  30.372  1.00  0.00     0.010 A 
ATOM     48  C   UNL A   1      44.030  28.723  28.987  1.00  0.00     0.010 A 
ATOM     49  C   UNL A   1      43.354  28.329  30.151  1.00  0.00    -0.014 A 
BRANCH  49  50
ATOM     50  C   UNL A   1      42.958  29.357  31.130  1.00  0.00     0.031 A 
ATOM     51  C   UNL A   1      43.790  29.547  32.361  1.00  0.00     0.074 A 
ATOM     52  C   UNL A   1      41.797  30.016  30.944  1.00  0.00     0.049 A 
ATOM     53  N   UNL A   1      43.524  30.234  33.436  1.00  0.00    -0.248 NA
ATOM     54  C   UNL A   1      45.070  28.819  32.411  1.00  0.00     0.031 C 
ATOM     55  C   UNL A   1      40.898  29.853  29.795  1.00  0.00     0.029 A 
ATOM     56  N   UNL A   1      41.164  30.946  31.724  1.00  0.00    -0.354 N 
ATOM     57  C   UNL A   1      44.577  29.984  34.307  1.00  0.00     0.074 A 
ATOM     58  C   UNL A   1      45.461  29.045  33.656  1.00  0.00     0.031 C 
ATOM     59  C   UNL A   1      39.849  30.677  29.931  1.00  0.00     0.029 A 
ATOM     60  C   UNL A   1      39.971  31.385  31.198  1.00  0.00     0.049 A 
ATOM     61  H   UNL A   1      41.528  31.271  32.579  1.00  0.00     0.167 HD
ATOM     62  C   UNL A   1      44.788  30.514  35.533  1.00  0.00     0.037 A 
ATOM     63  C   UNL A   1      39.073  32.252  31.700  1.00  0.00     0.037 A 
ATOM     64  C   UNL A   1      43.918  31.496  36.122  1.00  0.00     0.049 A 
ATOM     65  C   UNL A   1      39.363  32.869  33.039  1.00  0.00     0.074 A 
ATOM     66  C   UNL A   1      44.058  32.161  37.326  1.00  0.00     0.029 A 
ATOM     67  N   UNL A   1      42.750  31.965  35.534  1.00  0.00    -0.354 N 
ATOM     68  N   UNL A   1      40.378  32.649  33.841  1.00  0.00    -0.248 NA
ATOM     69  C   UNL A   1      38.394  33.850  33.540  1.00  0.00     0.031 C 
ATOM     70  C   UNL A   1      42.959  33.014  37.477  1.00  0.00     0.029 A 
ATOM     71  C   UNL A   1      42.156  32.909  36.350  1.00  0.00     0.049 A 
ATOM     72  H   UNL A   1      42.399  31.669  34.664  1.00  0.00     0.167 HD
ATOM     73  C   UNL A   1      40.184  33.481  34.935  1.00  0.00     0.074 A 
ATOM     74  C   UNL A   1      38.960  34.219  34.681  1.00  0.00     0.031 C 
ATOM     75  C   UNL A   1      40.942  33.626  36.050  1.00  0.00     0.037 A 
BRANCH  62  76
ATOM     76  C   UNL A   1      45.997  30.047  36.293  1.00  0.00     0.058 A 
ATOM     77  C   UNL A   1      45.936  28.963  37.185  1.00  0.00     0.135 A 
ATOM     78  C   UNL A   1      47.232  30.692  36.134  1.00  0.00     0.135 A 
ATOM     79  F   UNL A   1      44.774  28.325  37.397  1.00  0.00    -0.206 F 
ATOM     80  C   UNL A   1      47.048  28.558  37.917  1.00  0.00     0.059 A 
ATOM     81  C   UNL A   1      48.366  30.286  36.833  1.00  0.00     0.059 A 
ATOM     82  F   UNL A   1      47.346  31.740  35.301  1.00  0.00    -0.206 F 
ATOM     83  C   UNL A   1      48.259  29.228  37.735  1.00  0.00     0.060 A 
BRANCH  83  84
ATOM     84  S   UNL A   1      49.692  28.693  38.691  1.00  0.00     0.124 S 
ATOM     85  O   UNL A   1      49.098  27.681  39.561  1.00  0.00    -0.237 OA
ATOM     86  O   UNL A   1      50.590  28.190  37.656  1.00  0.00    -0.237 OA
ATOM     87  O   UNL A   1      50.131  29.914  39.359  1.00  0.00    -0.744 OA
ENDBRANCH  83  84
ENDBRANCH  62  76
BRANCH  63  88
ATOM     88  C   UNL A   1      37.852  32.599  30.925  1.00  0.00     0.058 A 
ATOM     89  C   UNL A   1      37.909  33.536  29.883  1.00  0.00     0.135 A 
ATOM     90  C   UNL A   1      36.618  31.982  31.181  1.00  0.00     0.135 A 
ATOM     91  F   UNL A   1      39.067  34.150  29.597  1.00  0.00    -0.206 F 
ATOM     92  C   UNL A   1      36.783  33.865  29.135  1.00  0.00     0.059 A 
ATOM     93  C   UNL A   1      35.482  32.278  30.433  1.00  0.00     0.059 A 
ATOM     94  F   UNL A   1      36.515  31.059  32.150  1.00  0.00    -0.206 F 
ATOM     95  C   UNL A   1      35.573  33.231  29.418  1.00  0.00     0.060 A 
BRANCH  95  96
ATOM     96  S   UNL A   1      34.126  33.635  28.414  1.00  0.00     0.124 S 
ATOM     97  O   UNL A   1      33.251  34.258  29.401  1.00  0.00    -0.237 OA
ATOM     98  O   UNL A   1      34.690  34.527  27.406  1.00  0.00    -0.237 OA
ATOM     99  O   UNL A   1      33.691  32.334  27.916  1.00  0.00    -0.744 OA
ENDBRANCH  95  96
ENDBRANCH  63  88
BRANCH  75 100
ATOM    100  C   UNL A   1      40.483  34.643  37.051  1.00  0.00     0.058 A 
ATOM    101  C   UNL A   1      39.507  34.338  38.011  1.00  0.00     0.135 A 
ATOM    102  C   UNL A   1      41.066  35.920  37.079  1.00  0.00     0.135 A 
ATOM    103  F   UNL A   1      38.917  33.132  38.016  1.00  0.00    -0.206 F 
ATOM    104  C   UNL A   1      39.106  35.275  38.954  1.00  0.00     0.059 A 
ATOM    105  C   UNL A   1      40.699  36.863  38.030  1.00  0.00     0.059 A 
ATOM    106  F   UNL A   1      42.012  36.252  36.186  1.00  0.00    -0.206 F 
ATOM    107  C   UNL A   1      39.710  36.534  38.958  1.00  0.00     0.060 A 
BRANCH 107 108
ATOM    108  S   UNL A   1      39.208  37.731  40.210  1.00  0.00     0.124 S 
ATOM    109  O   UNL A   1      38.817  36.856  41.310  1.00  0.00    -0.237 OA
ATOM    110  O   UNL A   1      40.432  38.501  40.415  1.00  0.00    -0.237 OA
ATOM    111  O   UNL A   1      38.119  38.458  39.566  1.00  0.00    -0.744 OA
ENDBRANCH 107 108
ENDBRANCH  75 100
ENDBRANCH  49  50
ENDBRANCH  41  44
ENDBRANCH  39  40
ENDBRANCH  38  39
ENDBRANCH  37  38
ENDBRANCH   3  37
TORSDOF 21
ENDMDL
