MODEL 1
REMARK VINA RESULT:     -12.2      0.000      0.000
REMARK SMILES O=C(CCCN1C(=O)/C(=C\c2ccc(O)c(O)c2)SC1=S)NCCCNC(=O)c1ccc(-c2c3nc(c(-c4c(F)cc(S(=O)(=O)[O-])cc4F)c4ccc([nH]4)c(-c4c(F)cc(S(=O)(=O)[O-])cc4F)c4nc(c(-c5c(F)cc(S(=O)(=O)[O-])cc5F)c5ccc2[nH]5)C=C4)C=C3)cc1
REMARK SMILES IDX 23 1 22 2 1 3 2 4 3 6 4 7 5 8 6 9 7 10 20 11 8 12 9 13 19 14
REMARK SMILES IDX 21 15 10 16 11 17 12 18 18 19 13 20 16 21 14 22 17 23 15 25
REMARK SMILES IDX 24 27 25 28 26 29 27 30 28 32 29 33 30 34 94 35 31 36 93 37
REMARK SMILES IDX 32 38 33 39 34 40 87 41 35 42 92 43 86 44 88 45 36 46 91 47
REMARK SMILES IDX 85 48 84 49 37 51 71 52 50 53 70 54 51 55 54 56 69 57 89 58
REMARK SMILES IDX 52 59 53 60 68 62 90 63 55 64 38 65 39 66 48 67 40 68 41 69
REMARK SMILES IDX 47 70 49 71 42 72 43 73 44 74 45 75 46 76 72 77 73 78 82 79
REMARK SMILES IDX 74 80 75 81 81 82 83 83 76 84 77 85 78 86 79 87 80 88 56 89
REMARK SMILES IDX 57 90 66 91 58 92 59 93 65 94 67 95 60 96 61 97 62 98 63 99
REMARK SMILES IDX 64 100
REMARK H PARENT 22 5 17 24 15 26 26 31 88 50 54 61
REMARK Flexibility Score: inf
ROOT
ATOM      1  C   UNL A   1      39.970  21.554  26.450  1.00  0.00     0.117 C 
ENDROOT
BRANCH   1   2
ATOM      2  N   UNL A   1      38.925  22.227  25.703  1.00  0.00    -0.356 N 
ATOM      3  O   UNL A   1      37.865  20.312  25.007  1.00  0.00    -0.275 OA
ATOM      4  C   UNL A   1      37.958  21.533  25.016  1.00  0.00     0.220 C 
ATOM      5  H   UNL A   1      38.909  23.210  25.686  1.00  0.00     0.163 HD
BRANCH   4   6
ATOM      6  C   UNL A   1      37.003  22.410  24.240  1.00  0.00     0.102 C 
BRANCH   6   7
ATOM      7  C   UNL A   1      36.354  23.497  25.090  1.00  0.00     0.032 C 
BRANCH   7   8
ATOM      8  C   UNL A   1      34.993  23.165  25.712  1.00  0.00     0.128 C 
BRANCH   8   9
ATOM      9  N   UNL A   1      33.915  22.649  24.852  1.00  0.00    -0.293 N 
ATOM     10  C   UNL A   1      33.626  21.293  24.967  1.00  0.00     0.266 C 
ATOM     11  C   UNL A   1      33.291  23.299  23.807  1.00  0.00     0.148 C 
ATOM     12  O   UNL A   1      34.097  20.569  25.830  1.00  0.00    -0.268 OA
ATOM     13  C   UNL A   1      32.648  20.859  23.925  1.00  0.00     0.081 C 
ATOM     14  S   UNL A   1      32.055  22.255  23.107  1.00  0.00    -0.054 SA
ATOM     15  S   UNL A   1      33.575  24.822  23.192  1.00  0.00    -0.052 S 
ATOM     16  C   UNL A   1      32.308  19.613  23.555  1.00  0.00     0.029 C 
BRANCH  16  17
ATOM     17  C   UNL A   1      32.903  18.367  24.054  1.00  0.00    -0.020 A 
ATOM     18  C   UNL A   1      34.064  17.825  23.489  1.00  0.00     0.012 A 
ATOM     19  C   UNL A   1      32.286  17.691  25.113  1.00  0.00     0.058 A 
ATOM     20  C   UNL A   1      34.578  16.601  23.921  1.00  0.00     0.051 A 
ATOM     21  C   UNL A   1      32.799  16.470  25.535  1.00  0.00     0.157 A 
ATOM     22  C   UNL A   1      33.930  15.922  24.940  1.00  0.00     0.157 A 
BRANCH  21  23
ATOM     23  O   UNL A   1      32.160  15.790  26.533  1.00  0.00    -0.504 OA
ATOM     24  H   UNL A   1      31.965  14.879  26.428  1.00  0.00     0.293 HD
ENDBRANCH  21  23
BRANCH  22  25
ATOM     25  O   UNL A   1      34.362  14.701  25.374  1.00  0.00    -0.504 OA
ATOM     26  H   UNL A   1      35.184  14.625  25.817  1.00  0.00     0.293 HD
ENDBRANCH  22  25
ENDBRANCH  16  17
ENDBRANCH   8   9
ENDBRANCH   7   8
ENDBRANCH   6   7
ENDBRANCH   4   6
ENDBRANCH   1   2
BRANCH   1  27
ATOM     27  C   UNL A   1      40.404  22.353  27.673  1.00  0.00     0.042 C 
BRANCH  27  28
ATOM     28  C   UNL A   1      41.757  23.041  27.536  1.00  0.00     0.118 C 
BRANCH  28  29
ATOM     29  N   UNL A   1      41.867  23.853  26.336  1.00  0.00    -0.352 N 
ATOM     30  C   UNL A   1      41.683  25.199  26.146  1.00  0.00     0.251 C 
ATOM     31  H   UNL A   1      42.115  23.354  25.524  1.00  0.00     0.163 HD
ATOM     32  O   UNL A   1      41.701  25.646  25.001  1.00  0.00    -0.269 OA
BRANCH  30  33
ATOM     33  C   UNL A   1      41.492  26.130  27.284  1.00  0.00     0.039 A 
ATOM     34  C   UNL A   1      40.359  25.967  28.088  1.00  0.00     0.014 A 
ATOM     35  C   UNL A   1      42.352  27.206  27.521  1.00  0.00     0.014 A 
ATOM     36  C   UNL A   1      40.117  26.852  29.140  1.00  0.00     0.010 A 
ATOM     37  C   UNL A   1      42.145  28.053  28.603  1.00  0.00     0.010 A 
ATOM     38  C   UNL A   1      41.023  27.888  29.419  1.00  0.00    -0.014 A 
BRANCH  38  39
ATOM     39  C   UNL A   1      40.837  28.773  30.592  1.00  0.00     0.031 A 
ATOM     40  C   UNL A   1      41.664  28.590  31.833  1.00  0.00     0.074 A 
ATOM     41  C   UNL A   1      39.859  29.697  30.549  1.00  0.00     0.049 A 
ATOM     42  N   UNL A   1      41.635  29.274  32.948  1.00  0.00    -0.248 NA
ATOM     43  C   UNL A   1      42.632  27.481  31.836  1.00  0.00     0.031 C 
ATOM     44  C   UNL A   1      38.942  29.900  29.423  1.00  0.00     0.029 A 
ATOM     45  N   UNL A   1      39.464  30.630  31.471  1.00  0.00    -0.354 N 
ATOM     46  C   UNL A   1      42.578  28.685  33.782  1.00  0.00     0.074 A 
ATOM     47  C   UNL A   1      43.119  27.548  33.068  1.00  0.00     0.031 C 
ATOM     48  C   UNL A   1      38.114  30.915  29.709  1.00  0.00     0.029 A 
ATOM     49  C   UNL A   1      38.417  31.413  31.046  1.00  0.00     0.049 A 
ATOM     50  H   UNL A   1      39.890  30.730  32.353  1.00  0.00     0.167 HD
ATOM     51  C   UNL A   1      42.970  29.073  35.019  1.00  0.00     0.037 A 
ATOM     52  C   UNL A   1      37.776  32.421  31.666  1.00  0.00     0.037 A 
ATOM     53  C   UNL A   1      42.417  30.209  35.714  1.00  0.00     0.049 A 
ATOM     54  C   UNL A   1      38.239  32.841  33.033  1.00  0.00     0.074 A 
ATOM     55  C   UNL A   1      42.784  30.727  36.944  1.00  0.00     0.029 A 
ATOM     56  N   UNL A   1      41.375  30.996  35.246  1.00  0.00    -0.354 N 
ATOM     57  N   UNL A   1      39.197  32.332  33.771  1.00  0.00    -0.248 NA
ATOM     58  C   UNL A   1      37.545  33.980  33.645  1.00  0.00     0.031 C 
ATOM     59  C   UNL A   1      41.927  31.792  37.244  1.00  0.00     0.029 A 
ATOM     60  C   UNL A   1      41.068  31.980  36.172  1.00  0.00     0.049 A 
ATOM     61  H   UNL A   1      40.920  30.874  34.382  1.00  0.00     0.167 HD
ATOM     62  C   UNL A   1      39.241  33.108  34.924  1.00  0.00     0.074 A 
ATOM     63  C   UNL A   1      38.225  34.132  34.773  1.00  0.00     0.031 C 
ATOM     64  C   UNL A   1      40.049  32.989  36.007  1.00  0.00     0.037 A 
BRANCH  51  65
ATOM     65  C   UNL A   1      44.050  28.271  35.698  1.00  0.00     0.058 A 
ATOM     66  C   UNL A   1      43.745  27.202  36.557  1.00  0.00     0.135 A 
ATOM     67  C   UNL A   1      45.406  28.539  35.450  1.00  0.00     0.135 A 
ATOM     68  F   UNL A   1      42.467  26.905  36.841  1.00  0.00    -0.206 F 
ATOM     69  C   UNL A   1      44.743  26.447  37.166  1.00  0.00     0.059 A 
ATOM     70  C   UNL A   1      46.422  27.778  36.023  1.00  0.00     0.059 A 
ATOM     71  F   UNL A   1      45.759  29.549  34.639  1.00  0.00    -0.206 F 
ATOM     72  C   UNL A   1      46.079  26.741  36.891  1.00  0.00     0.060 A 
BRANCH  72  73
ATOM     73  S   UNL A   1      47.361  25.740  37.676  1.00  0.00     0.124 S 
ATOM     74  O   UNL A   1      47.301  26.220  39.054  1.00  0.00    -0.237 OA
ATOM     75  O   UNL A   1      46.872  24.383  37.457  1.00  0.00    -0.237 OA
ATOM     76  O   UNL A   1      48.569  26.095  36.940  1.00  0.00    -0.744 OA
ENDBRANCH  72  73
ENDBRANCH  51  65
BRANCH  52  77
ATOM     77  C   UNL A   1      36.662  33.124  30.978  1.00  0.00     0.058 A 
ATOM     78  C   UNL A   1      36.904  33.963  29.880  1.00  0.00     0.135 A 
ATOM     79  C   UNL A   1      35.329  32.951  31.385  1.00  0.00     0.135 A 
ATOM     80  F   UNL A   1      38.160  34.158  29.451  1.00  0.00    -0.206 F 
ATOM     81  C   UNL A   1      35.871  34.626  29.226  1.00  0.00     0.059 A 
ATOM     82  C   UNL A   1      34.277  33.580  30.729  1.00  0.00     0.059 A 
ATOM     83  F   UNL A   1      35.040  32.139  32.415  1.00  0.00    -0.206 F 
ATOM     84  C   UNL A   1      34.559  34.425  29.658  1.00  0.00     0.060 A 
BRANCH  84  85
ATOM     85  S   UNL A   1      33.223  35.257  28.774  1.00  0.00     0.124 S 
ATOM     86  O   UNL A   1      32.438  35.801  29.876  1.00  0.00    -0.237 OA
ATOM     87  O   UNL A   1      33.951  36.230  27.965  1.00  0.00    -0.237 OA
ATOM     88  O   UNL A   1      32.592  34.175  28.023  1.00  0.00    -0.744 OA
ENDBRANCH  84  85
ENDBRANCH  52  77
BRANCH  64  89
ATOM     89  C   UNL A   1      39.886  34.011  37.099  1.00  0.00     0.058 A 
ATOM     90  C   UNL A   1      39.059  33.784  38.212  1.00  0.00     0.135 A 
ATOM     91  C   UNL A   1      40.582  35.230  37.039  1.00  0.00     0.135 A 
ATOM     92  F   UNL A   1      38.367  32.639  38.317  1.00  0.00    -0.206 F 
ATOM     93  C   UNL A   1      38.895  34.746  39.204  1.00  0.00     0.059 A 
ATOM     94  C   UNL A   1      40.460  36.191  38.038  1.00  0.00     0.059 A 
ATOM     95  F   UNL A   1      41.395  35.494  36.005  1.00  0.00    -0.206 F 
ATOM     96  C   UNL A   1      39.599  35.948  39.106  1.00  0.00     0.060 A 
BRANCH  96  97
ATOM     97  S   UNL A   1      39.379  37.185  40.401  1.00  0.00     0.124 S 
ATOM     98  O   UNL A   1      40.755  37.607  40.641  1.00  0.00    -0.237 OA
ATOM     99  O   UNL A   1      38.519  38.168  39.751  1.00  0.00    -0.237 OA
ATOM    100  O   UNL A   1      38.755  36.434  41.486  1.00  0.00    -0.744 OA
ENDBRANCH  96  97
ENDBRANCH  64  89
ENDBRANCH  38  39
ENDBRANCH  30  33
ENDBRANCH  28  29
ENDBRANCH  27  28
ENDBRANCH   1  27
TORSDOF 19
ENDMDL
MODEL 2
REMARK VINA RESULT:     -12.1      7.137     13.100
REMARK SMILES O=C(CCCN1C(=O)/C(=C\c2ccc(O)c(O)c2)SC1=S)NCCCNC(=O)c1ccc(-c2c3nc(c(-c4c(F)cc(S(=O)(=O)[O-])cc4F)c4ccc([nH]4)c(-c4c(F)cc(S(=O)(=O)[O-])cc4F)c4nc(c(-c5c(F)cc(S(=O)(=O)[O-])cc5F)c5ccc2[nH]5)C=C4)C=C3)cc1
REMARK SMILES IDX 23 1 22 2 1 3 2 4 3 6 4 7 5 8 6 9 7 10 20 11 8 12 9 13 19 14
REMARK SMILES IDX 21 15 10 16 11 17 12 18 18 19 13 20 16 21 14 22 17 23 15 25
REMARK SMILES IDX 24 27 25 28 26 29 27 30 28 32 29 33 30 34 94 35 31 36 93 37
REMARK SMILES IDX 32 38 33 39 34 40 87 41 35 42 92 43 86 44 88 45 36 46 91 47
REMARK SMILES IDX 85 48 84 49 37 51 71 52 50 53 70 54 51 55 54 56 69 57 89 58
REMARK SMILES IDX 52 59 53 60 68 62 90 63 55 64 38 65 39 66 48 67 40 68 41 69
REMARK SMILES IDX 47 70 49 71 42 72 43 73 44 74 45 75 46 76 72 77 73 78 82 79
REMARK SMILES IDX 74 80 75 81 81 82 83 83 76 84 77 85 78 86 79 87 80 88 56 89
REMARK SMILES IDX 57 90 66 91 58 92 59 93 65 94 67 95 60 96 61 97 62 98 63 99
REMARK SMILES IDX 64 100
REMARK H PARENT 22 5 17 24 15 26 26 31 88 50 54 61
REMARK Flexibility Score: inf
ROOT
ATOM      1  C   UNL A   1      34.005  32.376  28.340  1.00  0.00     0.117 C 
ENDROOT
BRANCH   1   2
ATOM      2  N   UNL A   1      33.407  31.563  27.299  1.00  0.00    -0.356 N 
ATOM      3  O   UNL A   1      34.451  29.608  27.899  1.00  0.00    -0.275 OA
ATOM      4  C   UNL A   1      33.703  30.230  27.154  1.00  0.00     0.220 C 
ATOM      5  H   UNL A   1      32.769  31.980  26.676  1.00  0.00     0.163 HD
BRANCH   4   6
ATOM      6  C   UNL A   1      33.037  29.574  25.966  1.00  0.00     0.102 C 
BRANCH   6   7
ATOM      7  C   UNL A   1      33.972  28.665  25.176  1.00  0.00     0.032 C 
BRANCH   7   8
ATOM      8  C   UNL A   1      33.414  28.058  23.884  1.00  0.00     0.128 C 
BRANCH   8   9
ATOM      9  N   UNL A   1      32.021  27.580  23.857  1.00  0.00    -0.293 N 
ATOM     10  C   UNL A   1      31.102  28.390  23.197  1.00  0.00     0.266 C 
ATOM     11  C   UNL A   1      31.479  26.531  24.570  1.00  0.00     0.148 C 
ATOM     12  O   UNL A   1      31.411  29.362  22.526  1.00  0.00    -0.268 OA
ATOM     13  C   UNL A   1      29.707  27.892  23.391  1.00  0.00     0.081 C 
ATOM     14  S   UNL A   1      29.772  26.356  24.170  1.00  0.00    -0.054 SA
ATOM     15  S   UNL A   1      32.207  25.521  25.678  1.00  0.00    -0.052 S 
ATOM     16  C   UNL A   1      28.546  28.514  23.127  1.00  0.00     0.029 C 
BRANCH  16  17
ATOM     17  C   UNL A   1      28.389  29.894  22.650  1.00  0.00    -0.020 A 
ATOM     18  C   UNL A   1      28.562  30.992  23.501  1.00  0.00     0.012 A 
ATOM     19  C   UNL A   1      28.042  30.120  21.313  1.00  0.00     0.058 A 
ATOM     20  C   UNL A   1      28.337  32.297  23.056  1.00  0.00     0.051 A 
ATOM     21  C   UNL A   1      27.814  31.420  20.878  1.00  0.00     0.157 A 
ATOM     22  C   UNL A   1      27.950  32.501  21.742  1.00  0.00     0.157 A 
BRANCH  21  23
ATOM     23  O   UNL A   1      27.424  31.630  19.585  1.00  0.00    -0.504 OA
ATOM     24  H   UNL A   1      27.845  31.166  18.888  1.00  0.00     0.293 HD
ENDBRANCH  21  23
BRANCH  22  25
ATOM     25  O   UNL A   1      27.674  33.751  21.263  1.00  0.00    -0.504 OA
ATOM     26  H   UNL A   1      27.688  34.488  21.841  1.00  0.00     0.293 HD
ENDBRANCH  22  25
ENDBRANCH  16  17
ENDBRANCH   8   9
ENDBRANCH   7   8
ENDBRANCH   6   7
ENDBRANCH   4   6
ENDBRANCH   1   2
BRANCH   1  27
ATOM     27  C   UNL A   1      35.443  32.760  28.012  1.00  0.00     0.042 C 
BRANCH  27  28
ATOM     28  C   UNL A   1      36.440  32.514  29.138  1.00  0.00     0.118 C 
BRANCH  28  29
ATOM     29  N   UNL A   1      36.035  31.447  30.037  1.00  0.00    -0.352 N 
ATOM     30  C   UNL A   1      36.633  30.247  30.329  1.00  0.00     0.251 C 
ATOM     31  H   UNL A   1      35.192  31.613  30.517  1.00  0.00     0.163 HD
ATOM     32  O   UNL A   1      36.030  29.438  31.030  1.00  0.00    -0.269 OA
BRANCH  30  33
ATOM     33  C   UNL A   1      37.994  29.915  29.846  1.00  0.00     0.039 A 
ATOM     34  C   UNL A   1      39.036  29.883  30.778  1.00  0.00     0.014 A 
ATOM     35  C   UNL A   1      38.280  29.725  28.491  1.00  0.00     0.014 A 
ATOM     36  C   UNL A   1      40.342  29.622  30.357  1.00  0.00     0.010 A 
ATOM     37  C   UNL A   1      39.569  29.407  28.076  1.00  0.00     0.010 A 
ATOM     38  C   UNL A   1      40.612  29.359  29.004  1.00  0.00    -0.014 A 
BRANCH  38  39
ATOM     39  C   UNL A   1      41.971  28.979  28.554  1.00  0.00     0.031 A 
ATOM     40  C   UNL A   1      43.059  30.009  28.435  1.00  0.00     0.074 A 
ATOM     41  C   UNL A   1      42.189  27.704  28.181  1.00  0.00     0.049 A 
ATOM     42  N   UNL A   1      44.303  29.850  28.060  1.00  0.00    -0.248 NA
ATOM     43  C   UNL A   1      42.702  31.400  28.754  1.00  0.00     0.031 C 
ATOM     44  C   UNL A   1      41.176  26.644  28.176  1.00  0.00     0.029 A 
ATOM     45  N   UNL A   1      43.321  27.083  27.726  1.00  0.00    -0.354 N 
ATOM     46  C   UNL A   1      44.877  31.115  28.100  1.00  0.00     0.074 A 
ATOM     47  C   UNL A   1      43.830  32.041  28.477  1.00  0.00     0.031 C 
ATOM     48  C   UNL A   1      41.742  25.498  27.772  1.00  0.00     0.029 A 
ATOM     49  C   UNL A   1      43.144  25.746  27.458  1.00  0.00     0.049 A 
ATOM     50  H   UNL A   1      44.180  27.548  27.605  1.00  0.00     0.167 HD
ATOM     51  C   UNL A   1      46.164  31.465  27.867  1.00  0.00     0.037 A 
ATOM     52  C   UNL A   1      44.017  24.825  27.009  1.00  0.00     0.037 A 
ATOM     53  C   UNL A   1      47.193  30.527  27.492  1.00  0.00     0.049 A 
ATOM     54  C   UNL A   1      45.444  25.235  26.770  1.00  0.00     0.074 A 
ATOM     55  C   UNL A   1      48.542  30.763  27.291  1.00  0.00     0.029 A 
ATOM     56  N   UNL A   1      46.986  29.176  27.251  1.00  0.00    -0.354 N 
ATOM     57  N   UNL A   1      45.994  26.419  26.904  1.00  0.00    -0.248 NA
ATOM     58  C   UNL A   1      46.370  24.184  26.336  1.00  0.00     0.031 C 
ATOM     59  C   UNL A   1      49.139  29.567  26.876  1.00  0.00     0.029 A 
ATOM     60  C   UNL A   1      48.176  28.570  26.879  1.00  0.00     0.049 A 
ATOM     61  H   UNL A   1      46.121  28.714  27.333  1.00  0.00     0.167 HD
ATOM     62  C   UNL A   1      47.339  26.249  26.597  1.00  0.00     0.074 A 
ATOM     63  C   UNL A   1      47.519  24.843  26.291  1.00  0.00     0.031 C 
ATOM     64  C   UNL A   1      48.336  27.169  26.573  1.00  0.00     0.037 A 
BRANCH  51  65
ATOM     65  C   UNL A   1      46.537  32.917  28.016  1.00  0.00     0.058 A 
ATOM     66  C   UNL A   1      47.044  33.429  29.222  1.00  0.00     0.135 A 
ATOM     67  C   UNL A   1      46.438  33.799  26.927  1.00  0.00     0.135 A 
ATOM     68  F   UNL A   1      47.152  32.636  30.301  1.00  0.00    -0.206 F 
ATOM     69  C   UNL A   1      47.411  34.765  29.352  1.00  0.00     0.059 A 
ATOM     70  C   UNL A   1      46.828  35.132  27.024  1.00  0.00     0.059 A 
ATOM     71  F   UNL A   1      45.961  33.367  25.749  1.00  0.00    -0.206 F 
ATOM     72  C   UNL A   1      47.302  35.609  28.246  1.00  0.00     0.060 A 
BRANCH  72  73
ATOM     73  S   UNL A   1      47.799  37.335  28.428  1.00  0.00     0.124 S 
ATOM     74  O   UNL A   1      49.207  37.274  28.051  1.00  0.00    -0.237 OA
ATOM     75  O   UNL A   1      46.919  38.012  27.480  1.00  0.00    -0.237 OA
ATOM     76  O   UNL A   1      47.537  37.619  29.835  1.00  0.00    -0.744 OA
ENDBRANCH  72  73
ENDBRANCH  51  65
BRANCH  52  77
ATOM     77  C   UNL A   1      43.572  23.422  26.803  1.00  0.00     0.058 A 
ATOM     78  C   UNL A   1      43.338  22.570  27.892  1.00  0.00     0.135 A 
ATOM     79  C   UNL A   1      43.346  22.912  25.515  1.00  0.00     0.135 A 
ATOM     80  F   UNL A   1      43.538  23.012  29.143  1.00  0.00    -0.206 F 
ATOM     81  C   UNL A   1      42.920  21.256  27.714  1.00  0.00     0.059 A 
ATOM     82  C   UNL A   1      42.900  21.610  25.311  1.00  0.00     0.059 A 
ATOM     83  F   UNL A   1      43.531  23.694  24.439  1.00  0.00    -0.206 F 
ATOM     84  C   UNL A   1      42.701  20.786  26.417  1.00  0.00     0.060 A 
BRANCH  84  85
ATOM     85  S   UNL A   1      42.118  19.092  26.200  1.00  0.00     0.124 S 
ATOM     86  O   UNL A   1      42.279  18.551  27.545  1.00  0.00    -0.237 OA
ATOM     87  O   UNL A   1      40.743  19.297  25.754  1.00  0.00    -0.237 OA
ATOM     88  O   UNL A   1      43.023  18.552  25.190  1.00  0.00    -0.744 OA
ENDBRANCH  84  85
ENDBRANCH  52  77
BRANCH  64  89
ATOM     89  C   UNL A   1      49.717  26.674  26.235  1.00  0.00     0.058 A 
ATOM     90  C   UNL A   1      50.565  26.117  27.206  1.00  0.00     0.135 A 
ATOM     91  C   UNL A   1      50.191  26.742  24.914  1.00  0.00     0.135 A 
ATOM     92  F   UNL A   1      50.164  26.034  28.485  1.00  0.00    -0.206 F 
ATOM     93  C   UNL A   1      51.849  25.686  26.889  1.00  0.00     0.059 A 
ATOM     94  C   UNL A   1      51.458  26.284  24.568  1.00  0.00     0.059 A 
ATOM     95  F   UNL A   1      49.417  27.253  23.943  1.00  0.00    -0.206 F 
ATOM     96  C   UNL A   1      52.287  25.775  25.566  1.00  0.00     0.060 A 
BRANCH  96  97
ATOM     97  S   UNL A   1      53.953  25.209  25.167  1.00  0.00     0.124 S 
ATOM     98  O   UNL A   1      53.743  23.775  25.001  1.00  0.00    -0.237 OA
ATOM     99  O   UNL A   1      54.252  25.952  23.948  1.00  0.00    -0.237 OA
ATOM    100  O   UNL A   1      54.733  25.597  26.339  1.00  0.00    -0.744 OA
ENDBRANCH  96  97
ENDBRANCH  64  89
ENDBRANCH  38  39
ENDBRANCH  30  33
ENDBRANCH  28  29
ENDBRANCH  27  28
ENDBRANCH   1  27
TORSDOF 19
ENDMDL
MODEL 3
REMARK VINA RESULT:     -11.8      2.013      4.041
REMARK SMILES O=C(CCCN1C(=O)/C(=C\c2ccc(O)c(O)c2)SC1=S)NCCCNC(=O)c1ccc(-c2c3nc(c(-c4c(F)cc(S(=O)(=O)[O-])cc4F)c4ccc([nH]4)c(-c4c(F)cc(S(=O)(=O)[O-])cc4F)c4nc(c(-c5c(F)cc(S(=O)(=O)[O-])cc5F)c5ccc2[nH]5)C=C4)C=C3)cc1
REMARK SMILES IDX 23 1 22 2 1 3 2 4 3 6 4 7 5 8 6 9 7 10 20 11 8 12 9 13 19 14
REMARK SMILES IDX 21 15 10 16 11 17 12 18 18 19 13 20 16 21 14 22 17 23 15 25
REMARK SMILES IDX 24 27 25 28 26 29 27 30 28 32 29 33 30 34 94 35 31 36 93 37
REMARK SMILES IDX 32 38 33 39 34 40 87 41 35 42 92 43 86 44 88 45 36 46 91 47
REMARK SMILES IDX 85 48 84 49 37 51 71 52 50 53 70 54 51 55 54 56 69 57 89 58
REMARK SMILES IDX 52 59 53 60 68 62 90 63 55 64 38 65 39 66 48 67 40 68 41 69
REMARK SMILES IDX 47 70 49 71 42 72 43 73 44 74 45 75 46 76 72 77 73 78 82 79
REMARK SMILES IDX 74 80 75 81 81 82 83 83 76 84 77 85 78 86 79 87 80 88 56 89
REMARK SMILES IDX 57 90 66 91 58 92 59 93 65 94 67 95 60 96 61 97 62 98 63 99
REMARK SMILES IDX 64 100
REMARK H PARENT 22 5 17 24 15 26 26 31 88 50 54 61
REMARK Flexibility Score: inf
ROOT
ATOM      1  C   UNL A   1      39.578  21.096  26.194  1.00  0.00     0.117 C 
ENDROOT
BRANCH   1   2
ATOM      2  N   UNL A   1      38.569  21.878  25.507  1.00  0.00    -0.356 N 
ATOM      3  O   UNL A   1      37.182  20.110  25.035  1.00  0.00    -0.275 OA
ATOM      4  C   UNL A   1      37.448  21.303  24.960  1.00  0.00     0.220 C 
ATOM      5  H   UNL A   1      38.691  22.852  25.431  1.00  0.00     0.163 HD
BRANCH   4   6
ATOM      6  C   UNL A   1      36.553  22.273  24.223  1.00  0.00     0.102 C 
BRANCH   6   7
ATOM      7  C   UNL A   1      36.650  23.701  24.747  1.00  0.00     0.032 C 
BRANCH   7   8
ATOM      8  C   UNL A   1      35.884  24.015  26.038  1.00  0.00     0.128 C 
BRANCH   8   9
ATOM      9  N   UNL A   1      34.417  23.891  26.051  1.00  0.00    -0.293 N 
ATOM     10  C   UNL A   1      33.695  25.047  25.770  1.00  0.00     0.266 C 
ATOM     11  C   UNL A   1      33.668  22.823  26.499  1.00  0.00     0.148 C 
ATOM     12  O   UNL A   1      34.202  26.084  25.370  1.00  0.00    -0.268 OA
ATOM     13  C   UNL A   1      32.233  24.838  25.988  1.00  0.00     0.081 C 
ATOM     14  S   UNL A   1      31.952  23.164  26.284  1.00  0.00    -0.054 SA
ATOM     15  S   UNL A   1      34.178  21.386  27.173  1.00  0.00    -0.052 S 
ATOM     16  C   UNL A   1      31.251  25.753  26.060  1.00  0.00     0.029 C 
BRANCH  16  17
ATOM     17  C   UNL A   1      31.420  27.211  26.019  1.00  0.00    -0.020 A 
ATOM     18  C   UNL A   1      31.860  27.934  27.134  1.00  0.00     0.012 A 
ATOM     19  C   UNL A   1      31.118  27.901  24.840  1.00  0.00     0.058 A 
ATOM     20  C   UNL A   1      31.944  29.328  27.108  1.00  0.00     0.051 A 
ATOM     21  C   UNL A   1      31.198  29.289  24.821  1.00  0.00     0.157 A 
ATOM     22  C   UNL A   1      31.599  30.000  25.947  1.00  0.00     0.157 A 
BRANCH  21  23
ATOM     23  O   UNL A   1      30.851  29.960  23.683  1.00  0.00    -0.504 OA
ATOM     24  H   UNL A   1      30.001  30.348  23.609  1.00  0.00     0.293 HD
ENDBRANCH  21  23
BRANCH  22  25
ATOM     25  O   UNL A   1      31.620  31.364  25.876  1.00  0.00    -0.504 OA
ATOM     26  H   UNL A   1      31.142  31.806  25.203  1.00  0.00     0.293 HD
ENDBRANCH  22  25
ENDBRANCH  16  17
ENDBRANCH   8   9
ENDBRANCH   7   8
ENDBRANCH   6   7
ENDBRANCH   4   6
ENDBRANCH   1   2
BRANCH   1  27
ATOM     27  C   UNL A   1      40.484  21.963  27.061  1.00  0.00     0.042 C 
BRANCH  27  28
ATOM     28  C   UNL A   1      40.186  23.457  26.996  1.00  0.00     0.118 C 
BRANCH  28  29
ATOM     29  N   UNL A   1      40.992  24.158  26.011  1.00  0.00    -0.352 N 
ATOM     30  C   UNL A   1      41.425  25.459  25.971  1.00  0.00     0.251 C 
ATOM     31  H   UNL A   1      41.276  23.607  25.246  1.00  0.00     0.163 HD
ATOM     32  O   UNL A   1      41.991  25.866  24.958  1.00  0.00    -0.269 OA
BRANCH  30  33
ATOM     33  C   UNL A   1      41.254  26.375  27.124  1.00  0.00     0.039 A 
ATOM     34  C   UNL A   1      40.206  26.126  28.016  1.00  0.00     0.014 A 
ATOM     35  C   UNL A   1      42.042  27.517  27.293  1.00  0.00     0.014 A 
ATOM     36  C   UNL A   1      39.980  26.993  29.087  1.00  0.00     0.010 A 
ATOM     37  C   UNL A   1      41.857  28.349  28.392  1.00  0.00     0.010 A 
ATOM     38  C   UNL A   1      40.821  28.098  29.295  1.00  0.00    -0.014 A 
BRANCH  38  39
ATOM     39  C   UNL A   1      40.662  28.969  30.482  1.00  0.00     0.031 A 
ATOM     40  C   UNL A   1      41.511  28.767  31.705  1.00  0.00     0.074 A 
ATOM     41  C   UNL A   1      39.686  29.897  30.469  1.00  0.00     0.049 A 
ATOM     42  N   UNL A   1      41.507  29.438  32.828  1.00  0.00    -0.248 NA
ATOM     43  C   UNL A   1      42.474  27.654  31.676  1.00  0.00     0.031 C 
ATOM     44  C   UNL A   1      38.749  30.117  29.364  1.00  0.00     0.029 A 
ATOM     45  N   UNL A   1      39.313  30.820  31.409  1.00  0.00    -0.354 N 
ATOM     46  C   UNL A   1      42.462  28.835  33.637  1.00  0.00     0.074 A 
ATOM     47  C   UNL A   1      42.985  27.705  32.899  1.00  0.00     0.031 C 
ATOM     48  C   UNL A   1      37.931  31.132  29.677  1.00  0.00     0.029 A 
ATOM     49  C   UNL A   1      38.262  31.612  31.014  1.00  0.00     0.049 A 
ATOM     50  H   UNL A   1      39.756  30.908  32.284  1.00  0.00     0.167 HD
ATOM     51  C   UNL A   1      42.880  29.206  34.871  1.00  0.00     0.037 A 
ATOM     52  C   UNL A   1      37.636  32.615  31.658  1.00  0.00     0.037 A 
ATOM     53  C   UNL A   1      42.345  30.335  35.591  1.00  0.00     0.049 A 
ATOM     54  C   UNL A   1      38.127  33.017  33.021  1.00  0.00     0.074 A 
ATOM     55  C   UNL A   1      42.737  30.837  36.820  1.00  0.00     0.029 A 
ATOM     56  N   UNL A   1      41.297  31.133  35.151  1.00  0.00    -0.354 N 
ATOM     57  N   UNL A   1      39.097  32.495  33.735  1.00  0.00    -0.248 NA
ATOM     58  C   UNL A   1      37.450  34.151  33.660  1.00  0.00     0.031 C 
ATOM     59  C   UNL A   1      41.890  31.902  37.148  1.00  0.00     0.029 A 
ATOM     60  C   UNL A   1      41.012  32.106  36.096  1.00  0.00     0.049 A 
ATOM     61  H   UNL A   1      40.825  31.023  34.295  1.00  0.00     0.167 HD
ATOM     62  C   UNL A   1      39.166  33.257  34.896  1.00  0.00     0.074 A 
ATOM     63  C   UNL A   1      38.152  34.286  34.777  1.00  0.00     0.031 C 
ATOM     64  C   UNL A   1      39.994  33.121  35.963  1.00  0.00     0.037 A 
BRANCH  51  65
ATOM     65  C   UNL A   1      43.969  28.392  35.520  1.00  0.00     0.058 A 
ATOM     66  C   UNL A   1      43.676  27.314  36.372  1.00  0.00     0.135 A 
ATOM     67  C   UNL A   1      45.321  28.657  35.248  1.00  0.00     0.135 A 
ATOM     68  F   UNL A   1      42.402  27.020  36.678  1.00  0.00    -0.206 F 
ATOM     69  C   UNL A   1      44.682  26.548  36.953  1.00  0.00     0.059 A 
ATOM     70  C   UNL A   1      46.344  27.885  35.793  1.00  0.00     0.059 A 
ATOM     71  F   UNL A   1      45.662  29.674  34.441  1.00  0.00    -0.206 F 
ATOM     72  C   UNL A   1      46.014  26.839  36.655  1.00  0.00     0.060 A 
BRANCH  72  73
ATOM     73  S   UNL A   1      47.306  25.824  37.403  1.00  0.00     0.124 S 
ATOM     74  O   UNL A   1      48.109  26.833  38.087  1.00  0.00    -0.237 OA
ATOM     75  O   UNL A   1      46.538  24.933  38.268  1.00  0.00    -0.237 OA
ATOM     76  O   UNL A   1      47.944  25.185  36.258  1.00  0.00    -0.744 OA
ENDBRANCH  72  73
ENDBRANCH  51  65
BRANCH  52  77
ATOM     77  C   UNL A   1      36.512  33.331  31.000  1.00  0.00     0.058 A 
ATOM     78  C   UNL A   1      36.734  34.162  29.892  1.00  0.00     0.135 A 
ATOM     79  C   UNL A   1      35.190  33.179  31.448  1.00  0.00     0.135 A 
ATOM     80  F   UNL A   1      37.979  34.337  29.425  1.00  0.00    -0.206 F 
ATOM     81  C   UNL A   1      35.692  34.836  29.266  1.00  0.00     0.059 A 
ATOM     82  C   UNL A   1      34.128  33.820  30.821  1.00  0.00     0.059 A 
ATOM     83  F   UNL A   1      34.921  32.375  32.489  1.00  0.00    -0.206 F 
ATOM     84  C   UNL A   1      34.390  34.656  29.737  1.00  0.00     0.060 A 
BRANCH  84  85
ATOM     85  S   UNL A   1      33.040  35.503  28.890  1.00  0.00     0.124 S 
ATOM     86  O   UNL A   1      32.244  35.984  30.013  1.00  0.00    -0.237 OA
ATOM     87  O   UNL A   1      33.751  36.524  28.127  1.00  0.00    -0.237 OA
ATOM     88  O   UNL A   1      32.429  34.446  28.090  1.00  0.00    -0.744 OA
ENDBRANCH  84  85
ENDBRANCH  52  77
BRANCH  64  89
ATOM     89  C   UNL A   1      39.856  34.131  37.069  1.00  0.00     0.058 A 
ATOM     90  C   UNL A   1      39.080  33.878  38.213  1.00  0.00     0.135 A 
ATOM     91  C   UNL A   1      40.526  35.363  36.993  1.00  0.00     0.135 A 
ATOM     92  F   UNL A   1      38.414  32.719  38.335  1.00  0.00    -0.206 F 
ATOM     93  C   UNL A   1      38.937  34.828  39.219  1.00  0.00     0.059 A 
ATOM     94  C   UNL A   1      40.426  36.313  38.004  1.00  0.00     0.059 A 
ATOM     95  F   UNL A   1      41.292  35.652  35.929  1.00  0.00    -0.206 F 
ATOM     96  C   UNL A   1      39.614  36.044  39.104  1.00  0.00     0.060 A 
BRANCH  96  97
ATOM     97  S   UNL A   1      39.424  37.266  40.419  1.00  0.00     0.124 S 
ATOM     98  O   UNL A   1      40.812  37.620  40.694  1.00  0.00    -0.237 OA
ATOM     99  O   UNL A   1      38.622  38.299  39.771  1.00  0.00    -0.237 OA
ATOM    100  O   UNL A   1      38.744  36.524  41.477  1.00  0.00    -0.744 OA
ENDBRANCH  96  97
ENDBRANCH  64  89
ENDBRANCH  38  39
ENDBRANCH  30  33
ENDBRANCH  28  29
ENDBRANCH  27  28
ENDBRANCH   1  27
TORSDOF 19
ENDMDL
