MODEL 1
REMARK VINA RESULT:     -12.2      0.000      0.000
REMARK SMILES O=C(NCCCNC(=O)[C@H](NC(=O)c1ccc(Br)nc1)c1ccccc1)c1ccc(-c2c3nc(c(-c4c(F)cc(S(=O)(=O)[O-])cc4F)c4ccc([nH]4)c(-c4c(F)cc(S(=O)(=O)[O-])cc4F)c4nc(c(-c5c(F)cc(S(=O)(=O)[O-])cc5F)c5ccc2[nH]5)C=C4)C=C3)cc1
REMARK SMILES IDX 4 1 3 2 1 3 2 4 27 6 28 7 92 8 29 9 91 10 30 11 31 12 32 13
REMARK SMILES IDX 85 14 33 15 90 16 84 17 86 18 34 19 89 20 83 21 82 22 35 24
REMARK SMILES IDX 69 25 48 26 68 27 49 28 52 29 67 30 87 31 50 32 51 33 66 35
REMARK SMILES IDX 88 36 53 37 36 38 37 39 46 40 38 41 39 42 45 43 47 44 40 45
REMARK SMILES IDX 41 46 42 47 43 48 44 49 70 50 71 51 80 52 72 53 73 54 79 55
REMARK SMILES IDX 81 56 74 57 75 58 76 59 77 60 78 61 54 62 55 63 64 64 56 65
REMARK SMILES IDX 57 66 63 67 65 68 58 69 59 70 60 71 61 72 62 73 5 74 6 75
REMARK SMILES IDX 7 76 8 77 9 79 10 80 21 81 22 82 26 83 23 84 25 85 24 86
REMARK SMILES IDX 11 87 12 88 13 90 14 91 15 92 20 93 16 94 19 95 17 96 18 97
REMARK H PARENT 3 5 86 23 52 34 7 78 11 89
REMARK Flexibility Score: inf
ROOT
ATOM      1  C   UNL A   1      35.210  29.352  27.566  1.00  0.00     0.118 C 
ENDROOT
BRANCH   1   2
ATOM      2  N   UNL A   1      35.271  30.006  28.864  1.00  0.00    -0.352 N 
ATOM      3  O   UNL A   1      36.070  30.605  30.870  1.00  0.00    -0.269 OA
ATOM      4  C   UNL A   1      36.316  30.194  29.739  1.00  0.00     0.251 C 
ATOM      5  H   UNL A   1      34.413  30.381  29.171  1.00  0.00     0.163 HD
BRANCH   4   6
ATOM      6  C   UNL A   1      37.716  29.887  29.354  1.00  0.00     0.039 A 
ATOM      7  C   UNL A   1      38.143  29.956  28.029  1.00  0.00     0.014 A 
ATOM      8  C   UNL A   1      38.644  29.569  30.354  1.00  0.00     0.014 A 
ATOM      9  C   UNL A   1      39.418  29.523  27.681  1.00  0.00     0.010 A 
ATOM     10  C   UNL A   1      39.967  29.257  30.014  1.00  0.00     0.010 A 
ATOM     11  C   UNL A   1      40.357  29.188  28.668  1.00  0.00    -0.014 A 
BRANCH  11  12
ATOM     12  C   UNL A   1      41.740  28.819  28.261  1.00  0.00     0.031 A 
ATOM     13  C   UNL A   1      42.854  29.834  28.271  1.00  0.00     0.074 A 
ATOM     14  C   UNL A   1      41.999  27.540  27.917  1.00  0.00     0.049 A 
ATOM     15  N   UNL A   1      44.122  29.669  27.985  1.00  0.00    -0.248 NA
ATOM     16  C   UNL A   1      42.503  31.214  28.637  1.00  0.00     0.031 C 
ATOM     17  C   UNL A   1      41.002  26.467  27.853  1.00  0.00     0.029 A 
ATOM     18  N   UNL A   1      43.173  26.914  27.581  1.00  0.00    -0.354 N 
ATOM     19  C   UNL A   1      44.712  30.921  28.110  1.00  0.00     0.074 A 
ATOM     20  C   UNL A   1      43.657  31.846  28.470  1.00  0.00     0.031 C 
ATOM     21  C   UNL A   1      41.614  25.310  27.563  1.00  0.00     0.029 A 
ATOM     22  C   UNL A   1      43.032  25.567  27.346  1.00  0.00     0.049 A 
ATOM     23  H   UNL A   1      44.035  27.387  27.514  1.00  0.00     0.167 HD
ATOM     24  C   UNL A   1      46.013  31.268  27.948  1.00  0.00     0.037 A 
ATOM     25  C   UNL A   1      43.936  24.638  26.983  1.00  0.00     0.037 A 
ATOM     26  C   UNL A   1      47.059  30.337  27.606  1.00  0.00     0.049 A 
ATOM     27  C   UNL A   1      45.368  25.052  26.796  1.00  0.00     0.074 A 
ATOM     28  C   UNL A   1      48.414  30.581  27.459  1.00  0.00     0.029 A 
ATOM     29  N   UNL A   1      46.870  28.985  27.351  1.00  0.00    -0.354 N 
ATOM     30  N   UNL A   1      45.911  26.235  26.956  1.00  0.00    -0.248 NA
ATOM     31  C   UNL A   1      46.310  24.006  26.380  1.00  0.00     0.031 C 
ATOM     32  C   UNL A   1      49.034  29.392  27.059  1.00  0.00     0.029 A 
ATOM     33  C   UNL A   1      48.079  28.389  27.024  1.00  0.00     0.049 A 
ATOM     34  H   UNL A   1      46.005  28.519  27.395  1.00  0.00     0.167 HD
ATOM     35  C   UNL A   1      47.266  26.069  26.694  1.00  0.00     0.074 A 
ATOM     36  C   UNL A   1      47.459  24.669  26.376  1.00  0.00     0.031 C 
ATOM     37  C   UNL A   1      48.260  26.991  26.718  1.00  0.00     0.037 A 
BRANCH  24  38
ATOM     38  C   UNL A   1      46.380  32.721  28.111  1.00  0.00     0.058 A 
ATOM     39  C   UNL A   1      46.879  33.234  29.319  1.00  0.00     0.135 A 
ATOM     40  C   UNL A   1      46.269  33.607  27.026  1.00  0.00     0.135 A 
ATOM     41  F   UNL A   1      46.995  32.439  30.396  1.00  0.00    -0.206 F 
ATOM     42  C   UNL A   1      47.223  34.575  29.455  1.00  0.00     0.059 A 
ATOM     43  C   UNL A   1      46.636  34.945  27.130  1.00  0.00     0.059 A 
ATOM     44  F   UNL A   1      45.801  33.172  25.845  1.00  0.00    -0.206 F 
ATOM     45  C   UNL A   1      47.098  35.424  28.354  1.00  0.00     0.060 A 
BRANCH  45  46
ATOM     46  S   UNL A   1      47.544  37.163  28.550  1.00  0.00     0.124 S 
ATOM     47  O   UNL A   1      48.947  37.148  28.146  1.00  0.00    -0.237 OA
ATOM     48  O   UNL A   1      46.628  37.825  27.628  1.00  0.00    -0.237 OA
ATOM     49  O   UNL A   1      47.301  37.420  29.965  1.00  0.00    -0.744 OA
ENDBRANCH  45  46
ENDBRANCH  24  38
BRANCH  25  50
ATOM     50  C   UNL A   1      43.512  23.226  26.782  1.00  0.00     0.058 A 
ATOM     51  C   UNL A   1      43.443  22.666  25.498  1.00  0.00     0.135 A 
ATOM     52  C   UNL A   1      43.184  22.403  27.872  1.00  0.00     0.135 A 
ATOM     53  F   UNL A   1      43.742  23.412  24.425  1.00  0.00    -0.206 F 
ATOM     54  C   UNL A   1      43.045  21.348  25.299  1.00  0.00     0.059 A 
ATOM     55  C   UNL A   1      42.816  21.073  27.701  1.00  0.00     0.059 A 
ATOM     56  F   UNL A   1      43.253  22.884  29.123  1.00  0.00    -0.206 F 
ATOM     57  C   UNL A   1      42.737  20.558  26.408  1.00  0.00     0.060 A 
BRANCH  57  58
ATOM     58  S   UNL A   1      42.264  18.837  26.140  1.00  0.00     0.124 S 
ATOM     59  O   UNL A   1      43.231  18.421  25.130  1.00  0.00    -0.237 OA
ATOM     60  O   UNL A   1      42.440  18.262  27.470  1.00  0.00    -0.237 OA
ATOM     61  O   UNL A   1      40.880  18.936  25.687  1.00  0.00    -0.744 OA
ENDBRANCH  57  58
ENDBRANCH  25  50
BRANCH  37  62
ATOM     62  C   UNL A   1      49.658  26.503  26.452  1.00  0.00     0.058 A 
ATOM     63  C   UNL A   1      50.213  26.495  25.162  1.00  0.00     0.135 A 
ATOM     64  C   UNL A   1      50.463  26.058  27.514  1.00  0.00     0.135 A 
ATOM     65  F   UNL A   1      49.486  26.904  24.111  1.00  0.00    -0.206 F 
ATOM     66  C   UNL A   1      51.503  26.026  24.929  1.00  0.00     0.059 A 
ATOM     67  C   UNL A   1      51.766  25.617  27.309  1.00  0.00     0.059 A 
ATOM     68  F   UNL A   1      49.986  26.055  28.769  1.00  0.00    -0.206 F 
ATOM     69  C   UNL A   1      52.271  25.587  26.011  1.00  0.00     0.060 A 
BRANCH  69  70
ATOM     70  S   UNL A   1      53.946  24.991  25.698  1.00  0.00     0.124 S 
ATOM     71  O   UNL A   1      54.608  25.304  26.959  1.00  0.00    -0.237 OA
ATOM     72  O   UNL A   1      53.727  23.573  25.432  1.00  0.00    -0.237 OA
ATOM     73  O   UNL A   1      54.377  25.780  24.548  1.00  0.00    -0.744 OA
ENDBRANCH  69  70
ENDBRANCH  37  62
ENDBRANCH  11  12
ENDBRANCH   4   6
ENDBRANCH   1   2
BRANCH   1  74
ATOM     74  C   UNL A   1      33.791  29.017  27.144  1.00  0.00     0.042 C 
BRANCH  74  75
ATOM     75  C   UNL A   1      33.616  27.627  26.544  1.00  0.00     0.117 C 
BRANCH  75  76
ATOM     76  N   UNL A   1      33.546  27.652  25.091  1.00  0.00    -0.354 N 
ATOM     77  C   UNL A   1      33.445  26.643  24.172  1.00  0.00     0.247 C 
ATOM     78  H   UNL A   1      33.576  28.554  24.700  1.00  0.00     0.163 HD
ATOM     79  O   UNL A   1      33.587  26.963  22.985  1.00  0.00    -0.272 OA
BRANCH  77  80
ATOM     80  C   UNL A   1      33.251  25.147  24.567  1.00  0.00     0.202 C 
BRANCH  80  81
ATOM     81  C   UNL A   1      34.566  24.388  24.505  1.00  0.00    -0.016 A 
ATOM     82  C   UNL A   1      35.534  24.471  25.517  1.00  0.00     0.006 A 
ATOM     83  C   UNL A   1      34.828  23.552  23.404  1.00  0.00     0.006 A 
ATOM     84  C   UNL A   1      36.717  23.736  25.447  1.00  0.00     0.000 A 
ATOM     85  C   UNL A   1      36.003  22.802  23.343  1.00  0.00     0.000 A 
ATOM     86  C   UNL A   1      36.946  22.893  24.363  1.00  0.00     0.000 A 
ENDBRANCH  80  81
BRANCH  80  87
ATOM     87  N   UNL A   1      32.500  24.988  25.819  1.00  0.00    -0.336 N 
ATOM     88  C   UNL A   1      32.016  23.850  26.417  1.00  0.00     0.253 C 
ATOM     89  H   UNL A   1      32.316  25.824  26.303  1.00  0.00     0.165 HD
ATOM     90  O   UNL A   1      31.165  23.947  27.297  1.00  0.00    -0.269 OA
BRANCH  88  91
ATOM     91  C   UNL A   1      32.446  22.508  25.989  1.00  0.00     0.058 A 
ATOM     92  C   UNL A   1      33.437  21.785  26.644  1.00  0.00     0.018 A 
ATOM     93  C   UNL A   1      31.783  21.885  24.945  1.00  0.00     0.126 A 
ATOM     94  C   UNL A   1      33.836  20.547  26.147  1.00  0.00     0.037 A 
ATOM     95  N   UNL A   1      32.126  20.667  24.453  1.00  0.00    -0.249 NA
ATOM     96  C   UNL A   1      33.163  20.035  25.052  1.00  0.00     0.106 A 
ATOM     97  Br  UNL A   1      33.705  18.358  24.352  1.00  0.00    -0.029 Br
ENDBRANCH  88  91
ENDBRANCH  80  87
ENDBRANCH  77  80
ENDBRANCH  75  76
ENDBRANCH  74  75
ENDBRANCH   1  74
TORSDOF 16
ENDMDL
MODEL 2
REMARK VINA RESULT:     -12.1      6.877     12.143
REMARK SMILES O=C(NCCCNC(=O)[C@H](NC(=O)c1ccc(Br)nc1)c1ccccc1)c1ccc(-c2c3nc(c(-c4c(F)cc(S(=O)(=O)[O-])cc4F)c4ccc([nH]4)c(-c4c(F)cc(S(=O)(=O)[O-])cc4F)c4nc(c(-c5c(F)cc(S(=O)(=O)[O-])cc5F)c5ccc2[nH]5)C=C4)C=C3)cc1
REMARK SMILES IDX 4 1 3 2 1 3 2 4 27 6 28 7 92 8 29 9 91 10 30 11 31 12 32 13
REMARK SMILES IDX 85 14 33 15 90 16 84 17 86 18 34 19 89 20 83 21 82 22 35 24
REMARK SMILES IDX 69 25 48 26 68 27 49 28 52 29 67 30 87 31 50 32 51 33 66 35
REMARK SMILES IDX 88 36 53 37 36 38 37 39 46 40 38 41 39 42 45 43 47 44 40 45
REMARK SMILES IDX 41 46 42 47 43 48 44 49 70 50 71 51 80 52 72 53 73 54 79 55
REMARK SMILES IDX 81 56 74 57 75 58 76 59 77 60 78 61 54 62 55 63 64 64 56 65
REMARK SMILES IDX 57 66 63 67 65 68 58 69 59 70 60 71 61 72 62 73 5 74 6 75
REMARK SMILES IDX 7 76 8 77 9 79 10 80 21 81 22 82 26 83 23 84 25 85 24 86
REMARK SMILES IDX 11 87 12 88 13 90 14 91 15 92 20 93 16 94 19 95 17 96 18 97
REMARK H PARENT 3 5 86 23 52 34 7 78 11 89
REMARK Flexibility Score: inf
ROOT
ATOM      1  C   UNL A   1      38.215  24.223  26.324  1.00  0.00     0.118 C 
ENDROOT
BRANCH   1   2
ATOM      2  N   UNL A   1      39.640  24.130  26.051  1.00  0.00    -0.352 N 
ATOM      3  O   UNL A   1      41.799  24.724  25.975  1.00  0.00    -0.269 OA
ATOM      4  C   UNL A   1      40.704  24.871  26.511  1.00  0.00     0.251 C 
ATOM      5  H   UNL A   1      39.888  23.408  25.428  1.00  0.00     0.163 HD
BRANCH   4   6
ATOM      6  C   UNL A   1      40.548  25.855  27.611  1.00  0.00     0.039 A 
ATOM      7  C   UNL A   1      41.327  27.009  27.677  1.00  0.00     0.014 A 
ATOM      8  C   UNL A   1      39.559  25.644  28.579  1.00  0.00     0.014 A 
ATOM      9  C   UNL A   1      41.259  27.837  28.793  1.00  0.00     0.010 A 
ATOM     10  C   UNL A   1      39.403  26.549  29.637  1.00  0.00     0.010 A 
ATOM     11  C   UNL A   1      40.283  27.632  29.780  1.00  0.00    -0.014 A 
BRANCH  11  12
ATOM     12  C   UNL A   1      40.181  28.593  30.912  1.00  0.00     0.031 A 
ATOM     13  C   UNL A   1      41.102  28.499  32.102  1.00  0.00     0.074 A 
ATOM     14  C   UNL A   1      39.270  29.587  30.844  1.00  0.00     0.049 A 
ATOM     15  N   UNL A   1      41.172  29.278  33.152  1.00  0.00    -0.248 NA
ATOM     16  C   UNL A   1      42.058  27.382  32.125  1.00  0.00     0.031 C 
ATOM     17  C   UNL A   1      38.311  29.776  29.752  1.00  0.00     0.029 A 
ATOM     18  N   UNL A   1      39.013  30.636  31.689  1.00  0.00    -0.354 N 
ATOM     19  C   UNL A   1      42.158  28.735  33.970  1.00  0.00     0.074 A 
ATOM     20  C   UNL A   1      42.638  27.541  33.307  1.00  0.00     0.031 C 
ATOM     21  C   UNL A   1      37.618  30.903  29.961  1.00  0.00     0.029 A 
ATOM     22  C   UNL A   1      38.026  31.480  31.235  1.00  0.00     0.049 A 
ATOM     23  H   UNL A   1      39.491  30.773  32.540  1.00  0.00     0.167 HD
ATOM     24  C   UNL A   1      42.624  29.193  35.157  1.00  0.00     0.037 A 
ATOM     25  C   UNL A   1      37.495  32.588  31.786  1.00  0.00     0.037 A 
ATOM     26  C   UNL A   1      42.150  30.393  35.801  1.00  0.00     0.049 A 
ATOM     27  C   UNL A   1      38.020  33.065  33.109  1.00  0.00     0.074 A 
ATOM     28  C   UNL A   1      42.586  30.964  36.985  1.00  0.00     0.029 A 
ATOM     29  N   UNL A   1      41.131  31.205  35.322  1.00  0.00    -0.354 N 
ATOM     30  N   UNL A   1      38.978  32.557  33.847  1.00  0.00    -0.248 NA
ATOM     31  C   UNL A   1      37.394  34.266  33.676  1.00  0.00     0.031 C 
ATOM     32  C   UNL A   1      41.794  32.086  37.251  1.00  0.00     0.029 A 
ATOM     33  C   UNL A   1      40.909  32.256  36.198  1.00  0.00     0.049 A 
ATOM     34  H   UNL A   1      40.639  31.055  34.483  1.00  0.00     0.167 HD
ATOM     35  C   UNL A   1      39.094  33.396  34.949  1.00  0.00     0.074 A 
ATOM     36  C   UNL A   1      38.114  34.449  34.774  1.00  0.00     0.031 C 
ATOM     37  C   UNL A   1      39.936  33.305  36.008  1.00  0.00     0.037 A 
BRANCH  24  38
ATOM     38  C   UNL A   1      43.684  28.382  35.858  1.00  0.00     0.058 A 
ATOM     39  C   UNL A   1      45.053  28.646  35.697  1.00  0.00     0.135 A 
ATOM     40  C   UNL A   1      43.320  27.348  36.738  1.00  0.00     0.135 A 
ATOM     41  F   UNL A   1      45.463  29.613  34.859  1.00  0.00    -0.206 F 
ATOM     42  C   UNL A   1      46.023  27.896  36.356  1.00  0.00     0.059 A 
ATOM     43  C   UNL A   1      44.272  26.605  37.431  1.00  0.00     0.059 A 
ATOM     44  F   UNL A   1      42.026  27.052  36.934  1.00  0.00    -0.206 F 
ATOM     45  C   UNL A   1      45.622  26.876  37.221  1.00  0.00     0.060 A 
BRANCH  45  46
ATOM     46  S   UNL A   1      46.894  25.910  38.064  1.00  0.00     0.124 S 
ATOM     47  O   UNL A   1      47.906  26.929  38.323  1.00  0.00    -0.237 OA
ATOM     48  O   UNL A   1      46.181  25.414  39.237  1.00  0.00    -0.237 OA
ATOM     49  O   UNL A   1      47.260  24.897  37.080  1.00  0.00    -0.744 OA
ENDBRANCH  45  46
ENDBRANCH  24  38
BRANCH  25  50
ATOM     50  C   UNL A   1      36.412  33.323  31.078  1.00  0.00     0.058 A 
ATOM     51  C   UNL A   1      36.677  34.063  29.917  1.00  0.00     0.135 A 
ATOM     52  C   UNL A   1      35.086  33.287  31.541  1.00  0.00     0.135 A 
ATOM     53  F   UNL A   1      37.928  34.132  29.437  1.00  0.00    -0.206 F 
ATOM     54  C   UNL A   1      35.673  34.756  29.250  1.00  0.00     0.059 A 
ATOM     55  C   UNL A   1      34.059  33.944  30.873  1.00  0.00     0.059 A 
ATOM     56  F   UNL A   1      34.775  32.579  32.638  1.00  0.00    -0.206 F 
ATOM     57  C   UNL A   1      34.365  34.688  29.734  1.00  0.00     0.060 A 
BRANCH  57  58
ATOM     58  S   UNL A   1      33.063  35.556  28.835  1.00  0.00     0.124 S 
ATOM     59  O   UNL A   1      32.476  34.475  28.052  1.00  0.00    -0.237 OA
ATOM     60  O   UNL A   1      32.240  36.080  29.921  1.00  0.00    -0.237 OA
ATOM     61  O   UNL A   1      33.796  36.563  28.073  1.00  0.00    -0.744 OA
ENDBRANCH  57  58
ENDBRANCH  25  50
BRANCH  37  62
ATOM     62  C   UNL A   1      39.879  34.407  37.031  1.00  0.00     0.058 A 
ATOM     63  C   UNL A   1      40.647  35.576  36.913  1.00  0.00     0.135 A 
ATOM     64  C   UNL A   1      39.019  34.297  38.136  1.00  0.00     0.135 A 
ATOM     65  F   UNL A   1      41.490  35.729  35.880  1.00  0.00    -0.206 F 
ATOM     66  C   UNL A   1      40.594  36.580  37.875  1.00  0.00     0.059 A 
ATOM     67  C   UNL A   1      38.925  35.303  39.092  1.00  0.00     0.059 A 
ATOM     68  F   UNL A   1      38.252  33.205  38.292  1.00  0.00    -0.206 F 
ATOM     69  C   UNL A   1      39.730  36.433  38.963  1.00  0.00     0.060 A 
BRANCH  69  70
ATOM     70  S   UNL A   1      39.662  37.746  40.199  1.00  0.00     0.124 S 
ATOM     71  O   UNL A   1      41.029  38.253  40.164  1.00  0.00    -0.237 OA
ATOM     72  O   UNL A   1      38.641  38.635  39.654  1.00  0.00    -0.237 OA
ATOM     73  O   UNL A   1      39.284  37.042  41.421  1.00  0.00    -0.744 OA
ENDBRANCH  69  70
ENDBRANCH  37  62
ENDBRANCH  11  12
ENDBRANCH   4   6
ENDBRANCH   1   2
BRANCH   1  74
ATOM     74  C   UNL A   1      37.391  23.272  25.476  1.00  0.00     0.042 C 
BRANCH  74  75
ATOM     75  C   UNL A   1      35.882  23.417  25.637  1.00  0.00     0.117 C 
BRANCH  75  76
ATOM     76  N   UNL A   1      35.338  22.505  26.632  1.00  0.00    -0.354 N 
ATOM     77  C   UNL A   1      34.096  21.947  26.765  1.00  0.00     0.247 C 
ATOM     78  H   UNL A   1      35.977  22.244  27.334  1.00  0.00     0.163 HD
ATOM     79  O   UNL A   1      33.873  21.345  27.824  1.00  0.00    -0.272 OA
BRANCH  77  80
ATOM     80  C   UNL A   1      32.967  22.116  25.702  1.00  0.00     0.202 C 
BRANCH  80  81
ATOM     81  C   UNL A   1      32.769  20.838  24.905  1.00  0.00    -0.016 A 
ATOM     82  C   UNL A   1      32.417  20.843  23.546  1.00  0.00     0.006 A 
ATOM     83  C   UNL A   1      32.961  19.596  25.535  1.00  0.00     0.006 A 
ATOM     84  C   UNL A   1      32.274  19.653  22.832  1.00  0.00     0.000 A 
ATOM     85  C   UNL A   1      32.837  18.405  24.816  1.00  0.00     0.000 A 
ATOM     86  C   UNL A   1      32.495  18.434  23.467  1.00  0.00     0.000 A 
ENDBRANCH  80  81
BRANCH  80  87
ATOM     87  N   UNL A   1      31.741  22.691  26.269  1.00  0.00    -0.336 N 
ATOM     88  C   UNL A   1      31.331  24.000  26.333  1.00  0.00     0.253 C 
ATOM     89  H   UNL A   1      31.119  22.039  26.663  1.00  0.00     0.165 HD
ATOM     90  O   UNL A   1      30.424  24.311  27.102  1.00  0.00    -0.269 OA
BRANCH  88  91
ATOM     91  C   UNL A   1      31.989  25.057  25.547  1.00  0.00     0.058 A 
ATOM     92  C   UNL A   1      33.163  25.682  25.951  1.00  0.00     0.018 A 
ATOM     93  C   UNL A   1      31.479  25.394  24.304  1.00  0.00     0.126 A 
ATOM     94  C   UNL A   1      33.697  26.717  25.187  1.00  0.00     0.037 A 
ATOM     95  N   UNL A   1      31.991  26.377  23.519  1.00  0.00    -0.249 NA
ATOM     96  C   UNL A   1      33.077  27.033  23.991  1.00  0.00     0.106 A 
ATOM     97  Br  UNL A   1      33.781  28.451  22.948  1.00  0.00    -0.029 Br
ENDBRANCH  88  91
ENDBRANCH  80  87
ENDBRANCH  77  80
ENDBRANCH  75  76
ENDBRANCH  74  75
ENDBRANCH   1  74
TORSDOF 16
ENDMDL
MODEL 3
REMARK VINA RESULT:     -12.1      6.964     12.328
REMARK SMILES O=C(NCCCNC(=O)[C@H](NC(=O)c1ccc(Br)nc1)c1ccccc1)c1ccc(-c2c3nc(c(-c4c(F)cc(S(=O)(=O)[O-])cc4F)c4ccc([nH]4)c(-c4c(F)cc(S(=O)(=O)[O-])cc4F)c4nc(c(-c5c(F)cc(S(=O)(=O)[O-])cc5F)c5ccc2[nH]5)C=C4)C=C3)cc1
REMARK SMILES IDX 4 1 3 2 1 3 2 4 27 6 28 7 92 8 29 9 91 10 30 11 31 12 32 13
REMARK SMILES IDX 85 14 33 15 90 16 84 17 86 18 34 19 89 20 83 21 82 22 35 24
REMARK SMILES IDX 69 25 48 26 68 27 49 28 52 29 67 30 87 31 50 32 51 33 66 35
REMARK SMILES IDX 88 36 53 37 36 38 37 39 46 40 38 41 39 42 45 43 47 44 40 45
REMARK SMILES IDX 41 46 42 47 43 48 44 49 70 50 71 51 80 52 72 53 73 54 79 55
REMARK SMILES IDX 81 56 74 57 75 58 76 59 77 60 78 61 54 62 55 63 64 64 56 65
REMARK SMILES IDX 57 66 63 67 65 68 58 69 59 70 60 71 61 72 62 73 5 74 6 75
REMARK SMILES IDX 7 76 8 77 9 79 10 80 21 81 22 82 26 83 23 84 25 85 24 86
REMARK SMILES IDX 11 87 12 88 13 90 14 91 15 92 20 93 16 94 19 95 17 96 18 97
REMARK H PARENT 3 5 86 23 52 34 7 78 11 89
REMARK Flexibility Score: inf
ROOT
ATOM      1  C   UNL A   1      38.238  24.052  26.516  1.00  0.00     0.118 C 
ENDROOT
BRANCH   1   2
ATOM      2  N   UNL A   1      39.628  24.132  26.095  1.00  0.00    -0.352 N 
ATOM      3  O   UNL A   1      41.677  24.987  25.795  1.00  0.00    -0.269 OA
ATOM      4  C   UNL A   1      40.634  25.004  26.443  1.00  0.00     0.251 C 
ATOM      5  H   UNL A   1      39.897  23.440  25.448  1.00  0.00     0.163 HD
BRANCH   4   6
ATOM      6  C   UNL A   1      40.472  25.973  27.555  1.00  0.00     0.039 A 
ATOM      7  C   UNL A   1      41.139  27.197  27.562  1.00  0.00     0.014 A 
ATOM      8  C   UNL A   1      39.589  25.672  28.599  1.00  0.00     0.014 A 
ATOM      9  C   UNL A   1      41.081  28.020  28.682  1.00  0.00     0.010 A 
ATOM     10  C   UNL A   1      39.432  26.562  29.669  1.00  0.00     0.010 A 
ATOM     11  C   UNL A   1      40.212  27.726  29.743  1.00  0.00    -0.014 A 
BRANCH  11  12
ATOM     12  C   UNL A   1      40.109  28.678  30.884  1.00  0.00     0.031 A 
ATOM     13  C   UNL A   1      41.031  28.577  32.072  1.00  0.00     0.074 A 
ATOM     14  C   UNL A   1      39.195  29.670  30.825  1.00  0.00     0.049 A 
ATOM     15  N   UNL A   1      41.101  29.348  33.128  1.00  0.00    -0.248 NA
ATOM     16  C   UNL A   1      41.990  27.462  32.085  1.00  0.00     0.031 C 
ATOM     17  C   UNL A   1      38.234  29.865  29.735  1.00  0.00     0.029 A 
ATOM     18  N   UNL A   1      38.937  30.712  31.678  1.00  0.00    -0.354 N 
ATOM     19  C   UNL A   1      42.088  28.801  33.940  1.00  0.00     0.074 A 
ATOM     20  C   UNL A   1      42.571  27.613  33.268  1.00  0.00     0.031 C 
ATOM     21  C   UNL A   1      37.539  30.989  29.954  1.00  0.00     0.029 A 
ATOM     22  C   UNL A   1      37.947  31.557  31.232  1.00  0.00     0.049 A 
ATOM     23  H   UNL A   1      39.415  30.843  32.529  1.00  0.00     0.167 HD
ATOM     24  C   UNL A   1      42.554  29.250  35.131  1.00  0.00     0.037 A 
ATOM     25  C   UNL A   1      37.414  32.659  31.791  1.00  0.00     0.037 A 
ATOM     26  C   UNL A   1      42.079  30.444  35.785  1.00  0.00     0.049 A 
ATOM     27  C   UNL A   1      37.940  33.127  33.118  1.00  0.00     0.074 A 
ATOM     28  C   UNL A   1      42.514  31.007  36.973  1.00  0.00     0.029 A 
ATOM     29  N   UNL A   1      41.057  31.257  35.313  1.00  0.00    -0.354 N 
ATOM     30  N   UNL A   1      38.900  32.616  33.851  1.00  0.00    -0.248 NA
ATOM     31  C   UNL A   1      37.311  34.322  33.695  1.00  0.00     0.031 C 
ATOM     32  C   UNL A   1      41.720  32.124  37.248  1.00  0.00     0.029 A 
ATOM     33  C   UNL A   1      40.833  32.301  36.198  1.00  0.00     0.049 A 
ATOM     34  H   UNL A   1      40.564  31.113  34.474  1.00  0.00     0.167 HD
ATOM     35  C   UNL A   1      39.014  33.446  34.960  1.00  0.00     0.074 A 
ATOM     36  C   UNL A   1      38.032  34.499  34.793  1.00  0.00     0.031 C 
ATOM     37  C   UNL A   1      39.858  33.349  36.017  1.00  0.00     0.037 A 
BRANCH  24  38
ATOM     38  C   UNL A   1      43.617  28.436  35.824  1.00  0.00     0.058 A 
ATOM     39  C   UNL A   1      43.299  27.388  36.702  1.00  0.00     0.135 A 
ATOM     40  C   UNL A   1      44.977  28.684  35.573  1.00  0.00     0.135 A 
ATOM     41  F   UNL A   1      42.017  27.112  36.992  1.00  0.00    -0.206 F 
ATOM     42  C   UNL A   1      44.289  26.637  37.330  1.00  0.00     0.059 A 
ATOM     43  C   UNL A   1      45.984  27.926  36.165  1.00  0.00     0.059 A 
ATOM     44  F   UNL A   1      45.341  29.671  34.740  1.00  0.00    -0.206 F 
ATOM     45  C   UNL A   1      45.630  26.914  37.055  1.00  0.00     0.060 A 
BRANCH  45  46
ATOM     46  S   UNL A   1      46.900  25.933  37.882  1.00  0.00     0.124 S 
ATOM     47  O   UNL A   1      47.984  26.904  37.999  1.00  0.00    -0.237 OA
ATOM     48  O   UNL A   1      46.244  25.564  39.132  1.00  0.00    -0.237 OA
ATOM     49  O   UNL A   1      47.140  24.833  36.954  1.00  0.00    -0.744 OA
ENDBRANCH  45  46
ENDBRANCH  24  38
BRANCH  25  50
ATOM     50  C   UNL A   1      36.329  33.398  31.091  1.00  0.00     0.058 A 
ATOM     51  C   UNL A   1      35.015  33.394  31.584  1.00  0.00     0.135 A 
ATOM     52  C   UNL A   1      36.586  34.136  29.924  1.00  0.00     0.135 A 
ATOM     53  F   UNL A   1      34.717  32.701  32.693  1.00  0.00    -0.206 F 
ATOM     54  C   UNL A   1      33.993  34.078  30.936  1.00  0.00     0.059 A 
ATOM     55  C   UNL A   1      35.588  34.855  29.277  1.00  0.00     0.059 A 
ATOM     56  F   UNL A   1      37.830  34.187  29.421  1.00  0.00    -0.206 F 
ATOM     57  C   UNL A   1      34.290  34.809  29.784  1.00  0.00     0.060 A 
BRANCH  57  58
ATOM     58  S   UNL A   1      32.963  35.729  28.976  1.00  0.00     0.124 S 
ATOM     59  O   UNL A   1      32.358  34.698  28.141  1.00  0.00    -0.237 OA
ATOM     60  O   UNL A   1      32.168  36.180  30.114  1.00  0.00    -0.237 OA
ATOM     61  O   UNL A   1      33.675  36.785  28.261  1.00  0.00    -0.744 OA
ENDBRANCH  57  58
ENDBRANCH  25  50
BRANCH  37  62
ATOM     62  C   UNL A   1      39.799  34.443  37.048  1.00  0.00     0.058 A 
ATOM     63  C   UNL A   1      38.980  34.354  38.185  1.00  0.00     0.135 A 
ATOM     64  C   UNL A   1      40.596  35.591  36.904  1.00  0.00     0.135 A 
ATOM     65  F   UNL A   1      38.193  33.282  38.369  1.00  0.00    -0.206 F 
ATOM     66  C   UNL A   1      38.924  35.381  39.122  1.00  0.00     0.059 A 
ATOM     67  C   UNL A   1      40.582  36.614  37.845  1.00  0.00     0.059 A 
ATOM     68  F   UNL A   1      41.406  35.722  35.841  1.00  0.00    -0.206 F 
ATOM     69  C   UNL A   1      39.729  36.509  38.942  1.00  0.00     0.060 A 
BRANCH  69  70
ATOM     70  S   UNL A   1      39.656  37.830  40.169  1.00  0.00     0.124 S 
ATOM     71  O   UNL A   1      41.013  38.364  40.106  1.00  0.00    -0.237 OA
ATOM     72  O   UNL A   1      38.609  38.694  39.635  1.00  0.00    -0.237 OA
ATOM     73  O   UNL A   1      39.314  37.128  41.403  1.00  0.00    -0.744 OA
ENDBRANCH  69  70
ENDBRANCH  37  62
ENDBRANCH  11  12
ENDBRANCH   4   6
ENDBRANCH   1   2
BRANCH   1  74
ATOM     74  C   UNL A   1      37.332  23.482  25.440  1.00  0.00     0.042 C 
BRANCH  74  75
ATOM     75  C   UNL A   1      36.024  24.240  25.241  1.00  0.00     0.117 C 
BRANCH  75  76
ATOM     76  N   UNL A   1      34.909  23.622  25.942  1.00  0.00    -0.354 N 
ATOM     77  C   UNL A   1      33.580  23.946  25.992  1.00  0.00     0.247 C 
ATOM     78  H   UNL A   1      35.153  22.831  26.473  1.00  0.00     0.163 HD
ATOM     79  O   UNL A   1      32.896  23.336  26.824  1.00  0.00    -0.272 OA
BRANCH  77  80
ATOM     80  C   UNL A   1      32.945  25.079  25.128  1.00  0.00     0.202 C 
BRANCH  80  81
ATOM     81  C   UNL A   1      32.842  26.375  25.912  1.00  0.00    -0.016 A 
ATOM     82  C   UNL A   1      31.661  26.775  26.556  1.00  0.00     0.006 A 
ATOM     83  C   UNL A   1      33.970  27.208  26.019  1.00  0.00     0.006 A 
ATOM     84  C   UNL A   1      31.607  27.957  27.297  1.00  0.00     0.000 A 
ATOM     85  C   UNL A   1      33.922  28.380  26.775  1.00  0.00     0.000 A 
ATOM     86  C   UNL A   1      32.742  28.753  27.414  1.00  0.00     0.000 A 
ENDBRANCH  80  81
BRANCH  80  87
ATOM     87  N   UNL A   1      33.576  25.199  23.807  1.00  0.00    -0.336 N 
ATOM     88  C   UNL A   1      33.172  25.902  22.699  1.00  0.00     0.253 C 
ATOM     89  H   UNL A   1      34.418  24.701  23.701  1.00  0.00     0.165 HD
ATOM     90  O   UNL A   1      33.669  25.643  21.606  1.00  0.00    -0.269 OA
BRANCH  88  91
ATOM     91  C   UNL A   1      32.110  26.919  22.773  1.00  0.00     0.058 A 
ATOM     92  C   UNL A   1      30.766  26.602  22.930  1.00  0.00     0.018 A 
ATOM     93  C   UNL A   1      32.456  28.261  22.777  1.00  0.00     0.126 A 
ATOM     94  C   UNL A   1      29.808  27.613  22.930  1.00  0.00     0.037 A 
ATOM     95  N   UNL A   1      31.551  29.273  22.806  1.00  0.00    -0.249 NA
ATOM     96  C   UNL A   1      30.244  28.925  22.858  1.00  0.00     0.106 A 
ATOM     97  Br  UNL A   1      28.953  30.313  22.839  1.00  0.00    -0.029 Br
ENDBRANCH  88  91
ENDBRANCH  80  87
ENDBRANCH  77  80
ENDBRANCH  75  76
ENDBRANCH  74  75
ENDBRANCH   1  74
TORSDOF 16
ENDMDL
