MODEL 1
REMARK VINA RESULT:     -13.5      0.000      0.000
REMARK SMILES Cc1ccc(S(=O)(=O)N(c2ccccc2)[C@H](C)C(=O)NCCCNC(=O)c2ccc(-c3c4nc(c(-c5c(F)cc(S(=O)(=O)[O-])cc5F)c5ccc([nH]5)c(-c5c(F)cc(S(=O)(=O)[O-])cc5F)c5nc(c(-c6c(F)cc(S(=O)(=O)[O-])cc6F)c6ccc3[nH]6)C=C5)C=C4)cc2)cc1
REMARK SMILES IDX 22 1 21 2 20 3 18 4 19 5 16 7 17 8 9 9 6 10 7 11 8 12 5 13
REMARK SMILES IDX 1 14 2 15 3 16 94 17 4 18 93 19 10 20 11 21 15 22 12 23
REMARK SMILES IDX 14 24 13 25 23 26 24 27 25 28 26 30 27 31 28 32 92 33 29 34
REMARK SMILES IDX 91 35 30 36 31 37 32 38 85 39 33 40 90 41 84 42 86 43 34 44
REMARK SMILES IDX 89 45 83 46 82 47 35 49 69 50 48 51 68 52 49 53 52 54 67 55
REMARK SMILES IDX 87 56 50 57 51 58 66 60 88 61 53 62 36 63 37 64 46 65 38 66
REMARK SMILES IDX 39 67 45 68 47 69 40 70 41 71 42 72 43 73 44 74 70 75 71 76
REMARK SMILES IDX 80 77 72 78 73 79 79 80 81 81 74 82 75 83 76 84 77 85 78 86
REMARK SMILES IDX 54 87 55 88 64 89 56 90 57 91 63 92 65 93 58 94 59 95 60 96
REMARK SMILES IDX 61 97 62 98
REMARK H PARENT 20 6 24 29 86 48 52 59
REMARK Flexibility Score: inf
ROOT
ATOM      1  C   UNL A   1      32.204  29.750  27.195  1.00  0.00     0.042 C 
ENDROOT
BRANCH   1   2
ATOM      2  C   UNL A   1      32.238  28.318  27.682  1.00  0.00     0.117 C 
BRANCH   2   3
ATOM      3  N   UNL A   1      31.130  27.493  27.244  1.00  0.00    -0.354 N 
ATOM      4  C   UNL A   1      31.097  26.527  26.277  1.00  0.00     0.243 C 
ATOM      5  O   UNL A   1      30.112  25.777  26.279  1.00  0.00    -0.273 OA
ATOM      6  H   UNL A   1      30.277  27.651  27.710  1.00  0.00     0.163 HD
BRANCH   4   7
ATOM      7  C   UNL A   1      32.156  26.398  25.175  1.00  0.00     0.185 C 
ATOM      8  C   UNL A   1      33.417  25.690  25.682  1.00  0.00     0.043 C 
BRANCH   7   9
ATOM      9  N   UNL A   1      31.678  25.963  23.803  1.00  0.00    -0.254 N 
BRANCH   9  10
ATOM     10  S   UNL A   1      31.601  27.249  22.676  1.00  0.00     0.265 S 
ATOM     11  O   UNL A   1      31.192  26.666  21.410  1.00  0.00    -0.201 OA
ATOM     12  O   UNL A   1      32.844  27.990  22.754  1.00  0.00    -0.201 OA
BRANCH  10  13
ATOM     13  C   UNL A   1      30.300  28.384  23.121  1.00  0.00     0.088 A 
ATOM     14  C   UNL A   1      27.471  31.588  23.576  1.00  0.00     0.044 C 
ATOM     15  C   UNL A   1      28.447  30.454  23.470  1.00  0.00    -0.051 A 
ATOM     16  C   UNL A   1      29.754  30.596  23.945  1.00  0.00     0.005 A 
ATOM     17  C   UNL A   1      28.051  29.231  22.913  1.00  0.00     0.005 A 
ATOM     18  C   UNL A   1      30.681  29.575  23.753  1.00  0.00     0.022 A 
ATOM     19  C   UNL A   1      28.966  28.182  22.775  1.00  0.00     0.022 A 
ENDBRANCH  10  13
ENDBRANCH   9  10
BRANCH   9  20
ATOM     20  C   UNL A   1      32.021  24.657  23.329  1.00  0.00     0.053 A 
ATOM     21  C   UNL A   1      31.221  23.590  23.767  1.00  0.00     0.027 A 
ATOM     22  C   UNL A   1      33.147  24.404  22.541  1.00  0.00     0.027 A 
ATOM     23  C   UNL A   1      31.549  22.276  23.433  1.00  0.00     0.002 A 
ATOM     24  C   UNL A   1      33.476  23.083  22.215  1.00  0.00     0.002 A 
ATOM     25  C   UNL A   1      32.682  22.024  22.664  1.00  0.00     0.000 A 
ENDBRANCH   9  20
ENDBRANCH   7   9
ENDBRANCH   4   7
ENDBRANCH   2   3
ENDBRANCH   1   2
BRANCH   1  26
ATOM     26  C   UNL A   1      33.594  30.238  26.838  1.00  0.00     0.118 C 
BRANCH  26  27
ATOM     27  N   UNL A   1      34.038  31.429  27.558  1.00  0.00    -0.352 N 
ATOM     28  C   UNL A   1      35.085  31.536  28.474  1.00  0.00     0.251 C 
ATOM     29  H   UNL A   1      33.538  32.257  27.375  1.00  0.00     0.163 HD
ATOM     30  O   UNL A   1      35.248  32.542  29.129  1.00  0.00    -0.269 OA
BRANCH  28  31
ATOM     31  C   UNL A   1      36.031  30.393  28.561  1.00  0.00     0.039 A 
ATOM     32  C   UNL A   1      36.151  29.720  29.781  1.00  0.00     0.014 A 
ATOM     33  C   UNL A   1      36.980  30.223  27.563  1.00  0.00     0.014 A 
ATOM     34  C   UNL A   1      37.347  29.069  30.084  1.00  0.00     0.010 A 
ATOM     35  C   UNL A   1      38.210  29.717  27.918  1.00  0.00     0.010 A 
ATOM     36  C   UNL A   1      38.412  29.172  29.195  1.00  0.00    -0.014 A 
BRANCH  36  37
ATOM     37  C   UNL A   1      39.795  28.810  29.496  1.00  0.00     0.031 A 
ATOM     38  C   UNL A   1      40.271  27.445  29.160  1.00  0.00     0.074 A 
ATOM     39  C   UNL A   1      40.680  29.765  29.867  1.00  0.00     0.049 A 
ATOM     40  N   UNL A   1      41.452  27.002  29.426  1.00  0.00    -0.248 NA
ATOM     41  C   UNL A   1      39.418  26.429  28.538  1.00  0.00     0.031 C 
ATOM     42  C   UNL A   1      42.135  29.720  29.730  1.00  0.00     0.029 A 
ATOM     43  N   UNL A   1      40.447  30.895  30.658  1.00  0.00    -0.354 N 
ATOM     44  C   UNL A   1      41.614  25.818  28.749  1.00  0.00     0.074 A 
ATOM     45  C   UNL A   1      40.295  25.446  28.317  1.00  0.00     0.031 C 
ATOM     46  C   UNL A   1      42.687  30.590  30.587  1.00  0.00     0.029 A 
ATOM     47  C   UNL A   1      41.619  31.100  31.424  1.00  0.00     0.049 A 
ATOM     48  H   UNL A   1      39.628  31.441  30.680  1.00  0.00     0.167 HD
ATOM     49  C   UNL A   1      42.878  25.371  28.519  1.00  0.00     0.037 A 
ATOM     50  C   UNL A   1      41.601  30.998  32.787  1.00  0.00     0.037 A 
ATOM     51  C   UNL A   1      43.822  26.024  29.429  1.00  0.00     0.049 A 
ATOM     52  C   UNL A   1      42.473  29.894  33.344  1.00  0.00     0.074 A 
ATOM     53  C   UNL A   1      44.814  26.974  29.278  1.00  0.00     0.029 A 
ATOM     54  N   UNL A   1      43.616  25.886  30.801  1.00  0.00    -0.354 N 
ATOM     55  N   UNL A   1      43.004  28.942  32.625  1.00  0.00    -0.248 NA
ATOM     56  C   UNL A   1      42.805  29.766  34.760  1.00  0.00     0.031 C 
ATOM     57  C   UNL A   1      45.110  27.499  30.569  1.00  0.00     0.029 A 
ATOM     58  C   UNL A   1      44.340  26.827  31.505  1.00  0.00     0.049 A 
ATOM     59  H   UNL A   1      43.033  25.208  31.213  1.00  0.00     0.167 HD
ATOM     60  C   UNL A   1      43.666  28.058  33.440  1.00  0.00     0.074 A 
ATOM     61  C   UNL A   1      43.550  28.646  34.761  1.00  0.00     0.031 C 
ATOM     62  C   UNL A   1      44.225  26.906  32.960  1.00  0.00     0.037 A 
BRANCH  49  63
ATOM     63  C   UNL A   1      43.283  24.478  27.360  1.00  0.00     0.058 A 
ATOM     64  C   UNL A   1      43.097  23.079  27.436  1.00  0.00     0.135 A 
ATOM     65  C   UNL A   1      43.993  24.908  26.213  1.00  0.00     0.135 A 
ATOM     66  F   UNL A   1      42.471  22.522  28.484  1.00  0.00    -0.206 F 
ATOM     67  C   UNL A   1      43.577  22.189  26.466  1.00  0.00     0.059 A 
ATOM     68  C   UNL A   1      44.434  24.045  25.208  1.00  0.00     0.059 A 
ATOM     69  F   UNL A   1      44.365  26.179  26.033  1.00  0.00    -0.206 F 
ATOM     70  C   UNL A   1      44.247  22.682  25.353  1.00  0.00     0.060 A 
BRANCH  70  71
ATOM     71  S   UNL A   1      44.899  21.544  24.116  1.00  0.00     0.124 S 
ATOM     72  O   UNL A   1      46.337  21.664  24.327  1.00  0.00    -0.237 OA
ATOM     73  O   UNL A   1      44.299  20.273  24.508  1.00  0.00    -0.237 OA
ATOM     74  O   UNL A   1      44.408  22.096  22.855  1.00  0.00    -0.744 OA
ENDBRANCH  70  71
ENDBRANCH  49  63
BRANCH  50  75
ATOM     75  C   UNL A   1      40.336  31.510  33.383  1.00  0.00     0.058 A 
ATOM     76  C   UNL A   1      39.384  30.547  33.773  1.00  0.00     0.135 A 
ATOM     77  C   UNL A   1      40.287  32.763  34.009  1.00  0.00     0.135 A 
ATOM     78  F   UNL A   1      39.367  29.342  33.180  1.00  0.00    -0.206 F 
ATOM     79  C   UNL A   1      38.565  30.740  34.879  1.00  0.00     0.059 A 
ATOM     80  C   UNL A   1      39.459  32.984  35.112  1.00  0.00     0.059 A 
ATOM     81  F   UNL A   1      41.163  33.722  33.671  1.00  0.00    -0.206 F 
ATOM     82  C   UNL A   1      38.674  31.933  35.589  1.00  0.00     0.060 A 
BRANCH  82  83
ATOM     83  S   UNL A   1      37.963  31.981  37.252  1.00  0.00     0.124 S 
ATOM     84  O   UNL A   1      37.535  30.601  37.448  1.00  0.00    -0.237 OA
ATOM     85  O   UNL A   1      39.115  32.399  38.050  1.00  0.00    -0.237 OA
ATOM     86  O   UNL A   1      36.891  32.964  37.131  1.00  0.00    -0.744 OA
ENDBRANCH  82  83
ENDBRANCH  50  75
BRANCH  62  87
ATOM     87  C   UNL A   1      44.766  25.762  33.800  1.00  0.00     0.058 A 
ATOM     88  C   UNL A   1      43.976  24.921  34.604  1.00  0.00     0.135 A 
ATOM     89  C   UNL A   1      46.131  25.391  33.703  1.00  0.00     0.135 A 
ATOM     90  F   UNL A   1      42.648  25.073  34.683  1.00  0.00    -0.206 F 
ATOM     91  C   UNL A   1      44.511  23.847  35.324  1.00  0.00     0.059 A 
ATOM     92  C   UNL A   1      46.672  24.289  34.363  1.00  0.00     0.059 A 
ATOM     93  F   UNL A   1      46.993  26.086  32.944  1.00  0.00    -0.206 F 
ATOM     94  C   UNL A   1      45.860  23.539  35.200  1.00  0.00     0.060 A 
BRANCH  94  95
ATOM     95  S   UNL A   1      46.549  22.122  36.074  1.00  0.00     0.124 S 
ATOM     96  O   UNL A   1      47.756  21.858  35.298  1.00  0.00    -0.237 OA
ATOM     97  O   UNL A   1      46.770  22.642  37.421  1.00  0.00    -0.237 OA
ATOM     98  O   UNL A   1      45.493  21.120  35.967  1.00  0.00    -0.744 OA
ENDBRANCH  94  95
ENDBRANCH  62  87
ENDBRANCH  36  37
ENDBRANCH  28  31
ENDBRANCH  26  27
ENDBRANCH   1  26
TORSDOF 17
ENDMDL
MODEL 2
REMARK VINA RESULT:     -13.4      2.156      3.783
REMARK SMILES Cc1ccc(S(=O)(=O)N(c2ccccc2)[C@H](C)C(=O)NCCCNC(=O)c2ccc(-c3c4nc(c(-c5c(F)cc(S(=O)(=O)[O-])cc5F)c5ccc([nH]5)c(-c5c(F)cc(S(=O)(=O)[O-])cc5F)c5nc(c(-c6c(F)cc(S(=O)(=O)[O-])cc6F)c6ccc3[nH]6)C=C5)C=C4)cc2)cc1
REMARK SMILES IDX 22 1 21 2 20 3 18 4 19 5 16 7 17 8 9 9 6 10 7 11 8 12 5 13
REMARK SMILES IDX 1 14 2 15 3 16 94 17 4 18 93 19 10 20 11 21 15 22 12 23
REMARK SMILES IDX 14 24 13 25 23 26 24 27 25 28 26 30 27 31 28 32 92 33 29 34
REMARK SMILES IDX 91 35 30 36 31 37 32 38 85 39 33 40 90 41 84 42 86 43 34 44
REMARK SMILES IDX 89 45 83 46 82 47 35 49 69 50 48 51 68 52 49 53 52 54 67 55
REMARK SMILES IDX 87 56 50 57 51 58 66 60 88 61 53 62 36 63 37 64 46 65 38 66
REMARK SMILES IDX 39 67 45 68 47 69 40 70 41 71 42 72 43 73 44 74 70 75 71 76
REMARK SMILES IDX 80 77 72 78 73 79 79 80 81 81 74 82 75 83 76 84 77 85 78 86
REMARK SMILES IDX 54 87 55 88 64 89 56 90 57 91 63 92 65 93 58 94 59 95 60 96
REMARK SMILES IDX 61 97 62 98
REMARK H PARENT 20 6 24 29 86 48 52 59
REMARK Flexibility Score: inf
ROOT
ATOM      1  C   UNL A   1      32.189  29.119  25.920  1.00  0.00     0.042 C 
ENDROOT
BRANCH   1   2
ATOM      2  C   UNL A   1      31.664  27.711  26.102  1.00  0.00     0.117 C 
BRANCH   2   3
ATOM      3  N   UNL A   1      31.072  27.118  24.919  1.00  0.00    -0.354 N 
ATOM      4  C   UNL A   1      30.904  25.800  24.602  1.00  0.00     0.243 C 
ATOM      5  O   UNL A   1      30.128  25.551  23.669  1.00  0.00    -0.273 OA
ATOM      6  H   UNL A   1      30.744  27.758  24.247  1.00  0.00     0.163 HD
BRANCH   4   7
ATOM      7  C   UNL A   1      31.680  24.662  25.277  1.00  0.00     0.185 C 
ATOM      8  C   UNL A   1      30.774  23.816  26.179  1.00  0.00     0.043 C 
BRANCH   7   9
ATOM      9  N   UNL A   1      32.647  23.876  24.414  1.00  0.00    -0.254 N 
BRANCH   9  10
ATOM     10  S   UNL A   1      33.998  24.795  23.903  1.00  0.00     0.265 S 
ATOM     11  O   UNL A   1      34.019  25.992  24.728  1.00  0.00    -0.201 OA
ATOM     12  O   UNL A   1      33.936  24.921  22.461  1.00  0.00    -0.201 OA
BRANCH  10  13
ATOM     13  C   UNL A   1      35.511  23.931  24.278  1.00  0.00     0.088 A 
ATOM     14  C   UNL A   1      38.697  21.448  25.748  1.00  0.00     0.044 C 
ATOM     15  C   UNL A   1      37.624  22.350  25.215  1.00  0.00    -0.051 A 
ATOM     16  C   UNL A   1      37.194  23.456  25.955  1.00  0.00     0.005 A 
ATOM     17  C   UNL A   1      37.057  22.107  23.957  1.00  0.00     0.005 A 
ATOM     18  C   UNL A   1      36.130  24.229  25.499  1.00  0.00     0.022 A 
ATOM     19  C   UNL A   1      36.028  22.920  23.471  1.00  0.00     0.022 A 
ENDBRANCH  10  13
ENDBRANCH   9  10
BRANCH   9  20
ATOM     20  C   UNL A   1      32.827  22.478  24.666  1.00  0.00     0.053 A 
ATOM     21  C   UNL A   1      32.479  21.595  23.632  1.00  0.00     0.027 A 
ATOM     22  C   UNL A   1      33.238  21.974  25.902  1.00  0.00     0.027 A 
ATOM     23  C   UNL A   1      32.528  20.215  23.833  1.00  0.00     0.002 A 
ATOM     24  C   UNL A   1      33.278  20.589  26.103  1.00  0.00     0.002 A 
ATOM     25  C   UNL A   1      32.919  19.715  25.072  1.00  0.00     0.000 A 
ENDBRANCH   9  20
ENDBRANCH   7   9
ENDBRANCH   4   7
ENDBRANCH   2   3
ENDBRANCH   1   2
BRANCH   1  26
ATOM     26  C   UNL A   1      32.585  29.729  27.251  1.00  0.00     0.118 C 
BRANCH  26  27
ATOM     27  N   UNL A   1      33.175  31.063  27.171  1.00  0.00    -0.352 N 
ATOM     28  C   UNL A   1      34.429  31.474  27.621  1.00  0.00     0.251 C 
ATOM     29  H   UNL A   1      32.618  31.757  26.749  1.00  0.00     0.163 HD
ATOM     30  O   UNL A   1      34.737  32.645  27.647  1.00  0.00    -0.269 OA
BRANCH  28  31
ATOM     31  C   UNL A   1      35.397  30.411  27.999  1.00  0.00     0.039 A 
ATOM     32  C   UNL A   1      35.471  30.026  29.342  1.00  0.00     0.014 A 
ATOM     33  C   UNL A   1      36.399  30.059  27.105  1.00  0.00     0.014 A 
ATOM     34  C   UNL A   1      36.666  29.498  29.833  1.00  0.00     0.010 A 
ATOM     35  C   UNL A   1      37.621  29.685  27.618  1.00  0.00     0.010 A 
ATOM     36  C   UNL A   1      37.772  29.440  28.991  1.00  0.00    -0.014 A 
BRANCH  36  37
ATOM     37  C   UNL A   1      39.146  29.201  29.424  1.00  0.00     0.031 A 
ATOM     38  C   UNL A   1      39.781  27.895  29.116  1.00  0.00     0.074 A 
ATOM     39  C   UNL A   1      39.895  30.224  29.899  1.00  0.00     0.049 A 
ATOM     40  N   UNL A   1      40.965  27.556  29.493  1.00  0.00    -0.248 NA
ATOM     41  C   UNL A   1      39.094  26.821  28.394  1.00  0.00     0.031 C 
ATOM     42  C   UNL A   1      41.354  30.317  29.909  1.00  0.00     0.029 A 
ATOM     43  N   UNL A   1      39.478  31.307  30.681  1.00  0.00    -0.354 N 
ATOM     44  C   UNL A   1      41.306  26.410  28.817  1.00  0.00     0.074 A 
ATOM     45  C   UNL A   1      40.078  25.929  28.247  1.00  0.00     0.031 C 
ATOM     46  C   UNL A   1      41.733  31.213  30.833  1.00  0.00     0.029 A 
ATOM     47  C   UNL A   1      40.543  31.600  31.564  1.00  0.00     0.049 A 
ATOM     48  H   UNL A   1      38.613  31.774  30.628  1.00  0.00     0.167 HD
ATOM     49  C   UNL A   1      42.624  26.089  28.709  1.00  0.00     0.037 A 
ATOM     50  C   UNL A   1      40.400  31.462  32.917  1.00  0.00     0.037 A 
ATOM     51  C   UNL A   1      43.406  26.803  29.721  1.00  0.00     0.049 A 
ATOM     52  C   UNL A   1      41.313  30.429  33.541  1.00  0.00     0.074 A 
ATOM     53  C   UNL A   1      44.313  27.844  29.686  1.00  0.00     0.029 A 
ATOM     54  N   UNL A   1      43.079  26.611  31.062  1.00  0.00    -0.354 N 
ATOM     55  N   UNL A   1      42.001  29.550  32.865  1.00  0.00    -0.248 NA
ATOM     56  C   UNL A   1      41.513  30.295  34.982  1.00  0.00     0.031 C 
ATOM     57  C   UNL A   1      44.429  28.361  31.009  1.00  0.00     0.029 A 
ATOM     58  C   UNL A   1      43.636  27.597  31.851  1.00  0.00     0.049 A 
ATOM     59  H   UNL A   1      42.524  25.872  31.402  1.00  0.00     0.167 HD
ATOM     60  C   UNL A   1      42.659  28.709  33.728  1.00  0.00     0.074 A 
ATOM     61  C   UNL A   1      42.358  29.250  35.040  1.00  0.00     0.031 C 
ATOM     62  C   UNL A   1      43.370  27.627  33.288  1.00  0.00     0.037 A 
BRANCH  49  63
ATOM     63  C   UNL A   1      43.225  25.267  27.583  1.00  0.00     0.058 A 
ATOM     64  C   UNL A   1      43.263  23.857  27.668  1.00  0.00     0.135 A 
ATOM     65  C   UNL A   1      43.911  25.801  26.466  1.00  0.00     0.135 A 
ATOM     66  F   UNL A   1      42.684  23.211  28.692  1.00  0.00    -0.206 F 
ATOM     67  C   UNL A   1      43.929  23.052  26.734  1.00  0.00     0.059 A 
ATOM     68  C   UNL A   1      44.536  25.016  25.494  1.00  0.00     0.059 A 
ATOM     69  F   UNL A   1      44.082  27.115  26.288  1.00  0.00    -0.206 F 
ATOM     70  C   UNL A   1      44.564  23.641  25.648  1.00  0.00     0.060 A 
BRANCH  70  71
ATOM     71  S   UNL A   1      45.453  22.618  24.459  1.00  0.00     0.124 S 
ATOM     72  O   UNL A   1      46.387  23.576  23.878  1.00  0.00    -0.237 OA
ATOM     73  O   UNL A   1      46.040  21.587  25.307  1.00  0.00    -0.237 OA
ATOM     74  O   UNL A   1      44.400  22.152  23.559  1.00  0.00    -0.744 OA
ENDBRANCH  70  71
ENDBRANCH  49  63
BRANCH  50  75
ATOM     75  C   UNL A   1      39.039  31.838  33.390  1.00  0.00     0.058 A 
ATOM     76  C   UNL A   1      38.777  33.215  33.536  1.00  0.00     0.135 A 
ATOM     77  C   UNL A   1      37.944  30.986  33.193  1.00  0.00     0.135 A 
ATOM     78  F   UNL A   1      39.789  34.070  33.759  1.00  0.00    -0.206 F 
ATOM     79  C   UNL A   1      37.519  33.747  33.283  1.00  0.00     0.059 A 
ATOM     80  C   UNL A   1      36.667  31.499  32.953  1.00  0.00     0.059 A 
ATOM     81  F   UNL A   1      38.132  29.664  33.056  1.00  0.00    -0.206 F 
ATOM     82  C   UNL A   1      36.492  32.884  32.910  1.00  0.00     0.060 A 
BRANCH  82  83
ATOM     83  S   UNL A   1      35.022  33.614  32.149  1.00  0.00     0.124 S 
ATOM     84  O   UNL A   1      33.966  32.705  32.576  1.00  0.00    -0.237 OA
ATOM     85  O   UNL A   1      34.999  34.937  32.771  1.00  0.00    -0.237 OA
ATOM     86  O   UNL A   1      35.336  33.594  30.724  1.00  0.00    -0.744 OA
ENDBRANCH  82  83
ENDBRANCH  50  75
BRANCH  62  87
ATOM     87  C   UNL A   1      43.930  26.517  34.160  1.00  0.00     0.058 A 
ATOM     88  C   UNL A   1      43.149  25.577  34.855  1.00  0.00     0.135 A 
ATOM     89  C   UNL A   1      45.329  26.287  34.208  1.00  0.00     0.135 A 
ATOM     90  F   UNL A   1      41.811  25.594  34.790  1.00  0.00    -0.206 F 
ATOM     91  C   UNL A   1      43.709  24.540  35.608  1.00  0.00     0.059 A 
ATOM     92  C   UNL A   1      45.905  25.223  34.902  1.00  0.00     0.059 A 
ATOM     93  F   UNL A   1      46.193  27.087  33.563  1.00  0.00    -0.206 F 
ATOM     94  C   UNL A   1      45.089  24.371  35.628  1.00  0.00     0.060 A 
BRANCH  94  95
ATOM     95  S   UNL A   1      45.819  23.003  36.545  1.00  0.00     0.124 S 
ATOM     96  O   UNL A   1      45.313  23.250  37.892  1.00  0.00    -0.237 OA
ATOM     97  O   UNL A   1      45.270  21.828  35.874  1.00  0.00    -0.237 OA
ATOM     98  O   UNL A   1      47.252  23.205  36.358  1.00  0.00    -0.744 OA
ENDBRANCH  94  95
ENDBRANCH  62  87
ENDBRANCH  36  37
ENDBRANCH  28  31
ENDBRANCH  26  27
ENDBRANCH   1  26
TORSDOF 17
ENDMDL
MODEL 3
REMARK VINA RESULT:     -13.3      1.953      3.639
REMARK SMILES Cc1ccc(S(=O)(=O)N(c2ccccc2)[C@H](C)C(=O)NCCCNC(=O)c2ccc(-c3c4nc(c(-c5c(F)cc(S(=O)(=O)[O-])cc5F)c5ccc([nH]5)c(-c5c(F)cc(S(=O)(=O)[O-])cc5F)c5nc(c(-c6c(F)cc(S(=O)(=O)[O-])cc6F)c6ccc3[nH]6)C=C5)C=C4)cc2)cc1
REMARK SMILES IDX 22 1 21 2 20 3 18 4 19 5 16 7 17 8 9 9 6 10 7 11 8 12 5 13
REMARK SMILES IDX 1 14 2 15 3 16 94 17 4 18 93 19 10 20 11 21 15 22 12 23
REMARK SMILES IDX 14 24 13 25 23 26 24 27 25 28 26 30 27 31 28 32 92 33 29 34
REMARK SMILES IDX 91 35 30 36 31 37 32 38 85 39 33 40 90 41 84 42 86 43 34 44
REMARK SMILES IDX 89 45 83 46 82 47 35 49 69 50 48 51 68 52 49 53 52 54 67 55
REMARK SMILES IDX 87 56 50 57 51 58 66 60 88 61 53 62 36 63 37 64 46 65 38 66
REMARK SMILES IDX 39 67 45 68 47 69 40 70 41 71 42 72 43 73 44 74 70 75 71 76
REMARK SMILES IDX 80 77 72 78 73 79 79 80 81 81 74 82 75 83 76 84 77 85 78 86
REMARK SMILES IDX 54 87 55 88 64 89 56 90 57 91 63 92 65 93 58 94 59 95 60 96
REMARK SMILES IDX 61 97 62 98
REMARK H PARENT 20 6 24 29 86 48 52 59
REMARK Flexibility Score: inf
ROOT
ATOM      1  C   UNL A   1      32.157  28.948  27.205  1.00  0.00     0.042 C 
ENDROOT
BRANCH   1   2
ATOM      2  C   UNL A   1      31.729  27.682  26.495  1.00  0.00     0.117 C 
BRANCH   2   3
ATOM      3  N   UNL A   1      31.022  27.887  25.245  1.00  0.00    -0.354 N 
ATOM      4  C   UNL A   1      31.175  27.247  24.048  1.00  0.00     0.243 C 
ATOM      5  O   UNL A   1      30.272  27.409  23.216  1.00  0.00    -0.273 OA
ATOM      6  H   UNL A   1      30.333  28.590  25.262  1.00  0.00     0.163 HD
BRANCH   4   7
ATOM      7  C   UNL A   1      32.422  26.434  23.677  1.00  0.00     0.185 C 
ATOM      8  C   UNL A   1      33.650  27.333  23.493  1.00  0.00     0.043 C 
BRANCH   7   9
ATOM      9  N   UNL A   1      32.669  25.153  24.450  1.00  0.00    -0.254 N 
BRANCH   9  10
ATOM     10  S   UNL A   1      31.325  24.093  24.448  1.00  0.00     0.265 S 
ATOM     11  O   UNL A   1      30.714  24.202  23.134  1.00  0.00    -0.201 OA
ATOM     12  O   UNL A   1      30.534  24.368  25.631  1.00  0.00    -0.201 OA
BRANCH  10  13
ATOM     13  C   UNL A   1      31.872  22.401  24.580  1.00  0.00     0.088 A 
ATOM     14  C   UNL A   1      33.884  18.603  24.526  1.00  0.00     0.044 C 
ATOM     15  C   UNL A   1      33.133  19.901  24.550  1.00  0.00    -0.051 A 
ATOM     16  C   UNL A   1      32.558  20.410  23.382  1.00  0.00     0.005 A 
ATOM     17  C   UNL A   1      32.979  20.607  25.751  1.00  0.00     0.005 A 
ATOM     18  C   UNL A   1      31.950  21.663  23.391  1.00  0.00     0.022 A 
ATOM     19  C   UNL A   1      32.315  21.837  25.774  1.00  0.00     0.022 A 
ENDBRANCH  10  13
ENDBRANCH   9  10
BRANCH   9  20
ATOM     20  C   UNL A   1      33.985  24.590  24.461  1.00  0.00     0.053 A 
ATOM     21  C   UNL A   1      34.429  23.987  23.274  1.00  0.00     0.027 A 
ATOM     22  C   UNL A   1      34.783  24.540  25.607  1.00  0.00     0.027 A 
ATOM     23  C   UNL A   1      35.657  23.326  23.232  1.00  0.00     0.002 A 
ATOM     24  C   UNL A   1      36.010  23.870  25.563  1.00  0.00     0.002 A 
ATOM     25  C   UNL A   1      36.442  23.261  24.381  1.00  0.00     0.000 A 
ENDBRANCH   9  20
ENDBRANCH   7   9
ENDBRANCH   4   7
ENDBRANCH   2   3
ENDBRANCH   1   2
BRANCH   1  26
ATOM     26  C   UNL A   1      33.168  29.720  26.379  1.00  0.00     0.118 C 
BRANCH  26  27
ATOM     27  N   UNL A   1      33.518  31.038  26.902  1.00  0.00    -0.352 N 
ATOM     28  C   UNL A   1      34.518  31.358  27.820  1.00  0.00     0.251 C 
ATOM     29  H   UNL A   1      32.984  31.793  26.565  1.00  0.00     0.163 HD
ATOM     30  O   UNL A   1      34.602  32.467  28.300  1.00  0.00    -0.269 OA
BRANCH  28  31
ATOM     31  C   UNL A   1      35.519  30.303  28.130  1.00  0.00     0.039 A 
ATOM     32  C   UNL A   1      35.572  29.800  29.434  1.00  0.00     0.014 A 
ATOM     33  C   UNL A   1      36.559  30.074  27.240  1.00  0.00     0.014 A 
ATOM     34  C   UNL A   1      36.773  29.276  29.912  1.00  0.00     0.010 A 
ATOM     35  C   UNL A   1      37.780  29.702  27.754  1.00  0.00     0.010 A 
ATOM     36  C   UNL A   1      37.903  29.338  29.104  1.00  0.00    -0.014 A 
BRANCH  36  37
ATOM     37  C   UNL A   1      39.274  29.114  29.556  1.00  0.00     0.031 A 
ATOM     38  C   UNL A   1      39.951  27.843  29.196  1.00  0.00     0.074 A 
ATOM     39  C   UNL A   1      39.982  30.130  30.101  1.00  0.00     0.049 A 
ATOM     40  N   UNL A   1      41.136  27.517  29.583  1.00  0.00    -0.248 NA
ATOM     41  C   UNL A   1      39.311  26.790  28.403  1.00  0.00     0.031 C 
ATOM     42  C   UNL A   1      41.439  30.262  30.150  1.00  0.00     0.029 A 
ATOM     43  N   UNL A   1      39.519  31.159  30.928  1.00  0.00    -0.354 N 
ATOM     44  C   UNL A   1      41.524  26.418  28.856  1.00  0.00     0.074 A 
ATOM     45  C   UNL A   1      40.322  25.934  28.234  1.00  0.00     0.031 C 
ATOM     46  C   UNL A   1      41.772  31.118  31.127  1.00  0.00     0.029 A 
ATOM     47  C   UNL A   1      40.555  31.434  31.850  1.00  0.00     0.049 A 
ATOM     48  H   UNL A   1      38.642  31.605  30.878  1.00  0.00     0.167 HD
ATOM     49  C   UNL A   1      42.852  26.138  28.763  1.00  0.00     0.037 A 
ATOM     50  C   UNL A   1      40.386  31.221  33.190  1.00  0.00     0.037 A 
ATOM     51  C   UNL A   1      43.591  26.819  29.828  1.00  0.00     0.049 A 
ATOM     52  C   UNL A   1      41.314  30.182  33.781  1.00  0.00     0.074 A 
ATOM     53  C   UNL A   1      44.470  27.884  29.869  1.00  0.00     0.029 A 
ATOM     54  N   UNL A   1      43.240  26.548  31.150  1.00  0.00    -0.354 N 
ATOM     55  N   UNL A   1      42.041  29.358  33.076  1.00  0.00    -0.248 NA
ATOM     56  C   UNL A   1      41.486  29.979  35.217  1.00  0.00     0.031 C 
ATOM     57  C   UNL A   1      44.541  28.334  31.219  1.00  0.00     0.029 A 
ATOM     58  C   UNL A   1      43.752  27.506  32.002  1.00  0.00     0.049 A 
ATOM     59  H   UNL A   1      42.699  25.777  31.438  1.00  0.00     0.167 HD
ATOM     60  C   UNL A   1      42.703  28.492  33.910  1.00  0.00     0.074 A 
ATOM     61  C   UNL A   1      42.358  28.955  35.241  1.00  0.00     0.031 C 
ATOM     62  C   UNL A   1      43.454  27.453  33.432  1.00  0.00     0.037 A 
BRANCH  49  63
ATOM     63  C   UNL A   1      43.501  25.393  27.610  1.00  0.00     0.058 A 
ATOM     64  C   UNL A   1      43.382  23.988  27.509  1.00  0.00     0.135 A 
ATOM     65  C   UNL A   1      44.373  25.972  26.658  1.00  0.00     0.135 A 
ATOM     66  F   UNL A   1      42.616  23.297  28.367  1.00  0.00    -0.206 F 
ATOM     67  C   UNL A   1      44.072  23.229  26.555  1.00  0.00     0.059 A 
ATOM     68  C   UNL A   1      45.029  25.242  25.665  1.00  0.00     0.059 A 
ATOM     69  F   UNL A   1      44.700  27.268  26.677  1.00  0.00    -0.206 F 
ATOM     70  C   UNL A   1      44.896  23.865  25.635  1.00  0.00     0.060 A 
BRANCH  70  71
ATOM     71  S   UNL A   1      45.815  22.895  24.425  1.00  0.00     0.124 S 
ATOM     72  O   UNL A   1      46.398  21.850  25.259  1.00  0.00    -0.237 OA
ATOM     73  O   UNL A   1      44.768  22.467  23.503  1.00  0.00    -0.237 OA
ATOM     74  O   UNL A   1      46.769  23.855  23.874  1.00  0.00    -0.744 OA
ENDBRANCH  70  71
ENDBRANCH  49  63
BRANCH  50  75
ATOM     75  C   UNL A   1      39.005  31.536  33.649  1.00  0.00     0.058 A 
ATOM     76  C   UNL A   1      38.717  32.890  33.913  1.00  0.00     0.135 A 
ATOM     77  C   UNL A   1      37.930  30.692  33.338  1.00  0.00     0.135 A 
ATOM     78  F   UNL A   1      39.708  33.733  34.248  1.00  0.00    -0.206 F 
ATOM     79  C   UNL A   1      37.460  33.428  33.668  1.00  0.00     0.059 A 
ATOM     80  C   UNL A   1      36.653  31.210  33.103  1.00  0.00     0.059 A 
ATOM     81  F   UNL A   1      38.142  29.391  33.086  1.00  0.00    -0.206 F 
ATOM     82  C   UNL A   1      36.459  32.590  33.183  1.00  0.00     0.060 A 
BRANCH  82  83
ATOM     83  S   UNL A   1      35.004  33.370  32.443  1.00  0.00     0.124 S 
ATOM     84  O   UNL A   1      34.512  32.328  31.550  1.00  0.00    -0.237 OA
ATOM     85  O   UNL A   1      34.179  33.624  33.623  1.00  0.00    -0.237 OA
ATOM     86  O   UNL A   1      35.552  34.555  31.791  1.00  0.00    -0.744 OA
ENDBRANCH  82  83
ENDBRANCH  50  75
BRANCH  62  87
ATOM     87  C   UNL A   1      44.025  26.315  34.258  1.00  0.00     0.058 A 
ATOM     88  C   UNL A   1      43.255  25.321  34.887  1.00  0.00     0.135 A 
ATOM     89  C   UNL A   1      45.429  26.118  34.324  1.00  0.00     0.135 A 
ATOM     90  F   UNL A   1      41.919  25.307  34.794  1.00  0.00    -0.206 F 
ATOM     91  C   UNL A   1      43.827  24.261  35.599  1.00  0.00     0.059 A 
ATOM     92  C   UNL A   1      46.018  25.035  34.975  1.00  0.00     0.059 A 
ATOM     93  F   UNL A   1      46.283  26.972  33.739  1.00  0.00    -0.206 F 
ATOM     94  C   UNL A   1      45.210  24.126  35.640  1.00  0.00     0.060 A 
BRANCH  94  95
ATOM     95  S   UNL A   1      45.958  22.732  36.501  1.00  0.00     0.124 S 
ATOM     96  O   UNL A   1      45.278  21.603  35.875  1.00  0.00    -0.237 OA
ATOM     97  O   UNL A   1      47.376  22.868  36.178  1.00  0.00    -0.237 OA
ATOM     98  O   UNL A   1      45.617  22.983  37.898  1.00  0.00    -0.744 OA
ENDBRANCH  94  95
ENDBRANCH  62  87
ENDBRANCH  36  37
ENDBRANCH  28  31
ENDBRANCH  26  27
ENDBRANCH   1  26
TORSDOF 17
ENDMDL
