MODEL 1
REMARK VINA RESULT:     -11.7      0.000      0.000
REMARK SMILES C#Cc1ccc2c(c1)C=C(C(=O)NCCCNC(=O)c1ccc(-c3c4nc(c(-c5c(F)cc(S(=O)(=O)[O-])cc5F)c5ccc([nH]5)c(-c5c(F)cc(S(=O)(=O)[O-])cc5F)c5nc(c(-c6c(F)cc(S(=O)(=O)[O-])cc6F)c6ccc3[nH]6)C=C5)C=C4)cc1)[C@@H](C(F)(F)F)O2
REMARK SMILES IDX 16 1 15 2 14 3 13 4 11 5 12 6 10 8 3 9 4 10 8 11 5 12 7 13
REMARK SMILES IDX 6 14 9 15 91 16 86 17 2 18 1 19 87 20 88 21 89 22 90 23
REMARK SMILES IDX 17 24 18 25 19 27 20 28 21 29 85 30 22 31 84 32 23 33 24 34
REMARK SMILES IDX 25 35 78 36 26 37 83 38 77 39 79 40 27 41 82 42 76 43 75 44
REMARK SMILES IDX 28 46 62 47 41 48 61 49 42 50 45 51 60 52 80 53 43 54 44 55
REMARK SMILES IDX 59 57 81 58 46 59 29 60 30 61 39 62 31 63 32 64 38 65 40 66
REMARK SMILES IDX 33 67 34 68 35 69 36 70 37 71 63 72 64 73 73 74 65 75 66 76
REMARK SMILES IDX 72 77 74 78 67 79 68 80 69 81 70 82 71 83 47 84 48 85 57 86
REMARK SMILES IDX 49 87 50 88 56 89 58 90 51 91 52 92 53 93 54 94 55 95
REMARK H PARENT 13 7 17 26 79 45 45 56
REMARK Flexibility Score: inf
ROOT
ATOM      1  C   UNL A   1      33.526  28.712  27.178  1.00  0.00     0.118 C 
ENDROOT
BRANCH   1   2
ATOM      2  C   UNL A   1      33.687  28.673  25.670  1.00  0.00     0.042 C 
BRANCH   2   3
ATOM      3  C   UNL A   1      32.349  28.773  24.963  1.00  0.00     0.118 C 
BRANCH   3   4
ATOM      4  N   UNL A   1      31.449  27.691  25.336  1.00  0.00    -0.352 N 
ATOM      5  C   UNL A   1      31.444  26.339  25.264  1.00  0.00     0.251 C 
ATOM      6  O   UNL A   1      30.457  25.784  25.758  1.00  0.00    -0.270 OA
ATOM      7  H   UNL A   1      30.624  28.034  25.750  1.00  0.00     0.163 HD
BRANCH   5   8
ATOM      8  C   UNL A   1      32.526  25.516  24.648  1.00  0.00     0.067 C 
ATOM      9  C   UNL A   1      36.792  23.285  25.074  1.00  0.00     0.025 A 
ATOM     10  C   UNL A   1      36.624  22.726  23.804  1.00  0.00     0.021 A 
ATOM     11  C   UNL A   1      35.795  24.101  25.624  1.00  0.00     0.029 A 
ATOM     12  C   UNL A   1      35.462  22.980  23.083  1.00  0.00     0.048 A 
ATOM     13  C   UNL A   1      34.628  24.361  24.899  1.00  0.00     0.018 A 
ATOM     14  C   UNL A   1      34.478  23.800  23.628  1.00  0.00     0.128 A 
ATOM     15  C   UNL A   1      33.545  25.166  25.454  1.00  0.00     0.025 C 
ATOM     16  O   UNL A   1      33.362  23.973  22.869  1.00  0.00    -0.475 OA
ATOM     17  C   UNL A   1      32.524  25.106  23.204  1.00  0.00     0.314 C 
BRANCH   9  18
ATOM     18  C   UNL A   1      37.983  23.000  25.810  1.00  0.00    -0.070 C 
ATOM     19  C   UNL A   1      39.004  22.779  26.405  1.00  0.00     0.010 C 
ENDBRANCH   9  18
BRANCH  17  20
ATOM     20  C   UNL A   1      32.867  26.279  22.263  1.00  0.00     0.429 C 
ATOM     21  F   UNL A   1      33.181  25.822  21.026  1.00  0.00    -0.167 F 
ATOM     22  F   UNL A   1      31.836  27.143  22.099  1.00  0.00    -0.167 F 
ATOM     23  F   UNL A   1      33.914  27.013  22.703  1.00  0.00    -0.167 F 
ENDBRANCH  17  20
ENDBRANCH   5   8
ENDBRANCH   3   4
ENDBRANCH   2   3
ENDBRANCH   1   2
BRANCH   1  24
ATOM     24  N   UNL A   1      33.589  30.077  27.709  1.00  0.00    -0.352 N 
ATOM     25  C   UNL A   1      34.591  30.722  28.395  1.00  0.00     0.251 C 
ATOM     26  H   UNL A   1      32.784  30.619  27.548  1.00  0.00     0.163 HD
ATOM     27  O   UNL A   1      34.365  31.794  28.947  1.00  0.00    -0.269 OA
BRANCH  25  28
ATOM     28  C   UNL A   1      35.923  30.097  28.481  1.00  0.00     0.039 A 
ATOM     29  C   UNL A   1      36.344  29.552  29.690  1.00  0.00     0.014 A 
ATOM     30  C   UNL A   1      36.778  30.114  27.379  1.00  0.00     0.014 A 
ATOM     31  C   UNL A   1      37.688  29.283  29.878  1.00  0.00     0.010 A 
ATOM     32  C   UNL A   1      38.100  29.690  27.531  1.00  0.00     0.010 A 
ATOM     33  C   UNL A   1      38.586  29.342  28.801  1.00  0.00    -0.014 A 
BRANCH  33  34
ATOM     34  C   UNL A   1      40.021  29.044  29.050  1.00  0.00     0.031 A 
ATOM     35  C   UNL A   1      40.614  27.715  28.660  1.00  0.00     0.074 A 
ATOM     36  C   UNL A   1      40.806  30.016  29.557  1.00  0.00     0.049 A 
ATOM     37  N   UNL A   1      41.849  27.302  28.779  1.00  0.00    -0.248 NA
ATOM     38  C   UNL A   1      39.709  26.716  28.066  1.00  0.00     0.031 C 
ATOM     39  C   UNL A   1      40.345  31.351  29.953  1.00  0.00     0.029 A 
ATOM     40  N   UNL A   1      42.156  30.053  29.793  1.00  0.00    -0.354 N 
ATOM     41  C   UNL A   1      41.867  25.998  28.298  1.00  0.00     0.074 A 
ATOM     42  C   UNL A   1      40.510  25.670  27.923  1.00  0.00     0.031 C 
ATOM     43  C   UNL A   1      41.399  32.094  30.314  1.00  0.00     0.029 A 
ATOM     44  C   UNL A   1      42.597  31.265  30.269  1.00  0.00     0.049 A 
ATOM     45  H   UNL A   1      42.752  29.285  29.637  1.00  0.00     0.167 HD
ATOM     46  C   UNL A   1      42.923  25.159  28.167  1.00  0.00     0.037 A 
ATOM     47  C   UNL A   1      43.824  31.665  30.655  1.00  0.00     0.037 A 
ATOM     48  C   UNL A   1      44.274  25.508  28.523  1.00  0.00     0.049 A 
ATOM     49  C   UNL A   1      44.963  30.693  30.560  1.00  0.00     0.074 A 
ATOM     50  C   UNL A   1      45.416  24.736  28.408  1.00  0.00     0.029 A 
ATOM     51  N   UNL A   1      44.665  26.723  29.067  1.00  0.00    -0.354 N 
ATOM     52  N   UNL A   1      44.962  29.470  30.086  1.00  0.00    -0.248 NA
ATOM     53  C   UNL A   1      46.266  31.145  31.061  1.00  0.00     0.031 C 
ATOM     54  C   UNL A   1      46.487  25.458  28.941  1.00  0.00     0.029 A 
ATOM     55  C   UNL A   1      46.026  26.708  29.324  1.00  0.00     0.049 A 
ATOM     56  H   UNL A   1      44.066  27.483  29.241  1.00  0.00     0.167 HD
ATOM     57  C   UNL A   1      46.267  29.011  30.217  1.00  0.00     0.074 A 
ATOM     58  C   UNL A   1      47.033  30.096  30.794  1.00  0.00     0.031 C 
ATOM     59  C   UNL A   1      46.780  27.798  29.895  1.00  0.00     0.037 A 
BRANCH  46  60
ATOM     60  C   UNL A   1      42.669  23.777  27.623  1.00  0.00     0.058 A 
ATOM     61  C   UNL A   1      42.725  23.500  26.248  1.00  0.00     0.135 A 
ATOM     62  C   UNL A   1      42.439  22.700  28.497  1.00  0.00     0.135 A 
ATOM     63  F   UNL A   1      42.927  24.490  25.365  1.00  0.00    -0.206 F 
ATOM     64  C   UNL A   1      42.545  22.209  25.759  1.00  0.00     0.059 A 
ATOM     65  C   UNL A   1      42.287  21.397  28.032  1.00  0.00     0.059 A 
ATOM     66  F   UNL A   1      42.376  22.907  29.822  1.00  0.00    -0.206 F 
ATOM     67  C   UNL A   1      42.332  21.163  26.659  1.00  0.00     0.060 A 
BRANCH  67  68
ATOM     68  S   UNL A   1      42.115  19.497  26.000  1.00  0.00     0.124 S 
ATOM     69  O   UNL A   1      40.676  19.466  25.754  1.00  0.00    -0.237 OA
ATOM     70  O   UNL A   1      42.960  19.523  24.810  1.00  0.00    -0.237 OA
ATOM     71  O   UNL A   1      42.582  18.637  27.082  1.00  0.00    -0.744 OA
ENDBRANCH  67  68
ENDBRANCH  46  60
BRANCH  47  72
ATOM     72  C   UNL A   1      44.018  33.045  31.173  1.00  0.00     0.058 A 
ATOM     73  C   UNL A   1      44.247  34.120  30.304  1.00  0.00     0.135 A 
ATOM     74  C   UNL A   1      43.933  33.324  32.548  1.00  0.00     0.135 A 
ATOM     75  F   UNL A   1      44.342  33.906  28.983  1.00  0.00    -0.206 F 
ATOM     76  C   UNL A   1      44.392  35.421  30.776  1.00  0.00     0.059 A 
ATOM     77  C   UNL A   1      44.039  34.620  33.042  1.00  0.00     0.059 A 
ATOM     78  F   UNL A   1      43.698  32.334  33.423  1.00  0.00    -0.206 F 
ATOM     79  C   UNL A   1      44.275  35.661  32.147  1.00  0.00     0.060 A 
BRANCH  79  80
ATOM     80  S   UNL A   1      44.410  37.361  32.737  1.00  0.00     0.124 S 
ATOM     81  O   UNL A   1      43.232  37.471  33.591  1.00  0.00    -0.237 OA
ATOM     82  O   UNL A   1      45.698  37.342  33.423  1.00  0.00    -0.237 OA
ATOM     83  O   UNL A   1      44.373  38.149  31.509  1.00  0.00    -0.744 OA
ENDBRANCH  79  80
ENDBRANCH  47  72
BRANCH  59  84
ATOM     84  C   UNL A   1      48.245  27.569  30.143  1.00  0.00     0.058 A 
ATOM     85  C   UNL A   1      48.700  26.906  31.292  1.00  0.00     0.135 A 
ATOM     86  C   UNL A   1      49.195  27.927  29.172  1.00  0.00     0.135 A 
ATOM     87  F   UNL A   1      47.834  26.551  32.256  1.00  0.00    -0.206 F 
ATOM     88  C   UNL A   1      50.046  26.611  31.474  1.00  0.00     0.059 A 
ATOM     89  C   UNL A   1      50.542  27.613  29.317  1.00  0.00     0.059 A 
ATOM     90  F   UNL A   1      48.811  28.557  28.049  1.00  0.00    -0.206 F 
ATOM     91  C   UNL A   1      50.958  26.957  30.475  1.00  0.00     0.060 A 
BRANCH  91  92
ATOM     92  S   UNL A   1      52.691  26.507  30.701  1.00  0.00     0.124 S 
ATOM     93  O   UNL A   1      52.582  25.335  31.565  1.00  0.00    -0.237 OA
ATOM     94  O   UNL A   1      53.122  26.246  29.331  1.00  0.00    -0.237 OA
ATOM     95  O   UNL A   1      53.274  27.692  31.323  1.00  0.00    -0.744 OA
ENDBRANCH  91  92
ENDBRANCH  59  84
ENDBRANCH  33  34
ENDBRANCH  25  28
ENDBRANCH   1  24
TORSDOF 15
ENDMDL
MODEL 2
REMARK VINA RESULT:     -11.5      5.214     10.029
REMARK SMILES C#Cc1ccc2c(c1)C=C(C(=O)NCCCNC(=O)c1ccc(-c3c4nc(c(-c5c(F)cc(S(=O)(=O)[O-])cc5F)c5ccc([nH]5)c(-c5c(F)cc(S(=O)(=O)[O-])cc5F)c5nc(c(-c6c(F)cc(S(=O)(=O)[O-])cc6F)c6ccc3[nH]6)C=C5)C=C4)cc1)[C@@H](C(F)(F)F)O2
REMARK SMILES IDX 16 1 15 2 14 3 13 4 11 5 12 6 10 8 3 9 4 10 8 11 5 12 7 13
REMARK SMILES IDX 6 14 9 15 91 16 86 17 2 18 1 19 87 20 88 21 89 22 90 23
REMARK SMILES IDX 17 24 18 25 19 27 20 28 21 29 85 30 22 31 84 32 23 33 24 34
REMARK SMILES IDX 25 35 78 36 26 37 83 38 77 39 79 40 27 41 82 42 76 43 75 44
REMARK SMILES IDX 28 46 62 47 41 48 61 49 42 50 45 51 60 52 80 53 43 54 44 55
REMARK SMILES IDX 59 57 81 58 46 59 29 60 30 61 39 62 31 63 32 64 38 65 40 66
REMARK SMILES IDX 33 67 34 68 35 69 36 70 37 71 63 72 64 73 73 74 65 75 66 76
REMARK SMILES IDX 72 77 74 78 67 79 68 80 69 81 70 82 71 83 47 84 48 85 57 86
REMARK SMILES IDX 49 87 50 88 56 89 58 90 51 91 52 92 53 93 54 94 55 95
REMARK H PARENT 13 7 17 26 79 45 45 56
REMARK Flexibility Score: inf
ROOT
ATOM      1  C   UNL A   1      40.359  23.125  27.019  1.00  0.00     0.118 C 
ENDROOT
BRANCH   1   2
ATOM      2  C   UNL A   1      39.374  22.137  26.421  1.00  0.00     0.042 C 
BRANCH   2   3
ATOM      3  C   UNL A   1      38.049  22.798  26.096  1.00  0.00     0.118 C 
BRANCH   3   4
ATOM      4  N   UNL A   1      37.748  22.755  24.672  1.00  0.00    -0.352 N 
ATOM      5  C   UNL A   1      36.658  22.916  23.885  1.00  0.00     0.251 C 
ATOM      6  O   UNL A   1      36.863  22.834  22.670  1.00  0.00    -0.270 OA
ATOM      7  H   UNL A   1      38.552  22.556  24.139  1.00  0.00     0.163 HD
BRANCH   5   8
ATOM      8  C   UNL A   1      35.278  23.179  24.388  1.00  0.00     0.067 C 
ATOM      9  C   UNL A   1      32.097  26.233  26.365  1.00  0.00     0.025 A 
ATOM     10  C   UNL A   1      31.080  25.294  26.173  1.00  0.00     0.021 A 
ATOM     11  C   UNL A   1      33.402  25.957  25.939  1.00  0.00     0.029 A 
ATOM     12  C   UNL A   1      31.363  24.081  25.555  1.00  0.00     0.048 A 
ATOM     13  C   UNL A   1      33.691  24.735  25.322  1.00  0.00     0.018 A 
ATOM     14  C   UNL A   1      32.664  23.806  25.143  1.00  0.00     0.128 A 
ATOM     15  C   UNL A   1      35.025  24.428  24.820  1.00  0.00     0.025 C 
ATOM     16  O   UNL A   1      32.848  22.609  24.521  1.00  0.00    -0.475 OA
ATOM     17  C   UNL A   1      34.211  22.124  24.449  1.00  0.00     0.314 C 
BRANCH   9  18
ATOM     18  C   UNL A   1      31.786  27.482  26.986  1.00  0.00    -0.070 C 
ATOM     19  C   UNL A   1      31.516  28.515  27.537  1.00  0.00     0.010 C 
ENDBRANCH   9  18
BRANCH  17  20
ATOM     20  C   UNL A   1      34.448  21.119  25.595  1.00  0.00     0.429 C 
ATOM     21  F   UNL A   1      35.259  20.112  25.185  1.00  0.00    -0.167 F 
ATOM     22  F   UNL A   1      35.052  21.679  26.671  1.00  0.00    -0.167 F 
ATOM     23  F   UNL A   1      33.303  20.561  26.046  1.00  0.00    -0.167 F 
ENDBRANCH  17  20
ENDBRANCH   5   8
ENDBRANCH   3   4
ENDBRANCH   2   3
ENDBRANCH   1   2
BRANCH   1  24
ATOM     24  N   UNL A   1      40.875  24.067  26.022  1.00  0.00    -0.352 N 
ATOM     25  C   UNL A   1      41.137  25.414  26.118  1.00  0.00     0.251 C 
ATOM     26  H   UNL A   1      41.065  23.672  25.141  1.00  0.00     0.163 HD
ATOM     27  O   UNL A   1      41.357  26.071  25.106  1.00  0.00    -0.269 OA
BRANCH  25  28
ATOM     28  C   UNL A   1      41.121  26.057  27.445  1.00  0.00     0.039 A 
ATOM     29  C   UNL A   1      39.982  25.956  28.239  1.00  0.00     0.014 A 
ATOM     30  C   UNL A   1      42.211  26.818  27.868  1.00  0.00     0.014 A 
ATOM     31  C   UNL A   1      39.823  26.823  29.305  1.00  0.00     0.010 A 
ATOM     32  C   UNL A   1      42.106  27.574  29.038  1.00  0.00     0.010 A 
ATOM     33  C   UNL A   1      40.883  27.641  29.725  1.00  0.00    -0.014 A 
BRANCH  33  34
ATOM     34  C   UNL A   1      40.667  28.556  30.876  1.00  0.00     0.031 A 
ATOM     35  C   UNL A   1      41.556  28.494  32.091  1.00  0.00     0.074 A 
ATOM     36  C   UNL A   1      39.711  29.502  30.781  1.00  0.00     0.049 A 
ATOM     37  N   UNL A   1      41.524  29.235  33.169  1.00  0.00    -0.248 NA
ATOM     38  C   UNL A   1      42.612  27.467  32.108  1.00  0.00     0.031 C 
ATOM     39  C   UNL A   1      38.802  29.670  29.642  1.00  0.00     0.029 A 
ATOM     40  N   UNL A   1      39.363  30.521  31.630  1.00  0.00    -0.354 N 
ATOM     41  C   UNL A   1      42.534  28.756  33.995  1.00  0.00     0.074 A 
ATOM     42  C   UNL A   1      43.137  27.632  33.314  1.00  0.00     0.031 C 
ATOM     43  C   UNL A   1      38.055  30.765  29.831  1.00  0.00     0.029 A 
ATOM     44  C   UNL A   1      38.358  31.323  31.143  1.00  0.00     0.049 A 
ATOM     45  H   UNL A   1      39.793  30.665  32.504  1.00  0.00     0.167 HD
ATOM     46  C   UNL A   1      42.932  29.224  35.202  1.00  0.00     0.037 A 
ATOM     47  C   UNL A   1      37.726  32.375  31.696  1.00  0.00     0.037 A 
ATOM     48  C   UNL A   1      42.338  30.360  35.859  1.00  0.00     0.049 A 
ATOM     49  C   UNL A   1      38.144  32.831  33.064  1.00  0.00     0.074 A 
ATOM     50  C   UNL A   1      42.684  30.924  37.073  1.00  0.00     0.029 A 
ATOM     51  N   UNL A   1      41.276  31.101  35.361  1.00  0.00    -0.354 N 
ATOM     52  N   UNL A   1      39.113  32.375  33.821  1.00  0.00    -0.248 NA
ATOM     53  C   UNL A   1      37.379  33.932  33.660  1.00  0.00     0.031 C 
ATOM     54  C   UNL A   1      41.791  31.965  37.341  1.00  0.00     0.029 A 
ATOM     55  C   UNL A   1      40.932  32.095  36.261  1.00  0.00     0.049 A 
ATOM     56  H   UNL A   1      40.834  30.944  34.496  1.00  0.00     0.167 HD
ATOM     57  C   UNL A   1      39.085  33.144  34.977  1.00  0.00     0.074 A 
ATOM     58  C   UNL A   1      38.017  34.109  34.809  1.00  0.00     0.031 C 
ATOM     59  C   UNL A   1      39.869  33.054  36.080  1.00  0.00     0.037 A 
BRANCH  46  60
ATOM     60  C   UNL A   1      44.057  28.509  35.905  1.00  0.00     0.058 A 
ATOM     61  C   UNL A   1      43.822  27.429  36.770  1.00  0.00     0.135 A 
ATOM     62  C   UNL A   1      45.393  28.864  35.653  1.00  0.00     0.135 A 
ATOM     63  F   UNL A   1      42.566  27.054  37.060  1.00  0.00    -0.206 F 
ATOM     64  C   UNL A   1      44.870  26.738  37.373  1.00  0.00     0.059 A 
ATOM     65  C   UNL A   1      46.457  28.169  36.220  1.00  0.00     0.059 A 
ATOM     66  F   UNL A   1      45.677  29.890  34.835  1.00  0.00    -0.206 F 
ATOM     67  C   UNL A   1      46.185  27.112  37.087  1.00  0.00     0.060 A 
BRANCH  67  68
ATOM     68  S   UNL A   1      47.526  26.193  37.870  1.00  0.00     0.124 S 
ATOM     69  O   UNL A   1      46.848  25.613  39.025  1.00  0.00    -0.237 OA
ATOM     70  O   UNL A   1      47.907  25.251  36.822  1.00  0.00    -0.237 OA
ATOM     71  O   UNL A   1      48.514  27.222  38.177  1.00  0.00    -0.744 OA
ENDBRANCH  67  68
ENDBRANCH  46  60
BRANCH  47  72
ATOM     72  C   UNL A   1      36.630  33.049  30.951  1.00  0.00     0.058 A 
ATOM     73  C   UNL A   1      35.288  32.851  31.302  1.00  0.00     0.135 A 
ATOM     74  C   UNL A   1      36.906  33.943  29.901  1.00  0.00     0.135 A 
ATOM     75  F   UNL A   1      34.971  32.004  32.293  1.00  0.00    -0.206 F 
ATOM     76  C   UNL A   1      34.257  33.507  30.636  1.00  0.00     0.059 A 
ATOM     77  C   UNL A   1      35.895  34.637  29.245  1.00  0.00     0.059 A 
ATOM     78  F   UNL A   1      38.175  34.183  29.537  1.00  0.00    -0.206 F 
ATOM     79  C   UNL A   1      34.572  34.406  29.616  1.00  0.00     0.060 A 
BRANCH  79  80
ATOM     80  S   UNL A   1      33.227  35.290  28.800  1.00  0.00     0.124 S 
ATOM     81  O   UNL A   1      33.953  36.323  28.069  1.00  0.00    -0.237 OA
ATOM     82  O   UNL A   1      32.622  34.238  27.990  1.00  0.00    -0.237 OA
ATOM     83  O   UNL A   1      32.411  35.763  29.914  1.00  0.00    -0.744 OA
ENDBRANCH  79  80
ENDBRANCH  47  72
BRANCH  59  84
ATOM     84  C   UNL A   1      39.619  34.029  37.197  1.00  0.00     0.058 A 
ATOM     85  C   UNL A   1      38.882  33.667  38.335  1.00  0.00     0.135 A 
ATOM     86  C   UNL A   1      40.210  35.302  37.176  1.00  0.00     0.135 A 
ATOM     87  F   UNL A   1      38.288  32.464  38.403  1.00  0.00    -0.206 F 
ATOM     88  C   UNL A   1      38.733  34.537  39.409  1.00  0.00     0.059 A 
ATOM     89  C   UNL A   1      40.103  36.176  38.253  1.00  0.00     0.059 A 
ATOM     90  F   UNL A   1      40.934  35.695  36.114  1.00  0.00    -0.206 F 
ATOM     91  C   UNL A   1      39.358  35.784  39.364  1.00  0.00     0.060 A 
BRANCH  91  92
ATOM     92  S   UNL A   1      39.207  36.873  40.796  1.00  0.00     0.124 S 
ATOM     93  O   UNL A   1      40.603  37.195  41.072  1.00  0.00    -0.237 OA
ATOM     94  O   UNL A   1      38.397  37.966  40.266  1.00  0.00    -0.237 OA
ATOM     95  O   UNL A   1      38.548  36.036  41.794  1.00  0.00    -0.744 OA
ENDBRANCH  91  92
ENDBRANCH  59  84
ENDBRANCH  33  34
ENDBRANCH  25  28
ENDBRANCH   1  24
TORSDOF 15
ENDMDL
MODEL 3
REMARK VINA RESULT:     -11.3      2.666      8.805
REMARK SMILES C#Cc1ccc2c(c1)C=C(C(=O)NCCCNC(=O)c1ccc(-c3c4nc(c(-c5c(F)cc(S(=O)(=O)[O-])cc5F)c5ccc([nH]5)c(-c5c(F)cc(S(=O)(=O)[O-])cc5F)c5nc(c(-c6c(F)cc(S(=O)(=O)[O-])cc6F)c6ccc3[nH]6)C=C5)C=C4)cc1)[C@@H](C(F)(F)F)O2
REMARK SMILES IDX 16 1 15 2 14 3 13 4 11 5 12 6 10 8 3 9 4 10 8 11 5 12 7 13
REMARK SMILES IDX 6 14 9 15 91 16 86 17 2 18 1 19 87 20 88 21 89 22 90 23
REMARK SMILES IDX 17 24 18 25 19 27 20 28 21 29 85 30 22 31 84 32 23 33 24 34
REMARK SMILES IDX 25 35 78 36 26 37 83 38 77 39 79 40 27 41 82 42 76 43 75 44
REMARK SMILES IDX 28 46 62 47 41 48 61 49 42 50 45 51 60 52 80 53 43 54 44 55
REMARK SMILES IDX 59 57 81 58 46 59 29 60 30 61 39 62 31 63 32 64 38 65 40 66
REMARK SMILES IDX 33 67 34 68 35 69 36 70 37 71 63 72 64 73 73 74 65 75 66 76
REMARK SMILES IDX 72 77 74 78 67 79 68 80 69 81 70 82 71 83 47 84 48 85 57 86
REMARK SMILES IDX 49 87 50 88 56 89 58 90 51 91 52 92 53 93 54 94 55 95
REMARK H PARENT 13 7 17 26 79 45 45 56
REMARK Flexibility Score: inf
ROOT
ATOM      1  C   UNL A   1      35.605  31.525  28.424  1.00  0.00     0.118 C 
ENDROOT
BRANCH   1   2
ATOM      2  C   UNL A   1      34.300  31.351  27.670  1.00  0.00     0.042 C 
BRANCH   2   3
ATOM      3  C   UNL A   1      34.125  29.926  27.179  1.00  0.00     0.118 C 
BRANCH   3   4
ATOM      4  N   UNL A   1      32.911  29.312  27.699  1.00  0.00    -0.352 N 
ATOM      5  C   UNL A   1      32.086  28.298  27.346  1.00  0.00     0.251 C 
ATOM      6  O   UNL A   1      31.153  28.076  28.125  1.00  0.00    -0.270 OA
ATOM      7  H   UNL A   1      32.610  29.751  28.527  1.00  0.00     0.163 HD
BRANCH   5   8
ATOM      8  C   UNL A   1      32.238  27.467  26.117  1.00  0.00     0.067 C 
ATOM      9  C   UNL A   1      34.691  24.100  23.666  1.00  0.00     0.025 A 
ATOM     10  C   UNL A   1      33.694  24.091  22.686  1.00  0.00     0.021 A 
ATOM     11  C   UNL A   1      34.567  24.924  24.791  1.00  0.00     0.029 A 
ATOM     12  C   UNL A   1      32.574  24.902  22.829  1.00  0.00     0.048 A 
ATOM     13  C   UNL A   1      33.443  25.744  24.934  1.00  0.00     0.018 A 
ATOM     14  C   UNL A   1      32.459  25.727  23.944  1.00  0.00     0.128 A 
ATOM     15  C   UNL A   1      33.251  26.581  26.114  1.00  0.00     0.025 C 
ATOM     16  O   UNL A   1      31.317  26.466  24.020  1.00  0.00    -0.475 OA
ATOM     17  C   UNL A   1      31.344  27.602  24.917  1.00  0.00     0.314 C 
BRANCH   9  18
ATOM     18  C   UNL A   1      35.828  23.248  23.513  1.00  0.00    -0.070 C 
ATOM     19  C   UNL A   1      36.763  22.504  23.386  1.00  0.00     0.010 C 
ENDBRANCH   9  18
BRANCH  17  20
ATOM     20  C   UNL A   1      31.648  28.877  24.105  1.00  0.00     0.429 C 
ATOM     21  F   UNL A   1      32.984  29.105  24.058  1.00  0.00    -0.167 F 
ATOM     22  F   UNL A   1      31.231  28.795  22.819  1.00  0.00    -0.167 F 
ATOM     23  F   UNL A   1      31.066  29.980  24.627  1.00  0.00    -0.167 F 
ENDBRANCH  17  20
ENDBRANCH   5   8
ENDBRANCH   3   4
ENDBRANCH   2   3
ENDBRANCH   1   2
BRANCH   1  24
ATOM     24  N   UNL A   1      35.577  30.879  29.740  1.00  0.00    -0.352 N 
ATOM     25  C   UNL A   1      36.538  30.145  30.395  1.00  0.00     0.251 C 
ATOM     26  H   UNL A   1      34.734  30.989  30.235  1.00  0.00     0.163 HD
ATOM     27  O   UNL A   1      36.243  29.502  31.397  1.00  0.00    -0.269 OA
BRANCH  25  28
ATOM     28  C   UNL A   1      37.912  30.119  29.861  1.00  0.00     0.039 A 
ATOM     29  C   UNL A   1      38.121  29.766  28.531  1.00  0.00     0.014 A 
ATOM     30  C   UNL A   1      38.995  30.379  30.701  1.00  0.00     0.014 A 
ATOM     31  C   UNL A   1      39.392  29.405  28.120  1.00  0.00     0.010 A 
ATOM     32  C   UNL A   1      40.293  30.165  30.231  1.00  0.00     0.010 A 
ATOM     33  C   UNL A   1      40.498  29.604  28.961  1.00  0.00    -0.014 A 
BRANCH  33  34
ATOM     34  C   UNL A   1      41.845  29.202  28.477  1.00  0.00     0.031 A 
ATOM     35  C   UNL A   1      42.990  30.181  28.477  1.00  0.00     0.074 A 
ATOM     36  C   UNL A   1      42.047  27.919  28.114  1.00  0.00     0.049 A 
ATOM     37  N   UNL A   1      44.233  29.988  28.116  1.00  0.00    -0.248 NA
ATOM     38  C   UNL A   1      42.710  31.553  28.932  1.00  0.00     0.031 C 
ATOM     39  C   UNL A   1      41.015  26.877  28.094  1.00  0.00     0.029 A 
ATOM     40  N   UNL A   1      43.185  27.260  27.729  1.00  0.00    -0.354 N 
ATOM     41  C   UNL A   1      44.875  31.210  28.280  1.00  0.00     0.074 A 
ATOM     42  C   UNL A   1      43.877  32.153  28.734  1.00  0.00     0.031 C 
ATOM     43  C   UNL A   1      41.580  25.703  27.786  1.00  0.00     0.029 A 
ATOM     44  C   UNL A   1      42.991  25.919  27.493  1.00  0.00     0.049 A 
ATOM     45  H   UNL A   1      44.059  27.704  27.631  1.00  0.00     0.167 HD
ATOM     46  C   UNL A   1      46.181  31.512  28.086  1.00  0.00     0.037 A 
ATOM     47  C   UNL A   1      43.842  24.970  27.062  1.00  0.00     0.037 A 
ATOM     48  C   UNL A   1      47.170  30.558  27.656  1.00  0.00     0.049 A 
ATOM     49  C   UNL A   1      45.269  25.348  26.791  1.00  0.00     0.074 A 
ATOM     50  C   UNL A   1      48.523  30.760  27.452  1.00  0.00     0.029 A 
ATOM     51  N   UNL A   1      46.916  29.226  27.362  1.00  0.00    -0.354 N 
ATOM     52  N   UNL A   1      45.860  26.505  26.970  1.00  0.00    -0.248 NA
ATOM     53  C   UNL A   1      46.143  24.300  26.251  1.00  0.00     0.031 C 
ATOM     54  C   UNL A   1      49.075  29.570  26.971  1.00  0.00     0.029 A 
ATOM     55  C   UNL A   1      48.081  28.605  26.943  1.00  0.00     0.049 A 
ATOM     56  H   UNL A   1      46.039  28.787  27.440  1.00  0.00     0.167 HD
ATOM     57  C   UNL A   1      47.180  26.321  26.578  1.00  0.00     0.074 A 
ATOM     58  C   UNL A   1      47.306  24.935  26.175  1.00  0.00     0.031 C 
ATOM     59  C   UNL A   1      48.194  27.221  26.549  1.00  0.00     0.037 A 
BRANCH  46  60
ATOM     60  C   UNL A   1      46.626  32.932  28.326  1.00  0.00     0.058 A 
ATOM     61  C   UNL A   1      46.573  33.905  27.316  1.00  0.00     0.135 A 
ATOM     62  C   UNL A   1      47.041  33.341  29.605  1.00  0.00     0.135 A 
ATOM     63  F   UNL A   1      46.198  33.570  26.071  1.00  0.00    -0.206 F 
ATOM     64  C   UNL A   1      46.933  35.227  27.560  1.00  0.00     0.059 A 
ATOM     65  C   UNL A   1      47.376  34.664  29.879  1.00  0.00     0.059 A 
ATOM     66  F   UNL A   1      47.111  32.453  30.609  1.00  0.00    -0.206 F 
ATOM     67  C   UNL A   1      47.328  35.599  28.847  1.00  0.00     0.060 A 
BRANCH  67  68
ATOM     68  S   UNL A   1      47.776  37.321  29.142  1.00  0.00     0.124 S 
ATOM     69  O   UNL A   1      49.232  37.236  29.212  1.00  0.00    -0.237 OA
ATOM     70  O   UNL A   1      47.238  37.987  27.960  1.00  0.00    -0.237 OA
ATOM     71  O   UNL A   1      47.108  37.640  30.400  1.00  0.00    -0.744 OA
ENDBRANCH  67  68
ENDBRANCH  46  60
BRANCH  47  72
ATOM     72  C   UNL A   1      43.350  23.582  26.853  1.00  0.00     0.058 A 
ATOM     73  C   UNL A   1      43.118  23.083  25.565  1.00  0.00     0.135 A 
ATOM     74  C   UNL A   1      43.147  22.711  27.938  1.00  0.00     0.135 A 
ATOM     75  F   UNL A   1      43.292  23.875  24.496  1.00  0.00    -0.206 F 
ATOM     76  C   UNL A   1      42.694  21.773  25.357  1.00  0.00     0.059 A 
ATOM     77  C   UNL A   1      42.759  21.388  27.754  1.00  0.00     0.059 A 
ATOM     78  F   UNL A   1      43.373  23.133  29.192  1.00  0.00    -0.206 F 
ATOM     79  C   UNL A   1      42.529  20.931  26.458  1.00  0.00     0.060 A 
BRANCH  79  80
ATOM     80  S   UNL A   1      42.034  19.220  26.168  1.00  0.00     0.124 S 
ATOM     81  O   UNL A   1      42.859  18.866  25.018  1.00  0.00    -0.237 OA
ATOM     82  O   UNL A   1      42.391  18.584  27.432  1.00  0.00    -0.237 OA
ATOM     83  O   UNL A   1      40.601  19.323  25.908  1.00  0.00    -0.744 OA
ENDBRANCH  79  80
ENDBRANCH  47  72
BRANCH  59  84
ATOM     84  C   UNL A   1      49.540  26.745  26.078  1.00  0.00     0.058 A 
ATOM     85  C   UNL A   1      49.996  27.006  24.778  1.00  0.00     0.135 A 
ATOM     86  C   UNL A   1      50.421  26.110  26.968  1.00  0.00     0.135 A 
ATOM     87  F   UNL A   1      49.190  27.601  23.884  1.00  0.00    -0.206 F 
ATOM     88  C   UNL A   1      51.277  26.649  24.374  1.00  0.00     0.059 A 
ATOM     89  C   UNL A   1      51.719  25.774  26.597  1.00  0.00     0.059 A 
ATOM     90  F   UNL A   1      50.037  25.845  28.228  1.00  0.00    -0.206 F 
ATOM     91  C   UNL A   1      52.136  26.045  25.295  1.00  0.00     0.060 A 
BRANCH  91  92
ATOM     92  S   UNL A   1      53.817  25.649  24.770  1.00  0.00     0.124 S 
ATOM     93  O   UNL A   1      53.860  24.205  24.978  1.00  0.00    -0.237 OA
ATOM     94  O   UNL A   1      53.816  26.089  23.378  1.00  0.00    -0.237 OA
ATOM     95  O   UNL A   1      54.652  26.437  25.671  1.00  0.00    -0.744 OA
ENDBRANCH  91  92
ENDBRANCH  59  84
ENDBRANCH  33  34
ENDBRANCH  25  28
ENDBRANCH   1  24
TORSDOF 15
ENDMDL
