MODEL 1
REMARK VINA RESULT:     -12.3      0.000      0.000
REMARK SMILES CC(C)(C(=O)NCCCNC(=O)c1ccc(-c2c3nc(c(-c4c(F)cc(S(=O)(=O)[O-])cc4F)c4ccc([nH]4)c(-c4c(F)cc(S(=O)(=O)[O-])cc4F)c4nc(c(-c5c(F)cc(S(=O)(=O)[O-])cc5F)c5ccc2[nH]5)C=C4)C=C3)cc1)N1C(=O)/C(=C/c2ccc(C=O)cc2)SC1=S
REMARK SMILES IDX 8 1 7 2 6 3 4 4 5 5 2 7 1 8 3 9 79 10 80 11 93 12 81 13
REMARK SMILES IDX 82 14 92 15 94 16 83 17 84 18 85 19 91 20 86 21 90 22 87 23
REMARK SMILES IDX 88 24 89 25 9 26 10 27 11 28 12 30 13 31 14 32 78 33 15 34
REMARK SMILES IDX 77 35 16 36 17 37 18 38 71 39 19 40 76 41 70 42 72 43 20 44
REMARK SMILES IDX 75 45 69 46 68 47 21 49 55 50 34 51 54 52 35 53 38 54 53 55
REMARK SMILES IDX 73 56 36 57 37 58 52 60 74 61 39 62 22 63 23 64 32 65 24 66
REMARK SMILES IDX 25 67 31 68 33 69 26 70 27 71 28 72 29 73 30 74 56 75 57 76
REMARK SMILES IDX 66 77 58 78 59 79 65 80 67 81 60 82 61 83 62 84 63 85 64 86
REMARK SMILES IDX 40 87 41 88 50 89 42 90 43 91 49 92 51 93 44 94 45 95 46 96
REMARK SMILES IDX 47 97 48 98
REMARK H PARENT 6 6 10 29 72 48 38 59
REMARK Flexibility Score: inf
ROOT
ATOM      1  C   UNL A   1      37.501  23.768  25.380  1.00  0.00     0.042 C 
ENDROOT
BRANCH   1   2
ATOM      2  C   UNL A   1      36.188  23.109  25.767  1.00  0.00     0.117 C 
BRANCH   2   3
ATOM      3  N   UNL A   1      36.073  21.735  25.313  1.00  0.00    -0.354 N 
ATOM      4  C   UNL A   1      35.024  20.861  25.294  1.00  0.00     0.245 C 
ATOM      5  O   UNL A   1      35.196  19.830  24.630  1.00  0.00    -0.272 OA
ATOM      6  H   UNL A   1      36.909  21.362  24.949  1.00  0.00     0.163 HD
BRANCH   4   7
ATOM      7  C   UNL A   1      33.662  21.147  26.009  1.00  0.00     0.122 C 
ATOM      8  C   UNL A   1      32.752  19.895  26.044  1.00  0.00     0.046 C 
ATOM      9  C   UNL A   1      33.936  21.542  27.473  1.00  0.00     0.046 C 
BRANCH   7  10
ATOM     10  N   UNL A   1      32.991  22.252  25.190  1.00  0.00    -0.278 N 
ATOM     11  C   UNL A   1      32.694  23.454  25.851  1.00  0.00     0.267 C 
ATOM     12  C   UNL A   1      32.459  22.165  23.911  1.00  0.00     0.149 C 
ATOM     13  O   UNL A   1      32.942  23.739  27.013  1.00  0.00    -0.268 OA
ATOM     14  C   UNL A   1      31.968  24.398  24.959  1.00  0.00     0.081 C 
ATOM     15  S   UNL A   1      31.840  23.729  23.393  1.00  0.00    -0.054 SA
ATOM     16  S   UNL A   1      32.333  20.908  22.817  1.00  0.00    -0.052 S 
ATOM     17  C   UNL A   1      31.480  25.582  25.363  1.00  0.00     0.029 C 
BRANCH  17  18
ATOM     18  C   UNL A   1      30.727  26.484  24.479  1.00  0.00    -0.024 A 
ATOM     19  C   UNL A   1      29.354  26.295  24.288  1.00  0.00     0.009 A 
ATOM     20  C   UNL A   1      31.360  27.594  23.899  1.00  0.00     0.009 A 
ATOM     21  C   UNL A   1      28.611  27.238  23.572  1.00  0.00     0.012 A 
ATOM     22  C   UNL A   1      30.619  28.544  23.194  1.00  0.00     0.012 A 
ATOM     23  C   UNL A   1      29.243  28.369  23.046  1.00  0.00     0.014 A 
BRANCH  23  24
ATOM     24  C   UNL A   1      28.458  29.411  22.353  1.00  0.00     0.260 C 
ATOM     25  O   UNL A   1      28.828  29.923  21.304  1.00  0.00    -0.298 OA
ENDBRANCH  23  24
ENDBRANCH  17  18
ENDBRANCH   7  10
ENDBRANCH   4   7
ENDBRANCH   2   3
ENDBRANCH   1   2
BRANCH   1  26
ATOM     26  C   UNL A   1      38.424  24.052  26.556  1.00  0.00     0.118 C 
BRANCH  26  27
ATOM     27  N   UNL A   1      39.831  24.054  26.177  1.00  0.00    -0.352 N 
ATOM     28  C   UNL A   1      40.850  24.912  26.513  1.00  0.00     0.251 C 
ATOM     29  H   UNL A   1      40.096  23.317  25.581  1.00  0.00     0.163 HD
ATOM     30  O   UNL A   1      41.914  24.838  25.901  1.00  0.00    -0.269 OA
BRANCH  28  31
ATOM     31  C   UNL A   1      40.677  25.921  27.582  1.00  0.00     0.039 A 
ATOM     32  C   UNL A   1      39.686  25.720  28.546  1.00  0.00     0.014 A 
ATOM     33  C   UNL A   1      41.457  27.079  27.621  1.00  0.00     0.014 A 
ATOM     34  C   UNL A   1      39.522  26.650  29.576  1.00  0.00     0.010 A 
ATOM     35  C   UNL A   1      41.367  27.944  28.706  1.00  0.00     0.010 A 
ATOM     36  C   UNL A   1      40.385  27.752  29.686  1.00  0.00    -0.014 A 
BRANCH  36  37
ATOM     37  C   UNL A   1      40.261  28.714  30.811  1.00  0.00     0.031 A 
ATOM     38  C   UNL A   1      41.132  28.575  32.033  1.00  0.00     0.074 A 
ATOM     39  C   UNL A   1      39.333  29.690  30.748  1.00  0.00     0.049 A 
ATOM     40  N   UNL A   1      41.161  29.313  33.113  1.00  0.00    -0.248 NA
ATOM     41  C   UNL A   1      42.072  27.443  32.060  1.00  0.00     0.031 C 
ATOM     42  C   UNL A   1      38.385  29.887  29.648  1.00  0.00     0.029 A 
ATOM     43  N   UNL A   1      39.032  30.702  31.625  1.00  0.00    -0.354 N 
ATOM     44  C   UNL A   1      42.111  28.732  33.946  1.00  0.00     0.074 A 
ATOM     45  C   UNL A   1      42.586  27.541  33.277  1.00  0.00     0.031 C 
ATOM     46  C   UNL A   1      37.641  30.975  29.896  1.00  0.00     0.029 A 
ATOM     47  C   UNL A   1      38.026  31.531  31.189  1.00  0.00     0.049 A 
ATOM     48  H   UNL A   1      39.495  30.823  32.487  1.00  0.00     0.167 HD
ATOM     49  C   UNL A   1      42.570  29.166  35.144  1.00  0.00     0.037 A 
ATOM     50  C   UNL A   1      37.477  32.619  31.763  1.00  0.00     0.037 A 
ATOM     51  C   UNL A   1      42.107  30.366  35.792  1.00  0.00     0.049 A 
ATOM     52  C   UNL A   1      38.009  33.088  33.090  1.00  0.00     0.074 A 
ATOM     53  C   UNL A   1      42.546  30.927  36.978  1.00  0.00     0.029 A 
ATOM     54  N   UNL A   1      41.098  31.188  35.311  1.00  0.00    -0.354 N 
ATOM     55  N   UNL A   1      38.962  32.567  33.828  1.00  0.00    -0.248 NA
ATOM     56  C   UNL A   1      37.403  34.298  33.658  1.00  0.00     0.031 C 
ATOM     57  C   UNL A   1      41.767  32.059  37.242  1.00  0.00     0.029 A 
ATOM     58  C   UNL A   1      40.885  32.239  36.188  1.00  0.00     0.049 A 
ATOM     59  H   UNL A   1      40.606  31.046  34.470  1.00  0.00     0.167 HD
ATOM     60  C   UNL A   1      39.087  33.403  34.932  1.00  0.00     0.074 A 
ATOM     61  C   UNL A   1      38.125  34.472  34.754  1.00  0.00     0.031 C 
ATOM     62  C   UNL A   1      39.922  33.297  35.996  1.00  0.00     0.037 A 
BRANCH  49  63
ATOM     63  C   UNL A   1      43.631  28.345  35.828  1.00  0.00     0.058 A 
ATOM     64  C   UNL A   1      45.000  28.571  35.602  1.00  0.00     0.135 A 
ATOM     65  C   UNL A   1      43.279  27.345  36.748  1.00  0.00     0.135 A 
ATOM     66  F   UNL A   1      45.396  29.503  34.720  1.00  0.00    -0.206 F 
ATOM     67  C   UNL A   1      45.978  27.815  36.240  1.00  0.00     0.059 A 
ATOM     68  C   UNL A   1      44.242  26.598  37.423  1.00  0.00     0.059 A 
ATOM     69  F   UNL A   1      41.987  27.084  37.003  1.00  0.00    -0.206 F 
ATOM     70  C   UNL A   1      45.589  26.831  37.151  1.00  0.00     0.060 A 
BRANCH  70  71
ATOM     71  S   UNL A   1      46.873  25.868  37.977  1.00  0.00     0.124 S 
ATOM     72  O   UNL A   1      46.139  25.320  39.114  1.00  0.00    -0.237 OA
ATOM     73  O   UNL A   1      47.252  24.907  36.946  1.00  0.00    -0.237 OA
ATOM     74  O   UNL A   1      47.888  26.864  38.305  1.00  0.00    -0.744 OA
ENDBRANCH  70  71
ENDBRANCH  49  63
BRANCH  50  75
ATOM     75  C   UNL A   1      36.385  33.355  31.072  1.00  0.00     0.058 A 
ATOM     76  C   UNL A   1      36.638  34.112  29.919  1.00  0.00     0.135 A 
ATOM     77  C   UNL A   1      35.063  33.306  31.542  1.00  0.00     0.135 A 
ATOM     78  F   UNL A   1      37.885  34.193  29.430  1.00  0.00    -0.206 F 
ATOM     79  C   UNL A   1      35.627  34.813  29.268  1.00  0.00     0.059 A 
ATOM     80  C   UNL A   1      34.028  33.974  30.893  1.00  0.00     0.059 A 
ATOM     81  F   UNL A   1      34.762  32.581  32.631  1.00  0.00    -0.206 F 
ATOM     82  C   UNL A   1      34.324  34.734  29.762  1.00  0.00     0.060 A 
BRANCH  82  83
ATOM     83  S   UNL A   1      33.011  35.610  28.884  1.00  0.00     0.124 S 
ATOM     84  O   UNL A   1      33.769  36.608  28.139  1.00  0.00    -0.237 OA
ATOM     85  O   UNL A   1      32.408  34.543  28.092  1.00  0.00    -0.237 OA
ATOM     86  O   UNL A   1      32.174  36.128  29.963  1.00  0.00    -0.744 OA
ENDBRANCH  82  83
ENDBRANCH  50  75
BRANCH  62  87
ATOM     87  C   UNL A   1      39.858  34.385  37.033  1.00  0.00     0.058 A 
ATOM     88  C   UNL A   1      39.016  34.293  38.154  1.00  0.00     0.135 A 
ATOM     89  C   UNL A   1      40.671  35.525  36.918  1.00  0.00     0.135 A 
ATOM     90  F   UNL A   1      38.215  33.227  38.312  1.00  0.00    -0.206 F 
ATOM     91  C   UNL A   1      38.954  35.310  39.101  1.00  0.00     0.059 A 
ATOM     92  C   UNL A   1      40.651  36.537  37.871  1.00  0.00     0.059 A 
ATOM     93  F   UNL A   1      41.505  35.657  35.875  1.00  0.00    -0.206 F 
ATOM     94  C   UNL A   1      39.775  36.429  38.950  1.00  0.00     0.060 A 
BRANCH  94  95
ATOM     95  S   UNL A   1      39.691  37.738  40.190  1.00  0.00     0.124 S 
ATOM     96  O   UNL A   1      39.293  36.991  41.379  1.00  0.00    -0.237 OA
ATOM     97  O   UNL A   1      41.056  38.252  40.193  1.00  0.00    -0.237 OA
ATOM     98  O   UNL A   1      38.684  38.650  39.655  1.00  0.00    -0.744 OA
ENDBRANCH  94  95
ENDBRANCH  62  87
ENDBRANCH  36  37
ENDBRANCH  28  31
ENDBRANCH  26  27
ENDBRANCH   1  26
TORSDOF 16
ENDMDL
MODEL 2
REMARK VINA RESULT:     -12.3      3.274      9.725
REMARK SMILES CC(C)(C(=O)NCCCNC(=O)c1ccc(-c2c3nc(c(-c4c(F)cc(S(=O)(=O)[O-])cc4F)c4ccc([nH]4)c(-c4c(F)cc(S(=O)(=O)[O-])cc4F)c4nc(c(-c5c(F)cc(S(=O)(=O)[O-])cc5F)c5ccc2[nH]5)C=C4)C=C3)cc1)N1C(=O)/C(=C/c2ccc(C=O)cc2)SC1=S
REMARK SMILES IDX 8 1 7 2 6 3 4 4 5 5 2 7 1 8 3 9 79 10 80 11 93 12 81 13
REMARK SMILES IDX 82 14 92 15 94 16 83 17 84 18 85 19 91 20 86 21 90 22 87 23
REMARK SMILES IDX 88 24 89 25 9 26 10 27 11 28 12 30 13 31 14 32 78 33 15 34
REMARK SMILES IDX 77 35 16 36 17 37 18 38 71 39 19 40 76 41 70 42 72 43 20 44
REMARK SMILES IDX 75 45 69 46 68 47 21 49 55 50 34 51 54 52 35 53 38 54 53 55
REMARK SMILES IDX 73 56 36 57 37 58 52 60 74 61 39 62 22 63 23 64 32 65 24 66
REMARK SMILES IDX 25 67 31 68 33 69 26 70 27 71 28 72 29 73 30 74 56 75 57 76
REMARK SMILES IDX 66 77 58 78 59 79 65 80 67 81 60 82 61 83 62 84 63 85 64 86
REMARK SMILES IDX 40 87 41 88 50 89 42 90 43 91 49 92 51 93 44 94 45 95 46 96
REMARK SMILES IDX 47 97 48 98
REMARK H PARENT 6 6 10 29 72 48 38 59
REMARK Flexibility Score: inf
ROOT
ATOM      1  C   UNL A   1      33.372  27.682  26.503  1.00  0.00     0.042 C 
ENDROOT
BRANCH   1   2
ATOM      2  C   UNL A   1      31.934  27.763  26.018  1.00  0.00     0.117 C 
BRANCH   2   3
ATOM      3  N   UNL A   1      31.802  27.661  24.576  1.00  0.00    -0.354 N 
ATOM      4  C   UNL A   1      31.278  26.692  23.771  1.00  0.00     0.245 C 
ATOM      5  O   UNL A   1      31.112  27.010  22.586  1.00  0.00    -0.272 OA
ATOM      6  H   UNL A   1      32.158  28.438  24.086  1.00  0.00     0.163 HD
BRANCH   4   7
ATOM      7  C   UNL A   1      30.852  25.282  24.298  1.00  0.00     0.122 C 
ATOM      8  C   UNL A   1      29.730  25.376  25.361  1.00  0.00     0.046 C 
ATOM      9  C   UNL A   1      30.290  24.455  23.126  1.00  0.00     0.046 C 
BRANCH   7  10
ATOM     10  N   UNL A   1      32.111  24.680  24.927  1.00  0.00    -0.278 N 
ATOM     11  C   UNL A   1      33.322  24.858  24.241  1.00  0.00     0.267 C 
ATOM     12  C   UNL A   1      32.196  23.811  26.006  1.00  0.00     0.149 C 
ATOM     13  O   UNL A   1      33.498  25.475  23.201  1.00  0.00    -0.268 OA
ATOM     14  C   UNL A   1      34.439  24.148  24.920  1.00  0.00     0.081 C 
ATOM     15  S   UNL A   1      33.878  23.445  26.371  1.00  0.00    -0.054 SA
ATOM     16  S   UNL A   1      31.044  23.107  26.989  1.00  0.00    -0.052 S 
ATOM     17  C   UNL A   1      35.686  24.074  24.427  1.00  0.00     0.029 C 
BRANCH  17  18
ATOM     18  C   UNL A   1      36.768  23.331  25.090  1.00  0.00    -0.024 A 
ATOM     19  C   UNL A   1      37.014  21.996  24.752  1.00  0.00     0.009 A 
ATOM     20  C   UNL A   1      37.621  23.984  25.994  1.00  0.00     0.009 A 
ATOM     21  C   UNL A   1      38.133  21.337  25.269  1.00  0.00     0.012 A 
ATOM     22  C   UNL A   1      38.746  23.334  26.502  1.00  0.00     0.012 A 
ATOM     23  C   UNL A   1      39.007  22.016  26.124  1.00  0.00     0.014 A 
BRANCH  23  24
ATOM     24  C   UNL A   1      40.234  21.358  26.618  1.00  0.00     0.260 C 
ATOM     25  O   UNL A   1      40.408  21.095  27.801  1.00  0.00    -0.298 OA
ENDBRANCH  23  24
ENDBRANCH  17  18
ENDBRANCH   7  10
ENDBRANCH   4   7
ENDBRANCH   2   3
ENDBRANCH   1   2
BRANCH   1  26
ATOM     26  C   UNL A   1      34.286  28.748  25.919  1.00  0.00     0.118 C 
BRANCH  26  27
ATOM     27  N   UNL A   1      33.982  30.083  26.417  1.00  0.00    -0.352 N 
ATOM     28  C   UNL A   1      34.538  30.807  27.443  1.00  0.00     0.251 C 
ATOM     29  H   UNL A   1      33.256  30.544  25.938  1.00  0.00     0.163 HD
ATOM     30  O   UNL A   1      33.974  31.833  27.821  1.00  0.00    -0.269 OA
BRANCH  28  31
ATOM     31  C   UNL A   1      35.788  30.363  28.100  1.00  0.00     0.039 A 
ATOM     32  C   UNL A   1      37.010  30.835  27.616  1.00  0.00     0.014 A 
ATOM     33  C   UNL A   1      35.768  29.458  29.164  1.00  0.00     0.014 A 
ATOM     34  C   UNL A   1      38.199  30.446  28.236  1.00  0.00     0.010 A 
ATOM     35  C   UNL A   1      36.941  29.159  29.849  1.00  0.00     0.010 A 
ATOM     36  C   UNL A   1      38.174  29.633  29.382  1.00  0.00    -0.014 A 
BRANCH  36  37
ATOM     37  C   UNL A   1      39.428  29.262  30.087  1.00  0.00     0.031 A 
ATOM     38  C   UNL A   1      39.826  29.970  31.356  1.00  0.00     0.074 A 
ATOM     39  C   UNL A   1      40.228  28.313  29.561  1.00  0.00     0.049 A 
ATOM     40  N   UNL A   1      40.884  29.787  32.105  1.00  0.00    -0.248 NA
ATOM     41  C   UNL A   1      38.938  31.043  31.832  1.00  0.00     0.031 C 
ATOM     42  C   UNL A   1      39.984  27.603  28.302  1.00  0.00     0.029 A 
ATOM     43  N   UNL A   1      41.408  27.779  30.015  1.00  0.00    -0.354 N 
ATOM     44  C   UNL A   1      40.791  30.723  33.130  1.00  0.00     0.074 A 
ATOM     45  C   UNL A   1      39.612  31.518  32.869  1.00  0.00     0.031 C 
ATOM     46  C   UNL A   1      40.957  26.701  28.108  1.00  0.00     0.029 A 
ATOM     47  C   UNL A   1      41.917  26.793  29.204  1.00  0.00     0.049 A 
ATOM     48  H   UNL A   1      41.847  28.074  30.845  1.00  0.00     0.167 HD
ATOM     49  C   UNL A   1      41.597  30.887  34.206  1.00  0.00     0.037 A 
ATOM     50  C   UNL A   1      43.030  26.045  29.328  1.00  0.00     0.037 A 
ATOM     51  C   UNL A   1      42.756  30.075  34.469  1.00  0.00     0.049 A 
ATOM     52  C   UNL A   1      43.905  26.238  30.537  1.00  0.00     0.074 A 
ATOM     53  C   UNL A   1      43.607  30.118  35.560  1.00  0.00     0.029 A 
ATOM     54  N   UNL A   1      43.232  29.075  33.632  1.00  0.00    -0.354 N 
ATOM     55  N   UNL A   1      43.760  27.077  31.536  1.00  0.00    -0.248 NA
ATOM     56  C   UNL A   1      45.087  25.374  30.646  1.00  0.00     0.031 C 
ATOM     57  C   UNL A   1      44.627  29.181  35.357  1.00  0.00     0.029 A 
ATOM     58  C   UNL A   1      44.376  28.510  34.170  1.00  0.00     0.049 A 
ATOM     59  H   UNL A   1      42.816  28.806  32.781  1.00  0.00     0.167 HD
ATOM     60  C   UNL A   1      44.816  26.823  32.403  1.00  0.00     0.074 A 
ATOM     61  C   UNL A   1      45.579  25.738  31.820  1.00  0.00     0.031 C 
ATOM     62  C   UNL A   1      45.125  27.430  33.577  1.00  0.00     0.037 A 
BRANCH  49  63
ATOM     63  C   UNL A   1      41.247  31.977  35.184  1.00  0.00     0.058 A 
ATOM     64  C   UNL A   1      41.863  33.239  35.136  1.00  0.00     0.135 A 
ATOM     65  C   UNL A   1      40.259  31.772  36.160  1.00  0.00     0.135 A 
ATOM     66  F   UNL A   1      42.827  33.488  34.235  1.00  0.00    -0.206 F 
ATOM     67  C   UNL A   1      41.534  34.246  36.037  1.00  0.00     0.059 A 
ATOM     68  C   UNL A   1      39.890  32.776  37.052  1.00  0.00     0.059 A 
ATOM     69  F   UNL A   1      39.637  30.585  36.255  1.00  0.00    -0.206 F 
ATOM     70  C   UNL A   1      40.544  34.006  36.991  1.00  0.00     0.060 A 
BRANCH  70  71
ATOM     71  S   UNL A   1      40.122  35.328  38.145  1.00  0.00     0.124 S 
ATOM     72  O   UNL A   1      41.329  35.395  38.964  1.00  0.00    -0.237 OA
ATOM     73  O   UNL A   1      39.899  36.461  37.253  1.00  0.00    -0.237 OA
ATOM     74  O   UNL A   1      38.932  34.822  38.822  1.00  0.00    -0.744 OA
ENDBRANCH  70  71
ENDBRANCH  49  63
BRANCH  50  75
ATOM     75  C   UNL A   1      43.362  25.025  28.297  1.00  0.00     0.058 A 
ATOM     76  C   UNL A   1      43.071  23.668  28.499  1.00  0.00     0.135 A 
ATOM     77  C   UNL A   1      43.965  25.389  27.082  1.00  0.00     0.135 A 
ATOM     78  F   UNL A   1      42.498  23.269  29.645  1.00  0.00    -0.206 F 
ATOM     79  C   UNL A   1      43.385  22.704  27.547  1.00  0.00     0.059 A 
ATOM     80  C   UNL A   1      44.261  24.447  26.101  1.00  0.00     0.059 A 
ATOM     81  F   UNL A   1      44.246  26.676  26.828  1.00  0.00    -0.206 F 
ATOM     82  C   UNL A   1      43.977  23.104  26.348  1.00  0.00     0.060 A 
BRANCH  82  83
ATOM     83  S   UNL A   1      44.339  21.851  25.099  1.00  0.00     0.124 S 
ATOM     84  O   UNL A   1      44.095  22.587  23.865  1.00  0.00    -0.237 OA
ATOM     85  O   UNL A   1      45.732  21.526  25.386  1.00  0.00    -0.237 OA
ATOM     86  O   UNL A   1      43.381  20.791  25.402  1.00  0.00    -0.744 OA
ENDBRANCH  82  83
ENDBRANCH  50  75
BRANCH  62  87
ATOM     87  C   UNL A   1      46.322  26.910  34.325  1.00  0.00     0.058 A 
ATOM     88  C   UNL A   1      47.605  27.451  34.141  1.00  0.00     0.135 A 
ATOM     89  C   UNL A   1      46.178  25.873  35.262  1.00  0.00     0.135 A 
ATOM     90  F   UNL A   1      47.801  28.441  33.255  1.00  0.00    -0.206 F 
ATOM     91  C   UNL A   1      48.708  26.955  34.829  1.00  0.00     0.059 A 
ATOM     92  C   UNL A   1      47.260  25.386  35.987  1.00  0.00     0.059 A 
ATOM     93  F   UNL A   1      44.972  25.330  35.489  1.00  0.00    -0.206 F 
ATOM     94  C   UNL A   1      48.525  25.922  35.749  1.00  0.00     0.060 A 
BRANCH  94  95
ATOM     95  S   UNL A   1      49.964  25.293  36.641  1.00  0.00     0.124 S 
ATOM     96  O   UNL A   1      49.368  24.234  37.449  1.00  0.00    -0.237 OA
ATOM     97  O   UNL A   1      50.833  24.848  35.556  1.00  0.00    -0.237 OA
ATOM     98  O   UNL A   1      50.440  26.456  37.383  1.00  0.00    -0.744 OA
ENDBRANCH  94  95
ENDBRANCH  62  87
ENDBRANCH  36  37
ENDBRANCH  28  31
ENDBRANCH  26  27
ENDBRANCH   1  26
TORSDOF 16
ENDMDL
MODEL 3
REMARK VINA RESULT:     -12.2      6.716     12.311
REMARK SMILES CC(C)(C(=O)NCCCNC(=O)c1ccc(-c2c3nc(c(-c4c(F)cc(S(=O)(=O)[O-])cc4F)c4ccc([nH]4)c(-c4c(F)cc(S(=O)(=O)[O-])cc4F)c4nc(c(-c5c(F)cc(S(=O)(=O)[O-])cc5F)c5ccc2[nH]5)C=C4)C=C3)cc1)N1C(=O)/C(=C/c2ccc(C=O)cc2)SC1=S
REMARK SMILES IDX 8 1 7 2 6 3 4 4 5 5 2 7 1 8 3 9 79 10 80 11 93 12 81 13
REMARK SMILES IDX 82 14 92 15 94 16 83 17 84 18 85 19 91 20 86 21 90 22 87 23
REMARK SMILES IDX 88 24 89 25 9 26 10 27 11 28 12 30 13 31 14 32 78 33 15 34
REMARK SMILES IDX 77 35 16 36 17 37 18 38 71 39 19 40 76 41 70 42 72 43 20 44
REMARK SMILES IDX 75 45 69 46 68 47 21 49 55 50 34 51 54 52 35 53 38 54 53 55
REMARK SMILES IDX 73 56 36 57 37 58 52 60 74 61 39 62 22 63 23 64 32 65 24 66
REMARK SMILES IDX 25 67 31 68 33 69 26 70 27 71 28 72 29 73 30 74 56 75 57 76
REMARK SMILES IDX 66 77 58 78 59 79 65 80 67 81 60 82 61 83 62 84 63 85 64 86
REMARK SMILES IDX 40 87 41 88 50 89 42 90 43 91 49 92 51 93 44 94 45 95 46 96
REMARK SMILES IDX 47 97 48 98
REMARK H PARENT 6 6 10 29 72 48 38 59
REMARK Flexibility Score: inf
ROOT
ATOM      1  C   UNL A   1      33.723  28.840  27.342  1.00  0.00     0.042 C 
ENDROOT
BRANCH   1   2
ATOM      2  C   UNL A   1      33.686  27.613  26.445  1.00  0.00     0.117 C 
BRANCH   2   3
ATOM      3  N   UNL A   1      33.675  27.931  25.029  1.00  0.00    -0.354 N 
ATOM      4  C   UNL A   1      32.731  27.756  24.059  1.00  0.00     0.245 C 
ATOM      5  O   UNL A   1      32.945  28.343  22.989  1.00  0.00    -0.272 OA
ATOM      6  H   UNL A   1      34.505  28.352  24.706  1.00  0.00     0.163 HD
BRANCH   4   7
ATOM      7  C   UNL A   1      31.427  26.922  24.278  1.00  0.00     0.122 C 
ATOM      8  C   UNL A   1      30.926  27.002  25.741  1.00  0.00     0.046 C 
ATOM      9  C   UNL A   1      30.306  27.496  23.389  1.00  0.00     0.046 C 
BRANCH   7  10
ATOM     10  N   UNL A   1      31.800  25.477  23.938  1.00  0.00    -0.278 N 
ATOM     11  C   UNL A   1      31.903  24.570  25.004  1.00  0.00     0.267 C 
ATOM     12  C   UNL A   1      32.238  24.971  22.722  1.00  0.00     0.149 C 
ATOM     13  O   UNL A   1      31.694  24.793  26.186  1.00  0.00    -0.268 OA
ATOM     14  C   UNL A   1      32.356  23.232  24.535  1.00  0.00     0.081 C 
ATOM     15  S   UNL A   1      32.493  23.233  22.833  1.00  0.00    -0.054 SA
ATOM     16  S   UNL A   1      32.525  25.677  21.236  1.00  0.00    -0.052 S 
ATOM     17  C   UNL A   1      32.629  22.206  25.357  1.00  0.00     0.029 C 
BRANCH  17  18
ATOM     18  C   UNL A   1      33.117  20.904  24.881  1.00  0.00    -0.024 A 
ATOM     19  C   UNL A   1      34.471  20.573  25.007  1.00  0.00     0.009 A 
ATOM     20  C   UNL A   1      32.215  19.949  24.388  1.00  0.00     0.009 A 
ATOM     21  C   UNL A   1      34.908  19.282  24.694  1.00  0.00     0.012 A 
ATOM     22  C   UNL A   1      32.645  18.656  24.087  1.00  0.00     0.012 A 
ATOM     23  C   UNL A   1      33.989  18.323  24.256  1.00  0.00     0.014 A 
BRANCH  23  24
ATOM     24  C   UNL A   1      34.423  16.935  23.996  1.00  0.00     0.260 C 
ATOM     25  O   UNL A   1      34.029  16.295  23.029  1.00  0.00    -0.298 OA
ENDBRANCH  23  24
ENDBRANCH  17  18
ENDBRANCH   7  10
ENDBRANCH   4   7
ENDBRANCH   2   3
ENDBRANCH   1   2
BRANCH   1  26
ATOM     26  C   UNL A   1      35.119  29.396  27.577  1.00  0.00     0.118 C 
BRANCH  26  27
ATOM     27  N   UNL A   1      35.228  30.130  28.831  1.00  0.00    -0.352 N 
ATOM     28  C   UNL A   1      36.278  30.261  29.707  1.00  0.00     0.251 C 
ATOM     29  H   UNL A   1      34.412  30.613  29.095  1.00  0.00     0.163 HD
ATOM     30  O   UNL A   1      36.071  30.758  30.812  1.00  0.00    -0.269 OA
BRANCH  28  31
ATOM     31  C   UNL A   1      37.637  29.804  29.342  1.00  0.00     0.039 A 
ATOM     32  C   UNL A   1      38.032  29.857  28.003  1.00  0.00     0.014 A 
ATOM     33  C   UNL A   1      38.512  29.288  30.302  1.00  0.00     0.014 A 
ATOM     34  C   UNL A   1      39.318  29.451  27.642  1.00  0.00     0.010 A 
ATOM     35  C   UNL A   1      39.826  28.989  29.959  1.00  0.00     0.010 A 
ATOM     36  C   UNL A   1      40.240  29.047  28.622  1.00  0.00    -0.014 A 
BRANCH  36  37
ATOM     37  C   UNL A   1      41.631  28.671  28.258  1.00  0.00     0.031 A 
ATOM     38  C   UNL A   1      42.718  29.715  28.222  1.00  0.00     0.074 A 
ATOM     39  C   UNL A   1      41.905  27.395  27.921  1.00  0.00     0.049 A 
ATOM     40  N   UNL A   1      43.984  29.576  27.922  1.00  0.00    -0.248 NA
ATOM     41  C   UNL A   1      42.328  31.099  28.534  1.00  0.00     0.031 C 
ATOM     42  C   UNL A   1      40.925  26.308  27.853  1.00  0.00     0.029 A 
ATOM     43  N   UNL A   1      43.088  26.792  27.572  1.00  0.00    -0.354 N 
ATOM     44  C   UNL A   1      44.536  30.850  28.001  1.00  0.00     0.074 A 
ATOM     45  C   UNL A   1      43.454  31.759  28.309  1.00  0.00     0.031 C 
ATOM     46  C   UNL A   1      41.552  25.168  27.528  1.00  0.00     0.029 A 
ATOM     47  C   UNL A   1      42.969  25.445  27.324  1.00  0.00     0.049 A 
ATOM     48  H   UNL A   1      43.941  27.279  27.507  1.00  0.00     0.167 HD
ATOM     49  C   UNL A   1      45.829  31.226  27.861  1.00  0.00     0.037 A 
ATOM     50  C   UNL A   1      43.898  24.534  26.974  1.00  0.00     0.037 A 
ATOM     51  C   UNL A   1      46.903  30.310  27.578  1.00  0.00     0.049 A 
ATOM     52  C   UNL A   1      45.331  24.973  26.833  1.00  0.00     0.074 A 
ATOM     53  C   UNL A   1      48.257  30.577  27.473  1.00  0.00     0.029 A 
ATOM     54  N   UNL A   1      46.746  28.950  27.348  1.00  0.00    -0.354 N 
ATOM     55  N   UNL A   1      45.846  26.171  26.987  1.00  0.00    -0.248 NA
ATOM     56  C   UNL A   1      46.311  23.937  26.486  1.00  0.00     0.031 C 
ATOM     57  C   UNL A   1      48.912  29.389  27.130  1.00  0.00     0.029 A 
ATOM     58  C   UNL A   1      47.975  28.369  27.081  1.00  0.00     0.049 A 
ATOM     59  H   UNL A   1      45.888  28.469  27.373  1.00  0.00     0.167 HD
ATOM     60  C   UNL A   1      47.213  26.025  26.782  1.00  0.00     0.074 A 
ATOM     61  C   UNL A   1      47.445  24.621  26.513  1.00  0.00     0.031 C 
ATOM     62  C   UNL A   1      48.189  26.967  26.815  1.00  0.00     0.037 A 
BRANCH  49  63
ATOM     63  C   UNL A   1      46.157  32.687  28.022  1.00  0.00     0.058 A 
ATOM     64  C   UNL A   1      46.019  33.597  26.960  1.00  0.00     0.135 A 
ATOM     65  C   UNL A   1      46.578  33.192  29.262  1.00  0.00     0.135 A 
ATOM     66  F   UNL A   1      45.635  33.169  25.747  1.00  0.00    -0.206 F 
ATOM     67  C   UNL A   1      46.317  34.947  27.114  1.00  0.00     0.059 A 
ATOM     68  C   UNL A   1      46.851  34.546  29.448  1.00  0.00     0.059 A 
ATOM     69  F   UNL A   1      46.729  32.370  30.313  1.00  0.00    -0.206 F 
ATOM     70  C   UNL A   1      46.730  35.413  28.363  1.00  0.00     0.060 A 
BRANCH  70  71
ATOM     71  S   UNL A   1      47.102  37.170  28.546  1.00  0.00     0.124 S 
ATOM     72  O   UNL A   1      46.068  37.589  29.488  1.00  0.00    -0.237 OA
ATOM     73  O   UNL A   1      48.463  37.147  29.071  1.00  0.00    -0.237 OA
ATOM     74  O   UNL A   1      46.964  37.690  27.190  1.00  0.00    -0.744 OA
ENDBRANCH  70  71
ENDBRANCH  49  63
BRANCH  50  75
ATOM     75  C   UNL A   1      43.507  23.115  26.764  1.00  0.00     0.058 A 
ATOM     76  C   UNL A   1      43.472  22.555  25.478  1.00  0.00     0.135 A 
ATOM     77  C   UNL A   1      43.172  22.284  27.845  1.00  0.00     0.135 A 
ATOM     78  F   UNL A   1      43.781  23.308  24.411  1.00  0.00    -0.206 F 
ATOM     79  C   UNL A   1      43.098  21.232  25.267  1.00  0.00     0.059 A 
ATOM     80  C   UNL A   1      42.824  20.949  27.663  1.00  0.00     0.059 A 
ATOM     81  F   UNL A   1      43.208  22.763  29.098  1.00  0.00    -0.206 F 
ATOM     82  C   UNL A   1      42.779  20.435  26.368  1.00  0.00     0.060 A 
BRANCH  82  83
ATOM     83  S   UNL A   1      42.340  18.706  26.087  1.00  0.00     0.124 S 
ATOM     84  O   UNL A   1      43.233  18.350  24.991  1.00  0.00    -0.237 OA
ATOM     85  O   UNL A   1      42.642  18.100  27.380  1.00  0.00    -0.237 OA
ATOM     86  O   UNL A   1      40.921  18.772  25.751  1.00  0.00    -0.744 OA
ENDBRANCH  82  83
ENDBRANCH  50  75
BRANCH  62  87
ATOM     87  C   UNL A   1      49.602  26.503  26.588  1.00  0.00     0.058 A 
ATOM     88  C   UNL A   1      50.422  26.076  27.646  1.00  0.00     0.135 A 
ATOM     89  C   UNL A   1      50.135  26.459  25.289  1.00  0.00     0.135 A 
ATOM     90  F   UNL A   1      49.965  26.102  28.908  1.00  0.00    -0.206 F 
ATOM     91  C   UNL A   1      51.731  25.661  27.427  1.00  0.00     0.059 A 
ATOM     92  C   UNL A   1      51.429  26.014  25.044  1.00  0.00     0.059 A 
ATOM     93  F   UNL A   1      49.390  26.841  24.239  1.00  0.00    -0.206 F 
ATOM     94  C   UNL A   1      52.226  25.634  26.122  1.00  0.00     0.060 A 
BRANCH  94  95
ATOM     95  S   UNL A   1      53.925  25.085  25.852  1.00  0.00     0.124 S 
ATOM     96  O   UNL A   1      54.493  25.219  27.189  1.00  0.00    -0.237 OA
ATOM     97  O   UNL A   1      53.738  23.718  25.378  1.00  0.00    -0.237 OA
ATOM     98  O   UNL A   1      54.432  26.025  24.856  1.00  0.00    -0.744 OA
ENDBRANCH  94  95
ENDBRANCH  62  87
ENDBRANCH  36  37
ENDBRANCH  28  31
ENDBRANCH  26  27
ENDBRANCH   1  26
TORSDOF 16
ENDMDL
