MODEL 1
REMARK VINA RESULT:     -12.8      0.000      0.000
REMARK SMILES O=C(CC1(NC(=O)C2(c3ccccc3)CC2)CCC1)NCCCNC(=O)c1ccc(-c2c3nc(c(-c4c(F)cc(S(=O)(=O)[O-])cc4F)c4ccc([nH]4)c(-c4c(F)cc(S(=O)(=O)[O-])cc4F)c4nc(c(-c5c(F)cc(S(=O)(=O)[O-])cc5F)c5ccc2[nH]5)C=C4)C=C3)cc1
REMARK SMILES IDX 21 1 20 2 1 3 2 4 3 6 4 7 17 8 19 9 18 10 5 11 6 12 7 14
REMARK SMILES IDX 8 15 15 16 16 17 9 18 10 19 14 20 11 21 13 22 12 23 22 24
REMARK SMILES IDX 23 25 24 26 25 27 26 29 27 30 28 31 92 32 29 33 91 34 30 35
REMARK SMILES IDX 31 36 32 37 85 38 33 39 90 40 84 41 86 42 34 43 89 44 83 45
REMARK SMILES IDX 82 46 35 48 69 49 48 50 68 51 49 52 52 53 67 54 87 55 50 56
REMARK SMILES IDX 51 57 66 59 88 60 53 61 36 62 37 63 46 64 38 65 39 66 45 67
REMARK SMILES IDX 47 68 40 69 41 70 42 71 43 72 44 73 70 74 71 75 80 76 72 77
REMARK SMILES IDX 73 78 79 79 81 80 74 81 75 82 76 83 77 84 78 85 54 86 55 87
REMARK SMILES IDX 64 88 56 89 57 90 63 91 65 92 58 93 59 94 60 95 61 96 62 97
REMARK H PARENT 20 5 5 13 24 28 86 47 52 58
REMARK Flexibility Score: inf
ROOT
ATOM      1  C   UNL A   1      33.094  31.157  27.247  1.00  0.00     0.117 C 
ENDROOT
BRANCH   1   2
ATOM      2  N   UNL A   1      33.386  30.185  26.211  1.00  0.00    -0.356 N 
ATOM      3  O   UNL A   1      33.708  28.582  27.606  1.00  0.00    -0.275 OA
ATOM      4  C   UNL A   1      33.643  28.691  26.336  1.00  0.00     0.222 C 
ATOM      5  H   UNL A   1      33.425  30.543  25.295  1.00  0.00     0.163 HD
BRANCH   4   6
ATOM      6  C   UNL A   1      33.767  27.169  24.770  1.00  0.00     0.128 C 
BRANCH   6   7
ATOM      7  C   UNL A   1      33.518  25.382  24.799  1.00  0.00     0.049 C 
ATOM      8  C   UNL A   1      34.855  24.699  24.295  1.00  0.00     0.029 C 
ATOM      9  C   UNL A   1      33.723  24.545  26.139  1.00  0.00     0.029 C 
ATOM     10  C   UNL A   1      34.997  23.919  25.600  1.00  0.00     0.005 C 
BRANCH   7  11
ATOM     11  N   UNL A   1      32.373  24.784  23.967  1.00  0.00    -0.349 N 
ATOM     12  C   UNL A   1      30.995  24.911  23.918  1.00  0.00     0.231 C 
ATOM     13  H   UNL A   1      32.705  24.147  23.295  1.00  0.00     0.164 HD
ATOM     14  O   UNL A   1      30.369  24.177  23.153  1.00  0.00    -0.274 OA
BRANCH  12  15
ATOM     15  C   UNL A   1      30.275  25.912  24.775  1.00  0.00     0.074 C 
ATOM     16  C   UNL A   1      29.613  25.381  26.039  1.00  0.00     0.023 C 
ATOM     17  C   UNL A   1      30.786  26.304  26.152  1.00  0.00     0.023 C 
BRANCH  15  18
ATOM     18  C   UNL A   1      29.683  27.019  23.980  1.00  0.00    -0.032 A 
ATOM     19  C   UNL A   1      30.564  28.567  23.754  1.00  0.00     0.005 A 
ATOM     20  C   UNL A   1      27.877  26.962  23.778  1.00  0.00     0.005 A 
ATOM     21  C   UNL A   1      29.651  30.061  23.357  1.00  0.00     0.000 A 
ATOM     22  C   UNL A   1      26.983  28.491  23.318  1.00  0.00     0.000 A 
ATOM     23  C   UNL A   1      27.891  30.007  23.055  1.00  0.00     0.000 A 
ENDBRANCH  15  18
ENDBRANCH  12  15
ENDBRANCH   7  11
ENDBRANCH   6   7
ENDBRANCH   4   6
ENDBRANCH   1   2
BRANCH   1  24
ATOM     24  C   UNL A   1      34.275  32.088  27.556  1.00  0.00     0.042 C 
BRANCH  24  25
ATOM     25  C   UNL A   1      35.551  31.496  28.175  1.00  0.00     0.118 C 
BRANCH  25  26
ATOM     26  N   UNL A   1      35.374  30.760  29.423  1.00  0.00    -0.352 N 
ATOM     27  C   UNL A   1      36.290  30.048  30.174  1.00  0.00     0.251 C 
ATOM     28  H   UNL A   1      34.459  30.772  29.786  1.00  0.00     0.163 HD
ATOM     29  O   UNL A   1      35.914  29.486  31.200  1.00  0.00    -0.269 OA
BRANCH  27  30
ATOM     30  C   UNL A   1      37.705  29.909  29.742  1.00  0.00     0.039 A 
ATOM     31  C   UNL A   1      38.709  29.967  30.715  1.00  0.00     0.014 A 
ATOM     32  C   UNL A   1      38.057  29.731  28.403  1.00  0.00     0.014 A 
ATOM     33  C   UNL A   1      40.045  29.740  30.360  1.00  0.00     0.010 A 
ATOM     34  C   UNL A   1      39.382  29.435  28.061  1.00  0.00     0.010 A 
ATOM     35  C   UNL A   1      40.391  29.414  29.037  1.00  0.00    -0.014 A 
BRANCH  35  36
ATOM     36  C   UNL A   1      41.781  29.001  28.680  1.00  0.00     0.031 A 
ATOM     37  C   UNL A   1      42.900  30.009  28.621  1.00  0.00     0.074 A 
ATOM     38  C   UNL A   1      42.029  27.717  28.344  1.00  0.00     0.049 A 
ATOM     39  N   UNL A   1      44.152  29.836  28.275  1.00  0.00    -0.248 NA
ATOM     40  C   UNL A   1      42.567  31.395  28.983  1.00  0.00     0.031 C 
ATOM     41  C   UNL A   1      41.033  26.644  28.318  1.00  0.00     0.029 A 
ATOM     42  N   UNL A   1      43.190  27.093  27.948  1.00  0.00    -0.354 N 
ATOM     43  C   UNL A   1      44.753  31.086  28.367  1.00  0.00     0.074 A 
ATOM     44  C   UNL A   1      43.715  32.019  28.754  1.00  0.00     0.031 C 
ATOM     45  C   UNL A   1      41.627  25.496  27.953  1.00  0.00     0.029 A 
ATOM     46  C   UNL A   1      43.033  25.755  27.666  1.00  0.00     0.049 A 
ATOM     47  H   UNL A   1      44.053  27.562  27.874  1.00  0.00     0.167 HD
ATOM     48  C   UNL A   1      46.051  31.425  28.169  1.00  0.00     0.037 A 
ATOM     49  C   UNL A   1      43.912  24.839  27.209  1.00  0.00     0.037 A 
ATOM     50  C   UNL A   1      47.084  30.493  27.785  1.00  0.00     0.049 A 
ATOM     51  C   UNL A   1      45.340  25.248  26.957  1.00  0.00     0.074 A 
ATOM     52  C   UNL A   1      48.435  30.735  27.607  1.00  0.00     0.029 A 
ATOM     53  N   UNL A   1      46.881  29.149  27.506  1.00  0.00    -0.354 N 
ATOM     54  N   UNL A   1      45.902  26.422  27.117  1.00  0.00    -0.248 NA
ATOM     55  C   UNL A   1      46.255  24.206  26.468  1.00  0.00     0.031 C 
ATOM     56  C   UNL A   1      49.037  29.557  27.153  1.00  0.00     0.029 A 
ATOM     57  C   UNL A   1      48.077  28.558  27.124  1.00  0.00     0.049 A 
ATOM     58  H   UNL A   1      46.017  28.683  27.570  1.00  0.00     0.167 HD
ATOM     59  C   UNL A   1      47.242  26.252  26.781  1.00  0.00     0.074 A 
ATOM     60  C   UNL A   1      47.408  24.859  26.423  1.00  0.00     0.031 C 
ATOM     61  C   UNL A   1      48.243  27.168  26.774  1.00  0.00     0.037 A 
BRANCH  48  62
ATOM     62  C   UNL A   1      46.438  32.872  28.351  1.00  0.00     0.058 A 
ATOM     63  C   UNL A   1      46.197  33.835  27.357  1.00  0.00     0.135 A 
ATOM     64  C   UNL A   1      47.010  33.311  29.557  1.00  0.00     0.135 A 
ATOM     65  F   UNL A   1      45.661  33.474  26.180  1.00  0.00    -0.206 F 
ATOM     66  C   UNL A   1      46.538  35.172  27.540  1.00  0.00     0.059 A 
ATOM     67  C   UNL A   1      47.327  34.650  29.775  1.00  0.00     0.059 A 
ATOM     68  F   UNL A   1      47.260  32.437  30.546  1.00  0.00    -0.206 F 
ATOM     69  C   UNL A   1      47.100  35.570  28.754  1.00  0.00     0.060 A 
BRANCH  69  70
ATOM     70  S   UNL A   1      47.527  37.310  28.973  1.00  0.00     0.124 S 
ATOM     71  O   UNL A   1      46.891  37.916  27.808  1.00  0.00    -0.237 OA
ATOM     72  O   UNL A   1      46.914  37.620  30.261  1.00  0.00    -0.237 OA
ATOM     73  O   UNL A   1      48.987  37.309  28.960  1.00  0.00    -0.744 OA
ENDBRANCH  69  70
ENDBRANCH  48  62
BRANCH  49  74
ATOM     74  C   UNL A   1      43.470  23.436  26.964  1.00  0.00     0.058 A 
ATOM     75  C   UNL A   1      43.296  22.947  25.660  1.00  0.00     0.135 A 
ATOM     76  C   UNL A   1      43.212  22.558  28.028  1.00  0.00     0.135 A 
ATOM     77  F   UNL A   1      43.517  23.748  24.607  1.00  0.00    -0.206 F 
ATOM     78  C   UNL A   1      42.865  21.646  25.420  1.00  0.00     0.059 A 
ATOM     79  C   UNL A   1      42.812  21.242  27.813  1.00  0.00     0.059 A 
ATOM     80  F   UNL A   1      43.373  22.969  29.295  1.00  0.00    -0.206 F 
ATOM     81  C   UNL A   1      42.631  20.798  26.505  1.00  0.00     0.060 A 
BRANCH  81  82
ATOM     82  S   UNL A   1      42.120  19.097  26.178  1.00  0.00     0.124 S 
ATOM     83  O   UNL A   1      42.376  18.458  27.464  1.00  0.00    -0.237 OA
ATOM     84  O   UNL A   1      40.717  19.266  25.816  1.00  0.00    -0.237 OA
ATOM     85  O   UNL A   1      42.996  18.687  25.084  1.00  0.00    -0.744 OA
ENDBRANCH  81  82
ENDBRANCH  49  74
BRANCH  61  86
ATOM     86  C   UNL A   1      49.627  26.692  26.413  1.00  0.00     0.058 A 
ATOM     87  C   UNL A   1      50.454  26.030  27.334  1.00  0.00     0.135 A 
ATOM     88  C   UNL A   1      50.112  26.855  25.104  1.00  0.00     0.135 A 
ATOM     89  F   UNL A   1      50.046  25.851  28.601  1.00  0.00    -0.206 F 
ATOM     90  C   UNL A   1      51.720  25.573  26.981  1.00  0.00     0.059 A 
ATOM     91  C   UNL A   1      51.360  26.374  24.718  1.00  0.00     0.059 A 
ATOM     92  F   UNL A   1      49.363  27.473  24.177  1.00  0.00    -0.206 F 
ATOM     93  C   UNL A   1      52.162  25.745  25.667  1.00  0.00     0.060 A 
BRANCH  93  94
ATOM     94  S   UNL A   1      53.792  25.114  25.214  1.00  0.00     0.124 S 
ATOM     95  O   UNL A   1      53.916  25.579  23.837  1.00  0.00    -0.237 OA
ATOM     96  O   UNL A   1      54.660  25.770  26.186  1.00  0.00    -0.237 OA
ATOM     97  O   UNL A   1      53.656  23.669  25.378  1.00  0.00    -0.744 OA
ENDBRANCH  93  94
ENDBRANCH  61  86
ENDBRANCH  35  36
ENDBRANCH  27  30
ENDBRANCH  25  26
ENDBRANCH  24  25
ENDBRANCH   1  24
TORSDOF 17
ENDMDL
MODEL 2
REMARK VINA RESULT:     -12.7      6.738     12.060
REMARK SMILES O=C(CC1(NC(=O)C2(c3ccccc3)CC2)CCC1)NCCCNC(=O)c1ccc(-c2c3nc(c(-c4c(F)cc(S(=O)(=O)[O-])cc4F)c4ccc([nH]4)c(-c4c(F)cc(S(=O)(=O)[O-])cc4F)c4nc(c(-c5c(F)cc(S(=O)(=O)[O-])cc5F)c5ccc2[nH]5)C=C4)C=C3)cc1
REMARK SMILES IDX 21 1 20 2 1 3 2 4 3 6 4 7 17 8 19 9 18 10 5 11 6 12 7 14
REMARK SMILES IDX 8 15 15 16 16 17 9 18 10 19 14 20 11 21 13 22 12 23 22 24
REMARK SMILES IDX 23 25 24 26 25 27 26 29 27 30 28 31 92 32 29 33 91 34 30 35
REMARK SMILES IDX 31 36 32 37 85 38 33 39 90 40 84 41 86 42 34 43 89 44 83 45
REMARK SMILES IDX 82 46 35 48 69 49 48 50 68 51 49 52 52 53 67 54 87 55 50 56
REMARK SMILES IDX 51 57 66 59 88 60 53 61 36 62 37 63 46 64 38 65 39 66 45 67
REMARK SMILES IDX 47 68 40 69 41 70 42 71 43 72 44 73 70 74 71 75 80 76 72 77
REMARK SMILES IDX 73 78 79 79 81 80 74 81 75 82 76 83 77 84 78 85 54 86 55 87
REMARK SMILES IDX 64 88 56 89 57 90 63 91 65 92 58 93 59 94 60 95 61 96 62 97
REMARK H PARENT 20 5 5 13 24 28 86 47 52 58
REMARK Flexibility Score: inf
ROOT
ATOM      1  C   UNL A   1      39.820  21.525  26.183  1.00  0.00     0.117 C 
ENDROOT
BRANCH   1   2
ATOM      2  N   UNL A   1      38.377  21.655  26.247  1.00  0.00    -0.356 N 
ATOM      3  O   UNL A   1      38.417  23.791  26.014  1.00  0.00    -0.275 OA
ATOM      4  C   UNL A   1      37.511  22.892  26.058  1.00  0.00     0.222 C 
ATOM      5  H   UNL A   1      37.886  20.824  26.441  1.00  0.00     0.163 HD
BRANCH   4   6
ATOM      6  C   UNL A   1      35.341  23.047  25.835  1.00  0.00     0.128 C 
BRANCH   6   7
ATOM      7  C   UNL A   1      34.145  22.042  24.933  1.00  0.00     0.049 C 
ATOM      8  C   UNL A   1      34.676  20.551  24.921  1.00  0.00     0.029 C 
ATOM      9  C   UNL A   1      32.849  21.461  25.656  1.00  0.00     0.029 C 
ATOM     10  C   UNL A   1      33.409  20.051  25.612  1.00  0.00     0.005 C 
BRANCH   7  11
ATOM     11  N   UNL A   1      33.822  22.411  23.476  1.00  0.00    -0.349 N 
ATOM     12  C   UNL A   1      32.976  23.294  22.828  1.00  0.00     0.231 C 
ATOM     13  H   UNL A   1      34.355  21.882  22.840  1.00  0.00     0.164 HD
ATOM     14  O   UNL A   1      32.915  23.248  21.599  1.00  0.00    -0.274 OA
BRANCH  12  15
ATOM     15  C   UNL A   1      32.146  24.283  23.596  1.00  0.00     0.074 C 
ATOM     16  C   UNL A   1      30.694  24.440  23.167  1.00  0.00     0.023 C 
ATOM     17  C   UNL A   1      31.009  23.842  24.503  1.00  0.00     0.023 C 
BRANCH  15  18
ATOM     18  C   UNL A   1      32.949  25.429  24.097  1.00  0.00    -0.032 A 
ATOM     19  C   UNL A   1      33.021  25.809  25.850  1.00  0.00     0.005 A 
ATOM     20  C   UNL A   1      33.330  26.715  22.870  1.00  0.00     0.005 A 
ATOM     21  C   UNL A   1      33.443  27.471  26.384  1.00  0.00     0.000 A 
ATOM     22  C   UNL A   1      33.812  28.383  23.448  1.00  0.00     0.000 A 
ATOM     23  C   UNL A   1      33.919  28.721  25.199  1.00  0.00     0.000 A 
ENDBRANCH  15  18
ENDBRANCH  12  15
ENDBRANCH   7  11
ENDBRANCH   6   7
ENDBRANCH   4   6
ENDBRANCH   1   2
BRANCH   1  24
ATOM     24  C   UNL A   1      40.537  22.117  27.406  1.00  0.00     0.042 C 
BRANCH  24  25
ATOM     25  C   UNL A   1      41.730  23.060  27.188  1.00  0.00     0.118 C 
BRANCH  25  26
ATOM     26  N   UNL A   1      41.607  24.002  26.079  1.00  0.00    -0.352 N 
ATOM     27  C   UNL A   1      41.462  25.376  26.091  1.00  0.00     0.251 C 
ATOM     28  H   UNL A   1      41.629  23.594  25.184  1.00  0.00     0.163 HD
ATOM     29  O   UNL A   1      41.359  25.975  25.023  1.00  0.00    -0.269 OA
BRANCH  27  30
ATOM     30  C   UNL A   1      41.378  26.135  27.365  1.00  0.00     0.039 A 
ATOM     31  C   UNL A   1      42.425  27.002  27.697  1.00  0.00     0.014 A 
ATOM     32  C   UNL A   1      40.295  26.003  28.236  1.00  0.00     0.014 A 
ATOM     33  C   UNL A   1      42.336  27.808  28.839  1.00  0.00     0.010 A 
ATOM     34  C   UNL A   1      40.174  26.860  29.338  1.00  0.00     0.010 A 
ATOM     35  C   UNL A   1      41.183  27.790  29.642  1.00  0.00    -0.014 A 
BRANCH  35  36
ATOM     36  C   UNL A   1      41.001  28.765  30.758  1.00  0.00     0.031 A 
ATOM     37  C   UNL A   1      41.832  28.674  32.013  1.00  0.00     0.074 A 
ATOM     38  C   UNL A   1      40.036  29.706  30.670  1.00  0.00     0.049 A 
ATOM     39  N   UNL A   1      41.768  29.400  33.101  1.00  0.00    -0.248 NA
ATOM     40  C   UNL A   1      42.856  27.620  32.058  1.00  0.00     0.031 C 
ATOM     41  C   UNL A   1      39.132  29.884  29.532  1.00  0.00     0.029 A 
ATOM     42  N   UNL A   1      39.643  30.684  31.555  1.00  0.00    -0.354 N 
ATOM     43  C   UNL A   1      42.733  28.889  33.962  1.00  0.00     0.074 A 
ATOM     44  C   UNL A   1      43.334  27.757  33.287  1.00  0.00     0.031 C 
ATOM     45  C   UNL A   1      38.311  30.918  29.776  1.00  0.00     0.029 A 
ATOM     46  C   UNL A   1      38.589  31.447  31.106  1.00  0.00     0.049 A 
ATOM     47  H   UNL A   1      40.077  30.825  32.427  1.00  0.00     0.167 HD
ATOM     48  C   UNL A   1      43.100  29.330  35.191  1.00  0.00     0.037 A 
ATOM     49  C   UNL A   1      37.906  32.447  31.701  1.00  0.00     0.037 A 
ATOM     50  C   UNL A   1      42.500  30.459  35.860  1.00  0.00     0.049 A 
ATOM     51  C   UNL A   1      38.305  32.894  33.083  1.00  0.00     0.074 A 
ATOM     52  C   UNL A   1      42.837  31.009  37.084  1.00  0.00     0.029 A 
ATOM     53  N   UNL A   1      41.433  31.201  35.372  1.00  0.00    -0.354 N 
ATOM     54  N   UNL A   1      39.266  32.440  33.851  1.00  0.00    -0.248 NA
ATOM     55  C   UNL A   1      37.531  33.993  33.678  1.00  0.00     0.031 C 
ATOM     56  C   UNL A   1      41.932  32.036  37.370  1.00  0.00     0.029 A 
ATOM     57  C   UNL A   1      41.079  32.182  36.288  1.00  0.00     0.049 A 
ATOM     58  H   UNL A   1      40.993  31.055  34.505  1.00  0.00     0.167 HD
ATOM     59  C   UNL A   1      39.234  33.220  35.003  1.00  0.00     0.074 A 
ATOM     60  C   UNL A   1      38.167  34.182  34.825  1.00  0.00     0.031 C 
ATOM     61  C   UNL A   1      40.020  33.145  36.107  1.00  0.00     0.037 A 
BRANCH  48  62
ATOM     62  C   UNL A   1      44.199  28.586  35.908  1.00  0.00     0.058 A 
ATOM     63  C   UNL A   1      45.548  28.957  35.783  1.00  0.00     0.135 A 
ATOM     64  C   UNL A   1      43.895  27.522  36.773  1.00  0.00     0.135 A 
ATOM     65  F   UNL A   1      45.902  29.960  34.964  1.00  0.00    -0.206 F 
ATOM     66  C   UNL A   1      46.556  28.280  36.463  1.00  0.00     0.059 A 
ATOM     67  C   UNL A   1      44.883  26.854  37.491  1.00  0.00     0.059 A 
ATOM     68  F   UNL A   1      42.622  27.126  36.937  1.00  0.00    -0.206 F 
ATOM     69  C   UNL A   1      46.213  27.231  37.318  1.00  0.00     0.060 A 
BRANCH  69  70
ATOM     70  S   UNL A   1      47.534  26.372  38.197  1.00  0.00     0.124 S 
ATOM     71  O   UNL A   1      48.722  26.943  37.569  1.00  0.00    -0.237 OA
ATOM     72  O   UNL A   1      47.297  26.769  39.580  1.00  0.00    -0.237 OA
ATOM     73  O   UNL A   1      47.285  24.964  37.900  1.00  0.00    -0.744 OA
ENDBRANCH  69  70
ENDBRANCH  48  62
BRANCH  49  74
ATOM     74  C   UNL A   1      36.772  33.104  30.989  1.00  0.00     0.058 A 
ATOM     75  C   UNL A   1      35.440  32.833  31.340  1.00  0.00     0.135 A 
ATOM     76  C   UNL A   1      36.997  34.013  29.944  1.00  0.00     0.135 A 
ATOM     77  F   UNL A   1      35.168  31.962  32.324  1.00  0.00    -0.206 F 
ATOM     78  C   UNL A   1      34.374  33.425  30.670  1.00  0.00     0.059 A 
ATOM     79  C   UNL A   1      35.947  34.643  29.280  1.00  0.00     0.059 A 
ATOM     80  F   UNL A   1      38.250  34.318  29.574  1.00  0.00    -0.206 F 
ATOM     81  C   UNL A   1      34.638  34.335  29.645  1.00  0.00     0.060 A 
BRANCH  81  82
ATOM     82  S   UNL A   1      33.246  35.133  28.816  1.00  0.00     0.124 S 
ATOM     83  O   UNL A   1      32.426  35.549  29.949  1.00  0.00    -0.237 OA
ATOM     84  O   UNL A   1      33.906  36.204  28.077  1.00  0.00    -0.237 OA
ATOM     85  O   UNL A   1      32.688  34.065  27.992  1.00  0.00    -0.744 OA
ENDBRANCH  81  82
ENDBRANCH  49  74
BRANCH  61  86
ATOM     86  C   UNL A   1      39.796  34.160  37.198  1.00  0.00     0.058 A 
ATOM     87  C   UNL A   1      38.969  33.899  38.303  1.00  0.00     0.135 A 
ATOM     88  C   UNL A   1      40.463  35.396  37.162  1.00  0.00     0.135 A 
ATOM     89  F   UNL A   1      38.302  32.737  38.388  1.00  0.00    -0.206 F 
ATOM     90  C   UNL A   1      38.790  34.836  39.317  1.00  0.00     0.059 A 
ATOM     91  C   UNL A   1      40.327  36.333  38.182  1.00  0.00     0.059 A 
ATOM     92  F   UNL A   1      41.272  35.698  36.135  1.00  0.00    -0.206 F 
ATOM     93  C   UNL A   1      39.479  36.049  39.250  1.00  0.00     0.060 A 
BRANCH  93  94
ATOM     94  S   UNL A   1      39.265  37.239  40.591  1.00  0.00     0.124 S 
ATOM     95  O   UNL A   1      40.611  37.789  40.715  1.00  0.00    -0.237 OA
ATOM     96  O   UNL A   1      38.258  38.143  40.045  1.00  0.00    -0.237 OA
ATOM     97  O   UNL A   1      38.819  36.415  41.710  1.00  0.00    -0.744 OA
ENDBRANCH  93  94
ENDBRANCH  61  86
ENDBRANCH  35  36
ENDBRANCH  27  30
ENDBRANCH  25  26
ENDBRANCH  24  25
ENDBRANCH   1  24
TORSDOF 17
ENDMDL
MODEL 3
REMARK VINA RESULT:     -12.6      6.724     11.747
REMARK SMILES O=C(CC1(NC(=O)C2(c3ccccc3)CC2)CCC1)NCCCNC(=O)c1ccc(-c2c3nc(c(-c4c(F)cc(S(=O)(=O)[O-])cc4F)c4ccc([nH]4)c(-c4c(F)cc(S(=O)(=O)[O-])cc4F)c4nc(c(-c5c(F)cc(S(=O)(=O)[O-])cc5F)c5ccc2[nH]5)C=C4)C=C3)cc1
REMARK SMILES IDX 21 1 20 2 1 3 2 4 3 6 4 7 17 8 19 9 18 10 5 11 6 12 7 14
REMARK SMILES IDX 8 15 15 16 16 17 9 18 10 19 14 20 11 21 13 22 12 23 22 24
REMARK SMILES IDX 23 25 24 26 25 27 26 29 27 30 28 31 92 32 29 33 91 34 30 35
REMARK SMILES IDX 31 36 32 37 85 38 33 39 90 40 84 41 86 42 34 43 89 44 83 45
REMARK SMILES IDX 82 46 35 48 69 49 48 50 68 51 49 52 52 53 67 54 87 55 50 56
REMARK SMILES IDX 51 57 66 59 88 60 53 61 36 62 37 63 46 64 38 65 39 66 45 67
REMARK SMILES IDX 47 68 40 69 41 70 42 71 43 72 44 73 70 74 71 75 80 76 72 77
REMARK SMILES IDX 73 78 79 79 81 80 74 81 75 82 76 83 77 84 78 85 54 86 55 87
REMARK SMILES IDX 64 88 56 89 57 90 63 91 65 92 58 93 59 94 60 95 61 96 62 97
REMARK H PARENT 20 5 5 13 24 28 86 47 52 58
REMARK Flexibility Score: inf
ROOT
ATOM      1  C   UNL A   1      39.587  21.544  25.984  1.00  0.00     0.117 C 
ENDROOT
BRANCH   1   2
ATOM      2  N   UNL A   1      38.330  22.058  25.473  1.00  0.00    -0.356 N 
ATOM      3  O   UNL A   1      37.638  20.129  24.828  1.00  0.00    -0.275 OA
ATOM      4  C   UNL A   1      37.141  21.302  24.899  1.00  0.00     0.222 C 
ATOM      5  H   UNL A   1      38.232  23.037  25.502  1.00  0.00     0.163 HD
BRANCH   4   6
ATOM      6  C   UNL A   1      35.133  22.027  24.425  1.00  0.00     0.128 C 
BRANCH   6   7
ATOM      7  C   UNL A   1      33.682  22.325  25.454  1.00  0.00     0.049 C 
ATOM      8  C   UNL A   1      33.467  21.052  26.370  1.00  0.00     0.029 C 
ATOM      9  C   UNL A   1      33.793  23.150  26.814  1.00  0.00     0.029 C 
ATOM     10  C   UNL A   1      33.579  21.893  27.639  1.00  0.00     0.005 C 
BRANCH   7  11
ATOM     11  N   UNL A   1      32.337  22.610  24.767  1.00  0.00    -0.349 N 
ATOM     12  C   UNL A   1      31.739  23.690  24.140  1.00  0.00     0.231 C 
ATOM     13  H   UNL A   1      31.750  21.820  24.776  1.00  0.00     0.164 HD
ATOM     14  O   UNL A   1      30.569  23.577  23.775  1.00  0.00    -0.274 OA
BRANCH  12  15
ATOM     15  C   UNL A   1      32.489  24.970  23.910  1.00  0.00     0.074 C 
ATOM     16  C   UNL A   1      33.610  24.932  22.881  1.00  0.00     0.023 C 
ATOM     17  C   UNL A   1      32.381  25.740  22.604  1.00  0.00     0.023 C 
BRANCH  15  18
ATOM     18  C   UNL A   1      32.571  25.807  25.134  1.00  0.00    -0.032 A 
ATOM     19  C   UNL A   1      31.086  26.435  25.926  1.00  0.00     0.005 A 
ATOM     20  C   UNL A   1      34.169  26.626  25.420  1.00  0.00     0.005 A 
ATOM     21  C   UNL A   1      31.182  27.889  26.974  1.00  0.00     0.000 A 
ATOM     22  C   UNL A   1      34.243  28.072  26.540  1.00  0.00     0.000 A 
ATOM     23  C   UNL A   1      32.756  28.648  27.348  1.00  0.00     0.000 A 
ENDBRANCH  15  18
ENDBRANCH  12  15
ENDBRANCH   7  11
ENDBRANCH   6   7
ENDBRANCH   4   6
ENDBRANCH   1   2
BRANCH   1  24
ATOM     24  C   UNL A   1      40.137  22.354  27.168  1.00  0.00     0.042 C 
BRANCH  24  25
ATOM     25  C   UNL A   1      41.457  23.122  26.998  1.00  0.00     0.118 C 
BRANCH  25  26
ATOM     26  N   UNL A   1      41.476  24.135  25.947  1.00  0.00    -0.352 N 
ATOM     27  C   UNL A   1      41.455  25.513  26.039  1.00  0.00     0.251 C 
ATOM     28  H   UNL A   1      41.508  23.780  25.029  1.00  0.00     0.163 HD
ATOM     29  O   UNL A   1      41.463  26.181  25.007  1.00  0.00    -0.269 OA
BRANCH  27  30
ATOM     30  C   UNL A   1      41.374  26.201  27.353  1.00  0.00     0.039 A 
ATOM     31  C   UNL A   1      42.352  27.150  27.672  1.00  0.00     0.014 A 
ATOM     32  C   UNL A   1      40.362  25.924  28.273  1.00  0.00     0.014 A 
ATOM     33  C   UNL A   1      42.253  27.890  28.858  1.00  0.00     0.010 A 
ATOM     34  C   UNL A   1      40.224  26.712  29.422  1.00  0.00     0.010 A 
ATOM     35  C   UNL A   1      41.156  27.721  29.719  1.00  0.00    -0.014 A 
BRANCH  35  36
ATOM     36  C   UNL A   1      40.948  28.621  30.893  1.00  0.00     0.031 A 
ATOM     37  C   UNL A   1      39.882  29.688  30.875  1.00  0.00     0.074 A 
ATOM     38  C   UNL A   1      41.765  28.521  31.963  1.00  0.00     0.049 A 
ATOM     39  N   UNL A   1      39.602  30.591  31.781  1.00  0.00    -0.248 NA
ATOM     40  C   UNL A   1      39.033  29.759  29.677  1.00  0.00     0.031 C 
ATOM     41  C   UNL A   1      42.863  27.562  32.099  1.00  0.00     0.029 A 
ATOM     42  N   UNL A   1      41.811  29.237  33.137  1.00  0.00    -0.354 N 
ATOM     43  C   UNL A   1      38.553  31.343  31.262  1.00  0.00     0.074 A 
ATOM     44  C   UNL A   1      38.282  30.820  29.939  1.00  0.00     0.031 C 
ATOM     45  C   UNL A   1      43.456  27.732  33.292  1.00  0.00     0.029 A 
ATOM     46  C   UNL A   1      42.820  28.845  33.988  1.00  0.00     0.049 A 
ATOM     47  H   UNL A   1      41.180  29.963  33.348  1.00  0.00     0.167 HD
ATOM     48  C   UNL A   1      37.866  32.360  31.839  1.00  0.00     0.037 A 
ATOM     49  C   UNL A   1      43.206  29.334  35.184  1.00  0.00     0.037 A 
ATOM     50  C   UNL A   1      38.138  32.877  33.159  1.00  0.00     0.049 A 
ATOM     51  C   UNL A   1      42.453  30.490  35.787  1.00  0.00     0.074 A 
ATOM     52  C   UNL A   1      37.464  33.873  33.845  1.00  0.00     0.029 A 
ATOM     53  N   UNL A   1      39.169  32.454  33.985  1.00  0.00    -0.354 N 
ATOM     54  N   UNL A   1      41.421  31.142  35.309  1.00  0.00    -0.248 NA
ATOM     55  C   UNL A   1      42.914  30.976  37.097  1.00  0.00     0.031 C 
ATOM     56  C   UNL A   1      38.129  34.101  35.054  1.00  0.00     0.029 A 
ATOM     57  C   UNL A   1      39.171  33.193  35.159  1.00  0.00     0.049 A 
ATOM     58  H   UNL A   1      39.806  31.735  33.770  1.00  0.00     0.167 HD
ATOM     59  C   UNL A   1      41.088  32.089  36.272  1.00  0.00     0.074 A 
ATOM     60  C   UNL A   1      42.021  31.917  37.366  1.00  0.00     0.031 C 
ATOM     61  C   UNL A   1      40.097  33.016  36.251  1.00  0.00     0.037 A 
BRANCH  48  62
ATOM     62  C   UNL A   1      36.752  32.997  31.046  1.00  0.00     0.058 A 
ATOM     63  C   UNL A   1      35.400  32.725  31.317  1.00  0.00     0.135 A 
ATOM     64  C   UNL A   1      37.038  33.933  30.038  1.00  0.00     0.135 A 
ATOM     65  F   UNL A   1      35.064  31.834  32.262  1.00  0.00    -0.206 F 
ATOM     66  C   UNL A   1      34.376  33.332  30.595  1.00  0.00     0.059 A 
ATOM     67  C   UNL A   1      36.029  34.578  29.328  1.00  0.00     0.059 A 
ATOM     68  F   UNL A   1      38.311  34.237  29.738  1.00  0.00    -0.206 F 
ATOM     69  C   UNL A   1      34.701  34.260  29.604  1.00  0.00     0.060 A 
BRANCH  69  70
ATOM     70  S   UNL A   1      33.358  35.042  28.686  1.00  0.00     0.124 S 
ATOM     71  O   UNL A   1      32.525  35.556  29.769  1.00  0.00    -0.237 OA
ATOM     72  O   UNL A   1      34.065  36.048  27.899  1.00  0.00    -0.237 OA
ATOM     73  O   UNL A   1      32.781  33.942  27.920  1.00  0.00    -0.744 OA
ENDBRANCH  69  70
ENDBRANCH  48  62
BRANCH  49  74
ATOM     74  C   UNL A   1      44.365  28.726  35.900  1.00  0.00     0.058 A 
ATOM     75  C   UNL A   1      44.187  27.665  36.802  1.00  0.00     0.135 A 
ATOM     76  C   UNL A   1      45.673  29.195  35.699  1.00  0.00     0.135 A 
ATOM     77  F   UNL A   1      42.956  27.186  37.041  1.00  0.00    -0.206 F 
ATOM     78  C   UNL A   1      45.258  27.104  37.490  1.00  0.00     0.059 A 
ATOM     79  C   UNL A   1      46.765  28.628  36.350  1.00  0.00     0.059 A 
ATOM     80  F   UNL A   1      45.903  30.200  34.839  1.00  0.00    -0.206 F 
ATOM     81  C   UNL A   1      46.545  27.589  37.252  1.00  0.00     0.060 A 
BRANCH  81  82
ATOM     82  S   UNL A   1      47.932  26.818  38.115  1.00  0.00     0.124 S 
ATOM     83  O   UNL A   1      48.118  25.594  37.344  1.00  0.00    -0.237 OA
ATOM     84  O   UNL A   1      48.977  27.827  37.972  1.00  0.00    -0.237 OA
ATOM     85  O   UNL A   1      47.426  26.639  39.472  1.00  0.00    -0.744 OA
ENDBRANCH  81  82
ENDBRANCH  49  74
BRANCH  61  86
ATOM     86  C   UNL A   1      39.929  33.891  37.467  1.00  0.00     0.058 A 
ATOM     87  C   UNL A   1      40.648  35.086  37.632  1.00  0.00     0.135 A 
ATOM     88  C   UNL A   1      38.993  33.553  38.459  1.00  0.00     0.135 A 
ATOM     89  F   UNL A   1      41.561  35.458  36.719  1.00  0.00    -0.206 F 
ATOM     90  C   UNL A   1      40.466  35.899  38.747  1.00  0.00     0.059 A 
ATOM     91  C   UNL A   1      38.768  34.369  39.564  1.00  0.00     0.059 A 
ATOM     92  F   UNL A   1      38.271  32.427  38.351  1.00  0.00    -0.206 F 
ATOM     93  C   UNL A   1      39.518  35.534  39.706  1.00  0.00     0.060 A 
BRANCH  93  94
ATOM     94  S   UNL A   1      39.267  36.617  41.128  1.00  0.00     0.124 S 
ATOM     95  O   UNL A   1      38.354  35.825  41.945  1.00  0.00    -0.237 OA
ATOM     96  O   UNL A   1      40.622  36.762  41.651  1.00  0.00    -0.237 OA
ATOM     97  O   UNL A   1      38.695  37.825  40.541  1.00  0.00    -0.744 OA
ENDBRANCH  93  94
ENDBRANCH  61  86
ENDBRANCH  35  36
ENDBRANCH  27  30
ENDBRANCH  25  26
ENDBRANCH  24  25
ENDBRANCH   1  24
TORSDOF 17
ENDMDL
