MODEL 1
REMARK VINA RESULT:     -10.3      0.000      0.000
REMARK SMILES CC(C)(C)c1cc2c(cc1Cl)C=C(C(=O)NCCCNC(=O)c1ccc(-c3c4nc(c(-c5c(F)cc(S(=O)(=O)[O-])cc5F)c5ccc([nH]5)c(-c5c(F)cc(S(=O)(=O)[O-])cc5F)c5nc(c(-c6c(F)cc(S(=O)(=O)[O-])cc6F)c6ccc3[nH]6)C=C5)C=C4)cc1)[C@H](C(F)(F)F)O2
REMARK SMILES IDX 19 1 18 2 17 3 16 4 14 5 15 6 13 8 5 9 6 10 10 11 7 12 9 13
REMARK SMILES IDX 11 14 8 15 94 16 12 17 89 18 2 19 1 20 3 21 4 22 90 23 91 24
REMARK SMILES IDX 92 25 93 26 20 27 21 28 22 30 23 31 24 32 88 33 25 34 87 35
REMARK SMILES IDX 26 36 27 37 28 38 81 39 29 40 86 41 80 42 82 43 30 44 85 45
REMARK SMILES IDX 79 46 78 47 31 49 65 50 44 51 64 52 45 53 48 54 63 55 83 56
REMARK SMILES IDX 46 57 47 58 62 60 84 61 49 62 32 63 33 64 42 65 34 66 35 67
REMARK SMILES IDX 41 68 43 69 36 70 37 71 38 72 39 73 40 74 66 75 67 76 76 77
REMARK SMILES IDX 68 78 69 79 75 80 77 81 70 82 71 83 72 84 73 85 74 86 50 87
REMARK SMILES IDX 51 88 60 89 52 90 53 91 59 92 61 93 54 94 55 95 56 96 57 97
REMARK SMILES IDX 58 98
REMARK H PARENT 16 7 20 29 82 48 48 59
REMARK Flexibility Score: inf
ROOT
ATOM      1  C   UNL A   1      39.854  21.471  26.659  1.00  0.00     0.118 C 
ENDROOT
BRANCH   1   2
ATOM      2  C   UNL A   1      41.131  21.076  25.933  1.00  0.00     0.042 C 
BRANCH   2   3
ATOM      3  C   UNL A   1      42.222  22.128  26.066  1.00  0.00     0.118 C 
BRANCH   3   4
ATOM      4  N   UNL A   1      43.043  22.202  24.866  1.00  0.00    -0.352 N 
ATOM      5  C   UNL A   1      43.995  23.018  24.361  1.00  0.00     0.251 C 
ATOM      6  O   UNL A   1      44.474  22.653  23.281  1.00  0.00    -0.270 OA
ATOM      7  H   UNL A   1      42.853  21.452  24.257  1.00  0.00     0.163 HD
BRANCH   5   8
ATOM      8  C   UNL A   1      44.493  24.267  25.002  1.00  0.00     0.067 C 
ATOM      9  C   UNL A   1      44.896  29.013  26.788  1.00  0.00    -0.020 A 
ATOM     10  C   UNL A   1      45.777  27.942  26.532  1.00  0.00     0.053 A 
ATOM     11  C   UNL A   1      43.533  28.774  26.494  1.00  0.00     0.045 A 
ATOM     12  C   UNL A   1      45.343  26.729  25.998  1.00  0.00     0.128 A 
ATOM     13  C   UNL A   1      43.105  27.555  25.931  1.00  0.00     0.032 A 
ATOM     14  Cl  UNL A   1      42.260  29.906  26.796  1.00  0.00    -0.084 Cl
ATOM     15  C   UNL A   1      44.011  26.532  25.675  1.00  0.00     0.019 A 
ATOM     16  O   UNL A   1      46.308  25.793  25.776  1.00  0.00    -0.475 OA
ATOM     17  C   UNL A   1      43.610  25.283  25.046  1.00  0.00     0.025 C 
ATOM     18  C   UNL A   1      45.849  24.422  25.638  1.00  0.00     0.314 C 
BRANCH   9  19
ATOM     19  C   UNL A   1      45.465  30.327  27.377  1.00  0.00    -0.012 C 
ATOM     20  C   UNL A   1      45.146  31.581  26.512  1.00  0.00     0.016 C 
ATOM     21  C   UNL A   1      47.002  30.240  27.455  1.00  0.00     0.016 C 
ATOM     22  C   UNL A   1      44.866  30.644  28.765  1.00  0.00     0.016 C 
ENDBRANCH   9  19
BRANCH  18  23
ATOM     23  C   UNL A   1      45.994  23.674  26.975  1.00  0.00     0.429 C 
ATOM     24  F   UNL A   1      45.988  22.334  26.759  1.00  0.00    -0.167 F 
ATOM     25  F   UNL A   1      47.144  23.974  27.618  1.00  0.00    -0.167 F 
ATOM     26  F   UNL A   1      44.982  23.939  27.832  1.00  0.00    -0.167 F 
ENDBRANCH  18  23
ENDBRANCH   5   8
ENDBRANCH   3   4
ENDBRANCH   2   3
ENDBRANCH   1   2
BRANCH   1  27
ATOM     27  N   UNL A   1      38.903  22.131  25.770  1.00  0.00    -0.352 N 
ATOM     28  C   UNL A   1      38.422  23.420  25.784  1.00  0.00     0.251 C 
ATOM     29  H   UNL A   1      38.551  21.566  25.044  1.00  0.00     0.163 HD
ATOM     30  O   UNL A   1      37.444  23.708  25.105  1.00  0.00    -0.269 OA
BRANCH  28  31
ATOM     31  C   UNL A   1      39.071  24.441  26.636  1.00  0.00     0.039 A 
ATOM     32  C   UNL A   1      38.833  24.469  28.010  1.00  0.00     0.014 A 
ATOM     33  C   UNL A   1      39.923  25.386  26.058  1.00  0.00     0.014 A 
ATOM     34  C   UNL A   1      39.264  25.551  28.762  1.00  0.00     0.010 A 
ATOM     35  C   UNL A   1      40.461  26.409  26.846  1.00  0.00     0.010 A 
ATOM     36  C   UNL A   1      40.092  26.533  28.195  1.00  0.00    -0.014 A 
BRANCH  36  37
ATOM     37  C   UNL A   1      40.556  27.666  29.038  1.00  0.00     0.031 A 
ATOM     38  C   UNL A   1      39.676  28.866  29.270  1.00  0.00     0.074 A 
ATOM     39  C   UNL A   1      41.756  27.579  29.649  1.00  0.00     0.049 A 
ATOM     40  N   UNL A   1      39.921  29.942  29.975  1.00  0.00    -0.248 NA
ATOM     41  C   UNL A   1      38.352  28.867  28.624  1.00  0.00     0.031 C 
ATOM     42  C   UNL A   1      42.690  26.457  29.514  1.00  0.00     0.029 A 
ATOM     43  N   UNL A   1      42.385  28.425  30.525  1.00  0.00    -0.354 N 
ATOM     44  C   UNL A   1      38.798  30.750  29.842  1.00  0.00     0.074 A 
ATOM     45  C   UNL A   1      37.882  30.059  28.962  1.00  0.00     0.031 C 
ATOM     46  C   UNL A   1      43.738  26.654  30.325  1.00  0.00     0.029 A 
ATOM     47  C   UNL A   1      43.596  27.953  30.973  1.00  0.00     0.049 A 
ATOM     48  H   UNL A   1      42.005  29.289  30.807  1.00  0.00     0.167 HD
ATOM     49  C   UNL A   1      38.547  31.952  30.416  1.00  0.00     0.037 A 
ATOM     50  C   UNL A   1      44.507  28.508  31.796  1.00  0.00     0.037 A 
ATOM     51  C   UNL A   1      39.455  32.619  31.315  1.00  0.00     0.049 A 
ATOM     52  C   UNL A   1      44.228  29.864  32.375  1.00  0.00     0.074 A 
ATOM     53  C   UNL A   1      39.286  33.830  31.964  1.00  0.00     0.029 A 
ATOM     54  N   UNL A   1      40.699  32.134  31.695  1.00  0.00    -0.354 N 
ATOM     55  N   UNL A   1      43.160  30.614  32.236  1.00  0.00    -0.248 NA
ATOM     56  C   UNL A   1      45.280  30.458  33.211  1.00  0.00     0.031 C 
ATOM     57  C   UNL A   1      40.447  34.102  32.693  1.00  0.00     0.029 A 
ATOM     58  C   UNL A   1      41.318  33.034  32.548  1.00  0.00     0.049 A 
ATOM     59  H   UNL A   1      41.084  31.277  31.402  1.00  0.00     0.167 HD
ATOM     60  C   UNL A   1      43.406  31.763  32.978  1.00  0.00     0.074 A 
ATOM     61  C   UNL A   1      44.713  31.599  33.581  1.00  0.00     0.031 C 
ATOM     62  C   UNL A   1      42.621  32.856  33.140  1.00  0.00     0.037 A 
BRANCH  49  63
ATOM     63  C   UNL A   1      37.247  32.637  30.090  1.00  0.00     0.058 A 
ATOM     64  C   UNL A   1      36.072  32.376  30.811  1.00  0.00     0.135 A 
ATOM     65  C   UNL A   1      37.193  33.622  29.089  1.00  0.00     0.135 A 
ATOM     66  F   UNL A   1      36.061  31.434  31.768  1.00  0.00    -0.206 F 
ATOM     67  C   UNL A   1      34.886  33.053  30.542  1.00  0.00     0.059 A 
ATOM     68  C   UNL A   1      36.025  34.332  28.821  1.00  0.00     0.059 A 
ATOM     69  F   UNL A   1      38.287  33.913  28.367  1.00  0.00    -0.206 F 
ATOM     70  C   UNL A   1      34.874  34.034  29.548  1.00  0.00     0.060 A 
BRANCH  70  71
ATOM     71  S   UNL A   1      33.330  34.916  29.230  1.00  0.00     0.124 S 
ATOM     72  O   UNL A   1      32.732  34.948  30.561  1.00  0.00    -0.237 OA
ATOM     73  O   UNL A   1      33.806  36.196  28.717  1.00  0.00    -0.237 OA
ATOM     74  O   UNL A   1      32.648  34.067  28.257  1.00  0.00    -0.744 OA
ENDBRANCH  70  71
ENDBRANCH  49  63
BRANCH  50  75
ATOM     75  C   UNL A   1      45.767  27.778  32.101  1.00  0.00     0.058 A 
ATOM     76  C   UNL A   1      45.830  26.852  33.152  1.00  0.00     0.135 A 
ATOM     77  C   UNL A   1      46.921  27.963  31.323  1.00  0.00     0.135 A 
ATOM     78  F   UNL A   1      44.756  26.646  33.929  1.00  0.00    -0.206 F 
ATOM     79  C   UNL A   1      46.993  26.139  33.425  1.00  0.00     0.059 A 
ATOM     80  C   UNL A   1      48.086  27.239  31.556  1.00  0.00     0.059 A 
ATOM     81  F   UNL A   1      46.909  28.827  30.295  1.00  0.00    -0.206 F 
ATOM     82  C   UNL A   1      48.113  26.334  32.615  1.00  0.00     0.060 A 
BRANCH  82  83
ATOM     83  S   UNL A   1      49.597  25.359  32.943  1.00  0.00     0.124 S 
ATOM     84  O   UNL A   1      50.471  26.350  33.558  1.00  0.00    -0.237 OA
ATOM     85  O   UNL A   1      49.085  24.318  33.830  1.00  0.00    -0.237 OA
ATOM     86  O   UNL A   1      49.999  24.900  31.616  1.00  0.00    -0.744 OA
ENDBRANCH  82  83
ENDBRANCH  50  75
BRANCH  62  87
ATOM     87  C   UNL A   1      43.142  33.962  34.015  1.00  0.00     0.058 A 
ATOM     88  C   UNL A   1      43.926  35.003  33.492  1.00  0.00     0.135 A 
ATOM     89  C   UNL A   1      42.796  34.019  35.374  1.00  0.00     0.135 A 
ATOM     90  F   UNL A   1      44.293  34.991  32.201  1.00  0.00    -0.206 F 
ATOM     91  C   UNL A   1      44.360  36.055  34.291  1.00  0.00     0.059 A 
ATOM     92  C   UNL A   1      43.194  35.078  36.185  1.00  0.00     0.059 A 
ATOM     93  F   UNL A   1      42.041  33.054  35.921  1.00  0.00    -0.206 F 
ATOM     94  C   UNL A   1      43.982  36.087  35.635  1.00  0.00     0.060 A 
BRANCH  94  95
ATOM     95  S   UNL A   1      44.515  37.485  36.645  1.00  0.00     0.124 S 
ATOM     96  O   UNL A   1      45.933  37.194  36.829  1.00  0.00    -0.237 OA
ATOM     97  O   UNL A   1      44.207  38.624  35.785  1.00  0.00    -0.237 OA
ATOM     98  O   UNL A   1      43.692  37.373  37.846  1.00  0.00    -0.744 OA
ENDBRANCH  94  95
ENDBRANCH  62  87
ENDBRANCH  36  37
ENDBRANCH  28  31
ENDBRANCH   1  27
TORSDOF 15
ENDMDL
MODEL 2
REMARK VINA RESULT:     -10.2      3.254     10.696
REMARK SMILES CC(C)(C)c1cc2c(cc1Cl)C=C(C(=O)NCCCNC(=O)c1ccc(-c3c4nc(c(-c5c(F)cc(S(=O)(=O)[O-])cc5F)c5ccc([nH]5)c(-c5c(F)cc(S(=O)(=O)[O-])cc5F)c5nc(c(-c6c(F)cc(S(=O)(=O)[O-])cc6F)c6ccc3[nH]6)C=C5)C=C4)cc1)[C@H](C(F)(F)F)O2
REMARK SMILES IDX 19 1 18 2 17 3 16 4 14 5 15 6 13 8 5 9 6 10 10 11 7 12 9 13
REMARK SMILES IDX 11 14 8 15 94 16 12 17 89 18 2 19 1 20 3 21 4 22 90 23 91 24
REMARK SMILES IDX 92 25 93 26 20 27 21 28 22 30 23 31 24 32 88 33 25 34 87 35
REMARK SMILES IDX 26 36 27 37 28 38 81 39 29 40 86 41 80 42 82 43 30 44 85 45
REMARK SMILES IDX 79 46 78 47 31 49 65 50 44 51 64 52 45 53 48 54 63 55 83 56
REMARK SMILES IDX 46 57 47 58 62 60 84 61 49 62 32 63 33 64 42 65 34 66 35 67
REMARK SMILES IDX 41 68 43 69 36 70 37 71 38 72 39 73 40 74 66 75 67 76 76 77
REMARK SMILES IDX 68 78 69 79 75 80 77 81 70 82 71 83 72 84 73 85 74 86 50 87
REMARK SMILES IDX 51 88 60 89 52 90 53 91 59 92 61 93 54 94 55 95 56 96 57 97
REMARK SMILES IDX 58 98
REMARK H PARENT 16 7 20 29 82 48 48 59
REMARK Flexibility Score: inf
ROOT
ATOM      1  C   UNL A   1      34.240  32.352  27.755  1.00  0.00     0.118 C 
ENDROOT
BRANCH   1   2
ATOM      2  C   UNL A   1      33.960  33.104  29.048  1.00  0.00     0.042 C 
BRANCH   2   3
ATOM      3  C   UNL A   1      34.951  32.752  30.148  1.00  0.00     0.118 C 
BRANCH   3   4
ATOM      4  N   UNL A   1      34.367  32.924  31.470  1.00  0.00    -0.352 N 
ATOM      5  C   UNL A   1      34.773  32.838  32.756  1.00  0.00     0.251 C 
ATOM      6  O   UNL A   1      33.913  33.128  33.595  1.00  0.00    -0.270 OA
ATOM      7  H   UNL A   1      33.415  33.171  31.410  1.00  0.00     0.163 HD
BRANCH   5   8
ATOM      8  C   UNL A   1      36.138  32.448  33.208  1.00  0.00     0.067 C 
ATOM      9  C   UNL A   1      40.416  29.861  34.150  1.00  0.00    -0.020 A 
ATOM     10  C   UNL A   1      39.834  31.066  34.596  1.00  0.00     0.053 A 
ATOM     11  C   UNL A   1      39.669  29.132  33.193  1.00  0.00     0.045 A 
ATOM     12  C   UNL A   1      38.590  31.505  34.146  1.00  0.00     0.128 A 
ATOM     13  C   UNL A   1      38.402  29.570  32.762  1.00  0.00     0.032 A 
ATOM     14  Cl  UNL A   1      40.213  27.670  32.444  1.00  0.00    -0.084 Cl
ATOM     15  C   UNL A   1      37.856  30.755  33.243  1.00  0.00     0.019 A 
ATOM     16  O   UNL A   1      38.138  32.673  34.683  1.00  0.00    -0.475 OA
ATOM     17  C   UNL A   1      36.526  31.206  32.859  1.00  0.00     0.025 C 
ATOM     18  C   UNL A   1      37.090  33.354  33.942  1.00  0.00     0.314 C 
BRANCH   9  19
ATOM     19  C   UNL A   1      41.800  29.446  34.706  1.00  0.00    -0.012 C 
ATOM     20  C   UNL A   1      41.814  28.017  35.323  1.00  0.00     0.016 C 
ATOM     21  C   UNL A   1      42.215  30.406  35.839  1.00  0.00     0.016 C 
ATOM     22  C   UNL A   1      42.879  29.409  33.601  1.00  0.00     0.016 C 
ENDBRANCH   9  19
BRANCH  18  23
ATOM     23  C   UNL A   1      37.695  34.461  33.059  1.00  0.00     0.429 C 
ATOM     24  F   UNL A   1      36.772  35.428  32.830  1.00  0.00    -0.167 F 
ATOM     25  F   UNL A   1      38.769  35.053  33.627  1.00  0.00    -0.167 F 
ATOM     26  F   UNL A   1      38.092  34.002  31.850  1.00  0.00    -0.167 F 
ENDBRANCH  18  23
ENDBRANCH   5   8
ENDBRANCH   3   4
ENDBRANCH   2   3
ENDBRANCH   1   2
BRANCH   1  27
ATOM     27  N   UNL A   1      33.673  31.006  27.774  1.00  0.00    -0.352 N 
ATOM     28  C   UNL A   1      34.297  29.782  27.845  1.00  0.00     0.251 C 
ATOM     29  H   UNL A   1      32.690  30.968  27.730  1.00  0.00     0.163 HD
ATOM     30  O   UNL A   1      33.662  28.765  27.597  1.00  0.00    -0.269 OA
BRANCH  28  31
ATOM     31  C   UNL A   1      35.732  29.703  28.196  1.00  0.00     0.039 A 
ATOM     32  C   UNL A   1      36.709  29.975  27.238  1.00  0.00     0.014 A 
ATOM     33  C   UNL A   1      36.110  29.350  29.494  1.00  0.00     0.014 A 
ATOM     34  C   UNL A   1      38.038  29.688  27.509  1.00  0.00     0.010 A 
ATOM     35  C   UNL A   1      37.465  29.182  29.801  1.00  0.00     0.010 A 
ATOM     36  C   UNL A   1      38.438  29.297  28.796  1.00  0.00    -0.014 A 
BRANCH  36  37
ATOM     37  C   UNL A   1      39.876  29.022  29.056  1.00  0.00     0.031 A 
ATOM     38  C   UNL A   1      40.488  27.697  28.682  1.00  0.00     0.074 A 
ATOM     39  C   UNL A   1      40.646  30.000  29.577  1.00  0.00     0.049 A 
ATOM     40  N   UNL A   1      41.722  27.288  28.837  1.00  0.00    -0.248 NA
ATOM     41  C   UNL A   1      39.604  26.698  28.059  1.00  0.00     0.031 C 
ATOM     42  C   UNL A   1      40.169  31.330  29.964  1.00  0.00     0.029 A 
ATOM     43  N   UNL A   1      41.990  30.043  29.843  1.00  0.00    -0.354 N 
ATOM     44  C   UNL A   1      41.758  25.986  28.352  1.00  0.00     0.074 A 
ATOM     45  C   UNL A   1      40.415  25.657  27.927  1.00  0.00     0.031 C 
ATOM     46  C   UNL A   1      41.210  32.077  30.356  1.00  0.00     0.029 A 
ATOM     47  C   UNL A   1      42.415  31.257  30.331  1.00  0.00     0.049 A 
ATOM     48  H   UNL A   1      42.594  29.279  29.698  1.00  0.00     0.167 HD
ATOM     49  C   UNL A   1      42.818  25.148  28.255  1.00  0.00     0.037 A 
ATOM     50  C   UNL A   1      43.633  31.663  30.737  1.00  0.00     0.037 A 
ATOM     51  C   UNL A   1      44.158  25.496  28.655  1.00  0.00     0.049 A 
ATOM     52  C   UNL A   1      44.779  30.697  30.669  1.00  0.00     0.074 A 
ATOM     53  C   UNL A   1      45.305  24.724  28.579  1.00  0.00     0.029 A 
ATOM     54  N   UNL A   1      44.535  26.715  29.201  1.00  0.00    -0.354 N 
ATOM     55  N   UNL A   1      44.793  29.468  30.209  1.00  0.00    -0.248 NA
ATOM     56  C   UNL A   1      46.073  31.162  31.187  1.00  0.00     0.031 C 
ATOM     57  C   UNL A   1      46.362  25.455  29.127  1.00  0.00     0.029 A 
ATOM     58  C   UNL A   1      45.890  26.706  29.491  1.00  0.00     0.049 A 
ATOM     59  H   UNL A   1      43.928  27.474  29.359  1.00  0.00     0.167 HD
ATOM     60  C   UNL A   1      46.098  29.018  30.369  1.00  0.00     0.074 A 
ATOM     61  C   UNL A   1      46.849  30.113  30.948  1.00  0.00     0.031 C 
ATOM     62  C   UNL A   1      46.623  27.805  30.068  1.00  0.00     0.037 A 
BRANCH  49  63
ATOM     63  C   UNL A   1      42.583  23.766  27.704  1.00  0.00     0.058 A 
ATOM     64  C   UNL A   1      42.557  23.514  26.324  1.00  0.00     0.135 A 
ATOM     65  C   UNL A   1      42.453  22.668  28.570  1.00  0.00     0.135 A 
ATOM     66  F   UNL A   1      42.661  24.528  25.449  1.00  0.00    -0.206 F 
ATOM     67  C   UNL A   1      42.395  22.226  25.822  1.00  0.00     0.059 A 
ATOM     68  C   UNL A   1      42.317  21.367  28.091  1.00  0.00     0.059 A 
ATOM     69  F   UNL A   1      42.470  22.850  29.901  1.00  0.00    -0.206 F 
ATOM     70  C   UNL A   1      42.281  21.158  26.714  1.00  0.00     0.060 A 
BRANCH  70  71
ATOM     71  S   UNL A   1      42.093  19.493  26.040  1.00  0.00     0.124 S 
ATOM     72  O   UNL A   1      40.650  19.422  25.835  1.00  0.00    -0.237 OA
ATOM     73  O   UNL A   1      42.903  19.556  24.829  1.00  0.00    -0.237 OA
ATOM     74  O   UNL A   1      42.617  18.635  27.099  1.00  0.00    -0.744 OA
ENDBRANCH  70  71
ENDBRANCH  49  63
BRANCH  50  75
ATOM     75  C   UNL A   1      43.815  33.046  31.254  1.00  0.00     0.058 A 
ATOM     76  C   UNL A   1      44.185  34.095  30.400  1.00  0.00     0.135 A 
ATOM     77  C   UNL A   1      43.584  33.354  32.605  1.00  0.00     0.135 A 
ATOM     78  F   UNL A   1      44.425  33.850  29.103  1.00  0.00    -0.206 F 
ATOM     79  C   UNL A   1      44.324  35.399  30.865  1.00  0.00     0.059 A 
ATOM     80  C   UNL A   1      43.685  34.655  33.088  1.00  0.00     0.059 A 
ATOM     81  F   UNL A   1      43.212  32.390  33.461  1.00  0.00    -0.206 F 
ATOM     82  C   UNL A   1      44.064  35.669  32.211  1.00  0.00     0.060 A 
BRANCH  82  83
ATOM     83  S   UNL A   1      44.191  37.375  32.788  1.00  0.00     0.124 S 
ATOM     84  O   UNL A   1      45.484  37.362  33.462  1.00  0.00    -0.237 OA
ATOM     85  O   UNL A   1      44.128  38.125  31.537  1.00  0.00    -0.237 OA
ATOM     86  O   UNL A   1      43.027  37.524  33.659  1.00  0.00    -0.744 OA
ENDBRANCH  82  83
ENDBRANCH  50  75
BRANCH  62  87
ATOM     87  C   UNL A   1      48.087  27.595  30.344  1.00  0.00     0.058 A 
ATOM     88  C   UNL A   1      49.066  27.921  29.393  1.00  0.00     0.135 A 
ATOM     89  C   UNL A   1      48.517  27.130  31.597  1.00  0.00     0.135 A 
ATOM     90  F   UNL A   1      48.708  28.360  28.176  1.00  0.00    -0.206 F 
ATOM     91  C   UNL A   1      50.421  27.781  29.670  1.00  0.00     0.059 A 
ATOM     92  C   UNL A   1      49.867  27.011  31.906  1.00  0.00     0.059 A 
ATOM     93  F   UNL A   1      47.620  26.814  32.545  1.00  0.00    -0.206 F 
ATOM     94  C   UNL A   1      50.812  27.332  30.934  1.00  0.00     0.060 A 
BRANCH  94  95
ATOM     95  S   UNL A   1      52.576  27.200  31.291  1.00  0.00     0.124 S 
ATOM     96  O   UNL A   1      52.571  26.422  32.526  1.00  0.00    -0.237 OA
ATOM     97  O   UNL A   1      53.081  26.510  30.108  1.00  0.00    -0.237 OA
ATOM     98  O   UNL A   1      53.002  28.590  31.428  1.00  0.00    -0.744 OA
ENDBRANCH  94  95
ENDBRANCH  62  87
ENDBRANCH  36  37
ENDBRANCH  28  31
ENDBRANCH   1  27
TORSDOF 15
ENDMDL
MODEL 3
REMARK VINA RESULT:     -10.2      4.894     10.889
REMARK SMILES CC(C)(C)c1cc2c(cc1Cl)C=C(C(=O)NCCCNC(=O)c1ccc(-c3c4nc(c(-c5c(F)cc(S(=O)(=O)[O-])cc5F)c5ccc([nH]5)c(-c5c(F)cc(S(=O)(=O)[O-])cc5F)c5nc(c(-c6c(F)cc(S(=O)(=O)[O-])cc6F)c6ccc3[nH]6)C=C5)C=C4)cc1)[C@H](C(F)(F)F)O2
REMARK SMILES IDX 19 1 18 2 17 3 16 4 14 5 15 6 13 8 5 9 6 10 10 11 7 12 9 13
REMARK SMILES IDX 11 14 8 15 94 16 12 17 89 18 2 19 1 20 3 21 4 22 90 23 91 24
REMARK SMILES IDX 92 25 93 26 20 27 21 28 22 30 23 31 24 32 88 33 25 34 87 35
REMARK SMILES IDX 26 36 27 37 28 38 81 39 29 40 86 41 80 42 82 43 30 44 85 45
REMARK SMILES IDX 79 46 78 47 31 49 65 50 44 51 64 52 45 53 48 54 63 55 83 56
REMARK SMILES IDX 46 57 47 58 62 60 84 61 49 62 32 63 33 64 42 65 34 66 35 67
REMARK SMILES IDX 41 68 43 69 36 70 37 71 38 72 39 73 40 74 66 75 67 76 76 77
REMARK SMILES IDX 68 78 69 79 75 80 77 81 70 82 71 83 72 84 73 85 74 86 50 87
REMARK SMILES IDX 51 88 60 89 52 90 53 91 59 92 61 93 54 94 55 95 56 96 57 97
REMARK SMILES IDX 58 98
REMARK H PARENT 16 7 20 29 82 48 48 59
REMARK Flexibility Score: inf
ROOT
ATOM      1  C   UNL A   1      38.244  24.035  26.406  1.00  0.00     0.118 C 
ENDROOT
BRANCH   1   2
ATOM      2  C   UNL A   1      37.447  23.280  25.352  1.00  0.00     0.042 C 
BRANCH   2   3
ATOM      3  C   UNL A   1      36.108  23.940  25.055  1.00  0.00     0.118 C 
BRANCH   3   4
ATOM      4  N   UNL A   1      35.047  23.393  25.887  1.00  0.00    -0.352 N 
ATOM      5  C   UNL A   1      33.713  23.557  26.034  1.00  0.00     0.251 C 
ATOM      6  O   UNL A   1      33.186  22.814  26.869  1.00  0.00    -0.270 OA
ATOM      7  H   UNL A   1      35.396  22.718  26.514  1.00  0.00     0.163 HD
BRANCH   5   8
ATOM      8  C   UNL A   1      32.872  24.525  25.275  1.00  0.00     0.067 C 
ATOM      9  C   UNL A   1      30.305  28.668  23.818  1.00  0.00    -0.020 A 
ATOM     10  C   UNL A   1      30.352  27.311  23.437  1.00  0.00     0.053 A 
ATOM     11  C   UNL A   1      31.169  29.041  24.875  1.00  0.00     0.045 A 
ATOM     12  C   UNL A   1      31.177  26.384  24.072  1.00  0.00     0.128 A 
ATOM     13  C   UNL A   1      31.981  28.095  25.529  1.00  0.00     0.032 A 
ATOM     14  Cl  UNL A   1      31.343  30.660  25.463  1.00  0.00    -0.084 Cl
ATOM     15  C   UNL A   1      31.982  26.762  25.134  1.00  0.00     0.019 A 
ATOM     16  O   UNL A   1      31.099  25.102  23.618  1.00  0.00    -0.475 OA
ATOM     17  C   UNL A   1      32.769  25.750  25.824  1.00  0.00     0.025 C 
ATOM     18  C   UNL A   1      32.218  24.237  23.950  1.00  0.00     0.314 C 
BRANCH   9  19
ATOM     19  C   UNL A   1      29.355  29.627  23.060  1.00  0.00    -0.012 C 
ATOM     20  C   UNL A   1      29.117  30.974  23.803  1.00  0.00     0.016 C 
ATOM     21  C   UNL A   1      27.968  28.973  22.907  1.00  0.00     0.016 C 
ATOM     22  C   UNL A   1      29.923  30.032  21.682  1.00  0.00     0.016 C 
ENDBRANCH   9  19
BRANCH  18  23
ATOM     23  C   UNL A   1      33.208  24.170  22.774  1.00  0.00     0.429 C 
ATOM     24  F   UNL A   1      34.148  25.139  22.902  1.00  0.00    -0.167 F 
ATOM     25  F   UNL A   1      33.855  22.985  22.704  1.00  0.00    -0.167 F 
ATOM     26  F   UNL A   1      32.607  24.361  21.577  1.00  0.00    -0.167 F 
ENDBRANCH  18  23
ENDBRANCH   5   8
ENDBRANCH   3   4
ENDBRANCH   2   3
ENDBRANCH   1   2
BRANCH   1  27
ATOM     27  N   UNL A   1      39.683  23.893  26.207  1.00  0.00    -0.352 N 
ATOM     28  C   UNL A   1      40.720  24.693  26.629  1.00  0.00     0.251 C 
ATOM     29  H   UNL A   1      39.955  23.100  25.690  1.00  0.00     0.163 HD
ATOM     30  O   UNL A   1      41.836  24.539  26.149  1.00  0.00    -0.269 OA
BRANCH  28  31
ATOM     31  C   UNL A   1      40.478  25.746  27.639  1.00  0.00     0.039 A 
ATOM     32  C   UNL A   1      41.181  26.950  27.586  1.00  0.00     0.014 A 
ATOM     33  C   UNL A   1      39.541  25.531  28.654  1.00  0.00     0.014 A 
ATOM     34  C   UNL A   1      41.111  27.835  28.651  1.00  0.00     0.010 A 
ATOM     35  C   UNL A   1      39.380  26.487  29.663  1.00  0.00     0.010 A 
ATOM     36  C   UNL A   1      40.203  27.623  29.701  1.00  0.00    -0.014 A 
BRANCH  36  37
ATOM     37  C   UNL A   1      40.138  28.608  30.813  1.00  0.00     0.031 A 
ATOM     38  C   UNL A   1      41.107  28.536  31.964  1.00  0.00     0.074 A 
ATOM     39  C   UNL A   1      39.237  29.609  30.749  1.00  0.00     0.049 A 
ATOM     40  N   UNL A   1      41.193  29.310  33.016  1.00  0.00    -0.248 NA
ATOM     41  C   UNL A   1      42.107  27.455  31.938  1.00  0.00     0.031 C 
ATOM     42  C   UNL A   1      38.256  29.792  29.675  1.00  0.00     0.029 A 
ATOM     43  N   UNL A   1      39.014  30.676  31.581  1.00  0.00    -0.354 N 
ATOM     44  C   UNL A   1      42.236  28.801  33.782  1.00  0.00     0.074 A 
ATOM     45  C   UNL A   1      42.733  27.631  33.094  1.00  0.00     0.031 C 
ATOM     46  C   UNL A   1      37.584  30.933  29.879  1.00  0.00     0.029 A 
ATOM     47  C   UNL A   1      38.021  31.520  31.140  1.00  0.00     0.049 A 
ATOM     48  H   UNL A   1      39.516  30.824  32.414  1.00  0.00     0.167 HD
ATOM     49  C   UNL A   1      42.742  29.278  34.946  1.00  0.00     0.037 A 
ATOM     50  C   UNL A   1      37.501  32.631  31.695  1.00  0.00     0.037 A 
ATOM     51  C   UNL A   1      42.257  30.462  35.608  1.00  0.00     0.049 A 
ATOM     52  C   UNL A   1      38.044  33.106  33.011  1.00  0.00     0.074 A 
ATOM     53  C   UNL A   1      42.716  31.038  36.781  1.00  0.00     0.029 A 
ATOM     54  N   UNL A   1      41.210  31.254  35.160  1.00  0.00    -0.354 N 
ATOM     55  N   UNL A   1      39.030  32.610  33.721  1.00  0.00    -0.248 NA
ATOM     56  C   UNL A   1      37.399  34.282  33.610  1.00  0.00     0.031 C 
ATOM     57  C   UNL A   1      41.913  32.145  37.068  1.00  0.00     0.029 A 
ATOM     58  C   UNL A   1      40.991  32.297  36.045  1.00  0.00     0.049 A 
ATOM     59  H   UNL A   1      40.698  31.098  34.333  1.00  0.00     0.167 HD
ATOM     60  C   UNL A   1      39.132  33.421  34.844  1.00  0.00     0.074 A 
ATOM     61  C   UNL A   1      38.123  34.451  34.709  1.00  0.00     0.031 C 
ATOM     62  C   UNL A   1      39.982  33.316  35.896  1.00  0.00     0.037 A 
BRANCH  49  63
ATOM     63  C   UNL A   1      43.873  28.521  35.590  1.00  0.00     0.058 A 
ATOM     64  C   UNL A   1      45.215  28.809  35.300  1.00  0.00     0.135 A 
ATOM     65  C   UNL A   1      43.611  27.543  36.564  1.00  0.00     0.135 A 
ATOM     66  F   UNL A   1      45.525  29.723  34.366  1.00  0.00    -0.206 F 
ATOM     67  C   UNL A   1      46.258  28.144  35.940  1.00  0.00     0.059 A 
ATOM     68  C   UNL A   1      44.637  26.886  37.238  1.00  0.00     0.059 A 
ATOM     69  F   UNL A   1      42.345  27.227  36.882  1.00  0.00    -0.206 F 
ATOM     70  C   UNL A   1      45.958  27.188  36.912  1.00  0.00     0.060 A 
BRANCH  70  71
ATOM     71  S   UNL A   1      47.326  26.353  37.746  1.00  0.00     0.124 S 
ATOM     72  O   UNL A   1      48.414  26.554  36.795  1.00  0.00    -0.237 OA
ATOM     73  O   UNL A   1      47.428  27.099  38.995  1.00  0.00    -0.237 OA
ATOM     74  O   UNL A   1      46.856  24.976  37.876  1.00  0.00    -0.744 OA
ENDBRANCH  70  71
ENDBRANCH  49  63
BRANCH  50  75
ATOM     75  C   UNL A   1      36.397  33.352  31.005  1.00  0.00     0.058 A 
ATOM     76  C   UNL A   1      35.090  33.327  31.511  1.00  0.00     0.135 A 
ATOM     77  C   UNL A   1      36.636  34.112  29.848  1.00  0.00     0.135 A 
ATOM     78  F   UNL A   1      34.809  32.609  32.609  1.00  0.00    -0.206 F 
ATOM     79  C   UNL A   1      34.057  34.025  30.894  1.00  0.00     0.059 A 
ATOM     80  C   UNL A   1      35.627  34.843  29.231  1.00  0.00     0.059 A 
ATOM     81  F   UNL A   1      37.873  34.181  29.332  1.00  0.00    -0.206 F 
ATOM     82  C   UNL A   1      34.339  34.787  29.758  1.00  0.00     0.060 A 
BRANCH  82  83
ATOM     83  S   UNL A   1      33.001  35.735  29.001  1.00  0.00     0.124 S 
ATOM     84  O   UNL A   1      33.739  36.782  28.304  1.00  0.00    -0.237 OA
ATOM     85  O   UNL A   1      32.359  34.732  28.155  1.00  0.00    -0.237 OA
ATOM     86  O   UNL A   1      32.210  36.176  30.147  1.00  0.00    -0.744 OA
ENDBRANCH  82  83
ENDBRANCH  50  75
BRANCH  62  87
ATOM     87  C   UNL A   1      39.873  34.350  36.982  1.00  0.00     0.058 A 
ATOM     88  C   UNL A   1      40.511  35.596  36.874  1.00  0.00     0.135 A 
ATOM     89  C   UNL A   1      39.065  34.121  38.107  1.00  0.00     0.135 A 
ATOM     90  F   UNL A   1      41.302  35.863  35.823  1.00  0.00    -0.206 F 
ATOM     91  C   UNL A   1      40.363  36.573  37.852  1.00  0.00     0.059 A 
ATOM     92  C   UNL A   1      38.878  35.095  39.082  1.00  0.00     0.059 A 
ATOM     93  F   UNL A   1      38.425  32.950  38.252  1.00  0.00    -0.206 F 
ATOM     94  C   UNL A   1      39.537  36.316  38.949  1.00  0.00     0.060 A 
BRANCH  94  95
ATOM     95  S   UNL A   1      39.320  37.613  40.184  1.00  0.00     0.124 S 
ATOM     96  O   UNL A   1      38.958  36.839  41.367  1.00  0.00    -0.237 OA
ATOM     97  O   UNL A   1      40.639  38.237  40.214  1.00  0.00    -0.237 OA
ATOM     98  O   UNL A   1      38.254  38.441  39.627  1.00  0.00    -0.744 OA
ENDBRANCH  94  95
ENDBRANCH  62  87
ENDBRANCH  36  37
ENDBRANCH  28  31
ENDBRANCH   1  27
TORSDOF 15
ENDMDL
