MODEL 1
REMARK VINA RESULT:     -11.3      0.000      0.000
REMARK SMILES C[C@@H]1CCC[C@]1(Sc1ccc(F)cc1)C(=O)NCCCNC(=O)c1ccc(-c2c3nc(c(-c4c(F)cc(S(=O)(=O)[O-])cc4F)c4ccc([nH]4)c(-c4c(F)cc(S(=O)(=O)[O-])cc4F)c4nc(c(-c5c(F)cc(S(=O)(=O)[O-])cc5F)c5ccc2[nH]5)C=C4)C=C3)cc1
REMARK SMILES IDX 19 1 18 2 17 3 15 4 16 5 6 7 1 8 2 9 3 10 4 11 5 12 7 13
REMARK SMILES IDX 8 14 9 15 14 16 10 17 13 18 11 19 12 20 20 21 21 22 22 23
REMARK SMILES IDX 23 25 24 26 25 27 89 28 26 29 88 30 27 31 28 32 29 33 82 34
REMARK SMILES IDX 30 35 87 36 81 37 83 38 31 39 86 40 80 41 79 42 32 44 66 45
REMARK SMILES IDX 45 46 65 47 46 48 49 49 64 50 84 51 47 52 48 53 63 55 85 56
REMARK SMILES IDX 50 57 33 58 34 59 43 60 35 61 36 62 42 63 44 64 37 65 38 66
REMARK SMILES IDX 39 67 40 68 41 69 67 70 68 71 77 72 69 73 70 74 76 75 78 76
REMARK SMILES IDX 71 77 72 78 73 79 74 80 75 81 51 82 52 83 61 84 53 85 54 86
REMARK SMILES IDX 60 87 62 88 55 89 56 90 57 91 58 92 59 93
REMARK H PARENT 17 6 21 24 83 43 49 54
REMARK Flexibility Score: inf
ROOT
ATOM      1  C   UNL A   1      34.006  28.374  25.747  1.00  0.00     0.042 C 
ENDROOT
BRANCH   1   2
ATOM      2  C   UNL A   1      33.748  26.986  25.181  1.00  0.00     0.117 C 
BRANCH   2   3
ATOM      3  N   UNL A   1      32.337  26.716  24.948  1.00  0.00    -0.355 N 
ATOM      4  C   UNL A   1      31.687  25.542  24.667  1.00  0.00     0.236 C 
ATOM      5  O   UNL A   1      30.454  25.588  24.630  1.00  0.00    -0.273 OA
ATOM      6  H   UNL A   1      31.753  27.507  25.001  1.00  0.00     0.163 HD
BRANCH   4   7
ATOM      7  C   UNL A   1      32.480  24.227  24.395  1.00  0.00     0.102 C 
ATOM      8  C   UNL A   1      32.881  25.269  22.050  1.00  0.00     0.009 C 
ATOM      9  C   UNL A   1      33.434  24.372  23.178  1.00  0.00     0.012 C 
ATOM     10  C   UNL A   1      33.577  22.957  22.597  1.00  0.00     0.005 C 
ATOM     11  C   UNL A   1      32.340  22.182  23.026  1.00  0.00     0.002 C 
ATOM     12  C   UNL A   1      31.530  23.100  23.937  1.00  0.00     0.028 C 
BRANCH   7  13
ATOM     13  S   UNL A   1      33.158  23.778  26.112  1.00  0.00    -0.109 SA
BRANCH  13  14
ATOM     14  C   UNL A   1      34.776  23.101  25.895  1.00  0.00     0.008 A 
ATOM     15  C   UNL A   1      34.997  21.738  25.685  1.00  0.00     0.018 A 
ATOM     16  C   UNL A   1      35.850  23.994  25.769  1.00  0.00     0.018 A 
ATOM     17  C   UNL A   1      36.290  21.259  25.457  1.00  0.00     0.040 A 
ATOM     18  C   UNL A   1      37.136  23.522  25.510  1.00  0.00     0.040 A 
ATOM     19  C   UNL A   1      37.348  22.156  25.376  1.00  0.00     0.123 A 
ATOM     20  F   UNL A   1      38.586  21.701  25.147  1.00  0.00    -0.207 F 
ENDBRANCH  13  14
ENDBRANCH   7  13
ENDBRANCH   4   7
ENDBRANCH   2   3
ENDBRANCH   1   2
BRANCH   1  21
ATOM     21  C   UNL A   1      33.632  28.526  27.213  1.00  0.00     0.118 C 
BRANCH  21  22
ATOM     22  N   UNL A   1      33.590  29.919  27.638  1.00  0.00    -0.352 N 
ATOM     23  C   UNL A   1      34.533  30.670  28.294  1.00  0.00     0.251 C 
ATOM     24  H   UNL A   1      32.756  30.394  27.422  1.00  0.00     0.163 HD
ATOM     25  O   UNL A   1      34.221  31.776  28.738  1.00  0.00    -0.269 OA
BRANCH  23  26
ATOM     26  C   UNL A   1      35.905  30.154  28.492  1.00  0.00     0.039 A 
ATOM     27  C   UNL A   1      36.804  30.197  27.423  1.00  0.00     0.014 A 
ATOM     28  C   UNL A   1      36.307  29.618  29.718  1.00  0.00     0.014 A 
ATOM     29  C   UNL A   1      38.122  29.773  27.608  1.00  0.00     0.010 A 
ATOM     30  C   UNL A   1      37.642  29.281  29.926  1.00  0.00     0.010 A 
ATOM     31  C   UNL A   1      38.565  29.353  28.873  1.00  0.00    -0.014 A 
BRANCH  31  32
ATOM     32  C   UNL A   1      39.989  29.002  29.115  1.00  0.00     0.031 A 
ATOM     33  C   UNL A   1      40.945  30.036  29.648  1.00  0.00     0.074 A 
ATOM     34  C   UNL A   1      40.434  27.769  28.795  1.00  0.00     0.049 A 
ATOM     35  N   UNL A   1      42.235  29.938  29.846  1.00  0.00    -0.248 NA
ATOM     36  C   UNL A   1      40.390  31.359  29.981  1.00  0.00     0.031 C 
ATOM     37  C   UNL A   1      39.613  26.698  28.222  1.00  0.00     0.029 A 
ATOM     38  N   UNL A   1      41.685  27.211  28.889  1.00  0.00    -0.354 N 
ATOM     39  C   UNL A   1      42.645  31.182  30.311  1.00  0.00     0.074 A 
ATOM     40  C   UNL A   1      41.478  32.035  30.323  1.00  0.00     0.031 C 
ATOM     41  C   UNL A   1      40.377  25.609  28.036  1.00  0.00     0.029 A 
ATOM     42  C   UNL A   1      41.749  25.915  28.429  1.00  0.00     0.049 A 
ATOM     43  H   UNL A   1      42.463  27.691  29.252  1.00  0.00     0.167 HD
ATOM     44  C   UNL A   1      43.878  31.568  30.711  1.00  0.00     0.037 A 
ATOM     45  C   UNL A   1      42.795  25.071  28.318  1.00  0.00     0.037 A 
ATOM     46  C   UNL A   1      45.027  30.700  30.736  1.00  0.00     0.049 A 
ATOM     47  C   UNL A   1      44.155  25.527  28.773  1.00  0.00     0.074 A 
ATOM     48  C   UNL A   1      46.300  30.981  31.198  1.00  0.00     0.029 A 
ATOM     49  N   UNL A   1      45.045  29.389  30.283  1.00  0.00    -0.354 N 
ATOM     50  N   UNL A   1      44.506  26.687  29.276  1.00  0.00    -0.248 NA
ATOM     51  C   UNL A   1      45.260  24.566  28.652  1.00  0.00     0.031 C 
ATOM     52  C   UNL A   1      47.104  29.861  30.973  1.00  0.00     0.029 A 
ATOM     53  C   UNL A   1      46.317  28.860  30.427  1.00  0.00     0.049 A 
ATOM     54  H   UNL A   1      44.269  28.907  29.914  1.00  0.00     0.167 HD
ATOM     55  C   UNL A   1      45.866  26.586  29.549  1.00  0.00     0.074 A 
ATOM     56  C   UNL A   1      46.271  25.249  29.175  1.00  0.00     0.031 C 
ATOM     57  C   UNL A   1      46.704  27.521  30.060  1.00  0.00     0.037 A 
BRANCH  44  58
ATOM     58  C   UNL A   1      44.071  32.981  31.186  1.00  0.00     0.058 A 
ATOM     59  C   UNL A   1      43.769  33.332  32.511  1.00  0.00     0.135 A 
ATOM     60  C   UNL A   1      44.428  34.010  30.300  1.00  0.00     0.135 A 
ATOM     61  F   UNL A   1      43.431  32.386  33.402  1.00  0.00    -0.206 F 
ATOM     62  C   UNL A   1      43.773  34.659  32.931  1.00  0.00     0.059 A 
ATOM     63  C   UNL A   1      44.464  35.341  30.705  1.00  0.00     0.059 A 
ATOM     64  F   UNL A   1      44.748  33.725  29.028  1.00  0.00    -0.206 F 
ATOM     65  C   UNL A   1      44.110  35.657  32.017  1.00  0.00     0.060 A 
BRANCH  65  66
ATOM     66  S   UNL A   1      44.077  37.375  32.569  1.00  0.00     0.124 S 
ATOM     67  O   UNL A   1      43.010  37.351  33.564  1.00  0.00    -0.237 OA
ATOM     68  O   UNL A   1      45.429  37.553  33.089  1.00  0.00    -0.237 OA
ATOM     69  O   UNL A   1      43.780  38.118  31.348  1.00  0.00    -0.744 OA
ENDBRANCH  65  66
ENDBRANCH  44  58
BRANCH  45  70
ATOM     70  C   UNL A   1      42.595  23.710  27.748  1.00  0.00     0.058 A 
ATOM     71  C   UNL A   1      42.448  22.589  28.580  1.00  0.00     0.135 A 
ATOM     72  C   UNL A   1      42.556  23.501  26.361  1.00  0.00     0.135 A 
ATOM     73  F   UNL A   1      42.490  22.729  29.914  1.00  0.00    -0.206 F 
ATOM     74  C   UNL A   1      42.287  21.310  28.059  1.00  0.00     0.059 A 
ATOM     75  C   UNL A   1      42.365  22.233  25.815  1.00  0.00     0.059 A 
ATOM     76  F   UNL A   1      42.680  24.541  25.523  1.00  0.00    -0.206 F 
ATOM     77  C   UNL A   1      42.245  21.142  26.675  1.00  0.00     0.060 A 
BRANCH  77  78
ATOM     78  S   UNL A   1      42.020  19.473  26.023  1.00  0.00     0.124 S 
ATOM     79  O   UNL A   1      42.863  19.510  24.833  1.00  0.00    -0.237 OA
ATOM     80  O   UNL A   1      42.510  18.648  27.122  1.00  0.00    -0.237 OA
ATOM     81  O   UNL A   1      40.584  19.398  25.775  1.00  0.00    -0.744 OA
ENDBRANCH  77  78
ENDBRANCH  45  70
BRANCH  57  82
ATOM     82  C   UNL A   1      48.144  27.138  30.271  1.00  0.00     0.058 A 
ATOM     83  C   UNL A   1      48.568  26.622  31.507  1.00  0.00     0.135 A 
ATOM     84  C   UNL A   1      49.117  27.370  29.288  1.00  0.00     0.135 A 
ATOM     85  F   UNL A   1      47.678  26.388  32.485  1.00  0.00    -0.206 F 
ATOM     86  C   UNL A   1      49.910  26.374  31.767  1.00  0.00     0.059 A 
ATOM     87  C   UNL A   1      50.464  27.100  29.517  1.00  0.00     0.059 A 
ATOM     88  F   UNL A   1      48.762  27.854  28.086  1.00  0.00    -0.206 F 
ATOM     89  C   UNL A   1      50.852  26.619  30.768  1.00  0.00     0.060 A 
BRANCH  89  90
ATOM     90  S   UNL A   1      52.590  26.289  31.126  1.00  0.00     0.124 S 
ATOM     91  O   UNL A   1      52.945  27.425  31.968  1.00  0.00    -0.237 OA
ATOM     92  O   UNL A   1      52.524  24.994  31.798  1.00  0.00    -0.237 OA
ATOM     93  O   UNL A   1      53.210  26.269  29.803  1.00  0.00    -0.744 OA
ENDBRANCH  89  90
ENDBRANCH  57  82
ENDBRANCH  31  32
ENDBRANCH  23  26
ENDBRANCH  21  22
ENDBRANCH   1  21
TORSDOF 15
ENDMDL
MODEL 2
REMARK VINA RESULT:     -11.0      0.447      8.297
REMARK SMILES C[C@@H]1CCC[C@]1(Sc1ccc(F)cc1)C(=O)NCCCNC(=O)c1ccc(-c2c3nc(c(-c4c(F)cc(S(=O)(=O)[O-])cc4F)c4ccc([nH]4)c(-c4c(F)cc(S(=O)(=O)[O-])cc4F)c4nc(c(-c5c(F)cc(S(=O)(=O)[O-])cc5F)c5ccc2[nH]5)C=C4)C=C3)cc1
REMARK SMILES IDX 19 1 18 2 17 3 15 4 16 5 6 7 1 8 2 9 3 10 4 11 5 12 7 13
REMARK SMILES IDX 8 14 9 15 14 16 10 17 13 18 11 19 12 20 20 21 21 22 22 23
REMARK SMILES IDX 23 25 24 26 25 27 89 28 26 29 88 30 27 31 28 32 29 33 82 34
REMARK SMILES IDX 30 35 87 36 81 37 83 38 31 39 86 40 80 41 79 42 32 44 66 45
REMARK SMILES IDX 45 46 65 47 46 48 49 49 64 50 84 51 47 52 48 53 63 55 85 56
REMARK SMILES IDX 50 57 33 58 34 59 43 60 35 61 36 62 42 63 44 64 37 65 38 66
REMARK SMILES IDX 39 67 40 68 41 69 67 70 68 71 77 72 69 73 70 74 76 75 78 76
REMARK SMILES IDX 71 77 72 78 73 79 74 80 75 81 51 82 52 83 61 84 53 85 54 86
REMARK SMILES IDX 60 87 62 88 55 89 56 90 57 91 58 92 59 93
REMARK H PARENT 17 6 21 24 83 43 49 54
REMARK Flexibility Score: inf
ROOT
ATOM      1  C   UNL A   1      34.054  28.386  25.634  1.00  0.00     0.042 C 
ENDROOT
BRANCH   1   2
ATOM      2  C   UNL A   1      33.771  27.029  25.009  1.00  0.00     0.117 C 
BRANCH   2   3
ATOM      3  N   UNL A   1      32.350  26.745  24.876  1.00  0.00    -0.355 N 
ATOM      4  C   UNL A   1      31.688  25.556  24.719  1.00  0.00     0.236 C 
ATOM      5  O   UNL A   1      30.454  25.601  24.749  1.00  0.00    -0.273 OA
ATOM      6  H   UNL A   1      31.768  27.539  24.905  1.00  0.00     0.163 HD
BRANCH   4   7
ATOM      7  C   UNL A   1      32.467  24.223  24.499  1.00  0.00     0.102 C 
ATOM      8  C   UNL A   1      32.736  25.092  22.066  1.00  0.00     0.009 C 
ATOM      9  C   UNL A   1      33.352  24.278  23.224  1.00  0.00     0.012 C 
ATOM     10  C   UNL A   1      33.465  22.824  22.739  1.00  0.00     0.005 C 
ATOM     11  C   UNL A   1      32.255  22.084  23.291  1.00  0.00     0.002 C 
ATOM     12  C   UNL A   1      31.495  23.067  24.176  1.00  0.00     0.028 C 
BRANCH   7  13
ATOM     13  S   UNL A   1      33.240  23.897  26.204  1.00  0.00    -0.109 SA
BRANCH  13  14
ATOM     14  C   UNL A   1      34.843  23.198  25.947  1.00  0.00     0.008 A 
ATOM     15  C   UNL A   1      35.048  21.823  25.807  1.00  0.00     0.018 A 
ATOM     16  C   UNL A   1      35.912  24.075  25.714  1.00  0.00     0.018 A 
ATOM     17  C   UNL A   1      36.326  21.324  25.545  1.00  0.00     0.040 A 
ATOM     18  C   UNL A   1      37.182  23.580  25.419  1.00  0.00     0.040 A 
ATOM     19  C   UNL A   1      37.382  22.208  25.357  1.00  0.00     0.123 A 
ATOM     20  F   UNL A   1      38.606  21.732  25.094  1.00  0.00    -0.207 F 
ENDBRANCH  13  14
ENDBRANCH   7  13
ENDBRANCH   4   7
ENDBRANCH   2   3
ENDBRANCH   1   2
BRANCH   1  21
ATOM     21  C   UNL A   1      33.646  28.494  27.095  1.00  0.00     0.118 C 
BRANCH  21  22
ATOM     22  N   UNL A   1      33.578  29.874  27.557  1.00  0.00    -0.352 N 
ATOM     23  C   UNL A   1      34.510  30.629  28.224  1.00  0.00     0.251 C 
ATOM     24  H   UNL A   1      32.732  30.336  27.360  1.00  0.00     0.163 HD
ATOM     25  O   UNL A   1      34.178  31.716  28.698  1.00  0.00    -0.269 OA
BRANCH  23  26
ATOM     26  C   UNL A   1      35.895  30.139  28.396  1.00  0.00     0.039 A 
ATOM     27  C   UNL A   1      36.777  30.212  27.315  1.00  0.00     0.014 A 
ATOM     28  C   UNL A   1      36.325  29.598  29.610  1.00  0.00     0.014 A 
ATOM     29  C   UNL A   1      38.106  29.813  27.476  1.00  0.00     0.010 A 
ATOM     30  C   UNL A   1      37.669  29.286  29.795  1.00  0.00     0.010 A 
ATOM     31  C   UNL A   1      38.576  29.388  28.730  1.00  0.00    -0.014 A 
BRANCH  31  32
ATOM     32  C   UNL A   1      40.009  29.063  28.948  1.00  0.00     0.031 A 
ATOM     33  C   UNL A   1      40.543  27.703  28.585  1.00  0.00     0.074 A 
ATOM     34  C   UNL A   1      40.816  29.973  29.534  1.00  0.00     0.049 A 
ATOM     35  N   UNL A   1      41.740  27.212  28.777  1.00  0.00    -0.248 NA
ATOM     36  C   UNL A   1      39.608  26.761  27.946  1.00  0.00     0.031 C 
ATOM     37  C   UNL A   1      40.402  31.307  29.978  1.00  0.00     0.029 A 
ATOM     38  N   UNL A   1      42.147  29.913  29.870  1.00  0.00    -0.354 N 
ATOM     39  C   UNL A   1      41.699  25.908  28.296  1.00  0.00     0.074 A 
ATOM     40  C   UNL A   1      40.347  25.665  27.846  1.00  0.00     0.031 C 
ATOM     41  C   UNL A   1      41.459  31.943  30.509  1.00  0.00     0.029 A 
ATOM     42  C   UNL A   1      42.614  31.051  30.487  1.00  0.00     0.049 A 
ATOM     43  H   UNL A   1      42.713  29.130  29.687  1.00  0.00     0.167 HD
ATOM     44  C   UNL A   1      42.704  25.006  28.218  1.00  0.00     0.037 A 
ATOM     45  C   UNL A   1      43.829  31.341  30.996  1.00  0.00     0.037 A 
ATOM     46  C   UNL A   1      44.059  25.269  28.631  1.00  0.00     0.049 A 
ATOM     47  C   UNL A   1      44.928  30.318  30.894  1.00  0.00     0.074 A 
ATOM     48  C   UNL A   1      45.162  24.442  28.519  1.00  0.00     0.029 A 
ATOM     49  N   UNL A   1      44.495  26.441  29.230  1.00  0.00    -0.354 N 
ATOM     50  N   UNL A   1      44.885  29.115  30.371  1.00  0.00    -0.248 NA
ATOM     51  C   UNL A   1      46.241  30.687  31.443  1.00  0.00     0.031 C 
ATOM     52  C   UNL A   1      46.254  25.089  29.102  1.00  0.00     0.029 A 
ATOM     53  C   UNL A   1      45.847  26.345  29.521  1.00  0.00     0.049 A 
ATOM     54  H   UNL A   1      43.930  27.224  29.420  1.00  0.00     0.167 HD
ATOM     55  C   UNL A   1      46.167  28.594  30.511  1.00  0.00     0.074 A 
ATOM     56  C   UNL A   1      46.967  29.617  31.149  1.00  0.00     0.031 C 
ATOM     57  C   UNL A   1      46.635  27.375  30.147  1.00  0.00     0.037 A 
BRANCH  44  58
ATOM     58  C   UNL A   1      42.409  23.648  27.646  1.00  0.00     0.058 A 
ATOM     59  C   UNL A   1      42.256  22.538  28.492  1.00  0.00     0.135 A 
ATOM     60  C   UNL A   1      42.408  23.420  26.260  1.00  0.00     0.135 A 
ATOM     61  F   UNL A   1      42.240  22.700  29.825  1.00  0.00    -0.206 F 
ATOM     62  C   UNL A   1      42.155  21.246  27.987  1.00  0.00     0.059 A 
ATOM     63  C   UNL A   1      42.283  22.139  25.731  1.00  0.00     0.059 A 
ATOM     64  F   UNL A   1      42.529  24.450  25.406  1.00  0.00    -0.206 F 
ATOM     65  C   UNL A   1      42.181  21.056  26.604  1.00  0.00     0.060 A 
BRANCH  65  66
ATOM     66  S   UNL A   1      42.083  19.370  25.967  1.00  0.00     0.124 S 
ATOM     67  O   UNL A   1      42.961  19.436  24.805  1.00  0.00    -0.237 OA
ATOM     68  O   UNL A   1      42.579  18.589  27.097  1.00  0.00    -0.237 OA
ATOM     69  O   UNL A   1      40.663  19.200  25.674  1.00  0.00    -0.744 OA
ENDBRANCH  65  66
ENDBRANCH  44  58
BRANCH  45  70
ATOM     70  C   UNL A   1      44.066  32.657  31.650  1.00  0.00     0.058 A 
ATOM     71  C   UNL A   1      43.903  32.818  33.035  1.00  0.00     0.135 A 
ATOM     72  C   UNL A   1      44.450  33.782  30.905  1.00  0.00     0.135 A 
ATOM     73  F   UNL A   1      43.525  31.780  33.795  1.00  0.00    -0.206 F 
ATOM     74  C   UNL A   1      44.095  34.049  33.654  1.00  0.00     0.059 A 
ATOM     75  C   UNL A   1      44.679  35.018  31.506  1.00  0.00     0.059 A 
ATOM     76  F   UNL A   1      44.630  33.677  29.579  1.00  0.00    -0.206 F 
ATOM     77  C   UNL A   1      44.484  35.143  32.881  1.00  0.00     0.060 A 
BRANCH  77  78
ATOM     78  S   UNL A   1      44.743  36.726  33.710  1.00  0.00     0.124 S 
ATOM     79  O   UNL A   1      44.153  36.468  35.019  1.00  0.00    -0.237 OA
ATOM     80  O   UNL A   1      46.196  36.851  33.682  1.00  0.00    -0.237 OA
ATOM     81  O   UNL A   1      44.016  37.671  32.868  1.00  0.00    -0.744 OA
ENDBRANCH  77  78
ENDBRANCH  45  70
BRANCH  57  82
ATOM     82  C   UNL A   1      48.086  27.072  30.404  1.00  0.00     0.058 A 
ATOM     83  C   UNL A   1      48.512  26.667  31.680  1.00  0.00     0.135 A 
ATOM     84  C   UNL A   1      49.065  27.275  29.420  1.00  0.00     0.135 A 
ATOM     85  F   UNL A   1      47.618  26.467  32.661  1.00  0.00    -0.206 F 
ATOM     86  C   UNL A   1      49.860  26.499  31.976  1.00  0.00     0.059 A 
ATOM     87  C   UNL A   1      50.417  27.082  29.686  1.00  0.00     0.059 A 
ATOM     88  F   UNL A   1      48.709  27.652  28.181  1.00  0.00    -0.206 F 
ATOM     89  C   UNL A   1      50.806  26.711  30.973  1.00  0.00     0.060 A 
BRANCH  89  90
ATOM     90  S   UNL A   1      52.550  26.485  31.377  1.00  0.00     0.124 S 
ATOM     91  O   UNL A   1      52.728  27.422  32.480  1.00  0.00    -0.237 OA
ATOM     92  O   UNL A   1      52.602  25.069  31.732  1.00  0.00    -0.237 OA
ATOM     93  O   UNL A   1      53.234  26.838  30.135  1.00  0.00    -0.744 OA
ENDBRANCH  89  90
ENDBRANCH  57  82
ENDBRANCH  31  32
ENDBRANCH  23  26
ENDBRANCH  21  22
ENDBRANCH   1  21
TORSDOF 15
ENDMDL
MODEL 3
REMARK VINA RESULT:     -11.0      5.022     10.599
REMARK SMILES C[C@@H]1CCC[C@]1(Sc1ccc(F)cc1)C(=O)NCCCNC(=O)c1ccc(-c2c3nc(c(-c4c(F)cc(S(=O)(=O)[O-])cc4F)c4ccc([nH]4)c(-c4c(F)cc(S(=O)(=O)[O-])cc4F)c4nc(c(-c5c(F)cc(S(=O)(=O)[O-])cc5F)c5ccc2[nH]5)C=C4)C=C3)cc1
REMARK SMILES IDX 19 1 18 2 17 3 15 4 16 5 6 7 1 8 2 9 3 10 4 11 5 12 7 13
REMARK SMILES IDX 8 14 9 15 14 16 10 17 13 18 11 19 12 20 20 21 21 22 22 23
REMARK SMILES IDX 23 25 24 26 25 27 89 28 26 29 88 30 27 31 28 32 29 33 82 34
REMARK SMILES IDX 30 35 87 36 81 37 83 38 31 39 86 40 80 41 79 42 32 44 66 45
REMARK SMILES IDX 45 46 65 47 46 48 49 49 64 50 84 51 47 52 48 53 63 55 85 56
REMARK SMILES IDX 50 57 33 58 34 59 43 60 35 61 36 62 42 63 44 64 37 65 38 66
REMARK SMILES IDX 39 67 40 68 41 69 67 70 68 71 77 72 69 73 70 74 76 75 78 76
REMARK SMILES IDX 71 77 72 78 73 79 74 80 75 81 51 82 52 83 61 84 53 85 54 86
REMARK SMILES IDX 60 87 62 88 55 89 56 90 57 91 58 92 59 93
REMARK H PARENT 17 6 21 24 83 43 49 54
REMARK Flexibility Score: inf
ROOT
ATOM      1  C   UNL A   1      37.411  23.125  26.149  1.00  0.00     0.042 C 
ENDROOT
BRANCH   1   2
ATOM      2  C   UNL A   1      36.419  23.184  24.997  1.00  0.00     0.117 C 
BRANCH   2   3
ATOM      3  N   UNL A   1      35.757  21.913  24.747  1.00  0.00    -0.355 N 
ATOM      4  C   UNL A   1      34.426  21.583  24.748  1.00  0.00     0.236 C 
ATOM      5  O   UNL A   1      34.139  20.439  24.384  1.00  0.00    -0.273 OA
ATOM      6  H   UNL A   1      36.365  21.166  24.541  1.00  0.00     0.163 HD
BRANCH   4   7
ATOM      7  C   UNL A   1      33.343  22.608  25.205  1.00  0.00     0.102 C 
ATOM      8  C   UNL A   1      33.908  21.740  27.587  1.00  0.00     0.009 C 
ATOM      9  C   UNL A   1      33.463  22.937  26.718  1.00  0.00     0.012 C 
ATOM     10  C   UNL A   1      32.045  23.317  27.170  1.00  0.00     0.005 C 
ATOM     11  C   UNL A   1      31.084  22.661  26.190  1.00  0.00     0.002 C 
ATOM     12  C   UNL A   1      31.931  21.990  25.113  1.00  0.00     0.028 C 
BRANCH   7  13
ATOM     13  S   UNL A   1      33.483  23.982  23.900  1.00  0.00    -0.109 SA
BRANCH  13  14
ATOM     14  C   UNL A   1      32.914  25.486  24.634  1.00  0.00     0.008 A 
ATOM     15  C   UNL A   1      31.583  25.903  24.555  1.00  0.00     0.018 A 
ATOM     16  C   UNL A   1      33.802  26.191  25.457  1.00  0.00     0.018 A 
ATOM     17  C   UNL A   1      31.169  27.069  25.203  1.00  0.00     0.040 A 
ATOM     18  C   UNL A   1      33.383  27.338  26.132  1.00  0.00     0.040 A 
ATOM     19  C   UNL A   1      32.075  27.777  25.983  1.00  0.00     0.123 A 
ATOM     20  F   UNL A   1      31.678  28.890  26.615  1.00  0.00    -0.207 F 
ENDBRANCH  13  14
ENDBRANCH   7  13
ENDBRANCH   4   7
ENDBRANCH   2   3
ENDBRANCH   1   2
BRANCH   1  21
ATOM     21  C   UNL A   1      38.343  24.324  26.228  1.00  0.00     0.118 C 
BRANCH  21  22
ATOM     22  N   UNL A   1      39.749  23.945  26.181  1.00  0.00    -0.352 N 
ATOM     23  C   UNL A   1      40.846  24.555  26.736  1.00  0.00     0.251 C 
ATOM     24  H   UNL A   1      39.941  23.125  25.673  1.00  0.00     0.163 HD
ATOM     25  O   UNL A   1      41.973  24.179  26.411  1.00  0.00    -0.269 OA
BRANCH  23  26
ATOM     26  C   UNL A   1      40.686  25.667  27.697  1.00  0.00     0.039 A 
ATOM     27  C   UNL A   1      39.668  25.595  28.652  1.00  0.00     0.014 A 
ATOM     28  C   UNL A   1      41.524  26.785  27.656  1.00  0.00     0.014 A 
ATOM     29  C   UNL A   1      39.541  26.606  29.608  1.00  0.00     0.010 A 
ATOM     30  C   UNL A   1      41.453  27.745  28.662  1.00  0.00     0.010 A 
ATOM     31  C   UNL A   1      40.460  27.667  29.650  1.00  0.00    -0.014 A 
BRANCH  31  32
ATOM     32  C   UNL A   1      40.407  28.693  30.724  1.00  0.00     0.031 A 
ATOM     33  C   UNL A   1      41.296  28.573  31.933  1.00  0.00     0.074 A 
ATOM     34  C   UNL A   1      39.511  29.698  30.640  1.00  0.00     0.049 A 
ATOM     35  N   UNL A   1      41.333  29.322  33.004  1.00  0.00    -0.248 NA
ATOM     36  C   UNL A   1      42.253  27.452  31.956  1.00  0.00     0.031 C 
ATOM     37  C   UNL A   1      38.559  29.892  29.542  1.00  0.00     0.029 A 
ATOM     38  N   UNL A   1      39.242  30.739  31.496  1.00  0.00    -0.354 N 
ATOM     39  C   UNL A   1      42.301  28.761  33.829  1.00  0.00     0.074 A 
ATOM     40  C   UNL A   1      42.798  27.581  33.158  1.00  0.00     0.031 C 
ATOM     41  C   UNL A   1      37.827  30.992  29.781  1.00  0.00     0.029 A 
ATOM     42  C   UNL A   1      38.220  31.557  31.068  1.00  0.00     0.049 A 
ATOM     43  H   UNL A   1      39.733  30.886  32.335  1.00  0.00     0.167 HD
ATOM     44  C   UNL A   1      42.748  29.205  35.026  1.00  0.00     0.037 A 
ATOM     45  C   UNL A   1      37.650  32.631  31.652  1.00  0.00     0.037 A 
ATOM     46  C   UNL A   1      42.279  30.405  35.669  1.00  0.00     0.049 A 
ATOM     47  C   UNL A   1      38.170  33.102  32.984  1.00  0.00     0.074 A 
ATOM     48  C   UNL A   1      42.728  30.975  36.847  1.00  0.00     0.029 A 
ATOM     49  N   UNL A   1      41.260  31.217  35.194  1.00  0.00    -0.354 N 
ATOM     50  N   UNL A   1      39.136  32.597  33.714  1.00  0.00    -0.248 NA
ATOM     51  C   UNL A   1      37.532  34.289  33.570  1.00  0.00     0.031 C 
ATOM     52  C   UNL A   1      41.944  32.100  37.115  1.00  0.00     0.029 A 
ATOM     53  C   UNL A   1      41.047  32.267  36.072  1.00  0.00     0.049 A 
ATOM     54  H   UNL A   1      40.763  31.069  34.357  1.00  0.00     0.167 HD
ATOM     55  C   UNL A   1      39.232  33.415  34.835  1.00  0.00     0.074 A 
ATOM     56  C   UNL A   1      38.243  34.458  34.678  1.00  0.00     0.031 C 
ATOM     57  C   UNL A   1      40.064  33.306  35.899  1.00  0.00     0.037 A 
BRANCH  44  58
ATOM     58  C   UNL A   1      43.820  28.420  35.730  1.00  0.00     0.058 A 
ATOM     59  C   UNL A   1      45.171  28.609  35.400  1.00  0.00     0.135 A 
ATOM     60  C   UNL A   1      43.504  27.392  36.633  1.00  0.00     0.135 A 
ATOM     61  F   UNL A   1      45.531  29.584  34.549  1.00  0.00    -0.206 F 
ATOM     62  C   UNL A   1      46.167  27.780  35.907  1.00  0.00     0.059 A 
ATOM     63  C   UNL A   1      44.486  26.567  37.172  1.00  0.00     0.059 A 
ATOM     64  F   UNL A   1      42.229  27.184  36.999  1.00  0.00    -0.206 F 
ATOM     65  C   UNL A   1      45.813  26.754  36.784  1.00  0.00     0.060 A 
BRANCH  65  66
ATOM     66  S   UNL A   1      47.113  25.667  37.405  1.00  0.00     0.124 S 
ATOM     67  O   UNL A   1      47.399  26.254  38.709  1.00  0.00    -0.237 OA
ATOM     68  O   UNL A   1      46.441  24.371  37.423  1.00  0.00    -0.237 OA
ATOM     69  O   UNL A   1      48.171  25.802  36.408  1.00  0.00    -0.744 OA
ENDBRANCH  65  66
ENDBRANCH  44  58
BRANCH  45  70
ATOM     70  C   UNL A   1      36.520  33.329  30.980  1.00  0.00     0.058 A 
ATOM     71  C   UNL A   1      36.737  34.154  29.865  1.00  0.00     0.135 A 
ATOM     72  C   UNL A   1      35.203  33.195  31.444  1.00  0.00     0.135 A 
ATOM     73  F   UNL A   1      37.978  34.328  29.387  1.00  0.00    -0.206 F 
ATOM     74  C   UNL A   1      35.694  34.832  29.246  1.00  0.00     0.059 A 
ATOM     75  C   UNL A   1      34.136  33.840  30.822  1.00  0.00     0.059 A 
ATOM     76  F   UNL A   1      34.941  32.409  32.500  1.00  0.00    -0.206 F 
ATOM     77  C   UNL A   1      34.396  34.668  29.730  1.00  0.00     0.060 A 
BRANCH  77  78
ATOM     78  S   UNL A   1      33.056  35.547  28.899  1.00  0.00     0.124 S 
ATOM     79  O   UNL A   1      32.416  34.467  28.156  1.00  0.00    -0.237 OA
ATOM     80  O   UNL A   1      32.296  36.079  30.025  1.00  0.00    -0.237 OA
ATOM     81  O   UNL A   1      33.754  36.541  28.089  1.00  0.00    -0.744 OA
ENDBRANCH  77  78
ENDBRANCH  45  70
BRANCH  57  82
ATOM     82  C   UNL A   1      39.967  34.350  36.979  1.00  0.00     0.058 A 
ATOM     83  C   UNL A   1      39.080  34.179  38.054  1.00  0.00     0.135 A 
ATOM     84  C   UNL A   1      40.677  35.557  36.900  1.00  0.00     0.135 A 
ATOM     85  F   UNL A   1      38.370  33.045  38.173  1.00  0.00    -0.206 F 
ATOM     86  C   UNL A   1      38.883  35.179  38.999  1.00  0.00     0.059 A 
ATOM     87  C   UNL A   1      40.518  36.560  37.851  1.00  0.00     0.059 A 
ATOM     88  F   UNL A   1      41.546  35.766  35.897  1.00  0.00    -0.206 F 
ATOM     89  C   UNL A   1      39.603  36.368  38.887  1.00  0.00     0.060 A 
BRANCH  89  90
ATOM     90  S   UNL A   1      39.334  37.654  40.124  1.00  0.00     0.124 S 
ATOM     91  O   UNL A   1      39.025  36.868  41.313  1.00  0.00    -0.237 OA
ATOM     92  O   UNL A   1      40.621  38.344  40.136  1.00  0.00    -0.237 OA
ATOM     93  O   UNL A   1      38.222  38.426  39.575  1.00  0.00    -0.744 OA
ENDBRANCH  89  90
ENDBRANCH  57  82
ENDBRANCH  31  32
ENDBRANCH  23  26
ENDBRANCH  21  22
ENDBRANCH   1  21
TORSDOF 15
ENDMDL
