MODEL 1
REMARK VINA RESULT:     -11.8      0.000      0.000
REMARK SMILES C[C@H](C(=O)NCCCNC(=O)c1ccc(-c2c3nc(c(-c4c(F)cc(S(=O)(=O)[O-])cc4F)c4ccc([nH]4)c(-c4c(F)cc(S(=O)(=O)[O-])cc4F)c4nc(c(-c5c(F)cc(S(=O)(=O)[O-])cc5F)c5ccc2[nH]5)C=C4)C=C3)cc1)[C@@H](C)Nc1ccccc1Oc1ccccc1
REMARK SMILES IDX 6 1 5 2 3 3 4 4 2 6 1 7 78 8 79 9 80 10 81 12 82 13 86 14
REMARK SMILES IDX 83 15 85 16 84 17 87 18 88 19 89 20 93 21 90 22 92 23 91 24
REMARK SMILES IDX 7 25 8 26 9 27 10 28 11 30 12 31 13 32 77 33 14 34 76 35
REMARK SMILES IDX 15 36 16 37 17 38 70 39 18 40 75 41 69 42 71 43 19 44 74 45
REMARK SMILES IDX 68 46 67 47 20 49 54 50 33 51 53 52 34 53 37 54 52 55 72 56
REMARK SMILES IDX 35 57 36 58 51 60 73 61 38 62 21 63 22 64 31 65 23 66 24 67
REMARK SMILES IDX 30 68 32 69 25 70 26 71 27 72 28 73 29 74 55 75 56 76 65 77
REMARK SMILES IDX 57 78 58 79 64 80 66 81 59 82 60 83 61 84 62 85 63 86 39 87
REMARK SMILES IDX 40 88 49 89 41 90 42 91 48 92 50 93 43 94 44 95 45 96 46 97
REMARK SMILES IDX 47 98
REMARK H PARENT 5 5 80 11 9 29 71 48 37 59
REMARK Flexibility Score: inf
ROOT
ATOM      1  C   UNL A   1      37.187  22.116  25.687  1.00  0.00     0.117 C 
ENDROOT
BRANCH   1   2
ATOM      2  N   UNL A   1      35.931  21.867  26.375  1.00  0.00    -0.356 N 
ATOM      3  C   UNL A   1      34.674  21.587  25.938  1.00  0.00     0.224 C 
ATOM      4  O   UNL A   1      33.851  21.296  26.811  1.00  0.00    -0.275 OA
ATOM      5  H   UNL A   1      36.006  21.908  27.356  1.00  0.00     0.163 HD
BRANCH   3   6
ATOM      6  C   UNL A   1      34.280  21.648  24.458  1.00  0.00     0.097 C 
ATOM      7  C   UNL A   1      32.975  20.852  24.284  1.00  0.00     0.020 C 
BRANCH   6   8
ATOM      8  C   UNL A   1      34.104  23.133  24.048  1.00  0.00     0.088 C 
ATOM      9  C   UNL A   1      33.050  23.260  22.949  1.00  0.00     0.031 C 
BRANCH   8  10
ATOM     10  N   UNL A   1      33.672  23.976  25.159  1.00  0.00    -0.379 N 
ATOM     11  H   UNL A   1      34.340  24.166  25.856  1.00  0.00     0.160 HD
BRANCH  10  12
ATOM     12  C   UNL A   1      32.408  24.539  25.332  1.00  0.00     0.078 A 
ATOM     13  C   UNL A   1      31.510  23.754  26.092  1.00  0.00     0.029 A 
ATOM     14  C   UNL A   1      31.942  25.816  24.938  1.00  0.00     0.150 A 
ATOM     15  C   UNL A   1      30.225  24.185  26.433  1.00  0.00     0.002 A 
ATOM     16  C   UNL A   1      30.638  26.239  25.266  1.00  0.00     0.049 A 
ATOM     17  C   UNL A   1      29.782  25.426  26.007  1.00  0.00     0.004 A 
BRANCH  14  18
ATOM     18  O   UNL A   1      32.759  26.843  24.511  1.00  0.00    -0.455 OA
BRANCH  18  19
ATOM     19  C   UNL A   1      33.120  27.877  25.343  1.00  0.00     0.127 A 
ATOM     20  C   UNL A   1      32.456  29.079  25.053  1.00  0.00     0.047 A 
ATOM     21  C   UNL A   1      33.975  27.814  26.441  1.00  0.00     0.047 A 
ATOM     22  C   UNL A   1      32.556  30.176  25.905  1.00  0.00     0.004 A 
ATOM     23  C   UNL A   1      34.079  28.922  27.296  1.00  0.00     0.004 A 
ATOM     24  C   UNL A   1      33.355  30.091  27.041  1.00  0.00     0.000 A 
ENDBRANCH  18  19
ENDBRANCH  14  18
ENDBRANCH  10  12
ENDBRANCH   8  10
ENDBRANCH   6   8
ENDBRANCH   3   6
ENDBRANCH   1   2
BRANCH   1  25
ATOM     25  C   UNL A   1      37.503  23.605  25.496  1.00  0.00     0.042 C 
BRANCH  25  26
ATOM     26  C   UNL A   1      38.464  24.222  26.511  1.00  0.00     0.118 C 
BRANCH  26  27
ATOM     27  N   UNL A   1      39.854  24.016  26.148  1.00  0.00    -0.352 N 
ATOM     28  C   UNL A   1      40.963  24.748  26.503  1.00  0.00     0.251 C 
ATOM     29  H   UNL A   1      40.027  23.243  25.564  1.00  0.00     0.163 HD
ATOM     30  O   UNL A   1      42.021  24.557  25.907  1.00  0.00    -0.269 OA
BRANCH  28  31
ATOM     31  C   UNL A   1      40.900  25.767  27.582  1.00  0.00     0.039 A 
ATOM     32  C   UNL A   1      39.868  25.684  28.523  1.00  0.00     0.014 A 
ATOM     33  C   UNL A   1      41.796  26.840  27.634  1.00  0.00     0.014 A 
ATOM     34  C   UNL A   1      39.756  26.648  29.532  1.00  0.00     0.010 A 
ATOM     35  C   UNL A   1      41.713  27.775  28.670  1.00  0.00     0.010 A 
ATOM     36  C   UNL A   1      40.686  27.696  29.626  1.00  0.00    -0.014 A 
BRANCH  36  37
ATOM     37  C   UNL A   1      40.589  28.717  30.706  1.00  0.00     0.031 A 
ATOM     38  C   UNL A   1      41.454  28.615  31.935  1.00  0.00     0.074 A 
ATOM     39  C   UNL A   1      39.686  29.714  30.610  1.00  0.00     0.049 A 
ATOM     40  N   UNL A   1      41.465  29.372  33.003  1.00  0.00    -0.248 NA
ATOM     41  C   UNL A   1      42.419  27.507  31.975  1.00  0.00     0.031 C 
ATOM     42  C   UNL A   1      38.763  29.911  29.492  1.00  0.00     0.029 A 
ATOM     43  N   UNL A   1      39.384  30.738  31.476  1.00  0.00    -0.354 N 
ATOM     44  C   UNL A   1      42.424  28.826  33.848  1.00  0.00     0.074 A 
ATOM     45  C   UNL A   1      42.946  27.649  33.183  1.00  0.00     0.031 C 
ATOM     46  C   UNL A   1      37.999  30.988  29.739  1.00  0.00     0.029 A 
ATOM     47  C   UNL A   1      38.353  31.538  31.045  1.00  0.00     0.049 A 
ATOM     48  H   UNL A   1      39.862  30.884  32.324  1.00  0.00     0.167 HD
ATOM     49  C   UNL A   1      42.847  29.270  35.058  1.00  0.00     0.037 A 
ATOM     50  C   UNL A   1      37.747  32.588  31.636  1.00  0.00     0.037 A 
ATOM     51  C   UNL A   1      42.343  30.450  35.712  1.00  0.00     0.049 A 
ATOM     52  C   UNL A   1      38.227  33.063  32.980  1.00  0.00     0.074 A 
ATOM     53  C   UNL A   1      42.752  31.010  36.911  1.00  0.00     0.029 A 
ATOM     54  N   UNL A   1      41.315  31.247  35.232  1.00  0.00    -0.354 N 
ATOM     55  N   UNL A   1      39.181  32.572  33.734  1.00  0.00    -0.248 NA
ATOM     56  C   UNL A   1      37.553  34.238  33.553  1.00  0.00     0.031 C 
ATOM     57  C   UNL A   1      41.944  32.122  37.174  1.00  0.00     0.029 A 
ATOM     58  C   UNL A   1      41.061  32.281  36.119  1.00  0.00     0.049 A 
ATOM     59  H   UNL A   1      40.836  31.101  34.384  1.00  0.00     0.167 HD
ATOM     60  C   UNL A   1      39.238  33.390  34.859  1.00  0.00     0.074 A 
ATOM     61  C   UNL A   1      38.228  34.413  34.683  1.00  0.00     0.031 C 
ATOM     62  C   UNL A   1      40.055  33.299  35.936  1.00  0.00     0.037 A 
BRANCH  49  63
ATOM     63  C   UNL A   1      43.908  28.466  35.760  1.00  0.00     0.058 A 
ATOM     64  C   UNL A   1      43.581  27.435  36.656  1.00  0.00     0.135 A 
ATOM     65  C   UNL A   1      45.270  28.714  35.517  1.00  0.00     0.135 A 
ATOM     66  F   UNL A   1      42.296  27.161  36.931  1.00  0.00    -0.206 F 
ATOM     67  C   UNL A   1      44.564  26.707  37.318  1.00  0.00     0.059 A 
ATOM     68  C   UNL A   1      46.270  27.979  36.148  1.00  0.00     0.059 A 
ATOM     69  F   UNL A   1      45.639  29.682  34.665  1.00  0.00    -0.206 F 
ATOM     70  C   UNL A   1      45.907  26.991  37.062  1.00  0.00     0.060 A 
BRANCH  70  71
ATOM     71  S   UNL A   1      47.171  26.055  37.948  1.00  0.00     0.124 S 
ATOM     72  O   UNL A   1      48.328  26.235  37.078  1.00  0.00    -0.237 OA
ATOM     73  O   UNL A   1      47.231  26.745  39.232  1.00  0.00    -0.237 OA
ATOM     74  O   UNL A   1      46.623  24.703  37.993  1.00  0.00    -0.744 OA
ENDBRANCH  70  71
ENDBRANCH  49  63
BRANCH  50  75
ATOM     75  C   UNL A   1      36.616  33.263  30.947  1.00  0.00     0.058 A 
ATOM     76  C   UNL A   1      35.303  33.151  31.428  1.00  0.00     0.135 A 
ATOM     77  C   UNL A   1      36.833  34.065  29.816  1.00  0.00     0.135 A 
ATOM     78  F   UNL A   1      35.045  32.388  32.501  1.00  0.00    -0.206 F 
ATOM     79  C   UNL A   1      34.243  33.806  30.809  1.00  0.00     0.059 A 
ATOM     80  C   UNL A   1      35.794  34.748  29.193  1.00  0.00     0.059 A 
ATOM     81  F   UNL A   1      38.074  34.217  29.327  1.00  0.00    -0.206 F 
ATOM     82  C   UNL A   1      34.500  34.608  29.695  1.00  0.00     0.060 A 
BRANCH  82  83
ATOM     83  S   UNL A   1      33.130  35.517  28.946  1.00  0.00     0.124 S 
ATOM     84  O   UNL A   1      33.837  36.560  28.211  1.00  0.00    -0.237 OA
ATOM     85  O   UNL A   1      32.487  34.488  28.134  1.00  0.00    -0.237 OA
ATOM     86  O   UNL A   1      32.358  35.968  30.099  1.00  0.00    -0.744 OA
ENDBRANCH  82  83
ENDBRANCH  50  75
BRANCH  62  87
ATOM     87  C   UNL A   1      39.918  34.346  37.008  1.00  0.00     0.058 A 
ATOM     88  C   UNL A   1      40.583  35.578  36.925  1.00  0.00     0.135 A 
ATOM     89  C   UNL A   1      39.057  34.139  38.098  1.00  0.00     0.135 A 
ATOM     90  F   UNL A   1      41.424  35.825  35.907  1.00  0.00    -0.206 F 
ATOM     91  C   UNL A   1      40.408  36.565  37.890  1.00  0.00     0.059 A 
ATOM     92  C   UNL A   1      38.849  35.120  39.062  1.00  0.00     0.059 A 
ATOM     93  F   UNL A   1      38.391  32.980  38.222  1.00  0.00    -0.206 F 
ATOM     94  C   UNL A   1      39.535  36.329  38.953  1.00  0.00     0.060 A 
BRANCH  94  95
ATOM     95  S   UNL A   1      39.278  37.637  40.172  1.00  0.00     0.124 S 
ATOM     96  O   UNL A   1      38.930  36.868  41.361  1.00  0.00    -0.237 OA
ATOM     97  O   UNL A   1      40.579  38.298  40.202  1.00  0.00    -0.237 OA
ATOM     98  O   UNL A   1      38.193  38.428  39.596  1.00  0.00    -0.744 OA
ENDBRANCH  94  95
ENDBRANCH  62  87
ENDBRANCH  36  37
ENDBRANCH  28  31
ENDBRANCH  26  27
ENDBRANCH  25  26
ENDBRANCH   1  25
TORSDOF 18
ENDMDL
MODEL 2
REMARK VINA RESULT:     -11.7      1.713      3.397
REMARK SMILES C[C@H](C(=O)NCCCNC(=O)c1ccc(-c2c3nc(c(-c4c(F)cc(S(=O)(=O)[O-])cc4F)c4ccc([nH]4)c(-c4c(F)cc(S(=O)(=O)[O-])cc4F)c4nc(c(-c5c(F)cc(S(=O)(=O)[O-])cc5F)c5ccc2[nH]5)C=C4)C=C3)cc1)[C@@H](C)Nc1ccccc1Oc1ccccc1
REMARK SMILES IDX 6 1 5 2 3 3 4 4 2 6 1 7 78 8 79 9 80 10 81 12 82 13 86 14
REMARK SMILES IDX 83 15 85 16 84 17 87 18 88 19 89 20 93 21 90 22 92 23 91 24
REMARK SMILES IDX 7 25 8 26 9 27 10 28 11 30 12 31 13 32 77 33 14 34 76 35
REMARK SMILES IDX 15 36 16 37 17 38 70 39 18 40 75 41 69 42 71 43 19 44 74 45
REMARK SMILES IDX 68 46 67 47 20 49 54 50 33 51 53 52 34 53 37 54 52 55 72 56
REMARK SMILES IDX 35 57 36 58 51 60 73 61 38 62 21 63 22 64 31 65 23 66 24 67
REMARK SMILES IDX 30 68 32 69 25 70 26 71 27 72 28 73 29 74 55 75 56 76 65 77
REMARK SMILES IDX 57 78 58 79 64 80 66 81 59 82 60 83 61 84 62 85 63 86 39 87
REMARK SMILES IDX 40 88 49 89 41 90 42 91 48 92 50 93 43 94 44 95 45 96 46 97
REMARK SMILES IDX 47 98
REMARK H PARENT 5 5 80 11 9 29 71 48 37 59
REMARK Flexibility Score: inf
ROOT
ATOM      1  C   UNL A   1      39.300  22.749  26.469  1.00  0.00     0.117 C 
ENDROOT
BRANCH   1   2
ATOM      2  N   UNL A   1      38.260  21.827  26.044  1.00  0.00    -0.356 N 
ATOM      3  C   UNL A   1      37.235  21.930  25.156  1.00  0.00     0.224 C 
ATOM      4  O   UNL A   1      36.606  20.891  24.934  1.00  0.00    -0.275 OA
ATOM      5  H   UNL A   1      38.308  20.949  26.488  1.00  0.00     0.163 HD
BRANCH   3   6
ATOM      6  C   UNL A   1      36.856  23.253  24.480  1.00  0.00     0.097 C 
ATOM      7  C   UNL A   1      36.517  22.951  23.010  1.00  0.00     0.020 C 
BRANCH   6   8
ATOM      8  C   UNL A   1      35.648  23.870  25.232  1.00  0.00     0.088 C 
ATOM      9  C   UNL A   1      34.687  24.528  24.244  1.00  0.00     0.031 C 
BRANCH   8  10
ATOM     10  N   UNL A   1      34.884  22.876  25.980  1.00  0.00    -0.379 N 
ATOM     11  H   UNL A   1      35.400  22.231  26.515  1.00  0.00     0.160 HD
BRANCH  10  12
ATOM     12  C   UNL A   1      33.496  22.749  26.013  1.00  0.00     0.078 A 
ATOM     13  C   UNL A   1      32.833  23.709  26.812  1.00  0.00     0.029 A 
ATOM     14  C   UNL A   1      32.667  21.862  25.284  1.00  0.00     0.150 A 
ATOM     15  C   UNL A   1      31.441  23.788  26.908  1.00  0.00     0.002 A 
ATOM     16  C   UNL A   1      31.264  21.930  25.400  1.00  0.00     0.049 A 
ATOM     17  C   UNL A   1      30.653  22.886  26.210  1.00  0.00     0.004 A 
BRANCH  14  18
ATOM     18  O   UNL A   1      33.091  21.109  24.210  1.00  0.00    -0.455 OA
BRANCH  18  19
ATOM     19  C   UNL A   1      32.975  19.737  24.193  1.00  0.00     0.127 A 
ATOM     20  C   UNL A   1      32.534  19.234  22.959  1.00  0.00     0.047 A 
ATOM     21  C   UNL A   1      33.322  18.852  25.210  1.00  0.00     0.047 A 
ATOM     22  C   UNL A   1      32.538  17.866  22.701  1.00  0.00     0.004 A 
ATOM     23  C   UNL A   1      33.320  17.472  24.951  1.00  0.00     0.004 A 
ATOM     24  C   UNL A   1      32.950  16.983  23.694  1.00  0.00     0.000 A 
ENDBRANCH  18  19
ENDBRANCH  14  18
ENDBRANCH  10  12
ENDBRANCH   8  10
ENDBRANCH   6   8
ENDBRANCH   3   6
ENDBRANCH   1   2
BRANCH   1  25
ATOM     25  C   UNL A   1      40.444  22.080  27.240  1.00  0.00     0.042 C 
BRANCH  25  26
ATOM     26  C   UNL A   1      41.680  22.943  27.488  1.00  0.00     0.118 C 
BRANCH  26  27
ATOM     27  N   UNL A   1      42.051  23.720  26.320  1.00  0.00    -0.352 N 
ATOM     28  C   UNL A   1      41.988  25.081  26.125  1.00  0.00     0.251 C 
ATOM     29  H   UNL A   1      42.395  23.200  25.559  1.00  0.00     0.163 HD
ATOM     30  O   UNL A   1      42.125  25.528  24.990  1.00  0.00    -0.269 OA
BRANCH  28  31
ATOM     31  C   UNL A   1      41.750  26.010  27.259  1.00  0.00     0.039 A 
ATOM     32  C   UNL A   1      42.680  27.027  27.500  1.00  0.00     0.014 A 
ATOM     33  C   UNL A   1      40.666  25.848  28.128  1.00  0.00     0.014 A 
ATOM     34  C   UNL A   1      42.507  27.899  28.582  1.00  0.00     0.010 A 
ATOM     35  C   UNL A   1      40.467  26.748  29.179  1.00  0.00     0.010 A 
ATOM     36  C   UNL A   1      41.390  27.779  29.425  1.00  0.00    -0.014 A 
BRANCH  36  37
ATOM     37  C   UNL A   1      41.184  28.712  30.567  1.00  0.00     0.031 A 
ATOM     38  C   UNL A   1      42.015  28.585  31.817  1.00  0.00     0.074 A 
ATOM     39  C   UNL A   1      40.214  29.647  30.506  1.00  0.00     0.049 A 
ATOM     40  N   UNL A   1      41.937  29.264  32.934  1.00  0.00    -0.248 NA
ATOM     41  C   UNL A   1      43.056  27.548  31.818  1.00  0.00     0.031 C 
ATOM     42  C   UNL A   1      39.316  29.857  29.370  1.00  0.00     0.029 A 
ATOM     43  N   UNL A   1      39.811  30.583  31.427  1.00  0.00    -0.354 N 
ATOM     44  C   UNL A   1      42.906  28.729  33.775  1.00  0.00     0.074 A 
ATOM     45  C   UNL A   1      43.532  27.641  33.051  1.00  0.00     0.031 C 
ATOM     46  C   UNL A   1      38.468  30.857  29.661  1.00  0.00     0.029 A 
ATOM     47  C   UNL A   1      38.739  31.338  31.014  1.00  0.00     0.049 A 
ATOM     48  H   UNL A   1      40.250  30.704  32.300  1.00  0.00     0.167 HD
ATOM     49  C   UNL A   1      43.256  29.115  35.027  1.00  0.00     0.037 A 
ATOM     50  C   UNL A   1      38.039  32.298  31.652  1.00  0.00     0.037 A 
ATOM     51  C   UNL A   1      42.647  30.208  35.740  1.00  0.00     0.049 A 
ATOM     52  C   UNL A   1      38.440  32.710  33.042  1.00  0.00     0.074 A 
ATOM     53  C   UNL A   1      42.976  30.711  36.988  1.00  0.00     0.029 A 
ATOM     54  N   UNL A   1      41.580  30.963  35.277  1.00  0.00    -0.354 N 
ATOM     55  N   UNL A   1      39.404  32.236  33.795  1.00  0.00    -0.248 NA
ATOM     56  C   UNL A   1      37.665  33.791  33.668  1.00  0.00     0.031 C 
ATOM     57  C   UNL A   1      42.081  31.742  37.297  1.00  0.00     0.029 A 
ATOM     58  C   UNL A   1      41.223  31.911  36.223  1.00  0.00     0.049 A 
ATOM     59  H   UNL A   1      41.139  30.843  34.404  1.00  0.00     0.167 HD
ATOM     60  C   UNL A   1      39.365  32.975  34.974  1.00  0.00     0.074 A 
ATOM     61  C   UNL A   1      38.289  33.934  34.831  1.00  0.00     0.031 C 
ATOM     62  C   UNL A   1      40.152  32.867  36.072  1.00  0.00     0.037 A 
BRANCH  49  63
ATOM     63  C   UNL A   1      44.350  28.341  35.711  1.00  0.00     0.058 A 
ATOM     64  C   UNL A   1      45.706  28.663  35.530  1.00  0.00     0.135 A 
ATOM     65  C   UNL A   1      44.041  27.278  36.576  1.00  0.00     0.135 A 
ATOM     66  F   UNL A   1      46.059  29.663  34.708  1.00  0.00    -0.206 F 
ATOM     67  C   UNL A   1      46.716  27.932  36.148  1.00  0.00     0.059 A 
ATOM     68  C   UNL A   1      45.034  26.552  37.226  1.00  0.00     0.059 A 
ATOM     69  F   UNL A   1      42.762  26.933  36.791  1.00  0.00    -0.206 F 
ATOM     70  C   UNL A   1      46.370  26.874  36.990  1.00  0.00     0.060 A 
BRANCH  70  71
ATOM     71  S   UNL A   1      47.692  25.919  37.764  1.00  0.00     0.124 S 
ATOM     72  O   UNL A   1      47.743  26.520  39.092  1.00  0.00    -0.237 OA
ATOM     73  O   UNL A   1      47.173  24.558  37.705  1.00  0.00    -0.237 OA
ATOM     74  O   UNL A   1      48.846  26.184  36.910  1.00  0.00    -0.744 OA
ENDBRANCH  70  71
ENDBRANCH  49  63
BRANCH  50  75
ATOM     75  C   UNL A   1      36.884  32.939  30.969  1.00  0.00     0.058 A 
ATOM     76  C   UNL A   1      35.569  32.533  31.235  1.00  0.00     0.135 A 
ATOM     77  C   UNL A   1      37.074  33.996  30.066  1.00  0.00     0.135 A 
ATOM     78  F   UNL A   1      35.339  31.520  32.084  1.00  0.00    -0.206 F 
ATOM     79  C   UNL A   1      34.480  33.148  30.625  1.00  0.00     0.059 A 
ATOM     80  C   UNL A   1      36.002  34.643  29.461  1.00  0.00     0.059 A 
ATOM     81  F   UNL A   1      38.314  34.431  29.791  1.00  0.00    -0.206 F 
ATOM     82  C   UNL A   1      34.707  34.208  29.744  1.00  0.00     0.060 A 
BRANCH  82  83
ATOM     83  S   UNL A   1      33.285  35.052  29.018  1.00  0.00     0.124 S 
ATOM     84  O   UNL A   1      33.916  36.215  28.405  1.00  0.00    -0.237 OA
ATOM     85  O   UNL A   1      32.768  34.046  28.096  1.00  0.00    -0.237 OA
ATOM     86  O   UNL A   1      32.435  35.328  30.173  1.00  0.00    -0.744 OA
ENDBRANCH  82  83
ENDBRANCH  50  75
BRANCH  62  87
ATOM     87  C   UNL A   1      39.905  33.823  37.206  1.00  0.00     0.058 A 
ATOM     88  C   UNL A   1      40.512  35.086  37.251  1.00  0.00     0.135 A 
ATOM     89  C   UNL A   1      38.996  33.497  38.227  1.00  0.00     0.135 A 
ATOM     90  F   UNL A   1      41.395  35.446  36.305  1.00  0.00    -0.206 F 
ATOM     91  C   UNL A   1      40.236  35.990  38.273  1.00  0.00     0.059 A 
ATOM     92  C   UNL A   1      38.687  34.394  39.246  1.00  0.00     0.059 A 
ATOM     93  F   UNL A   1      38.382  32.303  38.228  1.00  0.00    -0.206 F 
ATOM     94  C   UNL A   1      39.319  35.637  39.264  1.00  0.00     0.060 A 
BRANCH  94  95
ATOM     95  S   UNL A   1      38.931  36.838  40.556  1.00  0.00     0.124 S 
ATOM     96  O   UNL A   1      40.261  37.196  41.034  1.00  0.00    -0.237 OA
ATOM     97  O   UNL A   1      38.221  37.876  39.815  1.00  0.00    -0.237 OA
ATOM     98  O   UNL A   1      38.111  36.074  41.493  1.00  0.00    -0.744 OA
ENDBRANCH  94  95
ENDBRANCH  62  87
ENDBRANCH  36  37
ENDBRANCH  28  31
ENDBRANCH  26  27
ENDBRANCH  25  26
ENDBRANCH   1  25
TORSDOF 18
ENDMDL
MODEL 3
REMARK VINA RESULT:     -11.6      4.901      6.080
REMARK SMILES C[C@H](C(=O)NCCCNC(=O)c1ccc(-c2c3nc(c(-c4c(F)cc(S(=O)(=O)[O-])cc4F)c4ccc([nH]4)c(-c4c(F)cc(S(=O)(=O)[O-])cc4F)c4nc(c(-c5c(F)cc(S(=O)(=O)[O-])cc5F)c5ccc2[nH]5)C=C4)C=C3)cc1)[C@@H](C)Nc1ccccc1Oc1ccccc1
REMARK SMILES IDX 6 1 5 2 3 3 4 4 2 6 1 7 78 8 79 9 80 10 81 12 82 13 86 14
REMARK SMILES IDX 83 15 85 16 84 17 87 18 88 19 89 20 93 21 90 22 92 23 91 24
REMARK SMILES IDX 7 25 8 26 9 27 10 28 11 30 12 31 13 32 77 33 14 34 76 35
REMARK SMILES IDX 15 36 16 37 17 38 70 39 18 40 75 41 69 42 71 43 19 44 74 45
REMARK SMILES IDX 68 46 67 47 20 49 54 50 33 51 53 52 34 53 37 54 52 55 72 56
REMARK SMILES IDX 35 57 36 58 51 60 73 61 38 62 21 63 22 64 31 65 23 66 24 67
REMARK SMILES IDX 30 68 32 69 25 70 26 71 27 72 28 73 29 74 55 75 56 76 65 77
REMARK SMILES IDX 57 78 58 79 64 80 66 81 59 82 60 83 61 84 62 85 63 86 39 87
REMARK SMILES IDX 40 88 49 89 41 90 42 91 48 92 50 93 43 94 44 95 45 96 46 97
REMARK SMILES IDX 47 98
REMARK H PARENT 5 5 80 11 9 29 71 48 37 59
REMARK Flexibility Score: inf
ROOT
ATOM      1  C   UNL A   1      34.613  22.144  25.154  1.00  0.00     0.117 C 
ENDROOT
BRANCH   1   2
ATOM      2  N   UNL A   1      34.080  22.232  26.504  1.00  0.00    -0.356 N 
ATOM      3  C   UNL A   1      32.968  22.816  27.025  1.00  0.00     0.224 C 
ATOM      4  O   UNL A   1      32.744  22.583  28.217  1.00  0.00    -0.275 OA
ATOM      5  H   UNL A   1      34.636  21.776  27.177  1.00  0.00     0.163 HD
BRANCH   3   6
ATOM      6  C   UNL A   1      32.050  23.728  26.204  1.00  0.00     0.097 C 
ATOM      7  C   UNL A   1      30.595  23.361  26.541  1.00  0.00     0.020 C 
BRANCH   6   8
ATOM      8  C   UNL A   1      32.366  25.204  26.558  1.00  0.00     0.088 C 
ATOM      9  C   UNL A   1      33.437  25.758  25.621  1.00  0.00     0.031 C 
BRANCH   8  10
ATOM     10  N   UNL A   1      31.199  26.073  26.441  1.00  0.00    -0.379 N 
ATOM     11  H   UNL A   1      30.452  25.898  27.057  1.00  0.00     0.160 HD
BRANCH  10  12
ATOM     12  C   UNL A   1      31.035  27.127  25.542  1.00  0.00     0.078 A 
ATOM     13  C   UNL A   1      30.308  26.801  24.375  1.00  0.00     0.029 A 
ATOM     14  C   UNL A   1      31.409  28.485  25.688  1.00  0.00     0.150 A 
ATOM     15  C   UNL A   1      29.979  27.743  23.396  1.00  0.00     0.002 A 
ATOM     16  C   UNL A   1      31.094  29.428  24.688  1.00  0.00     0.049 A 
ATOM     17  C   UNL A   1      30.386  29.059  23.546  1.00  0.00     0.004 A 
BRANCH  14  18
ATOM     18  O   UNL A   1      31.799  29.059  26.879  1.00  0.00    -0.455 OA
BRANCH  18  19
ATOM     19  C   UNL A   1      33.064  29.573  27.057  1.00  0.00     0.127 A 
ATOM     20  C   UNL A   1      33.066  30.940  27.377  1.00  0.00     0.047 A 
ATOM     21  C   UNL A   1      34.267  28.873  27.035  1.00  0.00     0.047 A 
ATOM     22  C   UNL A   1      34.237  31.581  27.774  1.00  0.00     0.004 A 
ATOM     23  C   UNL A   1      35.448  29.521  27.430  1.00  0.00     0.004 A 
ATOM     24  C   UNL A   1      35.429  30.864  27.818  1.00  0.00     0.000 A 
ENDBRANCH  18  19
ENDBRANCH  14  18
ENDBRANCH  10  12
ENDBRANCH   8  10
ENDBRANCH   6   8
ENDBRANCH   3   6
ENDBRANCH   1   2
BRANCH   1  25
ATOM     25  C   UNL A   1      35.524  23.317  24.771  1.00  0.00     0.042 C 
BRANCH  25  26
ATOM     26  C   UNL A   1      36.592  23.699  25.795  1.00  0.00     0.118 C 
BRANCH  26  27
ATOM     27  N   UNL A   1      37.523  22.615  26.048  1.00  0.00    -0.352 N 
ATOM     28  C   UNL A   1      38.857  22.674  26.382  1.00  0.00     0.251 C 
ATOM     29  H   UNL A   1      37.148  21.709  25.968  1.00  0.00     0.163 HD
ATOM     30  O   UNL A   1      39.533  21.650  26.325  1.00  0.00    -0.269 OA
BRANCH  28  31
ATOM     31  C   UNL A   1      39.489  23.952  26.799  1.00  0.00     0.039 A 
ATOM     32  C   UNL A   1      39.457  24.307  28.152  1.00  0.00     0.014 A 
ATOM     33  C   UNL A   1      40.047  24.835  25.868  1.00  0.00     0.014 A 
ATOM     34  C   UNL A   1      40.011  25.521  28.576  1.00  0.00     0.010 A 
ATOM     35  C   UNL A   1      40.643  26.025  26.298  1.00  0.00     0.010 A 
ATOM     36  C   UNL A   1      40.624  26.387  27.655  1.00  0.00    -0.014 A 
BRANCH  36  37
ATOM     37  C   UNL A   1      41.234  27.672  28.096  1.00  0.00     0.031 A 
ATOM     38  C   UNL A   1      42.727  27.864  28.052  1.00  0.00     0.074 A 
ATOM     39  C   UNL A   1      40.451  28.655  28.585  1.00  0.00     0.049 A 
ATOM     40  N   UNL A   1      43.441  28.887  28.451  1.00  0.00    -0.248 NA
ATOM     41  C   UNL A   1      43.522  26.756  27.504  1.00  0.00     0.031 C 
ATOM     42  C   UNL A   1      38.995  28.587  28.716  1.00  0.00     0.029 A 
ATOM     43  N   UNL A   1      40.773  29.895  29.082  1.00  0.00    -0.354 N 
ATOM     44  C   UNL A   1      44.767  28.541  28.217  1.00  0.00     0.074 A 
ATOM     45  C   UNL A   1      44.760  27.197  27.678  1.00  0.00     0.031 C 
ATOM     46  C   UNL A   1      38.550  29.734  29.256  1.00  0.00     0.029 A 
ATOM     47  C   UNL A   1      39.689  30.605  29.540  1.00  0.00     0.049 A 
ATOM     48  H   UNL A   1      41.693  30.243  29.105  1.00  0.00     0.167 HD
ATOM     49  C   UNL A   1      45.888  29.279  28.416  1.00  0.00     0.037 A 
ATOM     50  C   UNL A   1      39.614  31.811  30.137  1.00  0.00     0.037 A 
ATOM     51  C   UNL A   1      45.895  30.622  28.935  1.00  0.00     0.049 A 
ATOM     52  C   UNL A   1      40.869  32.612  30.353  1.00  0.00     0.074 A 
ATOM     53  C   UNL A   1      46.976  31.469  29.115  1.00  0.00     0.029 A 
ATOM     54  N   UNL A   1      44.773  31.314  29.366  1.00  0.00    -0.354 N 
ATOM     55  N   UNL A   1      42.108  32.295  30.063  1.00  0.00    -0.248 NA
ATOM     56  C   UNL A   1      40.717  33.938  30.970  1.00  0.00     0.031 C 
ATOM     57  C   UNL A   1      46.513  32.657  29.693  1.00  0.00     0.029 A 
ATOM     58  C   UNL A   1      45.138  32.567  29.831  1.00  0.00     0.049 A 
ATOM     59  H   UNL A   1      43.852  30.966  29.344  1.00  0.00     0.167 HD
ATOM     60  C   UNL A   1      42.881  33.389  30.442  1.00  0.00     0.074 A 
ATOM     61  C   UNL A   1      41.968  34.380  30.973  1.00  0.00     0.031 C 
ATOM     62  C   UNL A   1      44.223  33.553  30.356  1.00  0.00     0.037 A 
BRANCH  49  63
ATOM     63  C   UNL A   1      47.207  28.640  28.076  1.00  0.00     0.058 A 
ATOM     64  C   UNL A   1      47.969  27.962  29.042  1.00  0.00     0.135 A 
ATOM     65  C   UNL A   1      47.706  28.686  26.764  1.00  0.00     0.135 A 
ATOM     66  F   UNL A   1      47.544  27.894  30.313  1.00  0.00    -0.206 F 
ATOM     67  C   UNL A   1      49.198  27.390  28.729  1.00  0.00     0.059 A 
ATOM     68  C   UNL A   1      48.920  28.097  26.422  1.00  0.00     0.059 A 
ATOM     69  F   UNL A   1      47.016  29.315  25.800  1.00  0.00    -0.206 F 
ATOM     70  C   UNL A   1      49.669  27.468  27.416  1.00  0.00     0.060 A 
BRANCH  70  71
ATOM     71  S   UNL A   1      51.276  26.744  27.031  1.00  0.00     0.124 S 
ATOM     72  O   UNL A   1      52.086  27.226  28.144  1.00  0.00    -0.237 OA
ATOM     73  O   UNL A   1      50.986  25.314  27.033  1.00  0.00    -0.237 OA
ATOM     74  O   UNL A   1      51.601  27.312  25.726  1.00  0.00    -0.744 OA
ENDBRANCH  70  71
ENDBRANCH  49  63
BRANCH  50  75
ATOM     75  C   UNL A   1      38.291  32.335  30.568  1.00  0.00     0.058 A 
ATOM     76  C   UNL A   1      37.788  32.068  31.849  1.00  0.00     0.135 A 
ATOM     77  C   UNL A   1      37.521  33.143  29.717  1.00  0.00     0.135 A 
ATOM     78  F   UNL A   1      38.484  31.293  32.694  1.00  0.00    -0.206 F 
ATOM     79  C   UNL A   1      36.566  32.581  32.272  1.00  0.00     0.059 A 
ATOM     80  C   UNL A   1      36.308  33.687  30.125  1.00  0.00     0.059 A 
ATOM     81  F   UNL A   1      37.967  33.440  28.486  1.00  0.00    -0.206 F 
ATOM     82  C   UNL A   1      35.835  33.395  31.404  1.00  0.00     0.060 A 
BRANCH  82  83
ATOM     83  S   UNL A   1      34.288  34.120  31.990  1.00  0.00     0.124 S 
ATOM     84  O   UNL A   1      34.769  35.287  32.720  1.00  0.00    -0.237 OA
ATOM     85  O   UNL A   1      33.585  34.393  30.741  1.00  0.00    -0.237 OA
ATOM     86  O   UNL A   1      33.709  33.057  32.806  1.00  0.00    -0.744 OA
ENDBRANCH  82  83
ENDBRANCH  50  75
BRANCH  62  87
ATOM     87  C   UNL A   1      44.799  34.863  30.820  1.00  0.00     0.058 A 
ATOM     88  C   UNL A   1      44.898  35.969  29.963  1.00  0.00     0.135 A 
ATOM     89  C   UNL A   1      45.194  35.032  32.158  1.00  0.00     0.135 A 
ATOM     90  F   UNL A   1      44.542  35.860  28.673  1.00  0.00    -0.206 F 
ATOM     91  C   UNL A   1      45.378  37.196  30.413  1.00  0.00     0.059 A 
ATOM     92  C   UNL A   1      45.655  36.256  32.634  1.00  0.00     0.059 A 
ATOM     93  F   UNL A   1      45.113  34.007  33.021  1.00  0.00    -0.206 F 
ATOM     94  C   UNL A   1      45.750  37.331  31.751  1.00  0.00     0.060 A 
BRANCH  94  95
ATOM     95  S   UNL A   1      46.324  38.942  32.335  1.00  0.00     0.124 S 
ATOM     96  O   UNL A   1      47.372  38.559  33.274  1.00  0.00    -0.237 OA
ATOM     97  O   UNL A   1      46.778  39.577  31.102  1.00  0.00    -0.237 OA
ATOM     98  O   UNL A   1      45.128  39.530  32.933  1.00  0.00    -0.744 OA
ENDBRANCH  94  95
ENDBRANCH  62  87
ENDBRANCH  36  37
ENDBRANCH  28  31
ENDBRANCH  26  27
ENDBRANCH  25  26
ENDBRANCH   1  25
TORSDOF 18
ENDMDL
