MODEL 1
REMARK VINA RESULT:     -11.8      0.000      0.000
REMARK SMILES C[N@@H+]1CC2(CCN(C(=O)c3cc(-c4ccncc4)n[nH]3)CC2)C[C@H]1C(=O)NCCCNC(=O)c1ccc(-c2c3nc(c(-c4c(F)cc(S(=O)(=O)[O-])cc4F)c4ccc([nH]4)c(-c4c(F)cc(S(=O)(=O)[O-])cc4F)c4nc(c(-c5c(F)cc(S(=O)(=O)[O-])cc5F)c5ccc2[nH]5)C=C4)C=C3)cc1
REMARK SMILES IDX 29 1 28 2 27 3 25 4 26 5 24 7 1 8 2 9 3 10 4 12 23 13 5 14
REMARK SMILES IDX 22 15 6 16 21 17 7 18 8 19 9 20 10 21 11 22 20 23 12 24
REMARK SMILES IDX 19 25 13 27 14 28 18 29 15 30 17 31 16 32 30 33 31 34 32 35
REMARK SMILES IDX 33 37 34 38 35 39 99 40 36 41 98 42 37 43 38 44 39 45 92 46
REMARK SMILES IDX 40 47 97 48 91 49 93 50 41 51 96 52 90 53 89 54 42 56 76 57
REMARK SMILES IDX 55 58 75 59 56 60 59 61 74 62 94 63 57 64 58 65 73 67 95 68
REMARK SMILES IDX 60 69 43 70 44 71 53 72 45 73 46 74 52 75 54 76 47 77 48 78
REMARK SMILES IDX 49 79 50 80 51 81 77 82 78 83 87 84 79 85 80 86 86 87 88 88
REMARK SMILES IDX 81 89 82 90 83 91 84 92 85 93 61 94 62 95 71 96 63 97 64 98
REMARK SMILES IDX 70 99 72 100 65 101 66 102 67 103 68 104 69 105
REMARK H PARENT 27 6 2 11 20 26 31 36 93 55 59 66
REMARK Flexibility Score: inf
ROOT
ATOM      1  C   UNL A   1      33.173  33.789  27.951  1.00  0.00     0.042 C 
ENDROOT
BRANCH   1   2
ATOM      2  C   UNL A   1      33.712  35.093  28.522  1.00  0.00     0.118 C 
BRANCH   2   3
ATOM      3  N   UNL A   1      33.398  35.348  29.903  1.00  0.00    -0.351 N 
ATOM      4  C   UNL A   1      34.024  34.903  31.033  1.00  0.00     0.278 C 
ATOM      5  O   UNL A   1      33.698  35.465  32.088  1.00  0.00    -0.268 OA
ATOM      6  H   UNL A   1      32.618  35.928  30.057  1.00  0.00     0.163 HD
BRANCH   4   7
ATOM      7  C   UNL A   1      35.090  33.761  31.070  1.00  0.00     0.274 C 
ATOM      8  C   UNL A   1      37.133  33.800  29.782  1.00  0.00     0.333 C 
ATOM      9  N   UNL A   1      36.455  34.311  30.972  1.00  0.00    -0.327 N 
ATOM     10  C   UNL A   1      37.178  33.991  32.206  1.00  0.00     0.269 C 
ATOM     11  H   UNL A   1      36.420  35.326  30.871  1.00  0.00     0.348 HD
ATOM     12  C   UNL A   1      36.434  32.863  32.954  1.00  0.00     0.029 C 
ATOM     13  C   UNL A   1      35.073  32.765  32.230  1.00  0.00     0.088 C 
ATOM     14  C   UNL A   1      36.193  33.123  34.464  1.00  0.00     0.034 C 
ATOM     15  C   UNL A   1      37.283  31.557  32.899  1.00  0.00     0.034 C 
ATOM     16  C   UNL A   1      37.500  33.354  35.185  1.00  0.00     0.120 C 
ATOM     17  C   UNL A   1      38.557  31.623  33.785  1.00  0.00     0.120 C 
ATOM     18  N   UNL A   1      38.273  32.125  35.132  1.00  0.00    -0.337 N 
ATOM     19  C   UNL A   1      38.905  31.588  36.251  1.00  0.00     0.271 C 
ATOM     20  O   UNL A   1      39.872  30.830  36.157  1.00  0.00    -0.267 OA
BRANCH  19  21
ATOM     21  C   UNL A   1      38.366  31.955  37.537  1.00  0.00     0.123 A 
ATOM     22  C   UNL A   1      38.587  33.066  38.331  1.00  0.00     0.064 A 
ATOM     23  N   UNL A   1      37.465  31.202  38.234  1.00  0.00    -0.272 N 
ATOM     24  C   UNL A   1      37.878  32.830  39.535  1.00  0.00     0.093 A 
ATOM     25  N   UNL A   1      37.204  31.673  39.469  1.00  0.00    -0.175 NA
ATOM     26  H   UNL A   1      37.044  30.392  37.867  1.00  0.00     0.190 HD
BRANCH  24  27
ATOM     27  C   UNL A   1      37.867  33.674  40.721  1.00  0.00     0.005 A 
ATOM     28  C   UNL A   1      37.059  33.343  41.810  1.00  0.00     0.030 A 
ATOM     29  C   UNL A   1      38.633  34.838  40.771  1.00  0.00     0.030 A 
ATOM     30  C   UNL A   1      37.054  34.192  42.903  1.00  0.00     0.111 A 
ATOM     31  C   UNL A   1      38.548  35.628  41.905  1.00  0.00     0.111 A 
ATOM     32  N   UNL A   1      37.775  35.331  42.973  1.00  0.00    -0.265 NA
ENDBRANCH  24  27
ENDBRANCH  19  21
ENDBRANCH   4   7
ENDBRANCH   2   3
ENDBRANCH   1   2
BRANCH   1  33
ATOM     33  C   UNL A   1      34.205  32.671  27.904  1.00  0.00     0.118 C 
BRANCH  33  34
ATOM     34  N   UNL A   1      33.598  31.342  27.820  1.00  0.00    -0.352 N 
ATOM     35  C   UNL A   1      34.156  30.086  27.879  1.00  0.00     0.251 C 
ATOM     36  H   UNL A   1      32.622  31.348  27.697  1.00  0.00     0.163 HD
ATOM     37  O   UNL A   1      33.445  29.114  27.630  1.00  0.00    -0.269 OA
BRANCH  35  38
ATOM     38  C   UNL A   1      35.588  29.889  28.207  1.00  0.00     0.039 A 
ATOM     39  C   UNL A   1      35.944  29.574  29.525  1.00  0.00     0.014 A 
ATOM     40  C   UNL A   1      36.585  30.033  27.243  1.00  0.00     0.014 A 
ATOM     41  C   UNL A   1      37.283  29.329  29.850  1.00  0.00     0.010 A 
ATOM     42  C   UNL A   1      37.900  29.697  27.543  1.00  0.00     0.010 A 
ATOM     43  C   UNL A   1      38.267  29.347  28.851  1.00  0.00    -0.014 A 
BRANCH  43  44
ATOM     44  C   UNL A   1      39.688  29.017  29.137  1.00  0.00     0.031 A 
ATOM     45  C   UNL A   1      40.610  30.074  29.683  1.00  0.00     0.074 A 
ATOM     46  C   UNL A   1      40.176  27.809  28.796  1.00  0.00     0.049 A 
ATOM     47  N   UNL A   1      41.906  30.036  29.850  1.00  0.00    -0.248 NA
ATOM     48  C   UNL A   1      39.995  31.362  30.044  1.00  0.00     0.031 C 
ATOM     49  C   UNL A   1      39.405  26.723  28.185  1.00  0.00     0.029 A 
ATOM     50  N   UNL A   1      41.448  27.301  28.886  1.00  0.00    -0.354 N 
ATOM     51  C   UNL A   1      42.269  31.306  30.288  1.00  0.00     0.074 A 
ATOM     52  C   UNL A   1      41.059  32.099  30.323  1.00  0.00     0.031 C 
ATOM     53  C   UNL A   1      40.216  25.677  27.963  1.00  0.00     0.029 A 
ATOM     54  C   UNL A   1      41.570  26.027  28.385  1.00  0.00     0.049 A 
ATOM     55  H   UNL A   1      42.202  27.802  29.273  1.00  0.00     0.167 HD
ATOM     56  C   UNL A   1      43.492  31.764  30.644  1.00  0.00     0.037 A 
ATOM     57  C   UNL A   1      42.650  25.232  28.267  1.00  0.00     0.037 A 
ATOM     58  C   UNL A   1      44.680  30.952  30.666  1.00  0.00     0.049 A 
ATOM     59  C   UNL A   1      43.981  25.724  28.756  1.00  0.00     0.074 A 
ATOM     60  C   UNL A   1      45.949  31.290  31.102  1.00  0.00     0.029 A 
ATOM     61  N   UNL A   1      44.742  29.634  30.238  1.00  0.00    -0.354 N 
ATOM     62  N   UNL A   1      44.295  26.905  29.235  1.00  0.00    -0.248 NA
ATOM     63  C   UNL A   1      45.103  24.777  28.702  1.00  0.00     0.031 C 
ATOM     64  C   UNL A   1      46.784  30.181  30.921  1.00  0.00     0.029 A 
ATOM     65  C   UNL A   1      46.027  29.144  30.396  1.00  0.00     0.049 A 
ATOM     66  H   UNL A   1      43.983  29.121  29.877  1.00  0.00     0.167 HD
ATOM     67  C   UNL A   1      45.646  26.841  29.549  1.00  0.00     0.074 A 
ATOM     68  C   UNL A   1      46.087  25.499  29.220  1.00  0.00     0.031 C 
ATOM     69  C   UNL A   1      46.448  27.806  30.063  1.00  0.00     0.037 A 
BRANCH  56  70
ATOM     70  C   UNL A   1      43.594  33.210  31.039  1.00  0.00     0.058 A 
ATOM     71  C   UNL A   1      43.896  34.212  30.102  1.00  0.00     0.135 A 
ATOM     72  C   UNL A   1      43.414  33.599  32.376  1.00  0.00     0.135 A 
ATOM     73  F   UNL A   1      44.093  33.893  28.813  1.00  0.00    -0.206 F 
ATOM     74  C   UNL A   1      44.072  35.537  30.484  1.00  0.00     0.059 A 
ATOM     75  C   UNL A   1      43.559  34.924  32.777  1.00  0.00     0.059 A 
ATOM     76  F   UNL A   1      43.119  32.684  33.313  1.00  0.00    -0.206 F 
ATOM     77  C   UNL A   1      43.915  35.882  31.828  1.00  0.00     0.060 A 
BRANCH  77  78
ATOM     78  S   UNL A   1      44.194  37.595  32.325  1.00  0.00     0.124 S 
ATOM     79  O   UNL A   1      43.905  38.305  31.083  1.00  0.00    -0.237 OA
ATOM     80  O   UNL A   1      43.222  37.776  33.398  1.00  0.00    -0.237 OA
ATOM     81  O   UNL A   1      45.592  37.600  32.744  1.00  0.00    -0.744 OA
ENDBRANCH  77  78
ENDBRANCH  56  70
BRANCH  57  82
ATOM     82  C   UNL A   1      42.493  23.873  27.688  1.00  0.00     0.058 A 
ATOM     83  C   UNL A   1      42.572  23.671  26.303  1.00  0.00     0.135 A 
ATOM     84  C   UNL A   1      42.338  22.746  28.509  1.00  0.00     0.135 A 
ATOM     85  F   UNL A   1      42.717  24.720  25.481  1.00  0.00    -0.206 F 
ATOM     86  C   UNL A   1      42.510  22.397  25.750  1.00  0.00     0.059 A 
ATOM     87  C   UNL A   1      42.290  21.460  27.981  1.00  0.00     0.059 A 
ATOM     88  F   UNL A   1      42.277  22.890  29.842  1.00  0.00    -0.206 F 
ATOM     89  C   UNL A   1      42.378  21.296  26.598  1.00  0.00     0.060 A 
BRANCH  89  90
ATOM     90  S   UNL A   1      42.403  19.638  25.881  1.00  0.00     0.124 S 
ATOM     91  O   UNL A   1      41.039  19.512  25.383  1.00  0.00    -0.237 OA
ATOM     92  O   UNL A   1      43.446  19.756  24.865  1.00  0.00    -0.237 OA
ATOM     93  O   UNL A   1      42.744  18.788  27.018  1.00  0.00    -0.744 OA
ENDBRANCH  89  90
ENDBRANCH  57  82
BRANCH  69  94
ATOM     94  C   UNL A   1      47.883  27.444  30.315  1.00  0.00     0.058 A 
ATOM     95  C   UNL A   1      48.274  26.785  31.490  1.00  0.00     0.135 A 
ATOM     96  C   UNL A   1      48.864  27.711  29.349  1.00  0.00     0.135 A 
ATOM     97  F   UNL A   1      47.372  26.515  32.447  1.00  0.00    -0.206 F 
ATOM     98  C   UNL A   1      49.597  26.414  31.706  1.00  0.00     0.059 A 
ATOM     99  C   UNL A   1      50.190  27.333  29.535  1.00  0.00     0.059 A 
ATOM    100  F   UNL A   1      48.537  28.332  28.206  1.00  0.00    -0.206 F 
ATOM    101  C   UNL A   1      50.548  26.692  30.722  1.00  0.00     0.060 A 
BRANCH 101 102
ATOM    102  S   UNL A   1      52.257  26.172  30.992  1.00  0.00     0.124 S 
ATOM    103  O   UNL A   1      52.730  25.999  29.622  1.00  0.00    -0.237 OA
ATOM    104  O   UNL A   1      52.820  27.305  31.719  1.00  0.00    -0.237 OA
ATOM    105  O   UNL A   1      52.116  24.944  31.769  1.00  0.00    -0.744 OA
ENDBRANCH 101 102
ENDBRANCH  69  94
ENDBRANCH  43  44
ENDBRANCH  35  38
ENDBRANCH  33  34
ENDBRANCH   1  33
TORSDOF 15
ENDMDL
MODEL 2
REMARK VINA RESULT:     -11.7      5.246     13.079
REMARK SMILES C[N@@H+]1CC2(CCN(C(=O)c3cc(-c4ccncc4)n[nH]3)CC2)C[C@H]1C(=O)NCCCNC(=O)c1ccc(-c2c3nc(c(-c4c(F)cc(S(=O)(=O)[O-])cc4F)c4ccc([nH]4)c(-c4c(F)cc(S(=O)(=O)[O-])cc4F)c4nc(c(-c5c(F)cc(S(=O)(=O)[O-])cc5F)c5ccc2[nH]5)C=C4)C=C3)cc1
REMARK SMILES IDX 29 1 28 2 27 3 25 4 26 5 24 7 1 8 2 9 3 10 4 12 23 13 5 14
REMARK SMILES IDX 22 15 6 16 21 17 7 18 8 19 9 20 10 21 11 22 20 23 12 24
REMARK SMILES IDX 19 25 13 27 14 28 18 29 15 30 17 31 16 32 30 33 31 34 32 35
REMARK SMILES IDX 33 37 34 38 35 39 99 40 36 41 98 42 37 43 38 44 39 45 92 46
REMARK SMILES IDX 40 47 97 48 91 49 93 50 41 51 96 52 90 53 89 54 42 56 76 57
REMARK SMILES IDX 55 58 75 59 56 60 59 61 74 62 94 63 57 64 58 65 73 67 95 68
REMARK SMILES IDX 60 69 43 70 44 71 53 72 45 73 46 74 52 75 54 76 47 77 48 78
REMARK SMILES IDX 49 79 50 80 51 81 77 82 78 83 87 84 79 85 80 86 86 87 88 88
REMARK SMILES IDX 81 89 82 90 83 91 84 92 85 93 61 94 62 95 71 96 63 97 64 98
REMARK SMILES IDX 70 99 72 100 65 101 66 102 67 103 68 104 69 105
REMARK H PARENT 27 6 2 11 20 26 31 36 93 55 59 66
REMARK Flexibility Score: inf
ROOT
ATOM      1  C   UNL A   1      40.726  21.483  26.629  1.00  0.00     0.042 C 
ENDROOT
BRANCH   1   2
ATOM      2  C   UNL A   1      39.322  21.776  26.123  1.00  0.00     0.118 C 
BRANCH   2   3
ATOM      3  N   UNL A   1      38.890  23.145  26.231  1.00  0.00    -0.351 N 
ATOM      4  C   UNL A   1      37.647  23.681  26.051  1.00  0.00     0.278 C 
ATOM      5  O   UNL A   1      37.501  24.849  26.441  1.00  0.00    -0.268 OA
ATOM      6  H   UNL A   1      39.595  23.790  26.469  1.00  0.00     0.163 HD
BRANCH   4   7
ATOM      7  C   UNL A   1      36.440  22.933  25.402  1.00  0.00     0.274 C 
ATOM      8  C   UNL A   1      35.170  21.215  26.530  1.00  0.00     0.333 C 
ATOM      9  N   UNL A   1      35.392  22.655  26.402  1.00  0.00    -0.327 N 
ATOM     10  C   UNL A   1      34.175  23.374  26.017  1.00  0.00     0.269 C 
ATOM     11  H   UNL A   1      35.686  22.984  27.321  1.00  0.00     0.348 HD
ATOM     12  C   UNL A   1      34.279  23.795  24.535  1.00  0.00     0.029 C 
ATOM     13  C   UNL A   1      35.759  23.542  24.175  1.00  0.00     0.088 C 
ATOM     14  C   UNL A   1      33.927  25.277  24.246  1.00  0.00     0.034 C 
ATOM     15  C   UNL A   1      33.265  22.966  23.688  1.00  0.00     0.034 C 
ATOM     16  C   UNL A   1      32.524  25.597  24.707  1.00  0.00     0.120 C 
ATOM     17  C   UNL A   1      31.787  23.372  23.943  1.00  0.00     0.120 C 
ATOM     18  N   UNL A   1      31.593  24.824  23.901  1.00  0.00    -0.337 N 
ATOM     19  C   UNL A   1      30.457  25.385  23.324  1.00  0.00     0.271 C 
ATOM     20  O   UNL A   1      29.474  24.707  23.019  1.00  0.00    -0.267 OA
BRANCH  19  21
ATOM     21  C   UNL A   1      30.484  26.807  23.090  1.00  0.00     0.123 A 
ATOM     22  C   UNL A   1      29.493  27.766  23.201  1.00  0.00     0.064 A 
ATOM     23  N   UNL A   1      31.594  27.498  22.696  1.00  0.00    -0.272 N 
ATOM     24  C   UNL A   1      30.066  28.973  22.730  1.00  0.00     0.093 A 
ATOM     25  N   UNL A   1      31.355  28.792  22.407  1.00  0.00    -0.175 NA
ATOM     26  H   UNL A   1      32.487  27.088  22.629  1.00  0.00     0.190 HD
BRANCH  24  27
ATOM     27  C   UNL A   1      29.394  30.255  22.571  1.00  0.00     0.005 A 
ATOM     28  C   UNL A   1      29.159  31.067  23.681  1.00  0.00     0.030 A 
ATOM     29  C   UNL A   1      28.948  30.671  21.317  1.00  0.00     0.030 A 
ATOM     30  C   UNL A   1      28.486  32.261  23.488  1.00  0.00     0.111 A 
ATOM     31  C   UNL A   1      28.273  31.877  21.230  1.00  0.00     0.111 A 
ATOM     32  N   UNL A   1      28.032  32.682  22.289  1.00  0.00    -0.265 NA
ENDBRANCH  24  27
ENDBRANCH  19  21
ENDBRANCH   4   7
ENDBRANCH   2   3
ENDBRANCH   1   2
BRANCH   1  33
ATOM     33  C   UNL A   1      41.476  22.721  27.101  1.00  0.00     0.118 C 
BRANCH  33  34
ATOM     34  N   UNL A   1      41.938  23.560  25.995  1.00  0.00    -0.352 N 
ATOM     35  C   UNL A   1      42.112  24.921  25.901  1.00  0.00     0.251 C 
ATOM     36  H   UNL A   1      42.162  23.064  25.175  1.00  0.00     0.163 HD
ATOM     37  O   UNL A   1      42.372  25.408  24.803  1.00  0.00    -0.269 OA
BRANCH  35  38
ATOM     38  C   UNL A   1      41.965  25.804  27.083  1.00  0.00     0.039 A 
ATOM     39  C   UNL A   1      42.912  26.813  27.297  1.00  0.00     0.014 A 
ATOM     40  C   UNL A   1      40.923  25.636  27.996  1.00  0.00     0.014 A 
ATOM     41  C   UNL A   1      42.766  27.695  28.374  1.00  0.00     0.010 A 
ATOM     42  C   UNL A   1      40.725  26.569  29.008  1.00  0.00     0.010 A 
ATOM     43  C   UNL A   1      41.647  27.605  29.214  1.00  0.00    -0.014 A 
BRANCH  43  44
ATOM     44  C   UNL A   1      41.412  28.568  30.322  1.00  0.00     0.031 A 
ATOM     45  C   UNL A   1      42.219  28.467  31.589  1.00  0.00     0.074 A 
ATOM     46  C   UNL A   1      40.400  29.453  30.237  1.00  0.00     0.049 A 
ATOM     47  N   UNL A   1      42.063  29.101  32.722  1.00  0.00    -0.248 NA
ATOM     48  C   UNL A   1      43.315  27.485  31.596  1.00  0.00     0.031 C 
ATOM     49  C   UNL A   1      39.494  29.599  29.095  1.00  0.00     0.029 A 
ATOM     50  N   UNL A   1      39.943  30.377  31.142  1.00  0.00    -0.354 N 
ATOM     51  C   UNL A   1      43.008  28.562  33.590  1.00  0.00     0.074 A 
ATOM     52  C   UNL A   1      43.704  27.524  32.861  1.00  0.00     0.031 C 
ATOM     53  C   UNL A   1      38.596  30.559  29.365  1.00  0.00     0.029 A 
ATOM     54  C   UNL A   1      38.841  31.075  30.709  1.00  0.00     0.049 A 
ATOM     55  H   UNL A   1      40.364  30.526  32.019  1.00  0.00     0.167 HD
ATOM     56  C   UNL A   1      43.282  28.912  34.869  1.00  0.00     0.037 A 
ATOM     57  C   UNL A   1      38.102  32.017  31.325  1.00  0.00     0.037 A 
ATOM     58  C   UNL A   1      42.628  29.986  35.567  1.00  0.00     0.049 A 
ATOM     59  C   UNL A   1      38.481  32.457  32.710  1.00  0.00     0.074 A 
ATOM     60  C   UNL A   1      42.897  30.486  36.830  1.00  0.00     0.029 A 
ATOM     61  N   UNL A   1      41.577  30.734  35.057  1.00  0.00    -0.354 N 
ATOM     62  N   UNL A   1      39.425  31.987  33.492  1.00  0.00    -0.248 NA
ATOM     63  C   UNL A   1      37.709  33.563  33.293  1.00  0.00     0.031 C 
ATOM     64  C   UNL A   1      41.995  31.524  37.090  1.00  0.00     0.029 A 
ATOM     65  C   UNL A   1      41.182  31.688  35.979  1.00  0.00     0.049 A 
ATOM     66  H   UNL A   1      41.172  30.606  34.169  1.00  0.00     0.167 HD
ATOM     67  C   UNL A   1      39.366  32.745  34.654  1.00  0.00     0.074 A 
ATOM     68  C   UNL A   1      38.305  33.715  34.468  1.00  0.00     0.031 C 
ATOM     69  C   UNL A   1      40.124  32.645  35.776  1.00  0.00     0.037 A 
BRANCH  56  70
ATOM     70  C   UNL A   1      44.339  28.117  35.584  1.00  0.00     0.058 A 
ATOM     71  C   UNL A   1      44.017  26.985  36.351  1.00  0.00     0.135 A 
ATOM     72  C   UNL A   1      45.686  28.507  35.526  1.00  0.00     0.135 A 
ATOM     73  F   UNL A   1      42.742  26.577  36.452  1.00  0.00    -0.206 F 
ATOM     74  C   UNL A   1      44.985  26.301  37.079  1.00  0.00     0.059 A 
ATOM     75  C   UNL A   1      46.675  27.822  36.226  1.00  0.00     0.059 A 
ATOM     76  F   UNL A   1      46.050  29.579  34.805  1.00  0.00    -0.206 F 
ATOM     77  C   UNL A   1      46.310  26.736  37.022  1.00  0.00     0.060 A 
BRANCH  77  78
ATOM     78  S   UNL A   1      47.552  25.874  38.009  1.00  0.00     0.124 S 
ATOM     79  O   UNL A   1      47.925  26.910  38.968  1.00  0.00    -0.237 OA
ATOM     80  O   UNL A   1      46.800  24.750  38.555  1.00  0.00    -0.237 OA
ATOM     81  O   UNL A   1      48.576  25.523  37.030  1.00  0.00    -0.744 OA
ENDBRANCH  77  78
ENDBRANCH  56  70
BRANCH  57  82
ATOM     82  C   UNL A   1      36.951  32.623  30.609  1.00  0.00     0.058 A 
ATOM     83  C   UNL A   1      35.637  32.236  30.908  1.00  0.00     0.135 A 
ATOM     84  C   UNL A   1      37.137  33.650  29.671  1.00  0.00     0.135 A 
ATOM     85  F   UNL A   1      35.413  31.256  31.796  1.00  0.00    -0.206 F 
ATOM     86  C   UNL A   1      34.544  32.850  30.307  1.00  0.00     0.059 A 
ATOM     87  C   UNL A   1      36.059  34.291  29.070  1.00  0.00     0.059 A 
ATOM     88  F   UNL A   1      38.376  34.067  29.369  1.00  0.00    -0.206 F 
ATOM     89  C   UNL A   1      34.765  33.884  29.395  1.00  0.00     0.060 A 
BRANCH  89  90
ATOM     90  S   UNL A   1      33.340  34.747  28.698  1.00  0.00     0.124 S 
ATOM     91  O   UNL A   1      33.974  35.886  28.047  1.00  0.00    -0.237 OA
ATOM     92  O   UNL A   1      32.771  33.737  27.808  1.00  0.00    -0.237 OA
ATOM     93  O   UNL A   1      32.531  35.058  29.873  1.00  0.00    -0.744 OA
ENDBRANCH  89  90
ENDBRANCH  57  82
BRANCH  69  94
ATOM     94  C   UNL A   1      39.841  33.618  36.883  1.00  0.00     0.058 A 
ATOM     95  C   UNL A   1      38.980  33.290  37.941  1.00  0.00     0.135 A 
ATOM     96  C   UNL A   1      40.480  34.866  36.914  1.00  0.00     0.135 A 
ATOM     97  F   UNL A   1      38.341  32.110  37.952  1.00  0.00    -0.206 F 
ATOM     98  C   UNL A   1      38.750  34.176  38.988  1.00  0.00     0.059 A 
ATOM     99  C   UNL A   1      40.278  35.762  37.960  1.00  0.00     0.059 A 
ATOM    100  F   UNL A   1      41.318  35.222  35.928  1.00  0.00    -0.206 F 
ATOM    101  C   UNL A   1      39.404  35.410  38.989  1.00  0.00     0.060 A 
BRANCH 101 102
ATOM    102  S   UNL A   1      39.130  36.539  40.371  1.00  0.00     0.124 S 
ATOM    103  O   UNL A   1      40.470  36.633  40.942  1.00  0.00    -0.237 OA
ATOM    104  O   UNL A   1      38.639  37.741  39.705  1.00  0.00    -0.237 OA
ATOM    105  O   UNL A   1      38.145  35.838  41.189  1.00  0.00    -0.744 OA
ENDBRANCH 101 102
ENDBRANCH  69  94
ENDBRANCH  43  44
ENDBRANCH  35  38
ENDBRANCH  33  34
ENDBRANCH   1  33
TORSDOF 15
ENDMDL
MODEL 3
REMARK VINA RESULT:     -11.7      4.872     10.154
REMARK SMILES C[N@@H+]1CC2(CCN(C(=O)c3cc(-c4ccncc4)n[nH]3)CC2)C[C@H]1C(=O)NCCCNC(=O)c1ccc(-c2c3nc(c(-c4c(F)cc(S(=O)(=O)[O-])cc4F)c4ccc([nH]4)c(-c4c(F)cc(S(=O)(=O)[O-])cc4F)c4nc(c(-c5c(F)cc(S(=O)(=O)[O-])cc5F)c5ccc2[nH]5)C=C4)C=C3)cc1
REMARK SMILES IDX 29 1 28 2 27 3 25 4 26 5 24 7 1 8 2 9 3 10 4 12 23 13 5 14
REMARK SMILES IDX 22 15 6 16 21 17 7 18 8 19 9 20 10 21 11 22 20 23 12 24
REMARK SMILES IDX 19 25 13 27 14 28 18 29 15 30 17 31 16 32 30 33 31 34 32 35
REMARK SMILES IDX 33 37 34 38 35 39 99 40 36 41 98 42 37 43 38 44 39 45 92 46
REMARK SMILES IDX 40 47 97 48 91 49 93 50 41 51 96 52 90 53 89 54 42 56 76 57
REMARK SMILES IDX 55 58 75 59 56 60 59 61 74 62 94 63 57 64 58 65 73 67 95 68
REMARK SMILES IDX 60 69 43 70 44 71 53 72 45 73 46 74 52 75 54 76 47 77 48 78
REMARK SMILES IDX 49 79 50 80 51 81 77 82 78 83 87 84 79 85 80 86 86 87 88 88
REMARK SMILES IDX 81 89 82 90 83 91 84 92 85 93 61 94 62 95 71 96 63 97 64 98
REMARK SMILES IDX 70 99 72 100 65 101 66 102 67 103 68 104 69 105
REMARK H PARENT 27 6 2 11 20 26 31 36 93 55 59 66
REMARK Flexibility Score: inf
ROOT
ATOM      1  C   UNL A   1      33.535  34.089  29.159  1.00  0.00     0.042 C 
ENDROOT
BRANCH   1   2
ATOM      2  C   UNL A   1      34.166  33.589  27.867  1.00  0.00     0.118 C 
BRANCH   2   3
ATOM      3  N   UNL A   1      35.054  32.464  27.999  1.00  0.00    -0.351 N 
ATOM      4  C   UNL A   1      34.815  31.138  27.778  1.00  0.00     0.278 C 
ATOM      5  O   UNL A   1      35.817  30.409  27.732  1.00  0.00    -0.268 OA
ATOM      6  H   UNL A   1      35.968  32.683  28.292  1.00  0.00     0.163 HD
BRANCH   4   7
ATOM      7  C   UNL A   1      33.399  30.507  27.587  1.00  0.00     0.274 C 
ATOM      8  C   UNL A   1      31.566  31.644  26.499  1.00  0.00     0.333 C 
ATOM      9  N   UNL A   1      32.813  30.908  26.294  1.00  0.00    -0.327 N 
ATOM     10  C   UNL A   1      32.623  29.708  25.474  1.00  0.00     0.269 C 
ATOM     11  H   UNL A   1      33.443  31.540  25.802  1.00  0.00     0.348 HD
ATOM     12  C   UNL A   1      32.690  28.458  26.378  1.00  0.00     0.029 C 
ATOM     13  C   UNL A   1      33.234  28.992  27.721  1.00  0.00     0.088 C 
ATOM     14  C   UNL A   1      33.615  27.324  25.865  1.00  0.00     0.034 C 
ATOM     15  C   UNL A   1      31.274  27.812  26.476  1.00  0.00     0.034 C 
ATOM     16  C   UNL A   1      33.189  26.863  24.491  1.00  0.00     0.120 C 
ATOM     17  C   UNL A   1      30.829  27.122  25.156  1.00  0.00     0.120 C 
ATOM     18  N   UNL A   1      31.873  26.255  24.602  1.00  0.00    -0.337 N 
ATOM     19  C   UNL A   1      31.559  25.034  24.012  1.00  0.00     0.271 C 
ATOM     20  O   UNL A   1      30.401  24.719  23.733  1.00  0.00    -0.267 OA
BRANCH  19  21
ATOM     21  C   UNL A   1      32.659  24.142  23.745  1.00  0.00     0.123 A 
ATOM     22  C   UNL A   1      33.362  23.291  24.580  1.00  0.00     0.064 A 
ATOM     23  N   UNL A   1      33.229  23.972  22.516  1.00  0.00    -0.272 N 
ATOM     24  C   UNL A   1      34.411  22.754  23.793  1.00  0.00     0.093 A 
ATOM     25  N   UNL A   1      34.328  23.193  22.529  1.00  0.00    -0.175 NA
ATOM     26  H   UNL A   1      32.870  24.381  21.696  1.00  0.00     0.190 HD
BRANCH  24  27
ATOM     27  C   UNL A   1      35.474  21.868  24.244  1.00  0.00     0.005 A 
ATOM     28  C   UNL A   1      36.797  22.313  24.266  1.00  0.00     0.030 A 
ATOM     29  C   UNL A   1      35.191  20.557  24.626  1.00  0.00     0.030 A 
ATOM     30  C   UNL A   1      37.779  21.425  24.669  1.00  0.00     0.111 A 
ATOM     31  C   UNL A   1      36.247  19.742  25.001  1.00  0.00     0.111 A 
ATOM     32  N   UNL A   1      37.536  20.148  25.031  1.00  0.00    -0.265 NA
ENDBRANCH  24  27
ENDBRANCH  19  21
ENDBRANCH   4   7
ENDBRANCH   2   3
ENDBRANCH   1   2
BRANCH   1  33
ATOM     33  C   UNL A   1      33.458  35.606  29.252  1.00  0.00     0.118 C 
BRANCH  33  34
ATOM     34  N   UNL A   1      32.631  36.065  30.369  1.00  0.00    -0.352 N 
ATOM     35  C   UNL A   1      32.715  35.820  31.719  1.00  0.00     0.251 C 
ATOM     36  H   UNL A   1      31.883  36.649  30.107  1.00  0.00     0.163 HD
ATOM     37  O   UNL A   1      31.801  36.204  32.447  1.00  0.00    -0.269 OA
BRANCH  35  38
ATOM     38  C   UNL A   1      33.862  35.085  32.304  1.00  0.00     0.039 A 
ATOM     39  C   UNL A   1      33.646  33.813  32.850  1.00  0.00     0.014 A 
ATOM     40  C   UNL A   1      35.142  35.639  32.344  1.00  0.00     0.014 A 
ATOM     41  C   UNL A   1      34.721  33.076  33.359  1.00  0.00     0.010 A 
ATOM     42  C   UNL A   1      36.223  34.870  32.761  1.00  0.00     0.010 A 
ATOM     43  C   UNL A   1      36.025  33.583  33.279  1.00  0.00    -0.014 A 
BRANCH  43  44
ATOM     44  C   UNL A   1      37.205  32.801  33.736  1.00  0.00     0.031 A 
ATOM     45  C   UNL A   1      37.892  33.163  35.025  1.00  0.00     0.074 A 
ATOM     46  C   UNL A   1      37.727  31.849  32.938  1.00  0.00     0.049 A 
ATOM     47  N   UNL A   1      39.017  32.715  35.518  1.00  0.00    -0.248 NA
ATOM     48  C   UNL A   1      37.250  34.203  35.845  1.00  0.00     0.031 C 
ATOM     49  C   UNL A   1      37.201  31.457  31.629  1.00  0.00     0.029 A 
ATOM     50  N   UNL A   1      38.836  31.058  33.100  1.00  0.00    -0.354 N 
ATOM     51  C   UNL A   1      39.244  33.450  36.676  1.00  0.00     0.074 A 
ATOM     52  C   UNL A   1      38.157  34.399  36.790  1.00  0.00     0.031 C 
ATOM     53  C   UNL A   1      37.982  30.497  31.110  1.00  0.00     0.029 A 
ATOM     54  C   UNL A   1      39.080  30.225  32.034  1.00  0.00     0.049 A 
ATOM     55  H   UNL A   1      39.403  31.083  33.904  1.00  0.00     0.167 HD
ATOM     56  C   UNL A   1      40.253  33.335  37.572  1.00  0.00     0.037 A 
ATOM     57  C   UNL A   1      40.080  29.350  31.816  1.00  0.00     0.037 A 
ATOM     58  C   UNL A   1      41.297  32.348  37.485  1.00  0.00     0.049 A 
ATOM     59  C   UNL A   1      41.138  29.170  32.865  1.00  0.00     0.074 A 
ATOM     60  C   UNL A   1      42.311  32.082  38.389  1.00  0.00     0.029 A 
ATOM     61  N   UNL A   1      41.455  31.458  36.433  1.00  0.00    -0.354 N 
ATOM     62  N   UNL A   1      41.299  29.824  33.992  1.00  0.00    -0.248 NA
ATOM     63  C   UNL A   1      42.144  28.126  32.625  1.00  0.00     0.031 C 
ATOM     64  C   UNL A   1      43.093  31.042  37.873  1.00  0.00     0.029 A 
ATOM     65  C   UNL A   1      42.551  30.644  36.661  1.00  0.00     0.049 A 
ATOM     66  H   UNL A   1      40.872  31.412  35.640  1.00  0.00     0.167 HD
ATOM     67  C   UNL A   1      42.416  29.265  34.599  1.00  0.00     0.074 A 
ATOM     68  C   UNL A   1      42.883  28.209  33.723  1.00  0.00     0.031 C 
ATOM     69  C   UNL A   1      43.001  29.598  35.777  1.00  0.00     0.037 A 
BRANCH  56  70
ATOM     70  C   UNL A   1      40.264  34.305  38.720  1.00  0.00     0.058 A 
ATOM     71  C   UNL A   1      39.630  34.013  39.938  1.00  0.00     0.135 A 
ATOM     72  C   UNL A   1      40.892  35.554  38.592  1.00  0.00     0.135 A 
ATOM     73  F   UNL A   1      39.001  32.839  40.108  1.00  0.00    -0.206 F 
ATOM     74  C   UNL A   1      39.569  34.945  40.969  1.00  0.00     0.059 A 
ATOM     75  C   UNL A   1      40.866  36.492  39.619  1.00  0.00     0.059 A 
ATOM     76  F   UNL A   1      41.516  35.884  37.451  1.00  0.00    -0.206 F 
ATOM     77  C   UNL A   1      40.179  36.188  40.795  1.00  0.00     0.060 A 
BRANCH  77  78
ATOM     78  S   UNL A   1      40.053  37.412  42.116  1.00  0.00     0.124 S 
ATOM     79  O   UNL A   1      41.460  37.637  42.433  1.00  0.00    -0.237 OA
ATOM     80  O   UNL A   1      39.368  38.520  41.460  1.00  0.00    -0.237 OA
ATOM     81  O   UNL A   1      39.279  36.721  43.142  1.00  0.00    -0.744 OA
ENDBRANCH  77  78
ENDBRANCH  56  70
BRANCH  57  82
ATOM     82  C   UNL A   1      40.094  28.560  30.559  1.00  0.00     0.058 A 
ATOM     83  C   UNL A   1      40.931  28.921  29.495  1.00  0.00     0.135 A 
ATOM     84  C   UNL A   1      39.330  27.390  30.428  1.00  0.00     0.135 A 
ATOM     85  F   UNL A   1      41.676  30.033  29.576  1.00  0.00    -0.206 F 
ATOM     86  C   UNL A   1      41.018  28.146  28.343  1.00  0.00     0.059 A 
ATOM     87  C   UNL A   1      39.413  26.589  29.293  1.00  0.00     0.059 A 
ATOM     88  F   UNL A   1      38.529  26.995  31.429  1.00  0.00    -0.206 F 
ATOM     89  C   UNL A   1      40.261  26.976  28.255  1.00  0.00     0.060 A 
BRANCH  89  90
ATOM     90  S   UNL A   1      40.458  25.921  26.802  1.00  0.00     0.124 S 
ATOM     91  O   UNL A   1      39.144  25.297  26.712  1.00  0.00    -0.237 OA
ATOM     92  O   UNL A   1      40.778  26.890  25.757  1.00  0.00    -0.237 OA
ATOM     93  O   UNL A   1      41.556  25.036  27.179  1.00  0.00    -0.744 OA
ENDBRANCH  89  90
ENDBRANCH  57  82
BRANCH  69  94
ATOM     94  C   UNL A   1      44.205  28.804  36.194  1.00  0.00     0.058 A 
ATOM     95  C   UNL A   1      45.506  29.277  35.968  1.00  0.00     0.135 A 
ATOM     96  C   UNL A   1      44.053  27.585  36.872  1.00  0.00     0.135 A 
ATOM     97  F   UNL A   1      45.702  30.435  35.317  1.00  0.00    -0.206 F 
ATOM     98  C   UNL A   1      46.620  28.560  36.390  1.00  0.00     0.059 A 
ATOM     99  C   UNL A   1      45.153  26.860  37.319  1.00  0.00     0.059 A 
ATOM    100  F   UNL A   1      42.828  27.096  37.117  1.00  0.00    -0.206 F 
ATOM    101  C   UNL A   1      46.434  27.352  37.065  1.00  0.00     0.060 A 
BRANCH 101 102
ATOM    102  S   UNL A   1      47.884  26.445  37.644  1.00  0.00     0.124 S 
ATOM    103  O   UNL A   1      47.893  26.783  39.063  1.00  0.00    -0.237 OA
ATOM    104  O   UNL A   1      47.542  25.063  37.324  1.00  0.00    -0.237 OA
ATOM    105  O   UNL A   1      48.973  27.013  36.854  1.00  0.00    -0.744 OA
ENDBRANCH 101 102
ENDBRANCH  69  94
ENDBRANCH  43  44
ENDBRANCH  35  38
ENDBRANCH  33  34
ENDBRANCH   1  33
TORSDOF 15
ENDMDL
