MODEL 1
REMARK VINA RESULT:     -11.3      0.000      0.000
REMARK SMILES CC(=O)N1CCC[C@H](C(=O)N(CC(=O)NCCCNC(=O)c2ccc(-c3c4nc(c(-c5c(F)cc(S(=O)(=O)[O-])cc5F)c5ccc([nH]5)c(-c5c(F)cc(S(=O)(=O)[O-])cc5F)c5nc(c(-c6c(F)cc(S(=O)(=O)[O-])cc6F)c6ccc3[nH]6)C=C5)C=C4)cc2)CC(F)(F)F)C1
REMARK SMILES IDX 16 1 15 2 13 3 14 4 12 6 11 7 9 8 10 9 8 10 4 11 5 12 93 13
REMARK SMILES IDX 6 14 7 15 2 16 1 17 3 18 88 19 89 20 90 21 91 22 92 23 17 24
REMARK SMILES IDX 18 25 19 26 20 27 21 29 22 30 23 31 87 32 24 33 86 34 25 35
REMARK SMILES IDX 26 36 27 37 80 38 28 39 85 40 79 41 81 42 29 43 84 44 78 45
REMARK SMILES IDX 77 46 30 48 64 49 43 50 63 51 44 52 47 53 62 54 82 55 45 56
REMARK SMILES IDX 46 57 61 59 83 60 48 61 31 62 32 63 41 64 33 65 34 66 40 67
REMARK SMILES IDX 42 68 35 69 36 70 37 71 38 72 39 73 65 74 66 75 75 76 67 77
REMARK SMILES IDX 68 78 74 79 76 80 69 81 70 82 71 83 72 84 73 85 49 86 50 87
REMARK SMILES IDX 59 88 51 89 52 90 58 91 60 92 53 93 54 94 55 95 56 96 57 97
REMARK H PARENT 15 5 19 28 81 47 47 58
REMARK Flexibility Score: inf
ROOT
ATOM      1  C   UNL A   1      36.505  22.420  25.490  1.00  0.00     0.117 C 
ENDROOT
BRANCH   1   2
ATOM      2  N   UNL A   1      35.355  22.331  24.620  1.00  0.00    -0.354 N 
ATOM      3  C   UNL A   1      34.191  23.043  24.648  1.00  0.00     0.239 C 
ATOM      4  O   UNL A   1      33.408  22.895  23.706  1.00  0.00    -0.273 OA
ATOM      5  H   UNL A   1      35.420  21.659  23.904  1.00  0.00     0.163 HD
BRANCH   3   6
ATOM      6  C   UNL A   1      33.924  24.116  25.722  1.00  0.00     0.219 C 
BRANCH   6   7
ATOM      7  N   UNL A   1      32.538  24.455  26.050  1.00  0.00    -0.324 N 
BRANCH   7   8
ATOM      8  C   UNL A   1      31.837  25.608  25.738  1.00  0.00     0.228 C 
ATOM      9  O   UNL A   1      30.943  25.970  26.518  1.00  0.00    -0.274 OA
BRANCH   8  10
ATOM     10  C   UNL A   1      31.986  26.447  24.439  1.00  0.00     0.098 C 
ATOM     11  N   UNL A   1      31.660  28.861  24.893  1.00  0.00    -0.342 N 
ATOM     12  C   UNL A   1      30.619  29.008  23.870  1.00  0.00     0.119 C 
ATOM     13  C   UNL A   1      32.640  27.805  24.665  1.00  0.00     0.132 C 
ATOM     14  C   UNL A   1      29.928  27.696  23.496  1.00  0.00     0.022 C 
ATOM     15  C   UNL A   1      30.890  26.518  23.371  1.00  0.00     0.017 C 
BRANCH  11  16
ATOM     16  C   UNL A   1      31.755  29.810  25.902  1.00  0.00     0.219 C 
ATOM     17  C   UNL A   1      32.320  29.366  27.231  1.00  0.00     0.114 C 
ATOM     18  O   UNL A   1      31.427  30.985  25.737  1.00  0.00    -0.275 OA
ENDBRANCH  11  16
ENDBRANCH   8  10
ENDBRANCH   7   8
BRANCH   7  19
ATOM     19  C   UNL A   1      31.782  23.384  26.762  1.00  0.00     0.235 C 
BRANCH  19  20
ATOM     20  C   UNL A   1      30.827  22.505  25.949  1.00  0.00     0.406 C 
ATOM     21  F   UNL A   1      29.683  22.219  26.598  1.00  0.00    -0.169 F 
ATOM     22  F   UNL A   1      30.500  23.125  24.791  1.00  0.00    -0.169 F 
ATOM     23  F   UNL A   1      31.414  21.334  25.611  1.00  0.00    -0.169 F 
ENDBRANCH  19  20
ENDBRANCH   7  19
ENDBRANCH   6   7
ENDBRANCH   3   6
ENDBRANCH   1   2
BRANCH   1  24
ATOM     24  C   UNL A   1      37.438  23.572  25.180  1.00  0.00     0.042 C 
BRANCH  24  25
ATOM     25  C   UNL A   1      38.180  24.098  26.392  1.00  0.00     0.118 C 
BRANCH  25  26
ATOM     26  N   UNL A   1      39.582  23.702  26.407  1.00  0.00    -0.352 N 
ATOM     27  C   UNL A   1      40.662  24.348  26.970  1.00  0.00     0.251 C 
ATOM     28  H   UNL A   1      39.787  22.854  25.951  1.00  0.00     0.163 HD
ATOM     29  O   UNL A   1      41.799  23.961  26.736  1.00  0.00    -0.269 OA
BRANCH  27  30
ATOM     30  C   UNL A   1      40.430  25.534  27.826  1.00  0.00     0.039 A 
ATOM     31  C   UNL A   1      39.375  25.522  28.740  1.00  0.00     0.014 A 
ATOM     32  C   UNL A   1      41.295  26.628  27.764  1.00  0.00     0.014 A 
ATOM     33  C   UNL A   1      39.253  26.564  29.663  1.00  0.00     0.010 A 
ATOM     34  C   UNL A   1      41.236  27.607  28.749  1.00  0.00     0.010 A 
ATOM     35  C   UNL A   1      40.216  27.585  29.711  1.00  0.00    -0.014 A 
BRANCH  35  36
ATOM     36  C   UNL A   1      40.191  28.638  30.760  1.00  0.00     0.031 A 
ATOM     37  C   UNL A   1      41.087  28.517  31.964  1.00  0.00     0.074 A 
ATOM     38  C   UNL A   1      39.298  29.645  30.680  1.00  0.00     0.049 A 
ATOM     39  N   UNL A   1      41.127  29.257  33.042  1.00  0.00    -0.248 NA
ATOM     40  C   UNL A   1      42.038  27.392  31.974  1.00  0.00     0.031 C 
ATOM     41  C   UNL A   1      38.330  29.836  29.597  1.00  0.00     0.029 A 
ATOM     42  N   UNL A   1      39.045  30.691  31.533  1.00  0.00    -0.354 N 
ATOM     43  C   UNL A   1      42.082  28.672  33.866  1.00  0.00     0.074 A 
ATOM     44  C   UNL A   1      42.560  27.487  33.188  1.00  0.00     0.031 C 
ATOM     45  C   UNL A   1      37.608  30.943  29.839  1.00  0.00     0.029 A 
ATOM     46  C   UNL A   1      38.030  31.517  31.113  1.00  0.00     0.049 A 
ATOM     47  H   UNL A   1      39.546  30.835  32.368  1.00  0.00     0.167 HD
ATOM     48  C   UNL A   1      42.540  29.098  35.066  1.00  0.00     0.037 A 
ATOM     49  C   UNL A   1      37.489  32.607  31.692  1.00  0.00     0.037 A 
ATOM     50  C   UNL A   1      42.095  30.303  35.714  1.00  0.00     0.049 A 
ATOM     51  C   UNL A   1      38.028  33.072  33.018  1.00  0.00     0.074 A 
ATOM     52  C   UNL A   1      42.558  30.870  36.889  1.00  0.00     0.029 A 
ATOM     53  N   UNL A   1      41.088  31.130  35.239  1.00  0.00    -0.354 N 
ATOM     54  N   UNL A   1      38.982  32.547  33.749  1.00  0.00    -0.248 NA
ATOM     55  C   UNL A   1      37.415  34.274  33.600  1.00  0.00     0.031 C 
ATOM     56  C   UNL A   1      41.804  32.020  37.144  1.00  0.00     0.029 A 
ATOM     57  C   UNL A   1      40.899  32.191  36.109  1.00  0.00     0.049 A 
ATOM     58  H   UNL A   1      40.581  30.984  34.407  1.00  0.00     0.167 HD
ATOM     59  C   UNL A   1      39.096  33.363  34.868  1.00  0.00     0.074 A 
ATOM     60  C   UNL A   1      38.125  34.426  34.710  1.00  0.00     0.031 C 
ATOM     61  C   UNL A   1      39.926  33.242  35.932  1.00  0.00     0.037 A 
BRANCH  48  62
ATOM     62  C   UNL A   1      43.588  28.264  35.748  1.00  0.00     0.058 A 
ATOM     63  C   UNL A   1      43.246  27.259  36.666  1.00  0.00     0.135 A 
ATOM     64  C   UNL A   1      44.950  28.450  35.459  1.00  0.00     0.135 A 
ATOM     65  F   UNL A   1      41.960  27.049  36.992  1.00  0.00    -0.206 F 
ATOM     66  C   UNL A   1      44.216  26.489  37.298  1.00  0.00     0.059 A 
ATOM     67  C   UNL A   1      45.936  27.673  36.059  1.00  0.00     0.059 A 
ATOM     68  F   UNL A   1      45.333  29.398  34.589  1.00  0.00    -0.206 F 
ATOM     69  C   UNL A   1      45.560  26.705  36.989  1.00  0.00     0.060 A 
BRANCH  69  70
ATOM     70  S   UNL A   1      46.807  25.693  37.814  1.00  0.00     0.124 S 
ATOM     71  O   UNL A   1      46.807  24.496  36.977  1.00  0.00    -0.237 OA
ATOM     72  O   UNL A   1      47.999  26.528  37.723  1.00  0.00    -0.237 OA
ATOM     73  O   UNL A   1      46.268  25.519  39.158  1.00  0.00    -0.744 OA
ENDBRANCH  69  70
ENDBRANCH  48  62
BRANCH  49  74
ATOM     74  C   UNL A   1      36.389  33.344  31.015  1.00  0.00     0.058 A 
ATOM     75  C   UNL A   1      35.073  33.272  31.496  1.00  0.00     0.135 A 
ATOM     76  C   UNL A   1      36.630  34.142  29.886  1.00  0.00     0.135 A 
ATOM     77  F   UNL A   1      34.793  32.516  32.569  1.00  0.00    -0.206 F 
ATOM     78  C   UNL A   1      34.032  33.955  30.876  1.00  0.00     0.059 A 
ATOM     79  C   UNL A   1      35.609  34.852  29.261  1.00  0.00     0.059 A 
ATOM     80  F   UNL A   1      37.874  34.255  29.394  1.00  0.00    -0.206 F 
ATOM     81  C   UNL A   1      34.310  34.744  29.759  1.00  0.00     0.060 A 
BRANCH  81  82
ATOM     82  S   UNL A   1      32.959  35.664  28.990  1.00  0.00     0.124 S 
ATOM     83  O   UNL A   1      32.141  36.006  30.148  1.00  0.00    -0.237 OA
ATOM     84  O   UNL A   1      33.663  36.774  28.356  1.00  0.00    -0.237 OA
ATOM     85  O   UNL A   1      32.375  34.694  28.068  1.00  0.00    -0.744 OA
ENDBRANCH  81  82
ENDBRANCH  49  74
BRANCH  61  86
ATOM     86  C   UNL A   1      39.835  34.290  37.003  1.00  0.00     0.058 A 
ATOM     87  C   UNL A   1      40.508  35.516  36.886  1.00  0.00     0.135 A 
ATOM     88  C   UNL A   1      39.015  34.094  38.126  1.00  0.00     0.135 A 
ATOM     89  F   UNL A   1      41.310  35.748  35.835  1.00  0.00    -0.206 F 
ATOM     90  C   UNL A   1      40.380  36.508  37.851  1.00  0.00     0.059 A 
ATOM     91  C   UNL A   1      38.855  35.082  39.092  1.00  0.00     0.059 A 
ATOM     92  F   UNL A   1      38.343  32.941  38.280  1.00  0.00    -0.206 F 
ATOM     93  C   UNL A   1      39.548  36.283  38.949  1.00  0.00     0.060 A 
BRANCH  93  94
ATOM     94  S   UNL A   1      39.352  37.598  40.172  1.00  0.00     0.124 S 
ATOM     95  O   UNL A   1      38.221  38.340  39.626  1.00  0.00    -0.237 OA
ATOM     96  O   UNL A   1      39.088  36.850  41.397  1.00  0.00    -0.237 OA
ATOM     97  O   UNL A   1      40.636  38.291  40.133  1.00  0.00    -0.744 OA
ENDBRANCH  93  94
ENDBRANCH  61  86
ENDBRANCH  35  36
ENDBRANCH  27  30
ENDBRANCH  25  26
ENDBRANCH  24  25
ENDBRANCH   1  24
TORSDOF 19
ENDMDL
MODEL 2
REMARK VINA RESULT:     -11.3      4.988     10.572
REMARK SMILES CC(=O)N1CCC[C@H](C(=O)N(CC(=O)NCCCNC(=O)c2ccc(-c3c4nc(c(-c5c(F)cc(S(=O)(=O)[O-])cc5F)c5ccc([nH]5)c(-c5c(F)cc(S(=O)(=O)[O-])cc5F)c5nc(c(-c6c(F)cc(S(=O)(=O)[O-])cc6F)c6ccc3[nH]6)C=C5)C=C4)cc2)CC(F)(F)F)C1
REMARK SMILES IDX 16 1 15 2 13 3 14 4 12 6 11 7 9 8 10 9 8 10 4 11 5 12 93 13
REMARK SMILES IDX 6 14 7 15 2 16 1 17 3 18 88 19 89 20 90 21 91 22 92 23 17 24
REMARK SMILES IDX 18 25 19 26 20 27 21 29 22 30 23 31 87 32 24 33 86 34 25 35
REMARK SMILES IDX 26 36 27 37 80 38 28 39 85 40 79 41 81 42 29 43 84 44 78 45
REMARK SMILES IDX 77 46 30 48 64 49 43 50 63 51 44 52 47 53 62 54 82 55 45 56
REMARK SMILES IDX 46 57 61 59 83 60 48 61 31 62 32 63 41 64 33 65 34 66 40 67
REMARK SMILES IDX 42 68 35 69 36 70 37 71 38 72 39 73 65 74 66 75 75 76 67 77
REMARK SMILES IDX 68 78 74 79 76 80 69 81 70 82 71 83 72 84 73 85 49 86 50 87
REMARK SMILES IDX 59 88 51 89 52 90 58 91 60 92 53 93 54 94 55 95 56 96 57 97
REMARK H PARENT 15 5 19 28 81 47 47 58
REMARK Flexibility Score: inf
ROOT
ATOM      1  C   UNL A   1      31.530  27.195  26.464  1.00  0.00     0.117 C 
ENDROOT
BRANCH   1   2
ATOM      2  N   UNL A   1      30.960  25.935  26.882  1.00  0.00    -0.354 N 
ATOM      3  C   UNL A   1      30.592  24.859  26.128  1.00  0.00     0.239 C 
ATOM      4  O   UNL A   1      30.263  23.830  26.724  1.00  0.00    -0.273 OA
ATOM      5  H   UNL A   1      30.815  25.839  27.851  1.00  0.00     0.163 HD
BRANCH   3   6
ATOM      6  C   UNL A   1      30.732  24.860  24.593  1.00  0.00     0.219 C 
BRANCH   6   7
ATOM      7  N   UNL A   1      31.870  24.165  23.989  1.00  0.00    -0.324 N 
BRANCH   7   8
ATOM      8  C   UNL A   1      32.069  22.802  23.845  1.00  0.00     0.228 C 
ATOM      9  O   UNL A   1      31.807  22.293  22.744  1.00  0.00    -0.274 OA
BRANCH   8  10
ATOM     10  C   UNL A   1      32.490  21.814  24.968  1.00  0.00     0.098 C 
ATOM     11  N   UNL A   1      34.937  21.427  24.943  1.00  0.00    -0.342 N 
ATOM     12  C   UNL A   1      34.799  19.968  24.867  1.00  0.00     0.119 C 
ATOM     13  C   UNL A   1      33.842  22.142  25.588  1.00  0.00     0.132 C 
ATOM     14  C   UNL A   1      33.448  19.501  24.324  1.00  0.00     0.022 C 
ATOM     15  C   UNL A   1      32.267  20.303  24.864  1.00  0.00     0.017 C 
BRANCH  11  16
ATOM     16  C   UNL A   1      36.137  22.013  24.562  1.00  0.00     0.219 C 
ATOM     17  C   UNL A   1      36.126  22.900  23.340  1.00  0.00     0.114 C 
ATOM     18  O   UNL A   1      37.180  21.857  25.198  1.00  0.00    -0.275 OA
ENDBRANCH  11  16
ENDBRANCH   8  10
ENDBRANCH   7   8
BRANCH   7  19
ATOM     19  C   UNL A   1      32.915  25.059  23.409  1.00  0.00     0.235 C 
BRANCH  19  20
ATOM     20  C   UNL A   1      32.533  25.947  22.220  1.00  0.00     0.406 C 
ATOM     21  F   UNL A   1      33.470  25.978  21.256  1.00  0.00    -0.169 F 
ATOM     22  F   UNL A   1      31.381  25.504  21.663  1.00  0.00    -0.169 F 
ATOM     23  F   UNL A   1      32.307  27.220  22.619  1.00  0.00    -0.169 F 
ENDBRANCH  19  20
ENDBRANCH   7  19
ENDBRANCH   6   7
ENDBRANCH   3   6
ENDBRANCH   1   2
BRANCH   1  24
ATOM     24  C   UNL A   1      32.100  28.030  27.593  1.00  0.00     0.042 C 
BRANCH  24  25
ATOM     25  C   UNL A   1      33.418  28.695  27.251  1.00  0.00     0.118 C 
BRANCH  25  26
ATOM     26  N   UNL A   1      33.450  30.103  27.626  1.00  0.00    -0.352 N 
ATOM     27  C   UNL A   1      34.467  30.823  28.215  1.00  0.00     0.251 C 
ATOM     28  H   UNL A   1      32.630  30.611  27.431  1.00  0.00     0.163 HD
ATOM     29  O   UNL A   1      34.260  31.959  28.621  1.00  0.00    -0.269 OA
BRANCH  27  30
ATOM     30  C   UNL A   1      35.797  30.194  28.382  1.00  0.00     0.039 A 
ATOM     31  C   UNL A   1      36.681  30.166  27.301  1.00  0.00     0.014 A 
ATOM     32  C   UNL A   1      36.188  29.690  29.624  1.00  0.00     0.014 A 
ATOM     33  C   UNL A   1      37.993  29.726  27.497  1.00  0.00     0.010 A 
ATOM     34  C   UNL A   1      37.518  29.354  29.841  1.00  0.00     0.010 A 
ATOM     35  C   UNL A   1      38.437  29.371  28.782  1.00  0.00    -0.014 A 
BRANCH  35  36
ATOM     36  C   UNL A   1      39.857  29.022  29.053  1.00  0.00     0.031 A 
ATOM     37  C   UNL A   1      40.793  30.066  29.601  1.00  0.00     0.074 A 
ATOM     38  C   UNL A   1      40.325  27.804  28.715  1.00  0.00     0.049 A 
ATOM     39  N   UNL A   1      42.086  30.001  29.787  1.00  0.00    -0.248 NA
ATOM     40  C   UNL A   1      40.203  31.370  29.950  1.00  0.00     0.031 C 
ATOM     41  C   UNL A   1      39.534  26.727  28.113  1.00  0.00     0.029 A 
ATOM     42  N   UNL A   1      41.586  27.268  28.811  1.00  0.00    -0.354 N 
ATOM     43  C   UNL A   1      42.465  31.257  30.246  1.00  0.00     0.074 A 
ATOM     44  C   UNL A   1      41.277  32.081  30.260  1.00  0.00     0.031 C 
ATOM     45  C   UNL A   1      40.320  25.655  27.919  1.00  0.00     0.029 A 
ATOM     46  C   UNL A   1      41.679  25.981  28.340  1.00  0.00     0.049 A 
ATOM     47  H   UNL A   1      42.352  27.762  29.185  1.00  0.00     0.167 HD
ATOM     48  C   UNL A   1      43.688  31.679  30.646  1.00  0.00     0.037 A 
ATOM     49  C   UNL A   1      42.742  25.156  28.245  1.00  0.00     0.037 A 
ATOM     50  C   UNL A   1      44.856  30.841  30.675  1.00  0.00     0.049 A 
ATOM     51  C   UNL A   1      44.086  25.641  28.713  1.00  0.00     0.074 A 
ATOM     52  C   UNL A   1      46.122  31.146  31.145  1.00  0.00     0.029 A 
ATOM     53  N   UNL A   1      44.902  29.531  30.220  1.00  0.00    -0.354 N 
ATOM     54  N   UNL A   1      44.412  26.809  29.212  1.00  0.00    -0.248 NA
ATOM     55  C   UNL A   1      45.209  24.699  28.603  1.00  0.00     0.031 C 
ATOM     56  C   UNL A   1      46.943  30.032  30.939  1.00  0.00     0.029 A 
ATOM     57  C   UNL A   1      46.180  29.021  30.377  1.00  0.00     0.049 A 
ATOM     58  H   UNL A   1      44.139  29.038  29.841  1.00  0.00     0.167 HD
ATOM     59  C   UNL A   1      45.772  26.738  29.491  1.00  0.00     0.074 A 
ATOM     60  C   UNL A   1      46.204  25.406  29.120  1.00  0.00     0.031 C 
ATOM     61  C   UNL A   1      46.590  27.690  30.003  1.00  0.00     0.037 A 
BRANCH  48  62
ATOM     62  C   UNL A   1      43.817  33.105  31.101  1.00  0.00     0.058 A 
ATOM     63  C   UNL A   1      43.556  33.481  32.429  1.00  0.00     0.135 A 
ATOM     64  C   UNL A   1      44.236  34.106  30.209  1.00  0.00     0.135 A 
ATOM     65  F   UNL A   1      43.136  32.567  33.320  1.00  0.00    -0.206 F 
ATOM     66  C   UNL A   1      43.673  34.800  32.849  1.00  0.00     0.059 A 
ATOM     67  C   UNL A   1      44.386  35.429  30.615  1.00  0.00     0.059 A 
ATOM     68  F   UNL A   1      44.499  33.803  28.929  1.00  0.00    -0.206 F 
ATOM     69  C   UNL A   1      44.087  35.769  31.933  1.00  0.00     0.060 A 
BRANCH  69  70
ATOM     70  S   UNL A   1      44.241  37.477  32.497  1.00  0.00     0.124 S 
ATOM     71  O   UNL A   1      43.331  37.488  33.639  1.00  0.00    -0.237 OA
ATOM     72  O   UNL A   1      45.660  37.575  32.818  1.00  0.00    -0.237 OA
ATOM     73  O   UNL A   1      43.807  38.256  31.342  1.00  0.00    -0.744 OA
ENDBRANCH  69  70
ENDBRANCH  48  62
BRANCH  49  74
ATOM     74  C   UNL A   1      42.573  23.783  27.701  1.00  0.00     0.058 A 
ATOM     75  C   UNL A   1      42.431  22.682  28.560  1.00  0.00     0.135 A 
ATOM     76  C   UNL A   1      42.536  23.541  26.319  1.00  0.00     0.135 A 
ATOM     77  F   UNL A   1      42.466  22.862  29.889  1.00  0.00    -0.206 F 
ATOM     78  C   UNL A   1      42.271  21.391  28.070  1.00  0.00     0.059 A 
ATOM     79  C   UNL A   1      42.355  22.261  25.804  1.00  0.00     0.059 A 
ATOM     80  F   UNL A   1      42.653  24.562  25.455  1.00  0.00    -0.206 F 
ATOM     81  C   UNL A   1      42.233  21.189  26.689  1.00  0.00     0.060 A 
BRANCH  81  82
ATOM     82  S   UNL A   1      41.977  19.514  26.064  1.00  0.00     0.124 S 
ATOM     83  O   UNL A   1      42.875  19.489  24.916  1.00  0.00    -0.237 OA
ATOM     84  O   UNL A   1      42.377  18.695  27.205  1.00  0.00    -0.237 OA
ATOM     85  O   UNL A   1      40.551  19.487  25.753  1.00  0.00    -0.744 OA
ENDBRANCH  81  82
ENDBRANCH  49  74
BRANCH  61  86
ATOM     86  C   UNL A   1      48.031  27.324  30.210  1.00  0.00     0.058 A 
ATOM     87  C   UNL A   1      49.001  27.590  29.230  1.00  0.00     0.135 A 
ATOM     88  C   UNL A   1      48.459  26.766  31.425  1.00  0.00     0.135 A 
ATOM     89  F   UNL A   1      48.640  28.117  28.049  1.00  0.00    -0.206 F 
ATOM     90  C   UNL A   1      50.344  27.302  29.443  1.00  0.00     0.059 A 
ATOM     91  C   UNL A   1      49.801  26.491  31.668  1.00  0.00     0.059 A 
ATOM     92  F   UNL A   1      47.572  26.501  32.397  1.00  0.00    -0.206 F 
ATOM     93  C   UNL A   1      50.735  26.756  30.667  1.00  0.00     0.060 A 
BRANCH  93  94
ATOM     94  S   UNL A   1      52.489  26.431  30.950  1.00  0.00     0.124 S 
ATOM     95  O   UNL A   1      52.890  27.619  31.696  1.00  0.00    -0.237 OA
ATOM     96  O   UNL A   1      52.459  25.185  31.711  1.00  0.00    -0.237 OA
ATOM     97  O   UNL A   1      53.035  26.321  29.601  1.00  0.00    -0.744 OA
ENDBRANCH  93  94
ENDBRANCH  61  86
ENDBRANCH  35  36
ENDBRANCH  27  30
ENDBRANCH  25  26
ENDBRANCH  24  25
ENDBRANCH   1  24
TORSDOF 19
ENDMDL
MODEL 3
REMARK VINA RESULT:     -11.1      2.209      4.096
REMARK SMILES CC(=O)N1CCC[C@H](C(=O)N(CC(=O)NCCCNC(=O)c2ccc(-c3c4nc(c(-c5c(F)cc(S(=O)(=O)[O-])cc5F)c5ccc([nH]5)c(-c5c(F)cc(S(=O)(=O)[O-])cc5F)c5nc(c(-c6c(F)cc(S(=O)(=O)[O-])cc6F)c6ccc3[nH]6)C=C5)C=C4)cc2)CC(F)(F)F)C1
REMARK SMILES IDX 16 1 15 2 13 3 14 4 12 6 11 7 9 8 10 9 8 10 4 11 5 12 93 13
REMARK SMILES IDX 6 14 7 15 2 16 1 17 3 18 88 19 89 20 90 21 91 22 92 23 17 24
REMARK SMILES IDX 18 25 19 26 20 27 21 29 22 30 23 31 87 32 24 33 86 34 25 35
REMARK SMILES IDX 26 36 27 37 80 38 28 39 85 40 79 41 81 42 29 43 84 44 78 45
REMARK SMILES IDX 77 46 30 48 64 49 43 50 63 51 44 52 47 53 62 54 82 55 45 56
REMARK SMILES IDX 46 57 61 59 83 60 48 61 31 62 32 63 41 64 33 65 34 66 40 67
REMARK SMILES IDX 42 68 35 69 36 70 37 71 38 72 39 73 65 74 66 75 75 76 67 77
REMARK SMILES IDX 68 78 74 79 76 80 69 81 70 82 71 83 72 84 73 85 49 86 50 87
REMARK SMILES IDX 59 88 51 89 52 90 58 91 60 92 53 93 54 94 55 95 56 96 57 97
REMARK H PARENT 15 5 19 28 81 47 47 58
REMARK Flexibility Score: inf
ROOT
ATOM      1  C   UNL A   1      37.729  22.367  25.721  1.00  0.00     0.117 C 
ENDROOT
BRANCH   1   2
ATOM      2  N   UNL A   1      37.513  22.439  24.294  1.00  0.00    -0.354 N 
ATOM      3  C   UNL A   1      36.374  22.739  23.605  1.00  0.00     0.239 C 
ATOM      4  O   UNL A   1      36.467  22.886  22.383  1.00  0.00    -0.273 OA
ATOM      5  H   UNL A   1      38.302  22.244  23.738  1.00  0.00     0.163 HD
BRANCH   3   6
ATOM      6  C   UNL A   1      35.047  23.045  24.328  1.00  0.00     0.219 C 
BRANCH   6   7
ATOM      7  N   UNL A   1      34.458  22.014  25.185  1.00  0.00    -0.324 N 
BRANCH   7   8
ATOM      8  C   UNL A   1      34.244  20.676  24.900  1.00  0.00     0.228 C 
ATOM      9  O   UNL A   1      35.239  19.954  24.733  1.00  0.00    -0.274 OA
BRANCH   8  10
ATOM     10  C   UNL A   1      32.866  20.000  24.660  1.00  0.00     0.098 C 
ATOM     11  N   UNL A   1      33.080  17.532  24.602  1.00  0.00    -0.342 N 
ATOM     12  C   UNL A   1      32.425  17.414  23.295  1.00  0.00     0.119 C 
ATOM     13  C   UNL A   1      32.696  18.684  25.410  1.00  0.00     0.132 C 
ATOM     14  C   UNL A   1      32.461  18.697  22.464  1.00  0.00     0.022 C 
ATOM     15  C   UNL A   1      32.196  19.957  23.284  1.00  0.00     0.017 C 
BRANCH  11  16
ATOM     16  C   UNL A   1      33.875  16.489  25.057  1.00  0.00     0.219 C 
ATOM     17  C   UNL A   1      33.201  15.171  25.355  1.00  0.00     0.114 C 
ATOM     18  O   UNL A   1      35.095  16.598  25.191  1.00  0.00    -0.275 OA
ENDBRANCH  11  16
ENDBRANCH   8  10
ENDBRANCH   7   8
BRANCH   7  19
ATOM     19  C   UNL A   1      34.101  22.471  26.560  1.00  0.00     0.235 C 
BRANCH  19  20
ATOM     20  C   UNL A   1      32.737  23.136  26.774  1.00  0.00     0.406 C 
ATOM     21  F   UNL A   1      31.843  22.836  25.814  1.00  0.00    -0.169 F 
ATOM     22  F   UNL A   1      32.214  22.748  27.961  1.00  0.00    -0.169 F 
ATOM     23  F   UNL A   1      32.856  24.482  26.823  1.00  0.00    -0.169 F 
ENDBRANCH  19  20
ENDBRANCH   7  19
ENDBRANCH   6   7
ENDBRANCH   3   6
ENDBRANCH   1   2
BRANCH   1  24
ATOM     24  C   UNL A   1      37.898  23.712  26.398  1.00  0.00     0.042 C 
BRANCH  24  25
ATOM     25  C   UNL A   1      39.263  23.909  27.025  1.00  0.00     0.118 C 
BRANCH  25  26
ATOM     26  N   UNL A   1      40.263  24.356  26.064  1.00  0.00    -0.352 N 
ATOM     27  C   UNL A   1      41.095  25.454  26.121  1.00  0.00     0.251 C 
ATOM     28  H   UNL A   1      40.357  23.796  25.259  1.00  0.00     0.163 HD
ATOM     29  O   UNL A   1      41.753  25.778  25.142  1.00  0.00    -0.269 OA
BRANCH  27  30
ATOM     30  C   UNL A   1      41.153  26.253  27.366  1.00  0.00     0.039 A 
ATOM     31  C   UNL A   1      42.087  27.287  27.472  1.00  0.00     0.014 A 
ATOM     32  C   UNL A   1      40.244  26.019  28.399  1.00  0.00     0.014 A 
ATOM     33  C   UNL A   1      42.037  28.148  28.570  1.00  0.00     0.010 A 
ATOM     34  C   UNL A   1      40.127  26.939  29.434  1.00  0.00     0.010 A 
ATOM     35  C   UNL A   1      41.021  28.015  29.531  1.00  0.00    -0.014 A 
BRANCH  35  36
ATOM     36  C   UNL A   1      40.857  28.990  30.642  1.00  0.00     0.031 A 
ATOM     37  C   UNL A   1      41.707  28.866  31.878  1.00  0.00     0.074 A 
ATOM     38  C   UNL A   1      39.883  29.919  30.581  1.00  0.00     0.049 A 
ATOM     39  N   UNL A   1      41.635  29.532  33.001  1.00  0.00    -0.248 NA
ATOM     40  C   UNL A   1      42.754  27.829  31.864  1.00  0.00     0.031 C 
ATOM     41  C   UNL A   1      38.948  30.099  29.466  1.00  0.00     0.029 A 
ATOM     42  N   UNL A   1      39.501  30.880  31.485  1.00  0.00    -0.354 N 
ATOM     43  C   UNL A   1      42.602  28.978  33.832  1.00  0.00     0.074 A 
ATOM     44  C   UNL A   1      43.212  27.887  33.106  1.00  0.00     0.031 C 
ATOM     45  C   UNL A   1      38.121  31.121  29.742  1.00  0.00     0.029 A 
ATOM     46  C   UNL A   1      38.435  31.642  31.068  1.00  0.00     0.049 A 
ATOM     47  H   UNL A   1      39.951  31.011  32.351  1.00  0.00     0.167 HD
ATOM     48  C   UNL A   1      42.967  29.361  35.078  1.00  0.00     0.037 A 
ATOM     49  C   UNL A   1      37.775  32.640  31.688  1.00  0.00     0.037 A 
ATOM     50  C   UNL A   1      42.390  30.478  35.777  1.00  0.00     0.049 A 
ATOM     51  C   UNL A   1      38.213  33.060  33.065  1.00  0.00     0.074 A 
ATOM     52  C   UNL A   1      42.749  31.002  37.006  1.00  0.00     0.029 A 
ATOM     53  N   UNL A   1      41.335  31.245  35.307  1.00  0.00    -0.354 N 
ATOM     54  N   UNL A   1      39.177  32.572  33.807  1.00  0.00    -0.248 NA
ATOM     55  C   UNL A   1      37.471  34.164  33.691  1.00  0.00     0.031 C 
ATOM     56  C   UNL A   1      41.886  32.063  37.296  1.00  0.00     0.029 A 
ATOM     57  C   UNL A   1      41.014  32.225  36.231  1.00  0.00     0.049 A 
ATOM     58  H   UNL A   1      40.879  31.112  34.444  1.00  0.00     0.167 HD
ATOM     59  C   UNL A   1      39.170  33.318  34.980  1.00  0.00     0.074 A 
ATOM     60  C   UNL A   1      38.116  34.302  34.841  1.00  0.00     0.031 C 
ATOM     61  C   UNL A   1      39.961  33.198  36.074  1.00  0.00     0.037 A 
BRANCH  48  62
ATOM     62  C   UNL A   1      44.056  28.576  35.756  1.00  0.00     0.058 A 
ATOM     63  C   UNL A   1      45.412  28.893  35.576  1.00  0.00     0.135 A 
ATOM     64  C   UNL A   1      43.741  27.514  36.618  1.00  0.00     0.135 A 
ATOM     65  F   UNL A   1      45.770  29.889  34.749  1.00  0.00    -0.206 F 
ATOM     66  C   UNL A   1      46.418  28.165  36.201  1.00  0.00     0.059 A 
ATOM     67  C   UNL A   1      44.731  26.789  37.276  1.00  0.00     0.059 A 
ATOM     68  F   UNL A   1      42.461  27.169  36.826  1.00  0.00    -0.206 F 
ATOM     69  C   UNL A   1      46.067  27.113  37.048  1.00  0.00     0.060 A 
BRANCH  69  70
ATOM     70  S   UNL A   1      47.386  26.182  37.856  1.00  0.00     0.124 S 
ATOM     71  O   UNL A   1      46.924  26.170  39.242  1.00  0.00    -0.237 OA
ATOM     72  O   UNL A   1      47.336  24.900  37.162  1.00  0.00    -0.237 OA
ATOM     73  O   UNL A   1      48.576  26.986  37.599  1.00  0.00    -0.744 OA
ENDBRANCH  69  70
ENDBRANCH  48  62
BRANCH  49  74
ATOM     74  C   UNL A   1      36.645  33.323  31.005  1.00  0.00     0.058 A 
ATOM     75  C   UNL A   1      35.321  33.107  31.416  1.00  0.00     0.135 A 
ATOM     76  C   UNL A   1      36.861  34.213  29.942  1.00  0.00     0.135 A 
ATOM     77  F   UNL A   1      35.063  32.260  32.425  1.00  0.00    -0.206 F 
ATOM     78  C   UNL A   1      34.251  33.738  30.790  1.00  0.00     0.059 A 
ATOM     79  C   UNL A   1      35.809  34.873  29.314  1.00  0.00     0.059 A 
ATOM     80  F   UNL A   1      38.111  34.465  29.519  1.00  0.00    -0.206 F 
ATOM     81  C   UNL A   1      34.505  34.621  29.739  1.00  0.00     0.060 A 
BRANCH  81  82
ATOM     82  S   UNL A   1      33.112  35.470  28.965  1.00  0.00     0.124 S 
ATOM     83  O   UNL A   1      32.523  34.402  28.167  1.00  0.00    -0.237 OA
ATOM     84  O   UNL A   1      32.334  35.905  30.122  1.00  0.00    -0.237 OA
ATOM     85  O   UNL A   1      33.752  36.545  28.211  1.00  0.00    -0.744 OA
ENDBRANCH  81  82
ENDBRANCH  49  74
BRANCH  61  86
ATOM     86  C   UNL A   1      39.731  34.160  37.203  1.00  0.00     0.058 A 
ATOM     87  C   UNL A   1      38.879  33.843  38.272  1.00  0.00     0.135 A 
ATOM     88  C   UNL A   1      40.421  35.382  37.250  1.00  0.00     0.135 A 
ATOM     89  F   UNL A   1      38.192  32.690  38.269  1.00  0.00    -0.206 F 
ATOM     90  C   UNL A   1      38.709  34.712  39.344  1.00  0.00     0.059 A 
ATOM     91  C   UNL A   1      40.283  36.255  38.324  1.00  0.00     0.059 A 
ATOM     92  F   UNL A   1      41.255  35.728  36.256  1.00  0.00    -0.206 F 
ATOM     93  C   UNL A   1      39.418  35.914  39.363  1.00  0.00     0.060 A 
BRANCH  93  94
ATOM     94  S   UNL A   1      39.225  37.011  40.785  1.00  0.00     0.124 S 
ATOM     95  O   UNL A   1      40.608  37.395  41.049  1.00  0.00    -0.237 OA
ATOM     96  O   UNL A   1      38.365  38.065  40.254  1.00  0.00    -0.237 OA
ATOM     97  O   UNL A   1      38.607  36.155  41.792  1.00  0.00    -0.744 OA
ENDBRANCH  93  94
ENDBRANCH  61  86
ENDBRANCH  35  36
ENDBRANCH  27  30
ENDBRANCH  25  26
ENDBRANCH  24  25
ENDBRANCH   1  24
TORSDOF 19
ENDMDL
