MODEL 1
REMARK VINA RESULT:     -12.9      0.000      0.000
REMARK SMILES CCn1nc(-c2cccnc2)c2cc(C(=O)NCCCNC(=O)c3ccc(-c4c5nc(c(-c6c(F)cc(S(=O)(=O)[O-])cc6F)c6ccc([nH]6)c(-c6c(F)cc(S(=O)(=O)[O-])cc6F)c6nc(c(-c7c(F)cc(S(=O)(=O)[O-])cc7F)c7ccc4[nH]7)C=C6)C=C5)cc3)sc21
REMARK SMILES IDX 20 1 19 2 18 3 17 4 15 5 16 6 14 8 3 9 4 10 91 11 5 12 12 13
REMARK SMILES IDX 90 14 13 15 2 16 1 17 6 18 7 19 11 20 8 21 10 22 9 23 21 24
REMARK SMILES IDX 22 25 23 27 24 28 25 29 89 30 26 31 88 32 27 33 28 34 29 35
REMARK SMILES IDX 82 36 30 37 87 38 81 39 83 40 31 41 86 42 80 43 79 44 32 46
REMARK SMILES IDX 66 47 45 48 65 49 46 50 49 51 64 52 84 53 47 54 48 55 63 57
REMARK SMILES IDX 85 58 50 59 33 60 34 61 43 62 35 63 36 64 42 65 44 66 37 67
REMARK SMILES IDX 38 68 39 69 40 70 41 71 67 72 68 73 77 74 69 75 70 76 76 77
REMARK SMILES IDX 78 78 71 79 72 80 73 81 74 82 75 83 51 84 52 85 61 86 53 87
REMARK SMILES IDX 54 88 60 89 62 90 55 91 56 92 57 93 58 94 59 95
REMARK H PARENT 17 7 21 26 83 45 49 56
REMARK Flexibility Score: inf
ROOT
ATOM      1  C   UNL A   1      37.798  22.774  25.461  1.00  0.00     0.118 C 
ENDROOT
BRANCH   1   2
ATOM      2  C   UNL A   1      36.845  22.015  24.563  1.00  0.00     0.042 C 
BRANCH   2   3
ATOM      3  C   UNL A   1      35.589  22.829  24.204  1.00  0.00     0.118 C 
BRANCH   3   4
ATOM      4  N   UNL A   1      34.438  22.571  25.073  1.00  0.00    -0.351 N 
ATOM      5  C   UNL A   1      33.323  23.342  25.370  1.00  0.00     0.261 C 
ATOM      6  O   UNL A   1      32.375  22.756  25.896  1.00  0.00    -0.268 OA
ATOM      7  H   UNL A   1      34.460  21.697  25.526  1.00  0.00     0.163 HD
BRANCH   5   8
ATOM      8  C   UNL A   1      33.247  24.747  24.997  1.00  0.00     0.095 A 
ATOM      9  N   UNL A   1      31.719  27.804  23.610  1.00  0.00    -0.254 N 
ATOM     10  N   UNL A   1      31.984  28.863  24.427  1.00  0.00    -0.171 NA
ATOM     11  C   UNL A   1      32.438  26.731  23.972  1.00  0.00     0.122 A 
ATOM     12  C   UNL A   1      32.883  28.381  25.331  1.00  0.00     0.103 A 
ATOM     13  C   UNL A   1      33.033  27.007  25.129  1.00  0.00     0.040 A 
ATOM     14  S   UNL A   1      32.765  25.230  23.398  1.00  0.00    -0.110 S 
ATOM     15  C   UNL A   1      33.594  25.886  25.752  1.00  0.00     0.038 A 
BRANCH   9  16
ATOM     16  C   UNL A   1      30.676  27.862  22.603  1.00  0.00     0.142 C 
ATOM     17  C   UNL A   1      29.262  27.933  23.181  1.00  0.00     0.029 C 
ENDBRANCH   9  16
BRANCH  12  18
ATOM     18  C   UNL A   1      33.585  29.286  26.219  1.00  0.00     0.021 A 
ATOM     19  C   UNL A   1      34.810  28.951  26.795  1.00  0.00     0.013 A 
ATOM     20  C   UNL A   1      32.971  30.460  26.649  1.00  0.00     0.121 A 
ATOM     21  C   UNL A   1      35.367  29.786  27.763  1.00  0.00     0.021 A 
ATOM     22  N   UNL A   1      33.487  31.290  27.590  1.00  0.00    -0.264 NA
ATOM     23  C   UNL A   1      34.670  30.928  28.129  1.00  0.00     0.111 A 
ENDBRANCH  12  18
ENDBRANCH   5   8
ENDBRANCH   3   4
ENDBRANCH   2   3
ENDBRANCH   1   2
BRANCH   1  24
ATOM     24  N   UNL A   1      38.677  21.903  26.245  1.00  0.00    -0.352 N 
ATOM     25  C   UNL A   1      39.840  22.253  26.921  1.00  0.00     0.251 C 
ATOM     26  H   UNL A   1      38.412  20.956  26.301  1.00  0.00     0.163 HD
ATOM     27  O   UNL A   1      40.665  21.410  27.223  1.00  0.00    -0.269 OA
BRANCH  25  28
ATOM     28  C   UNL A   1      40.045  23.678  27.255  1.00  0.00     0.039 A 
ATOM     29  C   UNL A   1      39.022  24.627  27.176  1.00  0.00     0.014 A 
ATOM     30  C   UNL A   1      41.302  24.035  27.721  1.00  0.00     0.014 A 
ATOM     31  C   UNL A   1      39.272  25.912  27.658  1.00  0.00     0.010 A 
ATOM     32  C   UNL A   1      41.454  25.192  28.426  1.00  0.00     0.010 A 
ATOM     33  C   UNL A   1      40.489  26.177  28.308  1.00  0.00    -0.014 A 
BRANCH  33  34
ATOM     34  C   UNL A   1      40.770  27.449  28.958  1.00  0.00     0.031 A 
ATOM     35  C   UNL A   1      41.856  28.233  28.322  1.00  0.00     0.074 A 
ATOM     36  C   UNL A   1      39.962  27.973  29.909  1.00  0.00     0.049 A 
ATOM     37  N   UNL A   1      43.041  28.433  28.788  1.00  0.00    -0.248 NA
ATOM     38  C   UNL A   1      41.678  28.697  26.937  1.00  0.00     0.031 C 
ATOM     39  C   UNL A   1      38.691  27.453  30.434  1.00  0.00     0.029 A 
ATOM     40  N   UNL A   1      40.066  29.168  30.547  1.00  0.00    -0.354 N 
ATOM     41  C   UNL A   1      43.675  29.267  27.874  1.00  0.00     0.074 A 
ATOM     42  C   UNL A   1      42.883  29.210  26.674  1.00  0.00     0.031 C 
ATOM     43  C   UNL A   1      38.041  28.426  31.109  1.00  0.00     0.029 A 
ATOM     44  C   UNL A   1      38.918  29.575  31.220  1.00  0.00     0.049 A 
ATOM     45  H   UNL A   1      40.891  29.705  30.534  1.00  0.00     0.167 HD
ATOM     46  C   UNL A   1      44.651  30.129  28.277  1.00  0.00     0.037 A 
ATOM     47  C   UNL A   1      38.706  30.779  31.814  1.00  0.00     0.037 A 
ATOM     48  C   UNL A   1      45.106  29.800  29.609  1.00  0.00     0.049 A 
ATOM     49  C   UNL A   1      40.053  31.360  32.077  1.00  0.00     0.074 A 
ATOM     50  C   UNL A   1      45.649  28.670  30.193  1.00  0.00     0.029 A 
ATOM     51  N   UNL A   1      44.636  30.566  30.652  1.00  0.00    -0.354 N 
ATOM     52  N   UNL A   1      40.901  30.841  32.925  1.00  0.00    -0.248 NA
ATOM     53  C   UNL A   1      40.644  32.188  31.037  1.00  0.00     0.031 C 
ATOM     54  C   UNL A   1      45.025  28.582  31.472  1.00  0.00     0.029 A 
ATOM     55  C   UNL A   1      44.214  29.706  31.636  1.00  0.00     0.049 A 
ATOM     56  H   UNL A   1      44.607  31.549  30.686  1.00  0.00     0.167 HD
ATOM     57  C   UNL A   1      42.131  30.902  32.283  1.00  0.00     0.074 A 
ATOM     58  C   UNL A   1      41.922  31.813  31.156  1.00  0.00     0.031 C 
ATOM     59  C   UNL A   1      43.115  29.988  32.536  1.00  0.00     0.037 A 
BRANCH  46  60
ATOM     60  C   UNL A   1      44.933  31.473  27.648  1.00  0.00     0.058 A 
ATOM     61  C   UNL A   1      46.158  31.669  26.976  1.00  0.00     0.135 A 
ATOM     62  C   UNL A   1      44.191  32.645  27.911  1.00  0.00     0.135 A 
ATOM     63  F   UNL A   1      46.945  30.625  26.668  1.00  0.00    -0.206 F 
ATOM     64  C   UNL A   1      46.651  32.938  26.673  1.00  0.00     0.059 A 
ATOM     65  C   UNL A   1      44.639  33.917  27.568  1.00  0.00     0.059 A 
ATOM     66  F   UNL A   1      43.044  32.633  28.599  1.00  0.00    -0.206 F 
ATOM     67  C   UNL A   1      45.889  34.057  26.990  1.00  0.00     0.060 A 
BRANCH  67  68
ATOM     68  S   UNL A   1      46.568  35.698  26.702  1.00  0.00     0.124 S 
ATOM     69  O   UNL A   1      47.362  35.900  27.908  1.00  0.00    -0.237 OA
ATOM     70  O   UNL A   1      47.320  35.499  25.466  1.00  0.00    -0.237 OA
ATOM     71  O   UNL A   1      45.380  36.536  26.578  1.00  0.00    -0.744 OA
ENDBRANCH  67  68
ENDBRANCH  46  60
BRANCH  47  72
ATOM     72  C   UNL A   1      37.447  31.573  31.861  1.00  0.00     0.058 A 
ATOM     73  C   UNL A   1      36.824  31.897  33.081  1.00  0.00     0.135 A 
ATOM     74  C   UNL A   1      36.975  32.270  30.728  1.00  0.00     0.135 A 
ATOM     75  F   UNL A   1      37.216  31.299  34.217  1.00  0.00    -0.206 F 
ATOM     76  C   UNL A   1      35.837  32.888  33.181  1.00  0.00     0.059 A 
ATOM     77  C   UNL A   1      35.988  33.253  30.801  1.00  0.00     0.059 A 
ATOM     78  F   UNL A   1      37.529  32.083  29.521  1.00  0.00    -0.206 F 
ATOM     79  C   UNL A   1      35.441  33.578  32.035  1.00  0.00     0.060 A 
BRANCH  79  80
ATOM     80  S   UNL A   1      34.310  34.984  32.182  1.00  0.00     0.124 S 
ATOM     81  O   UNL A   1      33.177  34.391  32.883  1.00  0.00    -0.237 OA
ATOM     82  O   UNL A   1      35.102  35.941  32.946  1.00  0.00    -0.237 OA
ATOM     83  O   UNL A   1      34.056  35.361  30.793  1.00  0.00    -0.744 OA
ENDBRANCH  79  80
ENDBRANCH  47  72
BRANCH  59  84
ATOM     84  C   UNL A   1      42.946  29.055  33.715  1.00  0.00     0.058 A 
ATOM     85  C   UNL A   1      43.258  29.383  35.047  1.00  0.00     0.135 A 
ATOM     86  C   UNL A   1      42.297  27.831  33.502  1.00  0.00     0.135 A 
ATOM     87  F   UNL A   1      43.772  30.579  35.363  1.00  0.00    -0.206 F 
ATOM     88  C   UNL A   1      42.992  28.512  36.107  1.00  0.00     0.059 A 
ATOM     89  C   UNL A   1      41.991  26.961  34.546  1.00  0.00     0.059 A 
ATOM     90  F   UNL A   1      41.906  27.484  32.264  1.00  0.00    -0.206 F 
ATOM     91  C   UNL A   1      42.361  27.298  35.845  1.00  0.00     0.060 A 
BRANCH  91  92
ATOM     92  S   UNL A   1      41.977  26.190  37.217  1.00  0.00     0.124 S 
ATOM     93  O   UNL A   1      43.036  26.505  38.170  1.00  0.00    -0.237 OA
ATOM     94  O   UNL A   1      40.633  26.611  37.603  1.00  0.00    -0.237 OA
ATOM     95  O   UNL A   1      42.056  24.861  36.615  1.00  0.00    -0.744 OA
ENDBRANCH  91  92
ENDBRANCH  59  84
ENDBRANCH  33  34
ENDBRANCH  25  28
ENDBRANCH   1  24
TORSDOF 15
ENDMDL
MODEL 2
REMARK VINA RESULT:     -12.6      2.679      9.562
REMARK SMILES CCn1nc(-c2cccnc2)c2cc(C(=O)NCCCNC(=O)c3ccc(-c4c5nc(c(-c6c(F)cc(S(=O)(=O)[O-])cc6F)c6ccc([nH]6)c(-c6c(F)cc(S(=O)(=O)[O-])cc6F)c6nc(c(-c7c(F)cc(S(=O)(=O)[O-])cc7F)c7ccc4[nH]7)C=C6)C=C5)cc3)sc21
REMARK SMILES IDX 20 1 19 2 18 3 17 4 15 5 16 6 14 8 3 9 4 10 91 11 5 12 12 13
REMARK SMILES IDX 90 14 13 15 2 16 1 17 6 18 7 19 11 20 8 21 10 22 9 23 21 24
REMARK SMILES IDX 22 25 23 27 24 28 25 29 89 30 26 31 88 32 27 33 28 34 29 35
REMARK SMILES IDX 82 36 30 37 87 38 81 39 83 40 31 41 86 42 80 43 79 44 32 46
REMARK SMILES IDX 66 47 45 48 65 49 46 50 49 51 64 52 84 53 47 54 48 55 63 57
REMARK SMILES IDX 85 58 50 59 33 60 34 61 43 62 35 63 36 64 42 65 44 66 37 67
REMARK SMILES IDX 38 68 39 69 40 70 41 71 67 72 68 73 77 74 69 75 70 76 76 77
REMARK SMILES IDX 78 78 71 79 72 80 73 81 74 82 75 83 51 84 52 85 61 86 53 87
REMARK SMILES IDX 54 88 60 89 62 90 55 91 56 92 57 93 58 94 59 95
REMARK H PARENT 17 7 21 26 83 45 49 56
REMARK Flexibility Score: inf
ROOT
ATOM      1  C   UNL A   1      33.575  29.616  27.370  1.00  0.00     0.118 C 
ENDROOT
BRANCH   1   2
ATOM      2  C   UNL A   1      32.108  29.318  27.146  1.00  0.00     0.042 C 
BRANCH   2   3
ATOM      3  C   UNL A   1      31.873  27.949  26.482  1.00  0.00     0.118 C 
BRANCH   3   4
ATOM      4  N   UNL A   1      32.141  27.928  25.042  1.00  0.00    -0.351 N 
ATOM      5  C   UNL A   1      32.540  26.899  24.199  1.00  0.00     0.261 C 
ATOM      6  O   UNL A   1      32.402  27.095  22.991  1.00  0.00    -0.268 OA
ATOM      7  H   UNL A   1      32.018  28.795  24.592  1.00  0.00     0.163 HD
BRANCH   5   8
ATOM      8  C   UNL A   1      33.011  25.625  24.723  1.00  0.00     0.095 A 
ATOM      9  N   UNL A   1      33.233  21.954  25.007  1.00  0.00    -0.254 N 
ATOM     10  N   UNL A   1      34.537  21.580  25.145  1.00  0.00    -0.171 NA
ATOM     11  C   UNL A   1      33.104  23.285  25.118  1.00  0.00     0.122 A 
ATOM     12  C   UNL A   1      35.212  22.752  25.320  1.00  0.00     0.103 A 
ATOM     13  C   UNL A   1      34.324  23.815  25.141  1.00  0.00     0.040 A 
ATOM     14  S   UNL A   1      31.896  24.390  25.226  1.00  0.00    -0.110 S 
ATOM     15  C   UNL A   1      34.333  25.206  24.982  1.00  0.00     0.038 A 
BRANCH   9  16
ATOM     16  C   UNL A   1      32.203  21.002  24.639  1.00  0.00     0.142 C 
ATOM     17  C   UNL A   1      32.746  19.703  24.041  1.00  0.00     0.029 C 
ENDBRANCH   9  16
BRANCH  12  18
ATOM     18  C   UNL A   1      36.598  22.743  25.742  1.00  0.00     0.021 A 
ATOM     19  C   UNL A   1      37.238  23.896  26.196  1.00  0.00     0.013 A 
ATOM     20  C   UNL A   1      37.379  21.605  25.552  1.00  0.00     0.121 A 
ATOM     21  C   UNL A   1      38.611  23.870  26.439  1.00  0.00     0.021 A 
ATOM     22  N   UNL A   1      38.715  21.550  25.778  1.00  0.00    -0.264 NA
ATOM     23  C   UNL A   1      39.299  22.688  26.209  1.00  0.00     0.111 A 
ENDBRANCH  12  18
ENDBRANCH   5   8
ENDBRANCH   3   4
ENDBRANCH   2   3
ENDBRANCH   1   2
BRANCH   1  24
ATOM     24  N   UNL A   1      33.927  31.017  27.129  1.00  0.00    -0.352 N 
ATOM     25  C   UNL A   1      35.021  31.717  27.625  1.00  0.00     0.251 C 
ATOM     26  H   UNL A   1      33.317  31.524  26.545  1.00  0.00     0.163 HD
ATOM     27  O   UNL A   1      35.019  32.934  27.662  1.00  0.00    -0.269 OA
BRANCH  25  28
ATOM     28  C   UNL A   1      36.179  30.939  28.112  1.00  0.00     0.039 A 
ATOM     29  C   UNL A   1      36.343  29.579  27.839  1.00  0.00     0.014 A 
ATOM     30  C   UNL A   1      37.152  31.639  28.811  1.00  0.00     0.014 A 
ATOM     31  C   UNL A   1      37.542  28.968  28.208  1.00  0.00     0.010 A 
ATOM     32  C   UNL A   1      38.405  31.115  28.926  1.00  0.00     0.010 A 
ATOM     33  C   UNL A   1      38.581  29.757  28.730  1.00  0.00    -0.014 A 
BRANCH  33  34
ATOM     34  C   UNL A   1      39.906  29.223  29.011  1.00  0.00     0.031 A 
ATOM     35  C   UNL A   1      40.193  29.028  30.453  1.00  0.00     0.074 A 
ATOM     36  C   UNL A   1      40.711  28.728  28.041  1.00  0.00     0.049 A 
ATOM     37  N   UNL A   1      40.993  29.728  31.183  1.00  0.00    -0.248 NA
ATOM     38  C   UNL A   1      39.374  28.075  31.217  1.00  0.00     0.031 C 
ATOM     39  C   UNL A   1      40.445  28.581  26.603  1.00  0.00     0.029 A 
ATOM     40  N   UNL A   1      41.931  28.145  28.166  1.00  0.00    -0.354 N 
ATOM     41  C   UNL A   1      40.975  29.137  32.441  1.00  0.00     0.074 A 
ATOM     42  C   UNL A   1      39.815  28.286  32.461  1.00  0.00     0.031 C 
ATOM     43  C   UNL A   1      41.352  27.746  26.051  1.00  0.00     0.029 A 
ATOM     44  C   UNL A   1      42.362  27.441  27.046  1.00  0.00     0.049 A 
ATOM     45  H   UNL A   1      42.470  28.215  28.987  1.00  0.00     0.167 HD
ATOM     46  C   UNL A   1      42.062  29.209  33.260  1.00  0.00     0.037 A 
ATOM     47  C   UNL A   1      43.467  26.656  26.953  1.00  0.00     0.037 A 
ATOM     48  C   UNL A   1      42.999  30.201  32.783  1.00  0.00     0.049 A 
ATOM     49  C   UNL A   1      44.385  27.092  28.042  1.00  0.00     0.074 A 
ATOM     50  C   UNL A   1      42.918  31.555  32.518  1.00  0.00     0.029 A 
ATOM     51  N   UNL A   1      44.111  29.756  32.104  1.00  0.00    -0.354 N 
ATOM     52  N   UNL A   1      44.952  28.269  28.070  1.00  0.00    -0.248 NA
ATOM     53  C   UNL A   1      44.257  26.436  29.335  1.00  0.00     0.031 C 
ATOM     54  C   UNL A   1      43.658  31.738  31.313  1.00  0.00     0.029 A 
ATOM     55  C   UNL A   1      44.225  30.511  30.962  1.00  0.00     0.049 A 
ATOM     56  H   UNL A   1      44.712  29.029  32.384  1.00  0.00     0.167 HD
ATOM     57  C   UNL A   1      44.845  28.686  29.390  1.00  0.00     0.074 A 
ATOM     58  C   UNL A   1      44.478  27.482  30.137  1.00  0.00     0.031 C 
ATOM     59  C   UNL A   1      44.767  30.012  29.716  1.00  0.00     0.037 A 
BRANCH  46  60
ATOM     60  C   UNL A   1      42.465  28.148  34.259  1.00  0.00     0.058 A 
ATOM     61  C   UNL A   1      42.501  28.481  35.629  1.00  0.00     0.135 A 
ATOM     62  C   UNL A   1      43.077  26.923  33.915  1.00  0.00     0.135 A 
ATOM     63  F   UNL A   1      41.945  29.620  36.073  1.00  0.00    -0.206 F 
ATOM     64  C   UNL A   1      43.175  27.702  36.570  1.00  0.00     0.059 A 
ATOM     65  C   UNL A   1      43.707  26.104  34.847  1.00  0.00     0.059 A 
ATOM     66  F   UNL A   1      43.185  26.502  32.650  1.00  0.00    -0.206 F 
ATOM     67  C   UNL A   1      43.791  26.523  36.163  1.00  0.00     0.060 A 
BRANCH  67  68
ATOM     68  S   UNL A   1      44.753  25.574  37.350  1.00  0.00     0.124 S 
ATOM     69  O   UNL A   1      44.523  24.211  36.888  1.00  0.00    -0.237 OA
ATOM     70  O   UNL A   1      46.097  26.105  37.140  1.00  0.00    -0.237 OA
ATOM     71  O   UNL A   1      44.142  25.920  38.629  1.00  0.00    -0.744 OA
ENDBRANCH  67  68
ENDBRANCH  46  60
BRANCH  47  72
ATOM     72  C   UNL A   1      43.625  25.373  26.212  1.00  0.00     0.058 A 
ATOM     73  C   UNL A   1      44.689  25.166  25.313  1.00  0.00     0.135 A 
ATOM     74  C   UNL A   1      42.897  24.221  26.575  1.00  0.00     0.135 A 
ATOM     75  F   UNL A   1      45.450  26.200  24.922  1.00  0.00    -0.206 F 
ATOM     76  C   UNL A   1      45.043  23.891  24.849  1.00  0.00     0.059 A 
ATOM     77  C   UNL A   1      43.225  22.943  26.120  1.00  0.00     0.059 A 
ATOM     78  F   UNL A   1      41.895  24.287  27.465  1.00  0.00    -0.206 F 
ATOM     79  C   UNL A   1      44.317  22.781  25.278  1.00  0.00     0.060 A 
BRANCH  79  80
ATOM     80  S   UNL A   1      44.880  21.117  24.839  1.00  0.00     0.124 S 
ATOM     81  O   UNL A   1      43.990  20.276  25.631  1.00  0.00    -0.237 OA
ATOM     82  O   UNL A   1      44.667  21.088  23.396  1.00  0.00    -0.237 OA
ATOM     83  O   UNL A   1      46.280  21.112  25.256  1.00  0.00    -0.744 OA
ENDBRANCH  79  80
ENDBRANCH  47  72
BRANCH  59  84
ATOM     84  C   UNL A   1      45.055  31.036  28.642  1.00  0.00     0.058 A 
ATOM     85  C   UNL A   1      44.140  31.436  27.650  1.00  0.00     0.135 A 
ATOM     86  C   UNL A   1      46.259  31.751  28.714  1.00  0.00     0.135 A 
ATOM     87  F   UNL A   1      42.919  30.892  27.576  1.00  0.00    -0.206 F 
ATOM     88  C   UNL A   1      44.432  32.456  26.741  1.00  0.00     0.059 A 
ATOM     89  C   UNL A   1      46.558  32.793  27.840  1.00  0.00     0.059 A 
ATOM     90  F   UNL A   1      47.150  31.470  29.680  1.00  0.00    -0.206 F 
ATOM     91  C   UNL A   1      45.648  33.127  26.841  1.00  0.00     0.060 A 
BRANCH  91  92
ATOM     92  S   UNL A   1      46.010  34.473  25.694  1.00  0.00     0.124 S 
ATOM     93  O   UNL A   1      45.123  34.170  24.576  1.00  0.00    -0.237 OA
ATOM     94  O   UNL A   1      45.663  35.659  26.473  1.00  0.00    -0.237 OA
ATOM     95  O   UNL A   1      47.436  34.314  25.418  1.00  0.00    -0.744 OA
ENDBRANCH  91  92
ENDBRANCH  59  84
ENDBRANCH  33  34
ENDBRANCH  25  28
ENDBRANCH   1  24
TORSDOF 15
ENDMDL
MODEL 3
REMARK VINA RESULT:     -12.6      2.406      4.506
REMARK SMILES CCn1nc(-c2cccnc2)c2cc(C(=O)NCCCNC(=O)c3ccc(-c4c5nc(c(-c6c(F)cc(S(=O)(=O)[O-])cc6F)c6ccc([nH]6)c(-c6c(F)cc(S(=O)(=O)[O-])cc6F)c6nc(c(-c7c(F)cc(S(=O)(=O)[O-])cc7F)c7ccc4[nH]7)C=C6)C=C5)cc3)sc21
REMARK SMILES IDX 20 1 19 2 18 3 17 4 15 5 16 6 14 8 3 9 4 10 91 11 5 12 12 13
REMARK SMILES IDX 90 14 13 15 2 16 1 17 6 18 7 19 11 20 8 21 10 22 9 23 21 24
REMARK SMILES IDX 22 25 23 27 24 28 25 29 89 30 26 31 88 32 27 33 28 34 29 35
REMARK SMILES IDX 82 36 30 37 87 38 81 39 83 40 31 41 86 42 80 43 79 44 32 46
REMARK SMILES IDX 66 47 45 48 65 49 46 50 49 51 64 52 84 53 47 54 48 55 63 57
REMARK SMILES IDX 85 58 50 59 33 60 34 61 43 62 35 63 36 64 42 65 44 66 37 67
REMARK SMILES IDX 38 68 39 69 40 70 41 71 67 72 68 73 77 74 69 75 70 76 76 77
REMARK SMILES IDX 78 78 71 79 72 80 73 81 74 82 75 83 51 84 52 85 61 86 53 87
REMARK SMILES IDX 54 88 60 89 62 90 55 91 56 92 57 93 58 94 59 95
REMARK H PARENT 17 7 21 26 83 45 49 56
REMARK Flexibility Score: inf
ROOT
ATOM      1  C   UNL A   1      41.412  21.102  26.672  1.00  0.00     0.118 C 
ENDROOT
BRANCH   1   2
ATOM      2  C   UNL A   1      40.427  20.059  26.193  1.00  0.00     0.042 C 
BRANCH   2   3
ATOM      3  C   UNL A   1      39.149  20.674  25.595  1.00  0.00     0.118 C 
BRANCH   3   4
ATOM      4  N   UNL A   1      39.067  22.131  25.726  1.00  0.00    -0.351 N 
ATOM      5  C   UNL A   1      37.978  22.980  25.865  1.00  0.00     0.261 C 
ATOM      6  O   UNL A   1      38.219  24.124  26.251  1.00  0.00    -0.268 OA
ATOM      7  H   UNL A   1      39.939  22.589  25.713  1.00  0.00     0.163 HD
BRANCH   5   8
ATOM      8  C   UNL A   1      36.616  22.510  25.652  1.00  0.00     0.095 A 
ATOM      9  N   UNL A   1      33.275  22.410  24.093  1.00  0.00    -0.254 N 
ATOM     10  N   UNL A   1      32.898  21.115  23.892  1.00  0.00    -0.171 NA
ATOM     11  C   UNL A   1      34.381  22.474  24.849  1.00  0.00     0.122 A 
ATOM     12  C   UNL A   1      33.845  20.379  24.541  1.00  0.00     0.103 A 
ATOM     13  C   UNL A   1      34.849  21.237  24.996  1.00  0.00     0.040 A 
ATOM     14  S   UNL A   1      35.277  23.619  25.607  1.00  0.00    -0.110 S 
ATOM     15  C   UNL A   1      36.141  21.188  25.533  1.00  0.00     0.038 A 
BRANCH   9  16
ATOM     16  C   UNL A   1      32.608  23.509  23.420  1.00  0.00     0.142 C 
ATOM     17  C   UNL A   1      31.083  23.393  23.406  1.00  0.00     0.029 C 
ENDBRANCH   9  16
BRANCH  12  18
ATOM     18  C   UNL A   1      33.650  18.959  24.755  1.00  0.00     0.021 A 
ATOM     19  C   UNL A   1      34.553  18.011  24.276  1.00  0.00     0.013 A 
ATOM     20  C   UNL A   1      32.462  18.493  25.314  1.00  0.00     0.121 A 
ATOM     21  C   UNL A   1      34.240  16.655  24.370  1.00  0.00     0.021 A 
ATOM     22  N   UNL A   1      32.130  17.182  25.416  1.00  0.00    -0.264 NA
ATOM     23  C   UNL A   1      33.026  16.295  24.934  1.00  0.00     0.111 A 
ENDBRANCH  12  18
ENDBRANCH   5   8
ENDBRANCH   3   4
ENDBRANCH   2   3
ENDBRANCH   1   2
BRANCH   1  24
ATOM     24  N   UNL A   1      42.417  21.459  25.667  1.00  0.00    -0.352 N 
ATOM     25  C   UNL A   1      42.876  22.728  25.337  1.00  0.00     0.251 C 
ATOM     26  H   UNL A   1      42.816  20.710  25.167  1.00  0.00     0.163 HD
ATOM     27  O   UNL A   1      43.423  22.936  24.268  1.00  0.00    -0.269 OA
BRANCH  25  28
ATOM     28  C   UNL A   1      42.675  23.815  26.317  1.00  0.00     0.039 A 
ATOM     29  C   UNL A   1      43.499  23.988  27.432  1.00  0.00     0.014 A 
ATOM     30  C   UNL A   1      41.655  24.717  26.050  1.00  0.00     0.014 A 
ATOM     31  C   UNL A   1      43.326  25.131  28.214  1.00  0.00     0.010 A 
ATOM     32  C   UNL A   1      41.666  25.942  26.646  1.00  0.00     0.010 A 
ATOM     33  C   UNL A   1      42.419  26.118  27.794  1.00  0.00    -0.014 A 
BRANCH  33  34
ATOM     34  C   UNL A   1      42.280  27.397  28.476  1.00  0.00     0.031 A 
ATOM     35  C   UNL A   1      43.374  28.359  28.198  1.00  0.00     0.074 A 
ATOM     36  C   UNL A   1      41.144  27.761  29.115  1.00  0.00     0.049 A 
ATOM     37  N   UNL A   1      44.308  28.723  29.009  1.00  0.00    -0.248 NA
ATOM     38  C   UNL A   1      43.569  28.833  26.819  1.00  0.00     0.031 C 
ATOM     39  C   UNL A   1      39.870  27.035  29.224  1.00  0.00     0.029 A 
ATOM     40  N   UNL A   1      40.856  28.936  29.731  1.00  0.00    -0.354 N 
ATOM     41  C   UNL A   1      45.057  29.674  28.325  1.00  0.00     0.074 A 
ATOM     42  C   UNL A   1      44.700  29.533  26.938  1.00  0.00     0.031 C 
ATOM     43  C   UNL A   1      38.898  27.875  29.643  1.00  0.00     0.029 A 
ATOM     44  C   UNL A   1      39.506  29.141  30.002  1.00  0.00     0.049 A 
ATOM     45  H   UNL A   1      41.549  29.594  29.968  1.00  0.00     0.167 HD
ATOM     46  C   UNL A   1      45.712  30.662  28.998  1.00  0.00     0.037 A 
ATOM     47  C   UNL A   1      38.934  30.279  30.478  1.00  0.00     0.037 A 
ATOM     48  C   UNL A   1      45.773  30.365  30.412  1.00  0.00     0.049 A 
ATOM     49  C   UNL A   1      40.023  31.050  31.140  1.00  0.00     0.074 A 
ATOM     50  C   UNL A   1      46.275  29.314  31.157  1.00  0.00     0.029 A 
ATOM     51  N   UNL A   1      44.887  31.016  31.240  1.00  0.00    -0.354 N 
ATOM     52  N   UNL A   1      40.634  30.642  32.220  1.00  0.00    -0.248 NA
ATOM     53  C   UNL A   1      40.774  31.993  30.323  1.00  0.00     0.031 C 
ATOM     54  C   UNL A   1      45.304  29.090  32.177  1.00  0.00     0.029 A 
ATOM     55  C   UNL A   1      44.317  30.070  32.058  1.00  0.00     0.049 A 
ATOM     56  H   UNL A   1      44.695  31.982  31.245  1.00  0.00     0.167 HD
ATOM     57  C   UNL A   1      41.977  30.912  31.996  1.00  0.00     0.074 A 
ATOM     58  C   UNL A   1      41.992  31.815  30.843  1.00  0.00     0.031 C 
ATOM     59  C   UNL A   1      42.962  30.151  32.562  1.00  0.00     0.037 A 
BRANCH  46  60
ATOM     60  C   UNL A   1      45.963  32.053  28.465  1.00  0.00     0.058 A 
ATOM     61  C   UNL A   1      47.269  32.584  28.533  1.00  0.00     0.135 A 
ATOM     62  C   UNL A   1      44.946  32.981  28.152  1.00  0.00     0.135 A 
ATOM     63  F   UNL A   1      48.316  31.793  28.817  1.00  0.00    -0.206 F 
ATOM     64  C   UNL A   1      47.530  33.947  28.394  1.00  0.00     0.059 A 
ATOM     65  C   UNL A   1      45.192  34.336  27.955  1.00  0.00     0.059 A 
ATOM     66  F   UNL A   1      43.651  32.646  28.118  1.00  0.00    -0.206 F 
ATOM     67  C   UNL A   1      46.479  34.817  28.123  1.00  0.00     0.060 A 
BRANCH  67  68
ATOM     68  S   UNL A   1      46.794  36.587  28.052  1.00  0.00     0.124 S 
ATOM     69  O   UNL A   1      46.326  36.912  26.710  1.00  0.00    -0.237 OA
ATOM     70  O   UNL A   1      45.975  37.082  29.154  1.00  0.00    -0.237 OA
ATOM     71  O   UNL A   1      48.236  36.679  28.260  1.00  0.00    -0.744 OA
ENDBRANCH  67  68
ENDBRANCH  46  60
BRANCH  47  72
ATOM     72  C   UNL A   1      37.616  30.868  30.112  1.00  0.00     0.058 A 
ATOM     73  C   UNL A   1      36.803  31.507  31.068  1.00  0.00     0.135 A 
ATOM     74  C   UNL A   1      37.247  31.064  28.765  1.00  0.00     0.135 A 
ATOM     75  F   UNL A   1      37.084  31.393  32.375  1.00  0.00    -0.206 F 
ATOM     76  C   UNL A   1      35.729  32.333  30.708  1.00  0.00     0.059 A 
ATOM     77  C   UNL A   1      36.178  31.875  28.383  1.00  0.00     0.059 A 
ATOM     78  F   UNL A   1      37.978  30.548  27.765  1.00  0.00    -0.206 F 
ATOM     79  C   UNL A   1      35.437  32.529  29.358  1.00  0.00     0.060 A 
BRANCH  79  80
ATOM     80  S   UNL A   1      34.178  33.738  28.879  1.00  0.00     0.124 S 
ATOM     81  O   UNL A   1      33.323  32.953  27.997  1.00  0.00    -0.237 OA
ATOM     82  O   UNL A   1      33.598  34.108  30.166  1.00  0.00    -0.237 OA
ATOM     83  O   UNL A   1      34.951  34.791  28.225  1.00  0.00    -0.744 OA
ENDBRANCH  79  80
ENDBRANCH  47  72
BRANCH  59  84
ATOM     84  C   UNL A   1      42.580  29.167  33.644  1.00  0.00     0.058 A 
ATOM     85  C   UNL A   1      42.260  27.815  33.421  1.00  0.00     0.135 A 
ATOM     86  C   UNL A   1      42.691  29.577  34.981  1.00  0.00     0.135 A 
ATOM     87  F   UNL A   1      42.245  27.303  32.184  1.00  0.00    -0.206 F 
ATOM     88  C   UNL A   1      42.006  26.931  34.472  1.00  0.00     0.059 A 
ATOM     89  C   UNL A   1      42.475  28.706  36.046  1.00  0.00     0.059 A 
ATOM     90  F   UNL A   1      43.062  30.836  35.269  1.00  0.00    -0.206 F 
ATOM     91  C   UNL A   1      42.112  27.387  35.784  1.00  0.00     0.060 A 
BRANCH  91  92
ATOM     92  S   UNL A   1      41.826  26.235  37.144  1.00  0.00     0.124 S 
ATOM     93  O   UNL A   1      40.516  26.655  37.631  1.00  0.00    -0.237 OA
ATOM     94  O   UNL A   1      41.867  24.936  36.478  1.00  0.00    -0.237 OA
ATOM     95  O   UNL A   1      42.940  26.495  38.053  1.00  0.00    -0.744 OA
ENDBRANCH  91  92
ENDBRANCH  59  84
ENDBRANCH  33  34
ENDBRANCH  25  28
ENDBRANCH   1  24
TORSDOF 15
ENDMDL
