MODEL 1
REMARK VINA RESULT:     -10.5      0.000      0.000
REMARK SMILES CSCc1ccc(C(=O)N[C@](C)(C(=O)NCCCNC(=O)c2ccc(-c3c4nc(c(-c5c(F)cc(S(=O)(=O)[O-])cc5F)c5ccc([nH]5)c(-c5c(F)cc(S(=O)(=O)[O-])cc5F)c5nc(c(-c6c(F)cc(S(=O)(=O)[O-])cc6F)c6ccc3[nH]6)C=C5)C=C4)cc2)C(F)(F)F)o1
REMARK SMILES IDX 16 1 15 2 13 3 14 4 11 6 12 7 10 8 8 9 9 10 7 12 4 13 5 14
REMARK SMILES IDX 92 15 6 16 3 17 2 18 1 19 88 20 89 21 90 22 91 23 17 24
REMARK SMILES IDX 18 25 19 26 20 27 21 29 22 30 23 31 87 32 24 33 86 34 25 35
REMARK SMILES IDX 26 36 27 37 80 38 28 39 85 40 79 41 81 42 29 43 84 44 78 45
REMARK SMILES IDX 77 46 30 48 64 49 43 50 63 51 44 52 47 53 62 54 82 55 45 56
REMARK SMILES IDX 46 57 61 59 83 60 48 61 31 62 32 63 41 64 33 65 34 66 40 67
REMARK SMILES IDX 42 68 35 69 36 70 37 71 38 72 39 73 65 74 66 75 75 76 67 77
REMARK SMILES IDX 68 78 74 79 76 80 69 81 70 82 71 83 72 84 73 85 49 86 50 87
REMARK SMILES IDX 59 88 51 89 52 90 58 91 60 92 53 93 54 94 55 95 56 96 57 97
REMARK H PARENT 15 5 10 11 19 28 81 47 47 58
REMARK Flexibility Score: inf
ROOT
ATOM      1  C   UNL A   1      33.612  26.206  26.047  1.00  0.00     0.117 C 
ENDROOT
BRANCH   1   2
ATOM      2  N   UNL A   1      33.677  25.773  24.659  1.00  0.00    -0.354 N 
ATOM      3  C   UNL A   1      32.760  25.112  23.889  1.00  0.00     0.254 C 
ATOM      4  O   UNL A   1      33.216  24.472  22.939  1.00  0.00    -0.272 OA
ATOM      5  H   UNL A   1      34.520  25.993  24.200  1.00  0.00     0.163 HD
BRANCH   3   6
ATOM      6  C   UNL A   1      31.267  25.108  24.240  1.00  0.00     0.212 C 
ATOM      7  C   UNL A   1      30.562  24.196  23.203  1.00  0.00     0.056 C 
BRANCH   6   8
ATOM      8  N   UNL A   1      31.053  24.545  25.613  1.00  0.00    -0.328 N 
ATOM      9  C   UNL A   1      31.614  23.504  26.322  1.00  0.00     0.288 C 
ATOM     10  O   UNL A   1      31.296  23.497  27.516  1.00  0.00    -0.266 OA
ATOM     11  H   UNL A   1      30.359  25.024  26.120  1.00  0.00     0.165 HD
BRANCH   9  12
ATOM     12  C   UNL A   1      32.485  22.488  25.752  1.00  0.00     0.191 A 
ATOM     13  C   UNL A   1      34.474  21.508  25.541  1.00  0.00     0.114 A 
ATOM     14  C   UNL A   1      33.604  20.785  24.764  1.00  0.00     0.047 A 
ATOM     15  O   UNL A   1      33.806  22.522  26.159  1.00  0.00    -0.455 OA
ATOM     16  C   UNL A   1      32.341  21.405  24.905  1.00  0.00     0.056 A 
BRANCH  13  17
ATOM     17  C   UNL A   1      35.918  21.356  25.839  1.00  0.00     0.144 C 
BRANCH  17  18
ATOM     18  S   UNL A   1      36.992  21.635  24.390  1.00  0.00    -0.157 SA
ATOM     19  C   UNL A   1      36.416  23.271  23.867  1.00  0.00     0.085 C 
ENDBRANCH  17  18
ENDBRANCH  13  17
ENDBRANCH   9  12
ENDBRANCH   6   8
BRANCH   6  20
ATOM     20  C   UNL A   1      30.683  26.527  24.049  1.00  0.00     0.420 C 
ATOM     21  F   UNL A   1      31.443  27.302  23.246  1.00  0.00    -0.168 F 
ATOM     22  F   UNL A   1      29.463  26.440  23.448  1.00  0.00    -0.168 F 
ATOM     23  F   UNL A   1      30.485  27.194  25.203  1.00  0.00    -0.168 F 
ENDBRANCH   6  20
ENDBRANCH   3   6
ENDBRANCH   1   2
BRANCH   1  24
ATOM     24  C   UNL A   1      33.671  27.732  26.127  1.00  0.00     0.042 C 
BRANCH  24  25
ATOM     25  C   UNL A   1      33.404  28.277  27.529  1.00  0.00     0.118 C 
BRANCH  25  26
ATOM     26  N   UNL A   1      33.373  29.731  27.556  1.00  0.00    -0.352 N 
ATOM     27  C   UNL A   1      34.337  30.622  27.959  1.00  0.00     0.251 C 
ATOM     28  H   UNL A   1      32.534  30.137  27.237  1.00  0.00     0.163 HD
ATOM     29  O   UNL A   1      34.040  31.805  28.094  1.00  0.00    -0.269 OA
BRANCH  27  30
ATOM     30  C   UNL A   1      35.715  30.165  28.249  1.00  0.00     0.039 A 
ATOM     31  C   UNL A   1      36.640  30.120  27.202  1.00  0.00     0.014 A 
ATOM     32  C   UNL A   1      36.092  29.752  29.531  1.00  0.00     0.014 A 
ATOM     33  C   UNL A   1      37.955  29.718  27.452  1.00  0.00     0.010 A 
ATOM     34  C   UNL A   1      37.421  29.416  29.792  1.00  0.00     0.010 A 
ATOM     35  C   UNL A   1      38.366  29.394  28.757  1.00  0.00    -0.014 A 
BRANCH  35  36
ATOM     36  C   UNL A   1      39.784  29.054  29.049  1.00  0.00     0.031 A 
ATOM     37  C   UNL A   1      40.718  30.088  29.616  1.00  0.00     0.074 A 
ATOM     38  C   UNL A   1      40.244  27.824  28.744  1.00  0.00     0.049 A 
ATOM     39  N   UNL A   1      41.996  29.987  29.885  1.00  0.00    -0.248 NA
ATOM     40  C   UNL A   1      40.152  31.417  29.896  1.00  0.00     0.031 C 
ATOM     41  C   UNL A   1      39.453  26.752  28.135  1.00  0.00     0.029 A 
ATOM     42  N   UNL A   1      41.493  27.271  28.889  1.00  0.00    -0.354 N 
ATOM     43  C   UNL A   1      42.389  31.238  30.348  1.00  0.00     0.074 A 
ATOM     44  C   UNL A   1      41.224  32.094  30.284  1.00  0.00     0.031 C 
ATOM     45  C   UNL A   1      40.230  25.669  27.972  1.00  0.00     0.029 A 
ATOM     46  C   UNL A   1      41.581  25.977  28.432  1.00  0.00     0.049 A 
ATOM     47  H   UNL A   1      42.253  27.756  29.283  1.00  0.00     0.167 HD
ATOM     48  C   UNL A   1      43.604  31.630  30.801  1.00  0.00     0.037 A 
ATOM     49  C   UNL A   1      42.631  25.136  28.377  1.00  0.00     0.037 A 
ATOM     50  C   UNL A   1      44.751  30.763  30.892  1.00  0.00     0.049 A 
ATOM     51  C   UNL A   1      43.963  25.588  28.907  1.00  0.00     0.074 A 
ATOM     52  C   UNL A   1      46.002  31.047  31.414  1.00  0.00     0.029 A 
ATOM     53  N   UNL A   1      44.792  29.449  30.451  1.00  0.00    -0.354 N 
ATOM     54  N   UNL A   1      44.295  26.751  29.415  1.00  0.00    -0.248 NA
ATOM     55  C   UNL A   1      45.062  24.614  28.865  1.00  0.00     0.031 C 
ATOM     56  C   UNL A   1      46.813  29.919  31.245  1.00  0.00     0.029 A 
ATOM     57  C   UNL A   1      46.053  28.916  30.664  1.00  0.00     0.049 A 
ATOM     58  H   UNL A   1      44.036  28.966  30.045  1.00  0.00     0.167 HD
ATOM     59  C   UNL A   1      45.635  26.640  29.773  1.00  0.00     0.074 A 
ATOM     60  C   UNL A   1      46.047  25.293  29.438  1.00  0.00     0.031 C 
ATOM     61  C   UNL A   1      46.450  27.572  30.326  1.00  0.00     0.037 A 
BRANCH  48  62
ATOM     62  C   UNL A   1      43.761  33.060  31.240  1.00  0.00     0.058 A 
ATOM     63  C   UNL A   1      44.096  34.079  30.335  1.00  0.00     0.135 A 
ATOM     64  C   UNL A   1      43.518  33.426  32.575  1.00  0.00     0.135 A 
ATOM     65  F   UNL A   1      44.352  33.784  29.050  1.00  0.00    -0.206 F 
ATOM     66  C   UNL A   1      44.208  35.405  30.740  1.00  0.00     0.059 A 
ATOM     67  C   UNL A   1      43.598  34.750  32.997  1.00  0.00     0.059 A 
ATOM     68  F   UNL A   1      43.194  32.492  33.484  1.00  0.00    -0.206 F 
ATOM     69  C   UNL A   1      43.956  35.730  32.073  1.00  0.00     0.060 A 
BRANCH  69  70
ATOM     70  S   UNL A   1      44.090  37.458  32.579  1.00  0.00     0.124 S 
ATOM     71  O   UNL A   1      43.788  38.151  31.330  1.00  0.00    -0.237 OA
ATOM     72  O   UNL A   1      43.073  37.559  33.621  1.00  0.00    -0.237 OA
ATOM     73  O   UNL A   1      45.469  37.572  33.042  1.00  0.00    -0.744 OA
ENDBRANCH  69  70
ENDBRANCH  48  62
BRANCH  49  74
ATOM     74  C   UNL A   1      42.460  23.772  27.807  1.00  0.00     0.058 A 
ATOM     75  C   UNL A   1      42.452  23.562  26.421  1.00  0.00     0.135 A 
ATOM     76  C   UNL A   1      42.310  22.652  28.639  1.00  0.00     0.135 A 
ATOM     77  F   UNL A   1      42.587  24.602  25.584  1.00  0.00    -0.206 F 
ATOM     78  C   UNL A   1      42.285  22.292  25.877  1.00  0.00     0.059 A 
ATOM     79  C   UNL A   1      42.167  21.370  28.120  1.00  0.00     0.059 A 
ATOM     80  F   UNL A   1      42.330  22.797  29.973  1.00  0.00    -0.206 F 
ATOM     81  C   UNL A   1      42.143  21.201  26.736  1.00  0.00     0.060 A 
BRANCH  81  82
ATOM     82  S   UNL A   1      41.974  19.551  26.023  1.00  0.00     0.124 S 
ATOM     83  O   UNL A   1      42.891  19.624  24.893  1.00  0.00    -0.237 OA
ATOM     84  O   UNL A   1      42.388  18.694  27.129  1.00  0.00    -0.237 OA
ATOM     85  O   UNL A   1      40.556  19.478  25.684  1.00  0.00    -0.744 OA
ENDBRANCH  81  82
ENDBRANCH  49  74
BRANCH  61  86
ATOM     86  C   UNL A   1      47.864  27.160  30.627  1.00  0.00     0.058 A 
ATOM     87  C   UNL A   1      48.913  27.409  29.727  1.00  0.00     0.135 A 
ATOM     88  C   UNL A   1      48.182  26.544  31.848  1.00  0.00     0.135 A 
ATOM     89  F   UNL A   1      48.662  27.989  28.542  1.00  0.00    -0.206 F 
ATOM     90  C   UNL A   1      50.221  27.035  30.015  1.00  0.00     0.059 A 
ATOM     91  C   UNL A   1      49.487  26.187  32.169  1.00  0.00     0.059 A 
ATOM     92  F   UNL A   1      47.218  26.293  32.750  1.00  0.00    -0.206 F 
ATOM     93  C   UNL A   1      50.499  26.424  31.239  1.00  0.00     0.060 A 
BRANCH  93  94
ATOM     94  S   UNL A   1      52.204  25.965  31.611  1.00  0.00     0.124 S 
ATOM     95  O   UNL A   1      52.597  27.022  32.536  1.00  0.00    -0.237 OA
ATOM     96  O   UNL A   1      52.052  24.636  32.194  1.00  0.00    -0.237 OA
ATOM     97  O   UNL A   1      52.858  25.999  30.305  1.00  0.00    -0.744 OA
ENDBRANCH  93  94
ENDBRANCH  61  86
ENDBRANCH  35  36
ENDBRANCH  27  30
ENDBRANCH  25  26
ENDBRANCH  24  25
ENDBRANCH   1  24
TORSDOF 18
ENDMDL
MODEL 2
REMARK VINA RESULT:     -10.5      3.588      8.970
REMARK SMILES CSCc1ccc(C(=O)N[C@](C)(C(=O)NCCCNC(=O)c2ccc(-c3c4nc(c(-c5c(F)cc(S(=O)(=O)[O-])cc5F)c5ccc([nH]5)c(-c5c(F)cc(S(=O)(=O)[O-])cc5F)c5nc(c(-c6c(F)cc(S(=O)(=O)[O-])cc6F)c6ccc3[nH]6)C=C5)C=C4)cc2)C(F)(F)F)o1
REMARK SMILES IDX 16 1 15 2 13 3 14 4 11 6 12 7 10 8 8 9 9 10 7 12 4 13 5 14
REMARK SMILES IDX 92 15 6 16 3 17 2 18 1 19 88 20 89 21 90 22 91 23 17 24
REMARK SMILES IDX 18 25 19 26 20 27 21 29 22 30 23 31 87 32 24 33 86 34 25 35
REMARK SMILES IDX 26 36 27 37 80 38 28 39 85 40 79 41 81 42 29 43 84 44 78 45
REMARK SMILES IDX 77 46 30 48 64 49 43 50 63 51 44 52 47 53 62 54 82 55 45 56
REMARK SMILES IDX 46 57 61 59 83 60 48 61 31 62 32 63 41 64 33 65 34 66 40 67
REMARK SMILES IDX 42 68 35 69 36 70 37 71 38 72 39 73 65 74 66 75 75 76 67 77
REMARK SMILES IDX 68 78 74 79 76 80 69 81 70 82 71 83 72 84 73 85 49 86 50 87
REMARK SMILES IDX 59 88 51 89 52 90 58 91 60 92 53 93 54 94 55 95 56 96 57 97
REMARK H PARENT 15 5 10 11 19 28 81 47 47 58
REMARK Flexibility Score: inf
ROOT
ATOM      1  C   UNL A   1      36.919  21.229  24.769  1.00  0.00     0.117 C 
ENDROOT
BRANCH   1   2
ATOM      2  N   UNL A   1      35.922  21.116  25.823  1.00  0.00    -0.354 N 
ATOM      3  C   UNL A   1      34.892  21.949  26.167  1.00  0.00     0.254 C 
ATOM      4  O   UNL A   1      34.505  21.873  27.335  1.00  0.00    -0.272 OA
ATOM      5  H   UNL A   1      36.002  20.308  26.380  1.00  0.00     0.163 HD
BRANCH   3   6
ATOM      6  C   UNL A   1      34.314  22.965  25.175  1.00  0.00     0.212 C 
ATOM      7  C   UNL A   1      34.803  22.546  23.763  1.00  0.00     0.056 C 
BRANCH   6   8
ATOM      8  N   UNL A   1      32.815  22.931  25.202  1.00  0.00    -0.328 N 
ATOM      9  C   UNL A   1      31.875  21.937  25.043  1.00  0.00     0.288 C 
ATOM     10  O   UNL A   1      30.731  22.291  25.345  1.00  0.00    -0.266 OA
ATOM     11  H   UNL A   1      32.415  23.814  25.372  1.00  0.00     0.165 HD
BRANCH   9  12
ATOM     12  C   UNL A   1      32.160  20.596  24.556  1.00  0.00     0.191 A 
ATOM     13  C   UNL A   1      32.569  18.433  24.899  1.00  0.00     0.114 A 
ATOM     14  C   UNL A   1      32.545  18.610  23.538  1.00  0.00     0.047 A 
ATOM     15  O   UNL A   1      32.315  19.619  25.522  1.00  0.00    -0.455 OA
ATOM     16  C   UNL A   1      32.279  19.981  23.323  1.00  0.00     0.056 A 
BRANCH  13  17
ATOM     17  C   UNL A   1      32.767  17.238  25.753  1.00  0.00     0.144 C 
BRANCH  17  18
ATOM     18  S   UNL A   1      33.385  15.786  24.838  1.00  0.00    -0.157 SA
ATOM     19  C   UNL A   1      35.145  15.856  25.263  1.00  0.00     0.085 C 
ENDBRANCH  17  18
ENDBRANCH  13  17
ENDBRANCH   9  12
ENDBRANCH   6   8
BRANCH   6  20
ATOM     20  C   UNL A   1      34.912  24.364  25.452  1.00  0.00     0.420 C 
ATOM     21  F   UNL A   1      34.806  25.197  24.394  1.00  0.00    -0.168 F 
ATOM     22  F   UNL A   1      34.230  24.957  26.472  1.00  0.00    -0.168 F 
ATOM     23  F   UNL A   1      36.205  24.337  25.832  1.00  0.00    -0.168 F 
ENDBRANCH   6  20
ENDBRANCH   3   6
ENDBRANCH   1   2
BRANCH   1  24
ATOM     24  C   UNL A   1      37.994  20.155  24.942  1.00  0.00     0.042 C 
BRANCH  24  25
ATOM     25  C   UNL A   1      39.116  20.567  25.895  1.00  0.00     0.118 C 
BRANCH  25  26
ATOM     26  N   UNL A   1      40.135  19.536  26.020  1.00  0.00    -0.352 N 
ATOM     27  C   UNL A   1      41.496  19.660  26.154  1.00  0.00     0.251 C 
ATOM     28  H   UNL A   1      39.798  18.611  26.007  1.00  0.00     0.163 HD
ATOM     29  O   UNL A   1      42.202  18.662  26.041  1.00  0.00    -0.269 OA
BRANCH  27  30
ATOM     30  C   UNL A   1      42.114  20.981  26.411  1.00  0.00     0.039 A 
ATOM     31  C   UNL A   1      42.403  21.807  25.322  1.00  0.00     0.014 A 
ATOM     32  C   UNL A   1      42.440  21.394  27.706  1.00  0.00     0.014 A 
ATOM     33  C   UNL A   1      42.963  23.070  25.536  1.00  0.00     0.010 A 
ATOM     34  C   UNL A   1      42.935  22.680  27.923  1.00  0.00     0.010 A 
ATOM     35  C   UNL A   1      43.203  23.532  26.841  1.00  0.00    -0.014 A 
BRANCH  35  36
ATOM     36  C   UNL A   1      43.712  24.907  27.084  1.00  0.00     0.031 A 
ATOM     37  C   UNL A   1      45.162  25.238  26.854  1.00  0.00     0.074 A 
ATOM     38  C   UNL A   1      42.876  25.845  27.574  1.00  0.00     0.049 A 
ATOM     39  N   UNL A   1      45.793  26.367  27.061  1.00  0.00    -0.248 NA
ATOM     40  C   UNL A   1      46.022  24.157  26.348  1.00  0.00     0.031 C 
ATOM     41  C   UNL A   1      41.463  25.632  27.895  1.00  0.00     0.029 A 
ATOM     42  N   UNL A   1      43.094  27.160  27.901  1.00  0.00    -0.354 N 
ATOM     43  C   UNL A   1      47.122  26.127  26.729  1.00  0.00     0.074 A 
ATOM     44  C   UNL A   1      47.215  24.735  26.346  1.00  0.00     0.031 C 
ATOM     45  C   UNL A   1      40.938  26.777  28.359  1.00  0.00     0.029 A 
ATOM     46  C   UNL A   1      41.982  27.797  28.401  1.00  0.00     0.049 A 
ATOM     47  H   UNL A   1      43.964  27.605  27.788  1.00  0.00     0.167 HD
ATOM     48  C   UNL A   1      48.163  26.994  26.726  1.00  0.00     0.037 A 
ATOM     49  C   UNL A   1      41.822  29.055  28.854  1.00  0.00     0.037 A 
ATOM     50  C   UNL A   1      48.058  28.387  27.078  1.00  0.00     0.049 A 
ATOM     51  C   UNL A   1      42.989  30.003  28.819  1.00  0.00     0.074 A 
ATOM     52  C   UNL A   1      49.040  29.362  27.027  1.00  0.00     0.029 A 
ATOM     53  N   UNL A   1      46.908  29.003  27.547  1.00  0.00    -0.354 N 
ATOM     54  N   UNL A   1      44.219  29.780  28.425  1.00  0.00    -0.248 NA
ATOM     55  C   UNL A   1      42.745  31.376  29.281  1.00  0.00     0.031 C 
ATOM     56  C   UNL A   1      48.495  30.557  27.510  1.00  0.00     0.029 A 
ATOM     57  C   UNL A   1      47.161  30.339  27.815  1.00  0.00     0.049 A 
ATOM     58  H   UNL A   1      46.039  28.557  27.673  1.00  0.00     0.167 HD
ATOM     59  C   UNL A   1      44.891  30.988  28.572  1.00  0.00     0.074 A 
ATOM     60  C   UNL A   1      43.926  31.944  29.075  1.00  0.00     0.031 C 
ATOM     61  C   UNL A   1      46.191  31.280  28.316  1.00  0.00     0.037 A 
BRANCH  48  62
ATOM     62  C   UNL A   1      49.514  26.466  26.326  1.00  0.00     0.058 A 
ATOM     63  C   UNL A   1      50.045  26.689  25.045  1.00  0.00     0.135 A 
ATOM     64  C   UNL A   1      50.313  25.776  27.253  1.00  0.00     0.135 A 
ATOM     65  F   UNL A   1      49.319  27.331  24.115  1.00  0.00    -0.206 F 
ATOM     66  C   UNL A   1      51.308  26.227  24.691  1.00  0.00     0.059 A 
ATOM     67  C   UNL A   1      51.591  25.328  26.928  1.00  0.00     0.059 A 
ATOM     68  F   UNL A   1      49.855  25.535  28.492  1.00  0.00    -0.206 F 
ATOM     69  C   UNL A   1      52.074  25.549  25.639  1.00  0.00     0.060 A 
BRANCH  69  70
ATOM     70  S   UNL A   1      53.718  24.970  25.168  1.00  0.00     0.124 S 
ATOM     71  O   UNL A   1      53.822  25.474  23.801  1.00  0.00    -0.237 OA
ATOM     72  O   UNL A   1      54.574  25.626  26.151  1.00  0.00    -0.237 OA
ATOM     73  O   UNL A   1      53.618  23.520  25.295  1.00  0.00    -0.744 OA
ENDBRANCH  69  70
ENDBRANCH  48  62
BRANCH  49  74
ATOM     74  C   UNL A   1      40.497  29.495  29.370  1.00  0.00     0.058 A 
ATOM     75  C   UNL A   1      40.274  29.662  30.743  1.00  0.00     0.135 A 
ATOM     76  C   UNL A   1      39.433  29.764  28.496  1.00  0.00     0.135 A 
ATOM     77  F   UNL A   1      41.259  29.411  31.618  1.00  0.00    -0.206 F 
ATOM     78  C   UNL A   1      39.036  30.064  31.237  1.00  0.00     0.059 A 
ATOM     79  C   UNL A   1      38.194  30.193  28.962  1.00  0.00     0.059 A 
ATOM     80  F   UNL A   1      39.601  29.639  27.170  1.00  0.00    -0.206 F 
ATOM     81  C   UNL A   1      38.002  30.328  30.337  1.00  0.00     0.060 A 
BRANCH  81  82
ATOM     82  S   UNL A   1      36.414  30.895  30.982  1.00  0.00     0.124 S 
ATOM     83  O   UNL A   1      36.050  29.799  31.871  1.00  0.00    -0.237 OA
ATOM     84  O   UNL A   1      36.776  32.151  31.631  1.00  0.00    -0.237 OA
ATOM     85  O   UNL A   1      35.597  31.034  29.781  1.00  0.00    -0.744 OA
ENDBRANCH  81  82
ENDBRANCH  49  74
BRANCH  61  86
ATOM     86  C   UNL A   1      46.639  32.695  28.551  1.00  0.00     0.058 A 
ATOM     87  C   UNL A   1      46.540  33.676  27.551  1.00  0.00     0.135 A 
ATOM     88  C   UNL A   1      47.137  33.086  29.804  1.00  0.00     0.135 A 
ATOM     89  F   UNL A   1      46.077  33.353  26.332  1.00  0.00    -0.206 F 
ATOM     90  C   UNL A   1      46.946  34.987  27.776  1.00  0.00     0.059 A 
ATOM     91  C   UNL A   1      47.523  34.398  30.061  1.00  0.00     0.059 A 
ATOM     92  F   UNL A   1      47.242  32.190  30.800  1.00  0.00    -0.206 F 
ATOM     93  C   UNL A   1      47.437  35.338  29.035  1.00  0.00     0.060 A 
BRANCH  93  94
ATOM     94  S   UNL A   1      47.938  37.048  29.323  1.00  0.00     0.124 S 
ATOM     95  O   UNL A   1      48.073  37.074  30.775  1.00  0.00    -0.237 OA
ATOM     96  O   UNL A   1      49.184  37.142  28.568  1.00  0.00    -0.237 OA
ATOM     97  O   UNL A   1      46.826  37.824  28.781  1.00  0.00    -0.744 OA
ENDBRANCH  93  94
ENDBRANCH  61  86
ENDBRANCH  35  36
ENDBRANCH  27  30
ENDBRANCH  25  26
ENDBRANCH  24  25
ENDBRANCH   1  24
TORSDOF 18
ENDMDL
MODEL 3
REMARK VINA RESULT:     -10.4      1.410      2.202
REMARK SMILES CSCc1ccc(C(=O)N[C@](C)(C(=O)NCCCNC(=O)c2ccc(-c3c4nc(c(-c5c(F)cc(S(=O)(=O)[O-])cc5F)c5ccc([nH]5)c(-c5c(F)cc(S(=O)(=O)[O-])cc5F)c5nc(c(-c6c(F)cc(S(=O)(=O)[O-])cc6F)c6ccc3[nH]6)C=C5)C=C4)cc2)C(F)(F)F)o1
REMARK SMILES IDX 16 1 15 2 13 3 14 4 11 6 12 7 10 8 8 9 9 10 7 12 4 13 5 14
REMARK SMILES IDX 92 15 6 16 3 17 2 18 1 19 88 20 89 21 90 22 91 23 17 24
REMARK SMILES IDX 18 25 19 26 20 27 21 29 22 30 23 31 87 32 24 33 86 34 25 35
REMARK SMILES IDX 26 36 27 37 80 38 28 39 85 40 79 41 81 42 29 43 84 44 78 45
REMARK SMILES IDX 77 46 30 48 64 49 43 50 63 51 44 52 47 53 62 54 82 55 45 56
REMARK SMILES IDX 46 57 61 59 83 60 48 61 31 62 32 63 41 64 33 65 34 66 40 67
REMARK SMILES IDX 42 68 35 69 36 70 37 71 38 72 39 73 65 74 66 75 75 76 67 77
REMARK SMILES IDX 68 78 74 79 76 80 69 81 70 82 71 83 72 84 73 85 49 86 50 87
REMARK SMILES IDX 59 88 51 89 52 90 58 91 60 92 53 93 54 94 55 95 56 96 57 97
REMARK H PARENT 15 5 10 11 19 28 81 47 47 58
REMARK Flexibility Score: inf
ROOT
ATOM      1  C   UNL A   1      33.410  27.137  24.459  1.00  0.00     0.117 C 
ENDROOT
BRANCH   1   2
ATOM      2  N   UNL A   1      32.077  26.924  25.003  1.00  0.00    -0.354 N 
ATOM      3  C   UNL A   1      31.315  25.789  25.075  1.00  0.00     0.254 C 
ATOM      4  O   UNL A   1      30.097  25.961  25.143  1.00  0.00    -0.272 OA
ATOM      5  H   UNL A   1      31.653  27.728  25.380  1.00  0.00     0.163 HD
BRANCH   3   6
ATOM      6  C   UNL A   1      31.945  24.393  24.995  1.00  0.00     0.212 C 
ATOM      7  C   UNL A   1      30.776  23.375  24.915  1.00  0.00     0.056 C 
BRANCH   6   8
ATOM      8  N   UNL A   1      32.788  24.267  23.762  1.00  0.00    -0.328 N 
ATOM      9  C   UNL A   1      33.500  23.237  23.187  1.00  0.00     0.288 C 
ATOM     10  O   UNL A   1      33.899  23.493  22.046  1.00  0.00    -0.266 OA
ATOM     11  H   UNL A   1      32.844  25.105  23.249  1.00  0.00     0.165 HD
BRANCH   9  12
ATOM     12  C   UNL A   1      33.788  21.966  23.834  1.00  0.00     0.191 A 
ATOM     13  C   UNL A   1      33.303  19.836  24.270  1.00  0.00     0.114 A 
ATOM     14  C   UNL A   1      34.489  20.099  24.907  1.00  0.00     0.047 A 
ATOM     15  O   UNL A   1      32.883  20.947  23.601  1.00  0.00    -0.455 OA
ATOM     16  C   UNL A   1      34.798  21.449  24.624  1.00  0.00     0.056 A 
BRANCH  13  17
ATOM     17  C   UNL A   1      32.474  18.612  24.155  1.00  0.00     0.144 C 
BRANCH  17  18
ATOM     18  S   UNL A   1      33.431  17.128  23.696  1.00  0.00    -0.157 SA
ATOM     19  C   UNL A   1      33.037  16.041  25.091  1.00  0.00     0.085 C 
ENDBRANCH  17  18
ENDBRANCH  13  17
ENDBRANCH   9  12
ENDBRANCH   6   8
BRANCH   6  20
ATOM     20  C   UNL A   1      32.706  24.088  26.306  1.00  0.00     0.420 C 
ATOM     21  F   UNL A   1      32.189  24.733  27.374  1.00  0.00    -0.168 F 
ATOM     22  F   UNL A   1      32.615  22.757  26.587  1.00  0.00    -0.168 F 
ATOM     23  F   UNL A   1      34.022  24.369  26.248  1.00  0.00    -0.168 F 
ENDBRANCH   6  20
ENDBRANCH   3   6
ENDBRANCH   1   2
BRANCH   1  24
ATOM     24  C   UNL A   1      34.094  28.298  25.181  1.00  0.00     0.042 C 
BRANCH  24  25
ATOM     25  C   UNL A   1      33.779  28.354  26.675  1.00  0.00     0.118 C 
BRANCH  25  26
ATOM     26  N   UNL A   1      33.619  29.720  27.151  1.00  0.00    -0.352 N 
ATOM     27  C   UNL A   1      34.461  30.484  27.921  1.00  0.00     0.251 C 
ATOM     28  H   UNL A   1      32.782  30.161  26.881  1.00  0.00     0.163 HD
ATOM     29  O   UNL A   1      34.051  31.544  28.384  1.00  0.00    -0.269 OA
BRANCH  27  30
ATOM     30  C   UNL A   1      35.841  30.033  28.211  1.00  0.00     0.039 A 
ATOM     31  C   UNL A   1      36.803  30.128  27.202  1.00  0.00     0.014 A 
ATOM     32  C   UNL A   1      36.184  29.487  29.453  1.00  0.00     0.014 A 
ATOM     33  C   UNL A   1      38.119  29.734  27.456  1.00  0.00     0.010 A 
ATOM     34  C   UNL A   1      37.512  29.158  29.726  1.00  0.00     0.010 A 
ATOM     35  C   UNL A   1      38.493  29.276  28.731  1.00  0.00    -0.014 A 
BRANCH  35  36
ATOM     36  C   UNL A   1      39.909  28.940  29.038  1.00  0.00     0.031 A 
ATOM     37  C   UNL A   1      40.830  29.975  29.627  1.00  0.00     0.074 A 
ATOM     38  C   UNL A   1      40.380  27.717  28.726  1.00  0.00     0.049 A 
ATOM     39  N   UNL A   1      42.105  29.877  29.911  1.00  0.00    -0.248 NA
ATOM     40  C   UNL A   1      40.253  31.298  29.912  1.00  0.00     0.031 C 
ATOM     41  C   UNL A   1      39.603  26.646  28.097  1.00  0.00     0.029 A 
ATOM     42  N   UNL A   1      41.630  27.169  28.881  1.00  0.00    -0.354 N 
ATOM     43  C   UNL A   1      42.485  31.126  30.390  1.00  0.00     0.074 A 
ATOM     44  C   UNL A   1      41.317  31.977  30.320  1.00  0.00     0.031 C 
ATOM     45  C   UNL A   1      40.387  25.569  27.933  1.00  0.00     0.029 A 
ATOM     46  C   UNL A   1      41.731  25.880  28.413  1.00  0.00     0.049 A 
ATOM     47  H   UNL A   1      42.383  27.654  29.290  1.00  0.00     0.167 HD
ATOM     48  C   UNL A   1      43.693  31.520  30.862  1.00  0.00     0.037 A 
ATOM     49  C   UNL A   1      42.786  25.045  28.363  1.00  0.00     0.037 A 
ATOM     50  C   UNL A   1      44.843  30.659  30.959  1.00  0.00     0.049 A 
ATOM     51  C   UNL A   1      44.110  25.500  28.914  1.00  0.00     0.074 A 
ATOM     52  C   UNL A   1      46.086  30.944  31.499  1.00  0.00     0.029 A 
ATOM     53  N   UNL A   1      44.897  29.350  30.505  1.00  0.00    -0.354 N 
ATOM     54  N   UNL A   1      44.429  26.659  29.437  1.00  0.00    -0.248 NA
ATOM     55  C   UNL A   1      45.214  24.532  28.876  1.00  0.00     0.031 C 
ATOM     56  C   UNL A   1      46.905  29.823  31.329  1.00  0.00     0.029 A 
ATOM     57  C   UNL A   1      46.159  28.821  30.729  1.00  0.00     0.049 A 
ATOM     58  H   UNL A   1      44.149  28.867  30.085  1.00  0.00     0.167 HD
ATOM     59  C   UNL A   1      45.764  26.552  29.810  1.00  0.00     0.074 A 
ATOM     60  C   UNL A   1      46.188  25.211  29.468  1.00  0.00     0.031 C 
ATOM     61  C   UNL A   1      46.568  27.484  30.383  1.00  0.00     0.037 A 
BRANCH  48  62
ATOM     62  C   UNL A   1      43.836  32.947  31.317  1.00  0.00     0.058 A 
ATOM     63  C   UNL A   1      44.341  33.946  30.470  1.00  0.00     0.135 A 
ATOM     64  C   UNL A   1      43.410  33.331  32.600  1.00  0.00     0.135 A 
ATOM     65  F   UNL A   1      44.776  33.632  29.239  1.00  0.00    -0.206 F 
ATOM     66  C   UNL A   1      44.442  35.270  30.885  1.00  0.00     0.059 A 
ATOM     67  C   UNL A   1      43.476  34.655  33.026  1.00  0.00     0.059 A 
ATOM     68  F   UNL A   1      42.919  32.417  33.451  1.00  0.00    -0.206 F 
ATOM     69  C   UNL A   1      44.005  35.614  32.165  1.00  0.00     0.060 A 
BRANCH  69  70
ATOM     70  S   UNL A   1      44.128  37.340  32.682  1.00  0.00     0.124 S 
ATOM     71  O   UNL A   1      43.845  38.039  31.432  1.00  0.00    -0.237 OA
ATOM     72  O   UNL A   1      43.092  37.433  33.707  1.00  0.00    -0.237 OA
ATOM     73  O   UNL A   1      45.499  37.454  33.168  1.00  0.00    -0.744 OA
ENDBRANCH  69  70
ENDBRANCH  48  62
BRANCH  49  74
ATOM     74  C   UNL A   1      42.630  23.687  27.777  1.00  0.00     0.058 A 
ATOM     75  C   UNL A   1      42.407  22.568  28.591  1.00  0.00     0.135 A 
ATOM     76  C   UNL A   1      42.693  23.484  26.389  1.00  0.00     0.135 A 
ATOM     77  F   UNL A   1      42.344  22.710  29.923  1.00  0.00    -0.206 F 
ATOM     78  C   UNL A   1      42.268  21.291  28.054  1.00  0.00     0.059 A 
ATOM     79  C   UNL A   1      42.532  22.222  25.827  1.00  0.00     0.059 A 
ATOM     80  F   UNL A   1      42.886  24.525  25.565  1.00  0.00    -0.206 F 
ATOM     81  C   UNL A   1      42.331  21.129  26.669  1.00  0.00     0.060 A 
BRANCH  81  82
ATOM     82  S   UNL A   1      42.103  19.477  25.977  1.00  0.00     0.124 S 
ATOM     83  O   UNL A   1      40.664  19.453  25.744  1.00  0.00    -0.237 OA
ATOM     84  O   UNL A   1      42.943  19.524  24.785  1.00  0.00    -0.237 OA
ATOM     85  O   UNL A   1      42.587  18.601  27.040  1.00  0.00    -0.744 OA
ENDBRANCH  81  82
ENDBRANCH  49  74
BRANCH  61  86
ATOM     86  C   UNL A   1      47.980  27.076  30.698  1.00  0.00     0.058 A 
ATOM     87  C   UNL A   1      49.026  27.276  29.784  1.00  0.00     0.135 A 
ATOM     88  C   UNL A   1      48.298  26.513  31.944  1.00  0.00     0.135 A 
ATOM     89  F   UNL A   1      48.775  27.804  28.574  1.00  0.00    -0.206 F 
ATOM     90  C   UNL A   1      50.334  26.908  30.083  1.00  0.00     0.059 A 
ATOM     91  C   UNL A   1      49.603  26.163  32.276  1.00  0.00     0.059 A 
ATOM     92  F   UNL A   1      47.337  26.310  32.860  1.00  0.00    -0.206 F 
ATOM     93  C   UNL A   1      50.612  26.351  31.333  1.00  0.00     0.060 A 
BRANCH  93  94
ATOM     94  S   UNL A   1      52.316  25.898  31.719  1.00  0.00     0.124 S 
ATOM     95  O   UNL A   1      52.169  24.498  32.100  1.00  0.00    -0.237 OA
ATOM     96  O   UNL A   1      53.001  26.144  30.454  1.00  0.00    -0.237 OA
ATOM     97  O   UNL A   1      52.672  26.809  32.804  1.00  0.00    -0.744 OA
ENDBRANCH  93  94
ENDBRANCH  61  86
ENDBRANCH  35  36
ENDBRANCH  27  30
ENDBRANCH  25  26
ENDBRANCH  24  25
ENDBRANCH   1  24
TORSDOF 18
ENDMDL
