MODEL 1
REMARK VINA RESULT:     -14.9      0.000      0.000
REMARK SMILES COC(=O)c1ccc([C@H]2Nc3c(C(=O)NCCCNC(=O)c4ccc(-c5c6nc(c(-c7c(F)cc(S(=O)(=O)[O-])cc7F)c7ccc([nH]7)c(-c7c(F)cc(S(=O)(=O)[O-])cc7F)c7nc(c(-c8c(F)cc(S(=O)(=O)[O-])cc8F)c8ccc5[nH]8)C=C7)C=C6)cc4)cccc3[C@@H]3[C@@H]4CC[C@@H](C4)[C@@H]32)cc1
REMARK SMILES IDX 17 1 16 2 15 3 13 4 14 5 12 7 9 8 10 9 98 10 11 11 92 13
REMARK SMILES IDX 96 14 91 15 93 16 95 17 97 18 88 19 90 20 94 21 89 22 8 23
REMARK SMILES IDX 5 24 6 25 100 26 7 27 99 28 3 29 4 30 2 31 1 32 18 33 19 34
REMARK SMILES IDX 20 35 21 37 22 38 23 39 87 40 24 41 86 42 25 43 26 44 27 45
REMARK SMILES IDX 80 46 28 47 85 48 79 49 81 50 29 51 84 52 78 53 77 54 30 56
REMARK SMILES IDX 64 57 43 58 63 59 44 60 47 61 62 62 82 63 45 64 46 65 61 67
REMARK SMILES IDX 83 68 48 69 31 70 32 71 41 72 33 73 34 74 40 75 42 76 35 77
REMARK SMILES IDX 36 78 37 79 38 80 39 81 65 82 66 83 75 84 67 85 68 86 74 87
REMARK SMILES IDX 76 88 69 89 70 90 71 91 72 92 73 93 49 94 50 95 59 96 51 97
REMARK SMILES IDX 52 98 58 99 60 100 53 101 54 102 55 103 56 104 57 105
REMARK H PARENT 15 6 10 12 19 36 81 55 47 66
REMARK Flexibility Score: inf
ROOT
ATOM      1  C   UNL A   1      33.493  29.606  27.623  1.00  0.00     0.042 C 
ENDROOT
BRANCH   1   2
ATOM      2  C   UNL A   1      32.456  27.670  27.712  1.00  0.00     0.118 C 
BRANCH   2   3
ATOM      3  N   UNL A   1      31.191  27.012  26.878  1.00  0.00    -0.352 N 
ATOM      4  C   UNL A   1      30.690  25.892  26.231  1.00  0.00     0.253 C 
ATOM      5  O   UNL A   1      29.558  26.106  25.757  1.00  0.00    -0.269 OA
ATOM      6  H   UNL A   1      30.501  27.710  26.812  1.00  0.00     0.163 HD
BRANCH   4   7
ATOM      7  C   UNL A   1      31.260  24.493  25.960  1.00  0.00     0.063 A 
ATOM      8  C   UNL A   1      34.196  25.586  24.424  1.00  0.00     0.113 C 
ATOM      9  N   UNL A   1      32.985  24.910  24.346  1.00  0.00    -0.377 N 
ATOM     10  C   UNL A   1      34.969  24.292  23.881  1.00  0.00     0.027 C 
ATOM     11  C   UNL A   1      32.403  24.115  25.248  1.00  0.00     0.051 A 
ATOM     12  H   UNL A   1      32.484  25.034  23.507  1.00  0.00     0.161 HD
ATOM     13  C   UNL A   1      34.088  22.818  23.971  1.00  0.00     0.030 C 
ATOM     14  C   UNL A   1      36.275  23.797  24.564  1.00  0.00    -0.005 C 
ATOM     15  C   UNL A   1      32.845  22.821  24.931  1.00  0.00    -0.020 A 
ATOM     16  C   UNL A   1      35.187  21.812  24.344  1.00  0.00    -0.003 C 
ATOM     17  C   UNL A   1      36.082  23.272  26.010  1.00  0.00     0.004 C 
ATOM     18  C   UNL A   1      36.474  22.462  23.814  1.00  0.00     0.008 C 
ATOM     19  C   UNL A   1      30.491  23.403  26.368  1.00  0.00     0.016 A 
ATOM     20  C   UNL A   1      32.038  21.777  25.333  1.00  0.00     0.006 A 
ATOM     21  C   UNL A   1      35.437  21.885  25.848  1.00  0.00     0.004 C 
ATOM     22  C   UNL A   1      30.867  22.075  26.055  1.00  0.00     0.001 A 
BRANCH   8  23
ATOM     23  C   UNL A   1      33.385  26.811  23.792  1.00  0.00    -0.025 A 
ATOM     24  C   UNL A   1      30.515  28.958  23.154  1.00  0.00     0.060 A 
ATOM     25  C   UNL A   1      30.500  27.314  22.578  1.00  0.00     0.016 A 
ATOM     26  C   UNL A   1      31.964  29.583  24.107  1.00  0.00     0.016 A 
ATOM     27  C   UNL A   1      31.893  26.295  22.827  1.00  0.00     0.007 A 
ATOM     28  C   UNL A   1      33.410  28.519  24.413  1.00  0.00     0.007 A 
BRANCH  24  29
ATOM     29  C   UNL A   1      29.529  29.694  22.267  1.00  0.00     0.337 C 
ATOM     30  O   UNL A   1      29.606  29.916  21.081  1.00  0.00    -0.246 OA
BRANCH  29  31
ATOM     31  O   UNL A   1      28.434  29.803  23.071  1.00  0.00    -0.465 OA
ATOM     32  C   UNL A   1      27.697  30.983  23.405  1.00  0.00     0.282 C 
ENDBRANCH  29  31
ENDBRANCH  24  29
ENDBRANCH   8  23
ENDBRANCH   4   7
ENDBRANCH   2   3
ENDBRANCH   1   2
BRANCH   1  33
ATOM     33  C   UNL A   1      35.114  30.240  27.898  1.00  0.00     0.118 C 
BRANCH  33  34
ATOM     34  N   UNL A   1      35.550  30.834  29.165  1.00  0.00    -0.352 N 
ATOM     35  C   UNL A   1      36.284  30.291  30.164  1.00  0.00     0.251 C 
ATOM     36  H   UNL A   1      35.265  31.765  29.312  1.00  0.00     0.163 HD
ATOM     37  O   UNL A   1      36.043  30.491  31.343  1.00  0.00    -0.269 OA
BRANCH  35  38
ATOM     38  C   UNL A   1      37.509  29.673  29.706  1.00  0.00     0.039 A 
ATOM     39  C   UNL A   1      37.904  29.850  28.392  1.00  0.00     0.014 A 
ATOM     40  C   UNL A   1      38.290  29.034  30.678  1.00  0.00     0.014 A 
ATOM     41  C   UNL A   1      39.170  29.423  28.052  1.00  0.00     0.010 A 
ATOM     42  C   UNL A   1      39.583  28.706  30.362  1.00  0.00     0.010 A 
ATOM     43  C   UNL A   1      40.018  28.903  29.047  1.00  0.00    -0.014 A 
BRANCH  43  44
ATOM     44  C   UNL A   1      41.409  28.581  28.729  1.00  0.00     0.031 A 
ATOM     45  C   UNL A   1      42.428  29.669  28.776  1.00  0.00     0.074 A 
ATOM     46  C   UNL A   1      41.686  27.325  28.341  1.00  0.00     0.049 A 
ATOM     47  N   UNL A   1      43.698  29.602  28.495  1.00  0.00    -0.248 NA
ATOM     48  C   UNL A   1      41.956  31.018  29.144  1.00  0.00     0.031 C 
ATOM     49  C   UNL A   1      40.702  26.244  28.202  1.00  0.00     0.029 A 
ATOM     50  N   UNL A   1      42.870  26.744  27.998  1.00  0.00    -0.354 N 
ATOM     51  C   UNL A   1      44.173  30.895  28.650  1.00  0.00     0.074 A 
ATOM     52  C   UNL A   1      43.047  31.743  28.960  1.00  0.00     0.031 C 
ATOM     53  C   UNL A   1      41.337  25.116  27.853  1.00  0.00     0.029 A 
ATOM     54  C   UNL A   1      42.754  25.411  27.689  1.00  0.00     0.049 A 
ATOM     55  H   UNL A   1      43.725  27.231  27.973  1.00  0.00     0.167 HD
ATOM     56  C   UNL A   1      45.453  31.316  28.573  1.00  0.00     0.037 A 
ATOM     57  C   UNL A   1      43.702  24.537  27.308  1.00  0.00     0.037 A 
ATOM     58  C   UNL A   1      46.544  30.431  28.279  1.00  0.00     0.049 A 
ATOM     59  C   UNL A   1      45.114  25.039  27.212  1.00  0.00     0.074 A 
ATOM     60  C   UNL A   1      47.893  30.717  28.229  1.00  0.00     0.029 A 
ATOM     61  N   UNL A   1      46.403  29.082  27.971  1.00  0.00    -0.354 N 
ATOM     62  N   UNL A   1      45.577  26.243  27.462  1.00  0.00    -0.248 NA
ATOM     63  C   UNL A   1      46.131  24.074  26.787  1.00  0.00     0.031 C 
ATOM     64  C   UNL A   1      48.562  29.560  27.823  1.00  0.00     0.029 A 
ATOM     65  C   UNL A   1      47.638  28.532  27.687  1.00  0.00     0.049 A 
ATOM     66  H   UNL A   1      45.549  28.593  27.958  1.00  0.00     0.167 HD
ATOM     67  C   UNL A   1      46.944  26.178  27.233  1.00  0.00     0.074 A 
ATOM     68  C   UNL A   1      47.234  24.807  26.858  1.00  0.00     0.031 C 
ATOM     69  C   UNL A   1      47.878  27.158  27.315  1.00  0.00     0.037 A 
BRANCH  56  70
ATOM     70  C   UNL A   1      45.723  32.773  28.809  1.00  0.00     0.058 A 
ATOM     71  C   UNL A   1      46.028  33.273  30.087  1.00  0.00     0.135 A 
ATOM     72  C   UNL A   1      45.697  33.680  27.740  1.00  0.00     0.135 A 
ATOM     73  F   UNL A   1      46.036  32.455  31.152  1.00  0.00    -0.206 F 
ATOM     74  C   UNL A   1      46.277  34.624  30.298  1.00  0.00     0.059 A 
ATOM     75  C   UNL A   1      45.979  35.030  27.922  1.00  0.00     0.059 A 
ATOM     76  F   UNL A   1      45.393  33.259  26.502  1.00  0.00    -0.206 F 
ATOM     77  C   UNL A   1      46.259  35.493  29.205  1.00  0.00     0.060 A 
BRANCH  77  78
ATOM     78  S   UNL A   1      46.625  37.236  29.494  1.00  0.00     0.124 S 
ATOM     79  O   UNL A   1      45.590  37.888  28.697  1.00  0.00    -0.237 OA
ATOM     80  O   UNL A   1      46.474  37.345  30.942  1.00  0.00    -0.237 OA
ATOM     81  O   UNL A   1      47.988  37.384  28.994  1.00  0.00    -0.744 OA
ENDBRANCH  77  78
ENDBRANCH  56  70
BRANCH  57  82
ATOM     82  C   UNL A   1      43.339  23.128  27.010  1.00  0.00     0.058 A 
ATOM     83  C   UNL A   1      43.321  22.650  25.692  1.00  0.00     0.135 A 
ATOM     84  C   UNL A   1      43.031  22.223  28.039  1.00  0.00     0.135 A 
ATOM     85  F   UNL A   1      43.614  23.474  24.675  1.00  0.00    -0.206 F 
ATOM     86  C   UNL A   1      42.987  21.332  25.401  1.00  0.00     0.059 A 
ATOM     87  C   UNL A   1      42.726  20.892  27.775  1.00  0.00     0.059 A 
ATOM     88  F   UNL A   1      43.061  22.622  29.320  1.00  0.00    -0.206 F 
ATOM     89  C   UNL A   1      42.693  20.460  26.451  1.00  0.00     0.060 A 
BRANCH  89  90
ATOM     90  S   UNL A   1      42.299  18.743  26.063  1.00  0.00     0.124 S 
ATOM     91  O   UNL A   1      42.565  18.085  27.337  1.00  0.00    -0.237 OA
ATOM     92  O   UNL A   1      40.896  18.834  25.671  1.00  0.00    -0.237 OA
ATOM     93  O   UNL A   1      43.225  18.421  24.980  1.00  0.00    -0.744 OA
ENDBRANCH  89  90
ENDBRANCH  57  82
BRANCH  69  94
ATOM     94  C   UNL A   1      49.295  26.779  26.994  1.00  0.00     0.058 A 
ATOM     95  C   UNL A   1      50.179  26.352  27.995  1.00  0.00     0.135 A 
ATOM     96  C   UNL A   1      49.741  26.762  25.663  1.00  0.00     0.135 A 
ATOM     97  F   UNL A   1      49.801  26.361  29.283  1.00  0.00    -0.206 F 
ATOM     98  C   UNL A   1      51.467  25.931  27.688  1.00  0.00     0.059 A 
ATOM     99  C   UNL A   1      51.011  26.310  25.330  1.00  0.00     0.059 A 
ATOM    100  F   UNL A   1      48.927  27.153  24.670  1.00  0.00    -0.206 F 
ATOM    101  C   UNL A   1      51.869  25.902  26.351  1.00  0.00     0.060 A 
BRANCH 101 102
ATOM    102  S   UNL A   1      53.520  25.289  25.969  1.00  0.00     0.124 S 
ATOM    103  O   UNL A   1      53.983  26.274  24.998  1.00  0.00    -0.237 OA
ATOM    104  O   UNL A   1      54.173  25.326  27.273  1.00  0.00    -0.237 OA
ATOM    105  O   UNL A   1      53.272  23.952  25.435  1.00  0.00    -0.744 OA
ENDBRANCH 101 102
ENDBRANCH  69  94
ENDBRANCH  43  44
ENDBRANCH  35  38
ENDBRANCH  33  34
ENDBRANCH   1  33
TORSDOF 16
ENDMDL
MODEL 2
REMARK VINA RESULT:     -14.6      6.205     11.584
REMARK SMILES COC(=O)c1ccc([C@H]2Nc3c(C(=O)NCCCNC(=O)c4ccc(-c5c6nc(c(-c7c(F)cc(S(=O)(=O)[O-])cc7F)c7ccc([nH]7)c(-c7c(F)cc(S(=O)(=O)[O-])cc7F)c7nc(c(-c8c(F)cc(S(=O)(=O)[O-])cc8F)c8ccc5[nH]8)C=C7)C=C6)cc4)cccc3[C@@H]3[C@@H]4CC[C@@H](C4)[C@@H]32)cc1
REMARK SMILES IDX 17 1 16 2 15 3 13 4 14 5 12 7 9 8 10 9 98 10 11 11 92 13
REMARK SMILES IDX 96 14 91 15 93 16 95 17 97 18 88 19 90 20 94 21 89 22 8 23
REMARK SMILES IDX 5 24 6 25 100 26 7 27 99 28 3 29 4 30 2 31 1 32 18 33 19 34
REMARK SMILES IDX 20 35 21 37 22 38 23 39 87 40 24 41 86 42 25 43 26 44 27 45
REMARK SMILES IDX 80 46 28 47 85 48 79 49 81 50 29 51 84 52 78 53 77 54 30 56
REMARK SMILES IDX 64 57 43 58 63 59 44 60 47 61 62 62 82 63 45 64 46 65 61 67
REMARK SMILES IDX 83 68 48 69 31 70 32 71 41 72 33 73 34 74 40 75 42 76 35 77
REMARK SMILES IDX 36 78 37 79 38 80 39 81 65 82 66 83 75 84 67 85 68 86 74 87
REMARK SMILES IDX 76 88 69 89 70 90 71 91 72 92 73 93 49 94 50 95 59 96 51 97
REMARK SMILES IDX 52 98 58 99 60 100 53 101 54 102 55 103 56 104 57 105
REMARK H PARENT 15 6 10 12 19 36 81 55 47 66
REMARK Flexibility Score: inf
ROOT
ATOM      1  C   UNL A   1      37.267  24.022  25.883  1.00  0.00     0.042 C 
ENDROOT
BRANCH   1   2
ATOM      2  C   UNL A   1      36.683  23.789  23.777  1.00  0.00     0.118 C 
BRANCH   2   3
ATOM      3  N   UNL A   1      35.316  23.249  23.023  1.00  0.00    -0.352 N 
ATOM      4  C   UNL A   1      34.038  23.559  22.582  1.00  0.00     0.253 C 
ATOM      5  O   UNL A   1      33.486  22.577  22.052  1.00  0.00    -0.269 OA
ATOM      6  H   UNL A   1      35.477  22.308  22.784  1.00  0.00     0.163 HD
BRANCH   4   7
ATOM      7  C   UNL A   1      33.183  24.831  22.657  1.00  0.00     0.063 A 
ATOM      8  C   UNL A   1      33.289  25.142  26.130  1.00  0.00     0.113 C 
ATOM      9  N   UNL A   1      32.555  24.933  24.970  1.00  0.00    -0.377 N 
ATOM     10  C   UNL A   1      32.326  26.356  26.538  1.00  0.00     0.027 C 
ATOM     11  C   UNL A   1      32.686  25.513  23.773  1.00  0.00     0.051 A 
ATOM     12  H   UNL A   1      31.836  24.264  25.039  1.00  0.00     0.161 HD
ATOM     13  C   UNL A   1      31.361  26.988  25.262  1.00  0.00     0.030 C 
ATOM     14  C   UNL A   1      32.911  27.704  27.044  1.00  0.00    -0.005 C 
ATOM     15  C   UNL A   1      31.822  26.618  23.807  1.00  0.00    -0.020 A 
ATOM     16  C   UNL A   1      31.364  28.492  25.575  1.00  0.00    -0.003 C 
ATOM     17  C   UNL A   1      33.719  28.492  25.982  1.00  0.00     0.004 C 
ATOM     18  C   UNL A   1      31.620  28.551  27.088  1.00  0.00     0.008 C 
ATOM     19  C   UNL A   1      32.712  25.351  21.451  1.00  0.00     0.016 A 
ATOM     20  C   UNL A   1      31.361  27.080  22.592  1.00  0.00     0.006 A 
ATOM     21  C   UNL A   1      32.661  29.105  25.049  1.00  0.00     0.004 C 
ATOM     22  C   UNL A   1      31.815  26.446  21.419  1.00  0.00     0.001 A 
BRANCH   8  23
ATOM     23  C   UNL A   1      33.272  23.548  26.253  1.00  0.00    -0.025 A 
ATOM     24  C   UNL A   1      33.344  20.096  25.097  1.00  0.00     0.060 A 
ATOM     25  C   UNL A   1      31.984  21.107  24.695  1.00  0.00     0.016 A 
ATOM     26  C   UNL A   1      34.745  20.791  26.074  1.00  0.00     0.016 A 
ATOM     27  C   UNL A   1      31.911  22.744  25.292  1.00  0.00     0.007 A 
ATOM     28  C   UNL A   1      34.706  22.511  26.670  1.00  0.00     0.007 A 
BRANCH  24  29
ATOM     29  C   UNL A   1      32.820  18.676  25.002  1.00  0.00     0.337 C 
ATOM     30  O   UNL A   1      32.057  18.104  25.746  1.00  0.00    -0.246 OA
BRANCH  29  31
ATOM     31  O   UNL A   1      33.203  18.305  23.748  1.00  0.00    -0.465 OA
ATOM     32  C   UNL A   1      32.372  17.994  22.625  1.00  0.00     0.282 C 
ENDBRANCH  29  31
ENDBRANCH  24  29
ENDBRANCH   8  23
ENDBRANCH   4   7
ENDBRANCH   2   3
ENDBRANCH   1   2
BRANCH   1  33
ATOM     33  C   UNL A   1      38.719  24.393  26.809  1.00  0.00     0.118 C 
BRANCH  33  34
ATOM     34  N   UNL A   1      40.059  24.478  26.219  1.00  0.00    -0.352 N 
ATOM     35  C   UNL A   1      40.867  25.552  26.068  1.00  0.00     0.251 C 
ATOM     36  H   UNL A   1      40.423  23.628  25.883  1.00  0.00     0.163 HD
ATOM     37  O   UNL A   1      41.541  25.735  25.068  1.00  0.00    -0.269 OA
BRANCH  35  38
ATOM     38  C   UNL A   1      41.046  26.313  27.285  1.00  0.00     0.039 A 
ATOM     39  C   UNL A   1      41.853  27.438  27.265  1.00  0.00     0.014 A 
ATOM     40  C   UNL A   1      40.273  25.926  28.388  1.00  0.00     0.014 A 
ATOM     41  C   UNL A   1      41.834  28.247  28.381  1.00  0.00     0.010 A 
ATOM     42  C   UNL A   1      40.178  26.786  29.450  1.00  0.00     0.010 A 
ATOM     43  C   UNL A   1      40.960  27.946  29.442  1.00  0.00    -0.014 A 
BRANCH  43  44
ATOM     44  C   UNL A   1      40.825  28.873  30.566  1.00  0.00     0.031 A 
ATOM     45  C   UNL A   1      41.744  28.726  31.732  1.00  0.00     0.074 A 
ATOM     46  C   UNL A   1      39.828  29.770  30.519  1.00  0.00     0.049 A 
ATOM     47  N   UNL A   1      41.767  29.414  32.837  1.00  0.00    -0.248 NA
ATOM     48  C   UNL A   1      42.741  27.639  31.672  1.00  0.00     0.031 C 
ATOM     49  C   UNL A   1      38.850  29.897  29.431  1.00  0.00     0.029 A 
ATOM     50  N   UNL A   1      39.472  30.747  31.401  1.00  0.00    -0.354 N 
ATOM     51  C   UNL A   1      42.773  28.844  33.600  1.00  0.00     0.074 A 
ATOM     52  C   UNL A   1      43.279  27.701  32.879  1.00  0.00     0.031 C 
ATOM     53  C   UNL A   1      38.038  30.932  29.689  1.00  0.00     0.029 A 
ATOM     54  C   UNL A   1      38.402  31.498  30.981  1.00  0.00     0.049 A 
ATOM     55  H   UNL A   1      39.935  30.899  32.256  1.00  0.00     0.167 HD
ATOM     56  C   UNL A   1      43.250  29.273  34.787  1.00  0.00     0.037 A 
ATOM     57  C   UNL A   1      37.788  32.526  31.591  1.00  0.00     0.037 A 
ATOM     58  C   UNL A   1      42.727  30.429  35.461  1.00  0.00     0.049 A 
ATOM     59  C   UNL A   1      38.329  32.970  32.921  1.00  0.00     0.074 A 
ATOM     60  C   UNL A   1      43.158  31.005  36.638  1.00  0.00     0.029 A 
ATOM     61  N   UNL A   1      41.643  31.177  35.014  1.00  0.00    -0.354 N 
ATOM     62  N   UNL A   1      39.351  32.492  33.593  1.00  0.00    -0.248 NA
ATOM     63  C   UNL A   1      37.641  34.086  33.575  1.00  0.00     0.031 C 
ATOM     64  C   UNL A   1      42.292  32.059  36.941  1.00  0.00     0.029 A 
ATOM     65  C   UNL A   1      41.363  32.184  35.917  1.00  0.00     0.049 A 
ATOM     66  H   UNL A   1      41.149  31.011  34.179  1.00  0.00     0.167 HD
ATOM     67  C   UNL A   1      39.436  33.257  34.748  1.00  0.00     0.074 A 
ATOM     68  C   UNL A   1      38.381  34.249  34.663  1.00  0.00     0.031 C 
ATOM     69  C   UNL A   1      40.297  33.150  35.790  1.00  0.00     0.037 A 
BRANCH  56  70
ATOM     70  C   UNL A   1      44.373  28.498  35.410  1.00  0.00     0.058 A 
ATOM     71  C   UNL A   1      44.138  27.440  36.305  1.00  0.00     0.135 A 
ATOM     72  C   UNL A   1      45.705  28.803  35.093  1.00  0.00     0.135 A 
ATOM     73  F   UNL A   1      42.884  27.125  36.668  1.00  0.00    -0.206 F 
ATOM     74  C   UNL A   1      45.184  26.727  36.878  1.00  0.00     0.059 A 
ATOM     75  C   UNL A   1      46.766  28.079  35.626  1.00  0.00     0.059 A 
ATOM     76  F   UNL A   1      45.987  29.816  34.259  1.00  0.00    -0.206 F 
ATOM     77  C   UNL A   1      46.495  27.049  36.524  1.00  0.00     0.060 A 
BRANCH  77  78
ATOM     78  S   UNL A   1      47.837  26.084  37.248  1.00  0.00     0.124 S 
ATOM     79  O   UNL A   1      47.455  24.726  36.875  1.00  0.00    -0.237 OA
ATOM     80  O   UNL A   1      49.007  26.625  36.564  1.00  0.00    -0.237 OA
ATOM     81  O   UNL A   1      47.746  26.392  38.672  1.00  0.00    -0.744 OA
ENDBRANCH  77  78
ENDBRANCH  56  70
BRANCH  57  82
ATOM     82  C   UNL A   1      36.627  33.189  30.947  1.00  0.00     0.058 A 
ATOM     83  C   UNL A   1      35.324  32.992  31.427  1.00  0.00     0.135 A 
ATOM     84  C   UNL A   1      36.798  34.056  29.855  1.00  0.00     0.135 A 
ATOM     85  F   UNL A   1      35.110  32.180  32.472  1.00  0.00    -0.206 F 
ATOM     86  C   UNL A   1      34.229  33.611  30.833  1.00  0.00     0.059 A 
ATOM     87  C   UNL A   1      35.722  34.711  29.265  1.00  0.00     0.059 A 
ATOM     88  F   UNL A   1      38.027  34.301  29.373  1.00  0.00    -0.206 F 
ATOM     89  C   UNL A   1      34.439  34.471  29.754  1.00  0.00     0.060 A 
BRANCH  89  90
ATOM     90  S   UNL A   1      33.015  35.297  29.017  1.00  0.00     0.124 S 
ATOM     91  O   UNL A   1      32.165  35.511  30.183  1.00  0.00    -0.237 OA
ATOM     92  O   UNL A   1      33.622  36.492  28.440  1.00  0.00    -0.237 OA
ATOM     93  O   UNL A   1      32.524  34.322  28.048  1.00  0.00    -0.744 OA
ENDBRANCH  89  90
ENDBRANCH  57  82
BRANCH  69  94
ATOM     94  C   UNL A   1      40.132  34.130  36.916  1.00  0.00     0.058 A 
ATOM     95  C   UNL A   1      40.830  35.346  36.931  1.00  0.00     0.135 A 
ATOM     96  C   UNL A   1      39.202  33.886  37.939  1.00  0.00     0.135 A 
ATOM     97  F   UNL A   1      41.737  35.619  35.980  1.00  0.00    -0.206 F 
ATOM     98  C   UNL A   1      40.623  36.284  37.934  1.00  0.00     0.059 A 
ATOM     99  C   UNL A   1      38.951  34.827  38.930  1.00  0.00     0.059 A 
ATOM    100  F   UNL A   1      38.503  32.741  37.961  1.00  0.00    -0.206 F 
ATOM    101  C   UNL A   1      39.672  36.020  38.922  1.00  0.00     0.060 A 
BRANCH 101 102
ATOM    102  S   UNL A   1      39.369  37.281  40.175  1.00  0.00     0.124 S 
ATOM    103  O   UNL A   1      40.714  37.794  40.408  1.00  0.00    -0.237 OA
ATOM    104  O   UNL A   1      38.454  38.185  39.486  1.00  0.00    -0.237 OA
ATOM    105  O   UNL A   1      38.785  36.527  41.281  1.00  0.00    -0.744 OA
ENDBRANCH 101 102
ENDBRANCH  69  94
ENDBRANCH  43  44
ENDBRANCH  35  38
ENDBRANCH  33  34
ENDBRANCH   1  33
TORSDOF 16
ENDMDL
MODEL 3
REMARK VINA RESULT:     -14.4      6.379     11.218
REMARK SMILES COC(=O)c1ccc([C@H]2Nc3c(C(=O)NCCCNC(=O)c4ccc(-c5c6nc(c(-c7c(F)cc(S(=O)(=O)[O-])cc7F)c7ccc([nH]7)c(-c7c(F)cc(S(=O)(=O)[O-])cc7F)c7nc(c(-c8c(F)cc(S(=O)(=O)[O-])cc8F)c8ccc5[nH]8)C=C7)C=C6)cc4)cccc3[C@@H]3[C@@H]4CC[C@@H](C4)[C@@H]32)cc1
REMARK SMILES IDX 17 1 16 2 15 3 13 4 14 5 12 7 9 8 10 9 98 10 11 11 92 13
REMARK SMILES IDX 96 14 91 15 93 16 95 17 97 18 88 19 90 20 94 21 89 22 8 23
REMARK SMILES IDX 5 24 6 25 100 26 7 27 99 28 3 29 4 30 2 31 1 32 18 33 19 34
REMARK SMILES IDX 20 35 21 37 22 38 23 39 87 40 24 41 86 42 25 43 26 44 27 45
REMARK SMILES IDX 80 46 28 47 85 48 79 49 81 50 29 51 84 52 78 53 77 54 30 56
REMARK SMILES IDX 64 57 43 58 63 59 44 60 47 61 62 62 82 63 45 64 46 65 61 67
REMARK SMILES IDX 83 68 48 69 31 70 32 71 41 72 33 73 34 74 40 75 42 76 35 77
REMARK SMILES IDX 36 78 37 79 38 80 39 81 65 82 66 83 75 84 67 85 68 86 74 87
REMARK SMILES IDX 76 88 69 89 70 90 71 91 72 92 73 93 49 94 50 95 59 96 51 97
REMARK SMILES IDX 52 98 58 99 60 100 53 101 54 102 55 103 56 104 57 105
REMARK H PARENT 15 6 10 12 19 36 81 55 47 66
REMARK Flexibility Score: inf
ROOT
ATOM      1  C   UNL A   1      37.403  23.783  25.808  1.00  0.00     0.042 C 
ENDROOT
BRANCH   1   2
ATOM      2  C   UNL A   1      36.682  23.705  23.733  1.00  0.00     0.118 C 
BRANCH   2   3
ATOM      3  N   UNL A   1      35.299  23.147  23.024  1.00  0.00    -0.352 N 
ATOM      4  C   UNL A   1      34.013  23.448  22.601  1.00  0.00     0.253 C 
ATOM      5  O   UNL A   1      33.447  22.453  22.112  1.00  0.00    -0.269 OA
ATOM      6  H   UNL A   1      35.452  22.199  22.810  1.00  0.00     0.163 HD
BRANCH   4   7
ATOM      7  C   UNL A   1      33.163  24.724  22.655  1.00  0.00     0.063 A 
ATOM      8  C   UNL A   1      33.346  25.142  26.113  1.00  0.00     0.113 C 
ATOM      9  N   UNL A   1      32.586  24.900  24.976  1.00  0.00    -0.377 N 
ATOM     10  C   UNL A   1      32.396  26.371  26.504  1.00  0.00     0.027 C 
ATOM     11  C   UNL A   1      32.692  25.442  23.760  1.00  0.00     0.051 A 
ATOM     12  H   UNL A   1      31.867  24.235  25.082  1.00  0.00     0.161 HD
ATOM     13  C   UNL A   1      31.404  26.967  25.231  1.00  0.00     0.030 C 
ATOM     14  C   UNL A   1      32.995  27.733  26.956  1.00  0.00    -0.005 C 
ATOM     15  C   UNL A   1      31.832  26.551  23.779  1.00  0.00    -0.020 A 
ATOM     16  C   UNL A   1      31.419  28.480  25.497  1.00  0.00    -0.003 C 
ATOM     17  C   UNL A   1      33.782  28.485  25.852  1.00  0.00     0.004 C 
ATOM     18  C   UNL A   1      31.708  28.584  27.002  1.00  0.00     0.008 C 
ATOM     19  C   UNL A   1      32.666  25.209  21.444  1.00  0.00     0.016 A 
ATOM     20  C   UNL A   1      31.346  26.976  22.560  1.00  0.00     0.006 A 
ATOM     21  C   UNL A   1      32.705  29.072  24.925  1.00  0.00     0.004 C 
ATOM     22  C   UNL A   1      31.772  26.305  21.398  1.00  0.00     0.001 A 
BRANCH   8  23
ATOM     23  C   UNL A   1      33.328  23.553  26.286  1.00  0.00    -0.025 A 
ATOM     24  C   UNL A   1      33.325  20.067  25.235  1.00  0.00     0.060 A 
ATOM     25  C   UNL A   1      31.952  21.073  24.869  1.00  0.00     0.016 A 
ATOM     26  C   UNL A   1      34.777  20.783  26.119  1.00  0.00     0.016 A 
ATOM     27  C   UNL A   1      31.916  22.728  25.419  1.00  0.00     0.007 A 
ATOM     28  C   UNL A   1      34.776  22.520  26.663  1.00  0.00     0.007 A 
BRANCH  24  29
ATOM     29  C   UNL A   1      32.791  18.648  25.209  1.00  0.00     0.337 C 
ATOM     30  O   UNL A   1      32.162  18.066  26.063  1.00  0.00    -0.246 OA
BRANCH  29  31
ATOM     31  O   UNL A   1      32.959  18.294  23.904  1.00  0.00    -0.465 OA
ATOM     32  C   UNL A   1      33.440  17.052  23.380  1.00  0.00     0.282 C 
ENDBRANCH  29  31
ENDBRANCH  24  29
ENDBRANCH   8  23
ENDBRANCH   4   7
ENDBRANCH   2   3
ENDBRANCH   1   2
BRANCH   1  33
ATOM     33  C   UNL A   1      38.755  24.473  26.702  1.00  0.00     0.118 C 
BRANCH  33  34
ATOM     34  N   UNL A   1      40.076  24.720  26.115  1.00  0.00    -0.352 N 
ATOM     35  C   UNL A   1      40.796  25.864  26.065  1.00  0.00     0.251 C 
ATOM     36  H   UNL A   1      40.501  23.938  25.695  1.00  0.00     0.163 HD
ATOM     37  O   UNL A   1      41.440  26.196  25.083  1.00  0.00    -0.269 OA
BRANCH  35  38
ATOM     38  C   UNL A   1      40.932  26.515  27.350  1.00  0.00     0.039 A 
ATOM     39  C   UNL A   1      41.852  27.540  27.492  1.00  0.00     0.014 A 
ATOM     40  C   UNL A   1      40.017  26.144  28.343  1.00  0.00     0.014 A 
ATOM     41  C   UNL A   1      41.807  28.269  28.661  1.00  0.00     0.010 A 
ATOM     42  C   UNL A   1      39.907  26.935  29.456  1.00  0.00     0.010 A 
ATOM     43  C   UNL A   1      40.805  27.997  29.611  1.00  0.00    -0.014 A 
BRANCH  43  44
ATOM     44  C   UNL A   1      40.658  28.854  30.787  1.00  0.00     0.031 A 
ATOM     45  C   UNL A   1      39.619  29.924  30.771  1.00  0.00     0.074 A 
ATOM     46  C   UNL A   1      41.519  28.675  31.802  1.00  0.00     0.049 A 
ATOM     47  N   UNL A   1      39.353  30.809  31.689  1.00  0.00    -0.248 NA
ATOM     48  C   UNL A   1      38.799  30.049  29.550  1.00  0.00     0.031 C 
ATOM     49  C   UNL A   1      42.608  27.689  31.826  1.00  0.00     0.029 A 
ATOM     50  N   UNL A   1      41.615  29.307  33.005  1.00  0.00    -0.354 N 
ATOM     51  C   UNL A   1      38.342  31.593  31.157  1.00  0.00     0.074 A 
ATOM     52  C   UNL A   1      38.100  31.142  29.807  1.00  0.00     0.031 C 
ATOM     53  C   UNL A   1      43.227  27.751  33.014  1.00  0.00     0.029 A 
ATOM     54  C   UNL A   1      42.618  28.813  33.803  1.00  0.00     0.049 A 
ATOM     55  H   UNL A   1      41.025  30.046  33.277  1.00  0.00     0.167 HD
ATOM     56  C   UNL A   1      37.654  32.578  31.771  1.00  0.00     0.037 A 
ATOM     57  C   UNL A   1      42.997  29.196  35.034  1.00  0.00     0.037 A 
ATOM     58  C   UNL A   1      37.918  32.980  33.124  1.00  0.00     0.049 A 
ATOM     59  C   UNL A   1      42.226  30.309  35.685  1.00  0.00     0.074 A 
ATOM     60  C   UNL A   1      37.258  33.924  33.884  1.00  0.00     0.029 A 
ATOM     61  N   UNL A   1      38.939  32.464  33.914  1.00  0.00    -0.354 N 
ATOM     62  N   UNL A   1      41.199  30.980  35.217  1.00  0.00    -0.248 NA
ATOM     63  C   UNL A   1      42.660  30.718  37.023  1.00  0.00     0.031 C 
ATOM     64  C   UNL A   1      37.922  34.028  35.109  1.00  0.00     0.029 A 
ATOM     65  C   UNL A   1      38.954  33.101  35.140  1.00  0.00     0.049 A 
ATOM     66  H   UNL A   1      39.559  31.750  33.640  1.00  0.00     0.167 HD
ATOM     67  C   UNL A   1      40.854  31.887  36.210  1.00  0.00     0.074 A 
ATOM     68  C   UNL A   1      41.765  31.653  37.315  1.00  0.00     0.031 C 
ATOM     69  C   UNL A   1      39.884  32.834  36.212  1.00  0.00     0.037 A 
BRANCH  56  70
ATOM     70  C   UNL A   1      36.575  33.268  30.990  1.00  0.00     0.058 A 
ATOM     71  C   UNL A   1      36.871  34.166  29.950  1.00  0.00     0.135 A 
ATOM     72  C   UNL A   1      35.225  33.013  31.271  1.00  0.00     0.135 A 
ATOM     73  F   UNL A   1      38.145  34.471  29.658  1.00  0.00    -0.206 F 
ATOM     74  C   UNL A   1      35.865  34.801  29.231  1.00  0.00     0.059 A 
ATOM     75  C   UNL A   1      34.202  33.609  30.540  1.00  0.00     0.059 A 
ATOM     76  F   UNL A   1      34.887  32.178  32.267  1.00  0.00    -0.206 F 
ATOM     77  C   UNL A   1      34.533  34.508  29.529  1.00  0.00     0.060 A 
BRANCH  77  78
ATOM     78  S   UNL A   1      33.244  35.313  28.557  1.00  0.00     0.124 S 
ATOM     79  O   UNL A   1      34.034  36.110  27.625  1.00  0.00    -0.237 OA
ATOM     80  O   UNL A   1      32.539  34.173  27.979  1.00  0.00    -0.237 OA
ATOM     81  O   UNL A   1      32.493  36.072  29.552  1.00  0.00    -0.744 OA
ENDBRANCH  77  78
ENDBRANCH  56  70
BRANCH  57  82
ATOM     82  C   UNL A   1      44.132  28.518  35.709  1.00  0.00     0.058 A 
ATOM     83  C   UNL A   1      43.919  27.426  36.562  1.00  0.00     0.135 A 
ATOM     84  C   UNL A   1      45.457  28.929  35.492  1.00  0.00     0.135 A 
ATOM     85  F   UNL A   1      42.672  26.991  36.795  1.00  0.00    -0.206 F 
ATOM     86  C   UNL A   1      44.975  26.781  37.196  1.00  0.00     0.059 A 
ATOM     87  C   UNL A   1      46.533  28.280  36.089  1.00  0.00     0.059 A 
ATOM     88  F   UNL A   1      45.720  29.952  34.663  1.00  0.00    -0.206 F 
ATOM     89  C   UNL A   1      46.279  27.214  36.950  1.00  0.00     0.060 A 
BRANCH  89  90
ATOM     90  S   UNL A   1      47.643  26.344  37.749  1.00  0.00     0.124 S 
ATOM     91  O   UNL A   1      48.356  27.443  38.390  1.00  0.00    -0.237 OA
ATOM     92  O   UNL A   1      46.939  25.430  38.642  1.00  0.00    -0.237 OA
ATOM     93  O   UNL A   1      48.337  25.708  36.632  1.00  0.00    -0.744 OA
ENDBRANCH  89  90
ENDBRANCH  57  82
BRANCH  69  94
ATOM     94  C   UNL A   1      39.759  33.681  37.445  1.00  0.00     0.058 A 
ATOM     95  C   UNL A   1      40.474  34.879  37.581  1.00  0.00     0.135 A 
ATOM     96  C   UNL A   1      38.850  33.332  38.458  1.00  0.00     0.135 A 
ATOM     97  F   UNL A   1      41.362  35.249  36.644  1.00  0.00    -0.206 F 
ATOM     98  C   UNL A   1      40.303  35.700  38.688  1.00  0.00     0.059 A 
ATOM     99  C   UNL A   1      38.636  34.157  39.554  1.00  0.00     0.059 A 
ATOM    100  F   UNL A   1      38.136  32.200  38.366  1.00  0.00    -0.206 F 
ATOM    101  C   UNL A   1      39.372  35.336  39.663  1.00  0.00     0.060 A 
BRANCH 101 102
ATOM    102  S   UNL A   1      39.116  36.449  41.058  1.00  0.00     0.124 S 
ATOM    103  O   UNL A   1      38.585  37.635  40.395  1.00  0.00    -0.237 OA
ATOM    104  O   UNL A   1      38.169  35.702  41.879  1.00  0.00    -0.237 OA
ATOM    105  O   UNL A   1      40.453  36.596  41.627  1.00  0.00    -0.744 OA
ENDBRANCH 101 102
ENDBRANCH  69  94
ENDBRANCH  43  44
ENDBRANCH  35  38
ENDBRANCH  33  34
ENDBRANCH   1  33
TORSDOF 16
ENDMDL
