MODEL 1
REMARK VINA RESULT:     -12.3      0.000      0.000
REMARK SMILES Cc1cc(F)cc(N[C@H](C(=O)NCCCNC(=O)c2ccc(-c3c4nc(c(-c5c(F)cc(S(=O)(=O)[O-])cc5F)c5ccc([nH]5)c(-c5c(F)cc(S(=O)(=O)[O-])cc5F)c5nc(c(-c6c(F)cc(S(=O)(=O)[O-])cc6F)c6ccc3[nH]6)C=C5)C=C4)cc2)c2cc(C)cc(C)c2)c1
REMARK SMILES IDX 14 1 13 2 12 3 10 4 11 5 9 7 8 8 7 10 1 11 2 12 3 13 93 14
REMARK SMILES IDX 4 15 5 16 6 17 85 18 86 19 92 20 87 21 90 22 88 23 89 24
REMARK SMILES IDX 91 25 15 26 16 27 17 28 18 30 19 31 20 32 84 33 21 34 83 35
REMARK SMILES IDX 22 36 23 37 24 38 77 39 25 40 82 41 76 42 78 43 26 44 81 45
REMARK SMILES IDX 75 46 74 47 27 49 61 50 40 51 60 52 41 53 44 54 59 55 79 56
REMARK SMILES IDX 42 57 43 58 58 60 80 61 45 62 28 63 29 64 38 65 30 66 31 67
REMARK SMILES IDX 37 68 39 69 32 70 33 71 34 72 35 73 36 74 62 75 63 76 72 77
REMARK SMILES IDX 64 78 65 79 71 80 73 81 66 82 67 83 68 84 69 85 70 86 46 87
REMARK SMILES IDX 47 88 56 89 48 90 49 91 55 92 57 93 50 94 51 95 52 96 53 97
REMARK SMILES IDX 54 98
REMARK H PARENT 12 6 8 9 16 29 78 48 44 59
REMARK Flexibility Score: inf
ROOT
ATOM      1  C   UNL A   1      32.175  28.239  26.708  1.00  0.00     0.042 C 
ENDROOT
BRANCH   1   2
ATOM      2  C   UNL A   1      31.655  29.120  25.588  1.00  0.00     0.117 C 
BRANCH   2   3
ATOM      3  N   UNL A   1      32.594  29.287  24.498  1.00  0.00    -0.354 N 
ATOM      4  C   UNL A   1      32.518  28.861  23.203  1.00  0.00     0.247 C 
ATOM      5  O   UNL A   1      33.456  29.222  22.480  1.00  0.00    -0.272 OA
ATOM      6  H   UNL A   1      33.412  29.784  24.726  1.00  0.00     0.163 HD
BRANCH   4   7
ATOM      7  C   UNL A   1      31.420  27.883  22.691  1.00  0.00     0.200 C 
BRANCH   7   8
ATOM      8  N   UNL A   1      31.305  26.585  23.405  1.00  0.00    -0.370 N 
ATOM      9  H   UNL A   1      30.453  26.465  23.883  1.00  0.00     0.161 HD
BRANCH   8  10
ATOM     10  C   UNL A   1      32.170  25.514  23.526  1.00  0.00     0.038 A 
ATOM     11  C   UNL A   1      32.165  21.815  22.486  1.00  0.00     0.044 C 
ATOM     12  C   UNL A   1      32.609  23.130  23.049  1.00  0.00    -0.046 A 
ATOM     13  C   UNL A   1      33.886  23.242  23.593  1.00  0.00     0.042 A 
ATOM     14  C   UNL A   1      31.757  24.254  23.052  1.00  0.00     0.029 A 
ATOM     15  C   UNL A   1      34.306  24.470  24.063  1.00  0.00     0.125 A 
ATOM     16  F   UNL A   1      35.534  24.599  24.583  1.00  0.00    -0.207 F 
ATOM     17  C   UNL A   1      33.476  25.585  23.996  1.00  0.00     0.065 A 
ENDBRANCH   8  10
ENDBRANCH   7   8
BRANCH   7  18
ATOM     18  C   UNL A   1      30.042  28.511  22.495  1.00  0.00    -0.016 A 
ATOM     19  C   UNL A   1      29.913  29.779  21.915  1.00  0.00     0.009 A 
ATOM     20  C   UNL A   1      28.902  27.917  23.055  1.00  0.00     0.009 A 
ATOM     21  C   UNL A   1      28.783  30.561  22.156  1.00  0.00    -0.051 A 
ATOM     22  C   UNL A   1      27.693  28.623  23.130  1.00  0.00    -0.051 A 
ATOM     23  C   UNL A   1      28.884  32.052  21.998  1.00  0.00     0.044 C 
ATOM     24  C   UNL A   1      27.667  29.970  22.747  1.00  0.00     0.006 A 
ATOM     25  C   UNL A   1      26.471  27.992  23.725  1.00  0.00     0.044 C 
ENDBRANCH   7  18
ENDBRANCH   4   7
ENDBRANCH   2   3
ENDBRANCH   1   2
BRANCH   1  26
ATOM     26  C   UNL A   1      33.509  28.677  27.286  1.00  0.00     0.118 C 
BRANCH  26  27
ATOM     27  N   UNL A   1      33.521  30.065  27.730  1.00  0.00    -0.352 N 
ATOM     28  C   UNL A   1      34.518  30.791  28.341  1.00  0.00     0.251 C 
ATOM     29  H   UNL A   1      32.686  30.561  27.569  1.00  0.00     0.163 HD
ATOM     30  O   UNL A   1      34.276  31.914  28.777  1.00  0.00    -0.269 OA
BRANCH  28  31
ATOM     31  C   UNL A   1      35.865  30.204  28.509  1.00  0.00     0.039 A 
ATOM     32  C   UNL A   1      36.759  30.230  27.435  1.00  0.00     0.014 A 
ATOM     33  C   UNL A   1      36.261  29.654  29.729  1.00  0.00     0.014 A 
ATOM     34  C   UNL A   1      38.073  29.792  27.618  1.00  0.00     0.010 A 
ATOM     35  C   UNL A   1      37.595  29.333  29.943  1.00  0.00     0.010 A 
ATOM     36  C   UNL A   1      38.518  29.388  28.888  1.00  0.00    -0.014 A 
BRANCH  36  37
ATOM     37  C   UNL A   1      39.932  29.003  29.139  1.00  0.00     0.031 A 
ATOM     38  C   UNL A   1      40.890  30.013  29.718  1.00  0.00     0.074 A 
ATOM     39  C   UNL A   1      40.372  27.781  28.773  1.00  0.00     0.049 A 
ATOM     40  N   UNL A   1      42.178  29.907  29.919  1.00  0.00    -0.248 NA
ATOM     41  C   UNL A   1      40.337  31.328  30.086  1.00  0.00     0.031 C 
ATOM     42  C   UNL A   1      39.556  26.735  28.151  1.00  0.00     0.029 A 
ATOM     43  N   UNL A   1      41.619  27.213  28.862  1.00  0.00    -0.354 N 
ATOM     44  C   UNL A   1      42.589  31.144  30.404  1.00  0.00     0.074 A 
ATOM     45  C   UNL A   1      41.427  32.002  30.420  1.00  0.00     0.031 C 
ATOM     46  C   UNL A   1      40.314  25.645  27.945  1.00  0.00     0.029 A 
ATOM     47  C   UNL A   1      41.679  25.927  28.375  1.00  0.00     0.049 A 
ATOM     48  H   UNL A   1      42.398  27.682  29.239  1.00  0.00     0.167 HD
ATOM     49  C   UNL A   1      43.820  31.523  30.821  1.00  0.00     0.037 A 
ATOM     50  C   UNL A   1      42.719  25.075  28.279  1.00  0.00     0.037 A 
ATOM     51  C   UNL A   1      44.959  30.646  30.859  1.00  0.00     0.049 A 
ATOM     52  C   UNL A   1      44.074  25.520  28.767  1.00  0.00     0.074 A 
ATOM     53  C   UNL A   1      46.224  30.904  31.355  1.00  0.00     0.029 A 
ATOM     54  N   UNL A   1      44.972  29.343  30.386  1.00  0.00    -0.354 N 
ATOM     55  N   UNL A   1      44.423  26.667  29.300  1.00  0.00    -0.248 NA
ATOM     56  C   UNL A   1      45.176  24.556  28.643  1.00  0.00     0.031 C 
ATOM     57  C   UNL A   1      47.018  29.775  31.133  1.00  0.00     0.029 A 
ATOM     58  C   UNL A   1      46.231  28.794  30.552  1.00  0.00     0.049 A 
ATOM     59  H   UNL A   1      44.200  28.877  29.991  1.00  0.00     0.167 HD
ATOM     60  C   UNL A   1      45.774  26.546  29.610  1.00  0.00     0.074 A 
ATOM     61  C   UNL A   1      46.176  25.212  29.214  1.00  0.00     0.031 C 
ATOM     62  C   UNL A   1      46.607  27.455  30.173  1.00  0.00     0.037 A 
BRANCH  49  63
ATOM     63  C   UNL A   1      44.007  32.942  31.285  1.00  0.00     0.058 A 
ATOM     64  C   UNL A   1      44.424  33.958  30.411  1.00  0.00     0.135 A 
ATOM     65  C   UNL A   1      43.692  33.302  32.605  1.00  0.00     0.135 A 
ATOM     66  F   UNL A   1      44.755  33.668  29.143  1.00  0.00    -0.206 F 
ATOM     67  C   UNL A   1      44.532  35.280  30.832  1.00  0.00     0.059 A 
ATOM     68  C   UNL A   1      43.766  34.622  33.041  1.00  0.00     0.059 A 
ATOM     69  F   UNL A   1      43.295  32.368  33.484  1.00  0.00    -0.206 F 
ATOM     70  C   UNL A   1      44.193  35.603  32.148  1.00  0.00     0.060 A 
BRANCH  70  71
ATOM     71  S   UNL A   1      44.295  37.329  32.664  1.00  0.00     0.124 S 
ATOM     72  O   UNL A   1      43.802  38.018  31.474  1.00  0.00    -0.237 OA
ATOM     73  O   UNL A   1      43.412  37.360  33.825  1.00  0.00    -0.237 OA
ATOM     74  O   UNL A   1      45.714  37.516  32.952  1.00  0.00    -0.744 OA
ENDBRANCH  70  71
ENDBRANCH  49  63
BRANCH  50  75
ATOM     75  C   UNL A   1      42.532  23.709  27.716  1.00  0.00     0.058 A 
ATOM     76  C   UNL A   1      42.360  22.600  28.560  1.00  0.00     0.135 A 
ATOM     77  C   UNL A   1      42.552  23.476  26.332  1.00  0.00     0.135 A 
ATOM     78  F   UNL A   1      42.337  22.768  29.891  1.00  0.00    -0.206 F 
ATOM     79  C   UNL A   1      42.254  21.308  28.057  1.00  0.00     0.059 A 
ATOM     80  C   UNL A   1      42.417  22.196  25.804  1.00  0.00     0.059 A 
ATOM     81  F   UNL A   1      42.693  24.502  25.479  1.00  0.00    -0.206 F 
ATOM     82  C   UNL A   1      42.288  21.116  26.675  1.00  0.00     0.060 A 
BRANCH  82  83
ATOM     83  S   UNL A   1      42.142  19.435  26.030  1.00  0.00     0.124 S 
ATOM     84  O   UNL A   1      42.669  18.649  27.140  1.00  0.00    -0.237 OA
ATOM     85  O   UNL A   1      40.706  19.321  25.791  1.00  0.00    -0.237 OA
ATOM     86  O   UNL A   1      42.969  19.465  24.827  1.00  0.00    -0.744 OA
ENDBRANCH  82  83
ENDBRANCH  50  75
BRANCH  62  87
ATOM     87  C   UNL A   1      48.023  27.028  30.444  1.00  0.00     0.058 A 
ATOM     88  C   UNL A   1      49.028  27.135  29.472  1.00  0.00     0.135 A 
ATOM     89  C   UNL A   1      48.387  26.561  31.718  1.00  0.00     0.135 A 
ATOM     90  F   UNL A   1      48.731  27.570  28.237  1.00  0.00    -0.206 F 
ATOM     91  C   UNL A   1      50.342  26.771  29.746  1.00  0.00     0.059 A 
ATOM     92  C   UNL A   1      49.701  26.222  32.023  1.00  0.00     0.059 A 
ATOM     93  F   UNL A   1      47.465  26.451  32.688  1.00  0.00    -0.206 F 
ATOM     94  C   UNL A   1      50.669  26.319  31.025  1.00  0.00     0.060 A 
BRANCH  94  95
ATOM     95  S   UNL A   1      52.386  25.887  31.377  1.00  0.00     0.124 S 
ATOM     96  O   UNL A   1      53.002  26.040  30.063  1.00  0.00    -0.237 OA
ATOM     97  O   UNL A   1      52.761  26.885  32.373  1.00  0.00    -0.237 OA
ATOM     98  O   UNL A   1      52.297  24.517  31.874  1.00  0.00    -0.744 OA
ENDBRANCH  94  95
ENDBRANCH  62  87
ENDBRANCH  36  37
ENDBRANCH  28  31
ENDBRANCH  26  27
ENDBRANCH   1  26
TORSDOF 16
ENDMDL
MODEL 2
REMARK VINA RESULT:     -12.2      2.835      4.584
REMARK SMILES Cc1cc(F)cc(N[C@H](C(=O)NCCCNC(=O)c2ccc(-c3c4nc(c(-c5c(F)cc(S(=O)(=O)[O-])cc5F)c5ccc([nH]5)c(-c5c(F)cc(S(=O)(=O)[O-])cc5F)c5nc(c(-c6c(F)cc(S(=O)(=O)[O-])cc6F)c6ccc3[nH]6)C=C5)C=C4)cc2)c2cc(C)cc(C)c2)c1
REMARK SMILES IDX 14 1 13 2 12 3 10 4 11 5 9 7 8 8 7 10 1 11 2 12 3 13 93 14
REMARK SMILES IDX 4 15 5 16 6 17 85 18 86 19 92 20 87 21 90 22 88 23 89 24
REMARK SMILES IDX 91 25 15 26 16 27 17 28 18 30 19 31 20 32 84 33 21 34 83 35
REMARK SMILES IDX 22 36 23 37 24 38 77 39 25 40 82 41 76 42 78 43 26 44 81 45
REMARK SMILES IDX 75 46 74 47 27 49 61 50 40 51 60 52 41 53 44 54 59 55 79 56
REMARK SMILES IDX 42 57 43 58 58 60 80 61 45 62 28 63 29 64 38 65 30 66 31 67
REMARK SMILES IDX 37 68 39 69 32 70 33 71 34 72 35 73 36 74 62 75 63 76 72 77
REMARK SMILES IDX 64 78 65 79 71 80 73 81 66 82 67 83 68 84 69 85 70 86 46 87
REMARK SMILES IDX 47 88 56 89 48 90 49 91 55 92 57 93 50 94 51 95 52 96 53 97
REMARK SMILES IDX 54 98
REMARK H PARENT 12 6 8 9 16 29 78 48 44 59
REMARK Flexibility Score: inf
ROOT
ATOM      1  C   UNL A   1      34.245  29.599  27.649  1.00  0.00     0.042 C 
ENDROOT
BRANCH   1   2
ATOM      2  C   UNL A   1      33.338  30.106  26.543  1.00  0.00     0.117 C 
BRANCH   2   3
ATOM      3  N   UNL A   1      33.730  29.662  25.222  1.00  0.00    -0.354 N 
ATOM      4  C   UNL A   1      33.119  28.782  24.376  1.00  0.00     0.247 C 
ATOM      5  O   UNL A   1      33.664  28.658  23.270  1.00  0.00    -0.272 OA
ATOM      6  H   UNL A   1      34.566  30.055  24.882  1.00  0.00     0.163 HD
BRANCH   4   7
ATOM      7  C   UNL A   1      31.912  27.893  24.797  1.00  0.00     0.200 C 
BRANCH   7   8
ATOM      8  N   UNL A   1      30.883  27.639  23.756  1.00  0.00    -0.370 N 
ATOM      9  H   UNL A   1      31.048  26.830  23.220  1.00  0.00     0.161 HD
BRANCH   8  10
ATOM     10  C   UNL A   1      29.738  28.325  23.398  1.00  0.00     0.038 A 
ATOM     11  C   UNL A   1      28.919  31.479  21.361  1.00  0.00     0.044 C 
ATOM     12  C   UNL A   1      28.753  30.237  22.182  1.00  0.00    -0.046 A 
ATOM     13  C   UNL A   1      27.470  29.784  22.481  1.00  0.00     0.042 A 
ATOM     14  C   UNL A   1      29.868  29.524  22.670  1.00  0.00     0.029 A 
ATOM     15  C   UNL A   1      27.326  28.612  23.194  1.00  0.00     0.125 A 
ATOM     16  F   UNL A   1      26.100  28.155  23.484  1.00  0.00    -0.207 F 
ATOM     17  C   UNL A   1      28.438  27.884  23.609  1.00  0.00     0.065 A 
ENDBRANCH   8  10
ENDBRANCH   7   8
BRANCH   7  18
ATOM     18  C   UNL A   1      32.288  26.596  25.509  1.00  0.00    -0.016 A 
ATOM     19  C   UNL A   1      33.627  26.198  25.605  1.00  0.00     0.009 A 
ATOM     20  C   UNL A   1      31.295  25.691  25.913  1.00  0.00     0.009 A 
ATOM     21  C   UNL A   1      33.961  24.857  25.794  1.00  0.00    -0.051 A 
ATOM     22  C   UNL A   1      31.633  24.387  26.298  1.00  0.00    -0.051 A 
ATOM     23  C   UNL A   1      35.319  24.379  25.368  1.00  0.00     0.044 C 
ATOM     24  C   UNL A   1      32.959  23.958  26.161  1.00  0.00     0.006 A 
ATOM     25  C   UNL A   1      30.577  23.418  26.734  1.00  0.00     0.044 C 
ENDBRANCH   7  18
ENDBRANCH   4   7
ENDBRANCH   2   3
ENDBRANCH   1   2
BRANCH   1  26
ATOM     26  C   UNL A   1      35.368  30.549  28.025  1.00  0.00     0.118 C 
BRANCH  26  27
ATOM     27  N   UNL A   1      35.431  30.837  29.452  1.00  0.00    -0.352 N 
ATOM     28  C   UNL A   1      36.408  30.538  30.374  1.00  0.00     0.251 C 
ATOM     29  H   UNL A   1      34.653  31.320  29.814  1.00  0.00     0.163 HD
ATOM     30  O   UNL A   1      36.201  30.736  31.569  1.00  0.00    -0.269 OA
BRANCH  28  31
ATOM     31  C   UNL A   1      37.687  29.941  29.931  1.00  0.00     0.039 A 
ATOM     32  C   UNL A   1      38.062  30.053  28.590  1.00  0.00     0.014 A 
ATOM     33  C   UNL A   1      38.530  29.298  30.838  1.00  0.00     0.014 A 
ATOM     34  C   UNL A   1      39.322  29.603  28.185  1.00  0.00     0.010 A 
ATOM     35  C   UNL A   1      39.824  28.963  30.462  1.00  0.00     0.010 A 
ATOM     36  C   UNL A   1      40.235  29.101  29.128  1.00  0.00    -0.014 A 
BRANCH  36  37
ATOM     37  C   UNL A   1      41.616  28.700  28.747  1.00  0.00     0.031 A 
ATOM     38  C   UNL A   1      42.714  29.732  28.722  1.00  0.00     0.074 A 
ATOM     39  C   UNL A   1      41.863  27.435  28.349  1.00  0.00     0.049 A 
ATOM     40  N   UNL A   1      43.954  29.607  28.327  1.00  0.00    -0.248 NA
ATOM     41  C   UNL A   1      42.366  31.093  29.164  1.00  0.00     0.031 C 
ATOM     42  C   UNL A   1      40.871  26.358  28.276  1.00  0.00     0.029 A 
ATOM     43  N   UNL A   1      43.023  26.840  27.920  1.00  0.00    -0.354 N 
ATOM     44  C   UNL A   1      44.519  30.872  28.442  1.00  0.00     0.074 A 
ATOM     45  C   UNL A   1      43.476  31.764  28.896  1.00  0.00     0.031 C 
ATOM     46  C   UNL A   1      41.472  25.230  27.861  1.00  0.00     0.029 A 
ATOM     47  C   UNL A   1      42.878  25.510  27.594  1.00  0.00     0.049 A 
ATOM     48  H   UNL A   1      43.880  27.319  27.852  1.00  0.00     0.167 HD
ATOM     49  C   UNL A   1      45.798  31.253  28.214  1.00  0.00     0.037 A 
ATOM     50  C   UNL A   1      43.776  24.622  27.124  1.00  0.00     0.037 A 
ATOM     51  C   UNL A   1      46.845  30.348  27.820  1.00  0.00     0.049 A 
ATOM     52  C   UNL A   1      45.196  25.071  26.895  1.00  0.00     0.074 A 
ATOM     53  C   UNL A   1      48.193  30.616  27.659  1.00  0.00     0.029 A 
ATOM     54  N   UNL A   1      46.664  29.005  27.529  1.00  0.00    -0.354 N 
ATOM     55  N   UNL A   1      45.729  26.253  27.091  1.00  0.00    -0.248 NA
ATOM     56  C   UNL A   1      46.138  24.065  26.384  1.00  0.00     0.031 C 
ATOM     57  C   UNL A   1      48.819  29.446  27.217  1.00  0.00     0.029 A 
ATOM     58  C   UNL A   1      47.871  28.437  27.161  1.00  0.00     0.049 A 
ATOM     59  H   UNL A   1      45.805  28.526  27.578  1.00  0.00     0.167 HD
ATOM     60  C   UNL A   1      47.075  26.121  26.765  1.00  0.00     0.074 A 
ATOM     61  C   UNL A   1      47.277  24.744  26.368  1.00  0.00     0.031 C 
ATOM     62  C   UNL A   1      48.057  27.056  26.792  1.00  0.00     0.037 A 
BRANCH  49  63
ATOM     63  C   UNL A   1      46.151  32.704  28.394  1.00  0.00     0.058 A 
ATOM     64  C   UNL A   1      46.603  33.210  29.622  1.00  0.00     0.135 A 
ATOM     65  C   UNL A   1      46.105  33.584  27.300  1.00  0.00     0.135 A 
ATOM     66  F   UNL A   1      46.648  32.418  30.705  1.00  0.00    -0.206 F 
ATOM     67  C   UNL A   1      46.988  34.539  29.764  1.00  0.00     0.059 A 
ATOM     68  C   UNL A   1      46.513  34.910  27.411  1.00  0.00     0.059 A 
ATOM     69  F   UNL A   1      45.675  33.153  26.103  1.00  0.00    -0.206 F 
ATOM     70  C   UNL A   1      46.947  35.380  28.649  1.00  0.00     0.060 A 
BRANCH  70  71
ATOM     71  S   UNL A   1      47.495  37.089  28.840  1.00  0.00     0.124 S 
ATOM     72  O   UNL A   1      46.394  37.819  28.217  1.00  0.00    -0.237 OA
ATOM     73  O   UNL A   1      47.603  37.221  30.290  1.00  0.00    -0.237 OA
ATOM     74  O   UNL A   1      48.760  37.125  28.114  1.00  0.00    -0.744 OA
ENDBRANCH  70  71
ENDBRANCH  49  63
BRANCH  50  75
ATOM     75  C   UNL A   1      43.377  23.213  26.850  1.00  0.00     0.058 A 
ATOM     76  C   UNL A   1      43.082  22.331  27.903  1.00  0.00     0.135 A 
ATOM     77  C   UNL A   1      43.313  22.708  25.542  1.00  0.00     0.135 A 
ATOM     78  F   UNL A   1      43.133  22.762  29.172  1.00  0.00    -0.206 F 
ATOM     79  C   UNL A   1      42.776  20.994  27.672  1.00  0.00     0.059 A 
ATOM     80  C   UNL A   1      42.979  21.382  25.285  1.00  0.00     0.059 A 
ATOM     81  F   UNL A   1      43.566  23.512  24.498  1.00  0.00    -0.206 F 
ATOM     82  C   UNL A   1      42.732  20.528  26.358  1.00  0.00     0.060 A 
BRANCH  82  83
ATOM     83  S   UNL A   1      42.327  18.792  26.068  1.00  0.00     0.124 S 
ATOM     84  O   UNL A   1      40.907  18.872  25.749  1.00  0.00    -0.237 OA
ATOM     85  O   UNL A   1      43.213  18.450  24.959  1.00  0.00    -0.237 OA
ATOM     86  O   UNL A   1      42.655  18.155  27.341  1.00  0.00    -0.744 OA
ENDBRANCH  82  83
ENDBRANCH  50  75
BRANCH  62  87
ATOM     87  C   UNL A   1      49.448  26.614  26.433  1.00  0.00     0.058 A 
ATOM     88  C   UNL A   1      50.283  25.972  27.360  1.00  0.00     0.135 A 
ATOM     89  C   UNL A   1      49.928  26.784  25.123  1.00  0.00     0.135 A 
ATOM     90  F   UNL A   1      49.876  25.790  28.626  1.00  0.00    -0.206 F 
ATOM     91  C   UNL A   1      51.555  25.534  27.006  1.00  0.00     0.059 A 
ATOM     92  C   UNL A   1      51.183  26.326  24.740  1.00  0.00     0.059 A 
ATOM     93  F   UNL A   1      49.163  27.382  24.196  1.00  0.00    -0.206 F 
ATOM     94  C   UNL A   1      51.995  25.713  25.693  1.00  0.00     0.060 A 
BRANCH  94  95
ATOM     95  S   UNL A   1      53.632  25.105  25.239  1.00  0.00     0.124 S 
ATOM     96  O   UNL A   1      54.464  25.695  26.282  1.00  0.00    -0.237 OA
ATOM     97  O   UNL A   1      53.458  23.658  25.309  1.00  0.00    -0.237 OA
ATOM     98  O   UNL A   1      53.834  25.641  23.896  1.00  0.00    -0.744 OA
ENDBRANCH  94  95
ENDBRANCH  62  87
ENDBRANCH  36  37
ENDBRANCH  28  31
ENDBRANCH  26  27
ENDBRANCH   1  26
TORSDOF 16
ENDMDL
MODEL 3
REMARK VINA RESULT:     -12.2      5.180     10.509
REMARK SMILES Cc1cc(F)cc(N[C@H](C(=O)NCCCNC(=O)c2ccc(-c3c4nc(c(-c5c(F)cc(S(=O)(=O)[O-])cc5F)c5ccc([nH]5)c(-c5c(F)cc(S(=O)(=O)[O-])cc5F)c5nc(c(-c6c(F)cc(S(=O)(=O)[O-])cc6F)c6ccc3[nH]6)C=C5)C=C4)cc2)c2cc(C)cc(C)c2)c1
REMARK SMILES IDX 14 1 13 2 12 3 10 4 11 5 9 7 8 8 7 10 1 11 2 12 3 13 93 14
REMARK SMILES IDX 4 15 5 16 6 17 85 18 86 19 92 20 87 21 90 22 88 23 89 24
REMARK SMILES IDX 91 25 15 26 16 27 17 28 18 30 19 31 20 32 84 33 21 34 83 35
REMARK SMILES IDX 22 36 23 37 24 38 77 39 25 40 82 41 76 42 78 43 26 44 81 45
REMARK SMILES IDX 75 46 74 47 27 49 61 50 40 51 60 52 41 53 44 54 59 55 79 56
REMARK SMILES IDX 42 57 43 58 58 60 80 61 45 62 28 63 29 64 38 65 30 66 31 67
REMARK SMILES IDX 37 68 39 69 32 70 33 71 34 72 35 73 36 74 62 75 63 76 72 77
REMARK SMILES IDX 64 78 65 79 71 80 73 81 66 82 67 83 68 84 69 85 70 86 46 87
REMARK SMILES IDX 47 88 56 89 48 90 49 91 55 92 57 93 50 94 51 95 52 96 53 97
REMARK SMILES IDX 54 98
REMARK H PARENT 12 6 8 9 16 29 78 48 44 59
REMARK Flexibility Score: inf
ROOT
ATOM      1  C   UNL A   1      37.894  22.744  25.734  1.00  0.00     0.042 C 
ENDROOT
BRANCH   1   2
ATOM      2  C   UNL A   1      36.429  23.079  25.529  1.00  0.00     0.117 C 
BRANCH   2   3
ATOM      3  N   UNL A   1      35.618  22.879  26.712  1.00  0.00    -0.354 N 
ATOM      4  C   UNL A   1      34.260  22.846  26.848  1.00  0.00     0.247 C 
ATOM      5  O   UNL A   1      33.857  22.581  27.989  1.00  0.00    -0.272 OA
ATOM      6  H   UNL A   1      36.124  22.745  27.546  1.00  0.00     0.163 HD
BRANCH   4   7
ATOM      7  C   UNL A   1      33.280  23.243  25.705  1.00  0.00     0.200 C 
BRANCH   7   8
ATOM      8  N   UNL A   1      32.266  22.228  25.322  1.00  0.00    -0.370 N 
ATOM      9  H   UNL A   1      31.359  22.423  25.653  1.00  0.00     0.161 HD
BRANCH   8  10
ATOM     10  C   UNL A   1      32.354  21.060  24.589  1.00  0.00     0.038 A 
ATOM     11  C   UNL A   1      32.682  17.312  25.373  1.00  0.00     0.044 C 
ATOM     12  C   UNL A   1      32.543  18.596  24.614  1.00  0.00    -0.046 A 
ATOM     13  C   UNL A   1      32.431  18.559  23.227  1.00  0.00     0.042 A 
ATOM     14  C   UNL A   1      32.537  19.843  25.274  1.00  0.00     0.029 A 
ATOM     15  C   UNL A   1      32.252  19.743  22.540  1.00  0.00     0.125 A 
ATOM     16  F   UNL A   1      32.133  19.727  21.206  1.00  0.00    -0.207 F 
ATOM     17  C   UNL A   1      32.180  20.959  23.214  1.00  0.00     0.065 A 
ENDBRANCH   8  10
ENDBRANCH   7   8
BRANCH   7  18
ATOM     18  C   UNL A   1      32.632  24.616  25.864  1.00  0.00    -0.016 A 
ATOM     19  C   UNL A   1      31.275  24.803  25.571  1.00  0.00     0.009 A 
ATOM     20  C   UNL A   1      33.417  25.749  26.125  1.00  0.00     0.009 A 
ATOM     21  C   UNL A   1      30.784  26.066  25.240  1.00  0.00    -0.051 A 
ATOM     22  C   UNL A   1      32.880  27.036  25.987  1.00  0.00    -0.051 A 
ATOM     23  C   UNL A   1      29.521  26.166  24.433  1.00  0.00     0.044 C 
ATOM     24  C   UNL A   1      31.587  27.183  25.470  1.00  0.00     0.006 A 
ATOM     25  C   UNL A   1      33.714  28.249  26.268  1.00  0.00     0.044 C 
ENDBRANCH   7  18
ENDBRANCH   4   7
ENDBRANCH   2   3
ENDBRANCH   1   2
BRANCH   1  26
ATOM     26  C   UNL A   1      38.689  23.814  26.461  1.00  0.00     0.118 C 
BRANCH  26  27
ATOM     27  N   UNL A   1      40.109  23.804  26.136  1.00  0.00    -0.352 N 
ATOM     28  C   UNL A   1      41.106  24.684  26.491  1.00  0.00     0.251 C 
ATOM     29  H   UNL A   1      40.402  23.050  25.574  1.00  0.00     0.163 HD
ATOM     30  O   UNL A   1      42.221  24.581  25.985  1.00  0.00    -0.269 OA
BRANCH  28  31
ATOM     31  C   UNL A   1      40.823  25.776  27.448  1.00  0.00     0.039 A 
ATOM     32  C   UNL A   1      39.810  25.607  28.395  1.00  0.00     0.014 A 
ATOM     33  C   UNL A   1      41.572  26.953  27.433  1.00  0.00     0.014 A 
ATOM     34  C   UNL A   1      39.616  26.578  29.381  1.00  0.00     0.010 A 
ATOM     35  C   UNL A   1      41.460  27.857  28.482  1.00  0.00     0.010 A 
ATOM     36  C   UNL A   1      40.474  27.687  29.465  1.00  0.00    -0.014 A 
BRANCH  36  37
ATOM     37  C   UNL A   1      40.355  28.691  30.556  1.00  0.00     0.031 A 
ATOM     38  C   UNL A   1      41.221  28.569  31.783  1.00  0.00     0.074 A 
ATOM     39  C   UNL A   1      39.418  29.659  30.480  1.00  0.00     0.049 A 
ATOM     40  N   UNL A   1      41.202  29.279  32.881  1.00  0.00    -0.248 NA
ATOM     41  C   UNL A   1      42.217  27.483  31.796  1.00  0.00     0.031 C 
ATOM     42  C   UNL A   1      38.480  29.849  29.370  1.00  0.00     0.029 A 
ATOM     43  N   UNL A   1      39.090  30.661  31.360  1.00  0.00    -0.354 N 
ATOM     44  C   UNL A   1      42.153  28.708  33.719  1.00  0.00     0.074 A 
ATOM     45  C   UNL A   1      42.697  27.562  33.027  1.00  0.00     0.031 C 
ATOM     46  C   UNL A   1      37.707  30.920  29.621  1.00  0.00     0.029 A 
ATOM     47  C   UNL A   1      38.060  31.465  30.926  1.00  0.00     0.049 A 
ATOM     48  H   UNL A   1      39.549  30.793  32.220  1.00  0.00     0.167 HD
ATOM     49  C   UNL A   1      42.554  29.116  34.947  1.00  0.00     0.037 A 
ATOM     50  C   UNL A   1      37.462  32.517  31.520  1.00  0.00     0.037 A 
ATOM     51  C   UNL A   1      42.051  30.291  35.604  1.00  0.00     0.049 A 
ATOM     52  C   UNL A   1      37.942  32.958  32.879  1.00  0.00     0.074 A 
ATOM     53  C   UNL A   1      42.462  30.845  36.804  1.00  0.00     0.029 A 
ATOM     54  N   UNL A   1      41.031  31.096  35.120  1.00  0.00    -0.354 N 
ATOM     55  N   UNL A   1      38.901  32.455  33.618  1.00  0.00    -0.248 NA
ATOM     56  C   UNL A   1      37.260  34.111  33.483  1.00  0.00     0.031 C 
ATOM     57  C   UNL A   1      41.653  31.953  37.072  1.00  0.00     0.029 A 
ATOM     58  C   UNL A   1      40.778  32.124  36.011  1.00  0.00     0.049 A 
ATOM     59  H   UNL A   1      40.556  30.956  34.269  1.00  0.00     0.167 HD
ATOM     60  C   UNL A   1      38.963  33.253  34.755  1.00  0.00     0.074 A 
ATOM     61  C   UNL A   1      37.951  34.278  34.602  1.00  0.00     0.031 C 
ATOM     62  C   UNL A   1      39.783  33.150  35.830  1.00  0.00     0.037 A 
BRANCH  49  63
ATOM     63  C   UNL A   1      43.597  28.300  35.661  1.00  0.00     0.058 A 
ATOM     64  C   UNL A   1      44.970  28.533  35.485  1.00  0.00     0.135 A 
ATOM     65  C   UNL A   1      43.214  27.320  36.591  1.00  0.00     0.135 A 
ATOM     66  F   UNL A   1      45.393  29.445  34.595  1.00  0.00    -0.206 F 
ATOM     67  C   UNL A   1      45.926  27.818  36.197  1.00  0.00     0.059 A 
ATOM     68  C   UNL A   1      44.152  26.612  37.336  1.00  0.00     0.059 A 
ATOM     69  F   UNL A   1      41.913  27.052  36.794  1.00  0.00    -0.206 F 
ATOM     70  C   UNL A   1      45.507  26.864  37.128  1.00  0.00     0.060 A 
BRANCH  70  71
ATOM     71  S   UNL A   1      46.761  25.978  38.077  1.00  0.00     0.124 S 
ATOM     72  O   UNL A   1      47.650  27.067  38.471  1.00  0.00    -0.237 OA
ATOM     73  O   UNL A   1      45.973  25.383  39.152  1.00  0.00    -0.237 OA
ATOM     74  O   UNL A   1      47.315  25.034  37.112  1.00  0.00    -0.744 OA
ENDBRANCH  70  71
ENDBRANCH  49  63
BRANCH  50  75
ATOM     75  C   UNL A   1      36.356  33.246  30.837  1.00  0.00     0.058 A 
ATOM     76  C   UNL A   1      36.618  34.101  29.755  1.00  0.00     0.135 A 
ATOM     77  C   UNL A   1      35.025  33.130  31.268  1.00  0.00     0.135 A 
ATOM     78  F   UNL A   1      37.874  34.251  29.308  1.00  0.00    -0.206 F 
ATOM     79  C   UNL A   1      35.610  34.844  29.150  1.00  0.00     0.059 A 
ATOM     80  C   UNL A   1      33.995  33.840  30.658  1.00  0.00     0.059 A 
ATOM     81  F   UNL A   1      34.716  32.312  32.284  1.00  0.00    -0.206 F 
ATOM     82  C   UNL A   1      34.301  34.709  29.613  1.00  0.00     0.060 A 
BRANCH  82  83
ATOM     83  S   UNL A   1      32.997  35.672  28.816  1.00  0.00     0.124 S 
ATOM     84  O   UNL A   1      32.353  34.662  27.984  1.00  0.00    -0.237 OA
ATOM     85  O   UNL A   1      32.223  36.147  29.959  1.00  0.00    -0.237 OA
ATOM     86  O   UNL A   1      33.737  36.706  28.097  1.00  0.00    -0.744 OA
ENDBRANCH  82  83
ENDBRANCH  50  75
BRANCH  62  87
ATOM     87  C   UNL A   1      39.662  34.197  36.902  1.00  0.00     0.058 A 
ATOM     88  C   UNL A   1      38.988  33.949  38.107  1.00  0.00     0.135 A 
ATOM     89  C   UNL A   1      40.282  35.447  36.741  1.00  0.00     0.135 A 
ATOM     90  F   UNL A   1      38.373  32.772  38.309  1.00  0.00    -0.206 F 
ATOM     91  C   UNL A   1      38.914  34.913  39.107  1.00  0.00     0.059 A 
ATOM     92  C   UNL A   1      40.247  36.413  37.740  1.00  0.00     0.059 A 
ATOM     93  F   UNL A   1      40.950  35.730  35.610  1.00  0.00    -0.206 F 
ATOM     94  C   UNL A   1      39.550  36.141  38.915  1.00  0.00     0.060 A 
BRANCH  94  95
ATOM     95  S   UNL A   1      39.477  37.367  40.237  1.00  0.00     0.124 S 
ATOM     96  O   UNL A   1      40.889  37.688  40.418  1.00  0.00    -0.237 OA
ATOM     97  O   UNL A   1      38.658  38.419  39.643  1.00  0.00    -0.237 OA
ATOM     98  O   UNL A   1      38.852  36.642  41.340  1.00  0.00    -0.744 OA
ENDBRANCH  94  95
ENDBRANCH  62  87
ENDBRANCH  36  37
ENDBRANCH  28  31
ENDBRANCH  26  27
ENDBRANCH   1  26
TORSDOF 16
ENDMDL
