MODEL 1
REMARK VINA RESULT:     -12.4      0.000      0.000
REMARK SMILES CC1(C)CCC[C@H]1NC(=O)N[C@@H]1COC[C@@]1(C)C(=O)NCCCNC(=O)c1ccc(-c2c3nc(c(-c4c(F)cc(S(=O)(=O)[O-])cc4F)c4ccc([nH]4)c(-c4c(F)cc(S(=O)(=O)[O-])cc4F)c4nc(c(-c5c(F)cc(S(=O)(=O)[O-])cc5F)c5ccc2[nH]5)C=C4)C=C3)cc1
REMARK SMILES IDX 22 1 21 2 20 3 18 4 19 5 16 7 12 8 13 9 14 10 15 11 17 12
REMARK SMILES IDX 11 13 8 14 9 15 10 17 7 19 1 20 2 21 3 22 4 23 5 24 6 25
REMARK SMILES IDX 23 26 24 27 25 28 26 30 27 31 28 32 92 33 29 34 91 35 30 36
REMARK SMILES IDX 31 37 32 38 85 39 33 40 90 41 84 42 86 43 34 44 89 45 83 46
REMARK SMILES IDX 82 47 35 49 69 50 48 51 68 52 49 53 52 54 67 55 87 56 50 57
REMARK SMILES IDX 51 58 66 60 88 61 53 62 36 63 37 64 46 65 38 66 39 67 45 68
REMARK SMILES IDX 47 69 40 70 41 71 42 72 43 73 44 74 70 75 71 76 80 77 72 78
REMARK SMILES IDX 73 79 79 80 81 81 74 82 75 83 76 84 77 85 78 86 54 87 55 88
REMARK SMILES IDX 64 89 56 90 57 91 63 92 65 93 58 94 59 95 60 96 61 97 62 98
REMARK H PARENT 20 6 8 16 11 18 24 29 86 48 52 59
REMARK Flexibility Score: inf
ROOT
ATOM      1  C   UNL A   1      37.579  23.605  25.288  1.00  0.00     0.042 C 
ENDROOT
BRANCH   1   2
ATOM      2  C   UNL A   1      36.095  23.877  25.542  1.00  0.00     0.117 C 
BRANCH   2   3
ATOM      3  N   UNL A   1      35.400  22.971  26.444  1.00  0.00    -0.355 N 
ATOM      4  C   UNL A   1      34.310  22.168  26.269  1.00  0.00     0.230 C 
ATOM      5  O   UNL A   1      34.158  21.272  27.105  1.00  0.00    -0.274 OA
ATOM      6  H   UNL A   1      35.787  22.931  27.348  1.00  0.00     0.163 HD
BRANCH   4   7
ATOM      7  C   UNL A   1      33.267  22.417  25.170  1.00  0.00     0.092 C 
ATOM      8  C   UNL A   1      32.658  23.833  25.135  1.00  0.00     0.127 C 
ATOM      9  C   UNL A   1      32.729  24.313  23.687  1.00  0.00     0.186 C 
ATOM     10  O   UNL A   1      33.197  23.212  22.908  1.00  0.00    -0.378 OA
ATOM     11  C   UNL A   1      33.975  22.392  23.794  1.00  0.00     0.179 C 
ATOM     12  C   UNL A   1      32.300  21.252  25.215  1.00  0.00     0.026 C 
BRANCH   8  13
ATOM     13  N   UNL A   1      31.374  24.122  25.784  1.00  0.00    -0.332 N 
ATOM     14  N   UNL A   1      30.964  26.404  26.347  1.00  0.00    -0.335 N 
ATOM     15  C   UNL A   1      30.640  25.119  26.265  1.00  0.00     0.315 C 
ATOM     16  H   UNL A   1      30.172  26.963  26.512  1.00  0.00     0.165 HD
ATOM     17  O   UNL A   1      29.513  24.801  26.659  1.00  0.00    -0.249 OA
ATOM     18  H   UNL A   1      30.883  23.277  25.906  1.00  0.00     0.165 HD
BRANCH  14  19
ATOM     19  C   UNL A   1      32.178  27.214  26.258  1.00  0.00     0.089 C 
ATOM     20  C   UNL A   1      31.369  27.770  23.800  1.00  0.00     0.013 C 
ATOM     21  C   UNL A   1      32.184  28.197  25.032  1.00  0.00    -0.015 C 
ATOM     22  C   UNL A   1      33.634  28.499  24.579  1.00  0.00     0.013 C 
ATOM     23  C   UNL A   1      31.562  29.473  25.624  1.00  0.00     0.008 C 
ATOM     24  C   UNL A   1      32.175  29.574  27.006  1.00  0.00     0.003 C 
ATOM     25  C   UNL A   1      32.250  28.132  27.504  1.00  0.00     0.025 C 
ENDBRANCH  14  19
ENDBRANCH   8  13
ENDBRANCH   4   7
ENDBRANCH   2   3
ENDBRANCH   1   2
BRANCH   1  26
ATOM     26  C   UNL A   1      38.492  23.648  26.507  1.00  0.00     0.118 C 
BRANCH  26  27
ATOM     27  N   UNL A   1      39.876  23.899  26.154  1.00  0.00    -0.352 N 
ATOM     28  C   UNL A   1      40.732  24.921  26.473  1.00  0.00     0.251 C 
ATOM     29  H   UNL A   1      40.274  23.206  25.579  1.00  0.00     0.163 HD
ATOM     30  O   UNL A   1      41.769  25.018  25.815  1.00  0.00    -0.269 OA
BRANCH  28  31
ATOM     31  C   UNL A   1      40.472  25.893  27.568  1.00  0.00     0.039 A 
ATOM     32  C   UNL A   1      41.306  27.016  27.652  1.00  0.00     0.014 A 
ATOM     33  C   UNL A   1      39.533  25.672  28.580  1.00  0.00     0.014 A 
ATOM     34  C   UNL A   1      41.196  27.905  28.726  1.00  0.00     0.010 A 
ATOM     35  C   UNL A   1      39.374  26.600  29.617  1.00  0.00     0.010 A 
ATOM     36  C   UNL A   1      40.221  27.712  29.717  1.00  0.00    -0.014 A 
BRANCH  36  37
ATOM     37  C   UNL A   1      40.109  28.667  30.855  1.00  0.00     0.031 A 
ATOM     38  C   UNL A   1      40.964  28.513  32.087  1.00  0.00     0.074 A 
ATOM     39  C   UNL A   1      39.219  29.675  30.786  1.00  0.00     0.049 A 
ATOM     40  N   UNL A   1      41.034  29.280  33.147  1.00  0.00    -0.248 NA
ATOM     41  C   UNL A   1      41.834  27.329  32.149  1.00  0.00     0.031 C 
ATOM     42  C   UNL A   1      38.281  29.895  29.684  1.00  0.00     0.029 A 
ATOM     43  N   UNL A   1      38.955  30.701  31.660  1.00  0.00    -0.354 N 
ATOM     44  C   UNL A   1      41.942  28.669  34.004  1.00  0.00     0.074 A 
ATOM     45  C   UNL A   1      42.359  27.441  33.361  1.00  0.00     0.031 C 
ATOM     46  C   UNL A   1      37.557  30.997  29.938  1.00  0.00     0.029 A 
ATOM     47  C   UNL A   1      37.967  31.552  31.225  1.00  0.00     0.049 A 
ATOM     48  H   UNL A   1      39.428  30.816  32.515  1.00  0.00     0.167 HD
ATOM     49  C   UNL A   1      42.401  29.097  35.206  1.00  0.00     0.037 A 
ATOM     50  C   UNL A   1      37.448  32.659  31.792  1.00  0.00     0.037 A 
ATOM     51  C   UNL A   1      41.997  30.330  35.836  1.00  0.00     0.049 A 
ATOM     52  C   UNL A   1      38.012  33.152  33.093  1.00  0.00     0.074 A 
ATOM     53  C   UNL A   1      42.463  30.892  37.012  1.00  0.00     0.029 A 
ATOM     54  N   UNL A   1      41.021  31.187  35.346  1.00  0.00    -0.354 N 
ATOM     55  N   UNL A   1      38.940  32.610  33.846  1.00  0.00    -0.248 NA
ATOM     56  C   UNL A   1      37.477  34.417  33.612  1.00  0.00     0.031 C 
ATOM     57  C   UNL A   1      41.739  32.068  37.255  1.00  0.00     0.029 A 
ATOM     58  C   UNL A   1      40.853  32.261  36.206  1.00  0.00     0.049 A 
ATOM     59  H   UNL A   1      40.521  31.052  34.509  1.00  0.00     0.167 HD
ATOM     60  C   UNL A   1      39.103  33.469  34.927  1.00  0.00     0.074 A 
ATOM     61  C   UNL A   1      38.197  34.581  34.713  1.00  0.00     0.031 C 
ATOM     62  C   UNL A   1      39.926  33.347  35.999  1.00  0.00     0.037 A 
BRANCH  49  63
ATOM     63  C   UNL A   1      43.390  28.213  35.922  1.00  0.00     0.058 A 
ATOM     64  C   UNL A   1      42.976  27.198  36.800  1.00  0.00     0.135 A 
ATOM     65  C   UNL A   1      44.771  28.387  35.734  1.00  0.00     0.135 A 
ATOM     66  F   UNL A   1      41.669  26.989  37.025  1.00  0.00    -0.206 F 
ATOM     67  C   UNL A   1      43.893  26.426  37.508  1.00  0.00     0.059 A 
ATOM     68  C   UNL A   1      45.707  27.607  36.410  1.00  0.00     0.059 A 
ATOM     69  F   UNL A   1      45.227  29.336  34.900  1.00  0.00    -0.206 F 
ATOM     70  C   UNL A   1      45.258  26.647  37.316  1.00  0.00     0.060 A 
BRANCH  70  71
ATOM     71  S   UNL A   1      46.437  25.671  38.274  1.00  0.00     0.124 S 
ATOM     72  O   UNL A   1      46.247  24.343  37.700  1.00  0.00    -0.237 OA
ATOM     73  O   UNL A   1      47.707  26.320  37.966  1.00  0.00    -0.237 OA
ATOM     74  O   UNL A   1      45.973  25.833  39.649  1.00  0.00    -0.744 OA
ENDBRANCH  70  71
ENDBRANCH  49  63
BRANCH  50  75
ATOM     75  C   UNL A   1      36.355  33.384  31.094  1.00  0.00     0.058 A 
ATOM     76  C   UNL A   1      35.057  33.420  31.621  1.00  0.00     0.135 A 
ATOM     77  C   UNL A   1      36.611  34.122  29.928  1.00  0.00     0.135 A 
ATOM     78  F   UNL A   1      34.764  32.725  32.732  1.00  0.00    -0.206 F 
ATOM     79  C   UNL A   1      34.050  34.170  31.023  1.00  0.00     0.059 A 
ATOM     80  C   UNL A   1      35.627  34.896  29.324  1.00  0.00     0.059 A 
ATOM     81  F   UNL A   1      37.844  34.131  29.395  1.00  0.00    -0.206 F 
ATOM     82  C   UNL A   1      34.348  34.916  29.880  1.00  0.00     0.060 A 
BRANCH  82  83
ATOM     83  S   UNL A   1      33.065  35.973  29.174  1.00  0.00     0.124 S 
ATOM     84  O   UNL A   1      33.861  36.979  28.481  1.00  0.00    -0.237 OA
ATOM     85  O   UNL A   1      32.332  35.040  28.324  1.00  0.00    -0.237 OA
ATOM     86  O   UNL A   1      32.335  36.442  30.348  1.00  0.00    -0.744 OA
ENDBRANCH  82  83
ENDBRANCH  50  75
BRANCH  62  87
ATOM     87  C   UNL A   1      39.872  34.447  37.025  1.00  0.00     0.058 A 
ATOM     88  C   UNL A   1      39.054  34.351  38.162  1.00  0.00     0.135 A 
ATOM     89  C   UNL A   1      40.643  35.610  36.870  1.00  0.00     0.135 A 
ATOM     90  F   UNL A   1      38.294  33.261  38.357  1.00  0.00    -0.206 F 
ATOM     91  C   UNL A   1      38.967  35.387  39.086  1.00  0.00     0.059 A 
ATOM     92  C   UNL A   1      40.593  36.648  37.795  1.00  0.00     0.059 A 
ATOM     93  F   UNL A   1      41.453  35.748  35.808  1.00  0.00    -0.206 F 
ATOM     94  C   UNL A   1      39.734  36.537  38.889  1.00  0.00     0.060 A 
BRANCH  94  95
ATOM     95  S   UNL A   1      39.604  37.884  40.084  1.00  0.00     0.124 S 
ATOM     96  O   UNL A   1      40.947  38.453  40.030  1.00  0.00    -0.237 OA
ATOM     97  O   UNL A   1      38.543  38.710  39.514  1.00  0.00    -0.237 OA
ATOM     98  O   UNL A   1      39.259  37.201  41.326  1.00  0.00    -0.744 OA
ENDBRANCH  94  95
ENDBRANCH  62  87
ENDBRANCH  36  37
ENDBRANCH  28  31
ENDBRANCH  26  27
ENDBRANCH   1  26
TORSDOF 15
ENDMDL
MODEL 2
REMARK VINA RESULT:     -12.3      1.018      1.737
REMARK SMILES CC1(C)CCC[C@H]1NC(=O)N[C@@H]1COC[C@@]1(C)C(=O)NCCCNC(=O)c1ccc(-c2c3nc(c(-c4c(F)cc(S(=O)(=O)[O-])cc4F)c4ccc([nH]4)c(-c4c(F)cc(S(=O)(=O)[O-])cc4F)c4nc(c(-c5c(F)cc(S(=O)(=O)[O-])cc5F)c5ccc2[nH]5)C=C4)C=C3)cc1
REMARK SMILES IDX 22 1 21 2 20 3 18 4 19 5 16 7 12 8 13 9 14 10 15 11 17 12
REMARK SMILES IDX 11 13 8 14 9 15 10 17 7 19 1 20 2 21 3 22 4 23 5 24 6 25
REMARK SMILES IDX 23 26 24 27 25 28 26 30 27 31 28 32 92 33 29 34 91 35 30 36
REMARK SMILES IDX 31 37 32 38 85 39 33 40 90 41 84 42 86 43 34 44 89 45 83 46
REMARK SMILES IDX 82 47 35 49 69 50 48 51 68 52 49 53 52 54 67 55 87 56 50 57
REMARK SMILES IDX 51 58 66 60 88 61 53 62 36 63 37 64 46 65 38 66 39 67 45 68
REMARK SMILES IDX 47 69 40 70 41 71 42 72 43 73 44 74 70 75 71 76 80 77 72 78
REMARK SMILES IDX 73 79 79 80 81 81 74 82 75 83 76 84 77 85 78 86 54 87 55 88
REMARK SMILES IDX 64 89 56 90 57 91 63 92 65 93 58 94 59 95 60 96 61 97 62 98
REMARK H PARENT 20 6 8 16 11 18 24 29 86 48 52 59
REMARK Flexibility Score: inf
ROOT
ATOM      1  C   UNL A   1      38.594  22.436  26.303  1.00  0.00     0.042 C 
ENDROOT
BRANCH   1   2
ATOM      2  C   UNL A   1      37.324  22.180  25.490  1.00  0.00     0.117 C 
BRANCH   2   3
ATOM      3  N   UNL A   1      36.327  23.239  25.466  1.00  0.00    -0.355 N 
ATOM      4  C   UNL A   1      35.025  23.275  25.874  1.00  0.00     0.230 C 
ATOM      5  O   UNL A   1      34.538  24.399  26.035  1.00  0.00    -0.274 OA
ATOM      6  H   UNL A   1      36.652  24.086  25.083  1.00  0.00     0.163 HD
BRANCH   4   7
ATOM      7  C   UNL A   1      34.170  22.009  26.024  1.00  0.00     0.092 C 
ATOM      8  C   UNL A   1      32.722  22.115  25.506  1.00  0.00     0.127 C 
ATOM      9  C   UNL A   1      32.471  20.888  24.632  1.00  0.00     0.186 C 
ATOM     10  O   UNL A   1      33.621  20.051  24.752  1.00  0.00    -0.378 OA
ATOM     11  C   UNL A   1      34.719  20.919  25.074  1.00  0.00     0.179 C 
ATOM     12  C   UNL A   1      34.358  21.522  27.447  1.00  0.00     0.026 C 
BRANCH   8  13
ATOM     13  N   UNL A   1      31.612  22.422  26.415  1.00  0.00    -0.332 N 
ATOM     14  N   UNL A   1      30.713  24.628  26.279  1.00  0.00    -0.335 N 
ATOM     15  C   UNL A   1      30.764  23.387  26.750  1.00  0.00     0.315 C 
ATOM     16  H   UNL A   1      29.859  25.062  26.504  1.00  0.00     0.165 HD
ATOM     17  O   UNL A   1      29.910  23.072  27.586  1.00  0.00    -0.249 OA
ATOM     18  H   UNL A   1      31.431  21.631  26.973  1.00  0.00     0.165 HD
BRANCH  14  19
ATOM     19  C   UNL A   1      31.580  25.523  25.515  1.00  0.00     0.089 C 
ATOM     20  C   UNL A   1      30.673  24.238  23.387  1.00  0.00     0.013 C 
ATOM     21  C   UNL A   1      31.273  25.526  23.975  1.00  0.00    -0.015 C 
ATOM     22  C   UNL A   1      32.541  25.890  23.164  1.00  0.00     0.013 C 
ATOM     23  C   UNL A   1      30.243  26.661  23.840  1.00  0.00     0.008 C 
ATOM     24  C   UNL A   1      30.760  27.739  24.772  1.00  0.00     0.003 C 
ATOM     25  C   UNL A   1      31.312  26.978  25.976  1.00  0.00     0.025 C 
ENDBRANCH  14  19
ENDBRANCH   8  13
ENDBRANCH   4   7
ENDBRANCH   2   3
ENDBRANCH   1   2
BRANCH   1  26
ATOM     26  C   UNL A   1      38.995  23.894  26.488  1.00  0.00     0.118 C 
BRANCH  26  27
ATOM     27  N   UNL A   1      40.285  24.193  25.895  1.00  0.00    -0.352 N 
ATOM     28  C   UNL A   1      41.182  25.206  26.116  1.00  0.00     0.251 C 
ATOM     29  H   UNL A   1      40.568  23.548  25.206  1.00  0.00     0.163 HD
ATOM     30  O   UNL A   1      42.073  25.367  25.281  1.00  0.00    -0.269 OA
BRANCH  28  31
ATOM     31  C   UNL A   1      41.134  26.095  27.307  1.00  0.00     0.039 A 
ATOM     32  C   UNL A   1      40.141  25.846  28.264  1.00  0.00     0.014 A 
ATOM     33  C   UNL A   1      41.937  27.230  27.446  1.00  0.00     0.014 A 
ATOM     34  C   UNL A   1      39.961  26.716  29.345  1.00  0.00     0.010 A 
ATOM     35  C   UNL A   1      41.805  28.061  28.566  1.00  0.00     0.010 A 
ATOM     36  C   UNL A   1      40.798  27.829  29.514  1.00  0.00    -0.014 A 
BRANCH  36  37
ATOM     37  C   UNL A   1      40.601  28.747  30.671  1.00  0.00     0.031 A 
ATOM     38  C   UNL A   1      41.441  28.621  31.916  1.00  0.00     0.074 A 
ATOM     39  C   UNL A   1      39.645  29.693  30.608  1.00  0.00     0.049 A 
ATOM     40  N   UNL A   1      41.439  29.365  32.994  1.00  0.00    -0.248 NA
ATOM     41  C   UNL A   1      42.388  27.498  31.968  1.00  0.00     0.031 C 
ATOM     42  C   UNL A   1      38.714  29.875  29.493  1.00  0.00     0.029 A 
ATOM     43  N   UNL A   1      39.294  30.676  31.499  1.00  0.00    -0.354 N 
ATOM     44  C   UNL A   1      42.371  28.796  33.856  1.00  0.00     0.074 A 
ATOM     45  C   UNL A   1      42.882  27.615  33.193  1.00  0.00     0.031 C 
ATOM     46  C   UNL A   1      37.912  30.919  29.757  1.00  0.00     0.029 A 
ATOM     47  C   UNL A   1      38.259  31.468  31.065  1.00  0.00     0.049 A 
ATOM     48  H   UNL A   1      39.743  30.803  32.366  1.00  0.00     0.167 HD
ATOM     49  C   UNL A   1      42.777  29.225  35.076  1.00  0.00     0.037 A 
ATOM     50  C   UNL A   1      37.655  32.523  31.646  1.00  0.00     0.037 A 
ATOM     51  C   UNL A   1      42.277  30.411  35.726  1.00  0.00     0.049 A 
ATOM     52  C   UNL A   1      38.160  33.021  32.970  1.00  0.00     0.074 A 
ATOM     53  C   UNL A   1      42.682  30.975  36.924  1.00  0.00     0.029 A 
ATOM     54  N   UNL A   1      41.255  31.212  35.237  1.00  0.00    -0.354 N 
ATOM     55  N   UNL A   1      39.108  32.526  33.729  1.00  0.00    -0.248 NA
ATOM     56  C   UNL A   1      37.529  34.234  33.507  1.00  0.00     0.031 C 
ATOM     57  C   UNL A   1      41.875  32.093  37.179  1.00  0.00     0.029 A 
ATOM     58  C   UNL A   1      40.997  32.251  36.118  1.00  0.00     0.049 A 
ATOM     59  H   UNL A   1      40.780  31.063  34.387  1.00  0.00     0.167 HD
ATOM     60  C   UNL A   1      39.192  33.367  34.832  1.00  0.00     0.074 A 
ATOM     61  C   UNL A   1      38.216  34.419  34.626  1.00  0.00     0.031 C 
ATOM     62  C   UNL A   1      40.002  33.275  35.918  1.00  0.00     0.037 A 
BRANCH  49  63
ATOM     63  C   UNL A   1      43.811  28.393  35.791  1.00  0.00     0.058 A 
ATOM     64  C   UNL A   1      45.188  28.594  35.596  1.00  0.00     0.135 A 
ATOM     65  C   UNL A   1      43.421  27.374  36.676  1.00  0.00     0.135 A 
ATOM     66  F   UNL A   1      45.620  29.548  34.756  1.00  0.00    -0.206 F 
ATOM     67  C   UNL A   1      46.138  27.781  36.208  1.00  0.00     0.059 A 
ATOM     68  C   UNL A   1      44.356  26.568  37.322  1.00  0.00     0.059 A 
ATOM     69  F   UNL A   1      42.120  27.141  36.908  1.00  0.00    -0.206 F 
ATOM     70  C   UNL A   1      45.711  26.762  37.060  1.00  0.00     0.060 A 
BRANCH  70  71
ATOM     71  S   UNL A   1      46.950  25.685  37.812  1.00  0.00     0.124 S 
ATOM     72  O   UNL A   1      47.857  25.462  36.691  1.00  0.00    -0.237 OA
ATOM     73  O   UNL A   1      47.472  26.512  38.895  1.00  0.00    -0.237 OA
ATOM     74  O   UNL A   1      46.177  24.521  38.235  1.00  0.00    -0.744 OA
ENDBRANCH  70  71
ENDBRANCH  49  63
BRANCH  50  75
ATOM     75  C   UNL A   1      36.528  33.189  30.944  1.00  0.00     0.058 A 
ATOM     76  C   UNL A   1      35.208  33.049  31.395  1.00  0.00     0.135 A 
ATOM     77  C   UNL A   1      36.763  34.044  29.856  1.00  0.00     0.135 A 
ATOM     78  F   UNL A   1      34.935  32.237  32.428  1.00  0.00    -0.206 F 
ATOM     79  C   UNL A   1      34.159  33.740  30.799  1.00  0.00     0.059 A 
ATOM     80  C   UNL A   1      35.733  34.762  29.257  1.00  0.00     0.059 A 
ATOM     81  F   UNL A   1      38.013  34.223  29.399  1.00  0.00    -0.206 F 
ATOM     82  C   UNL A   1      34.434  34.605  29.736  1.00  0.00     0.060 A 
BRANCH  82  83
ATOM     83  S   UNL A   1      33.083  35.581  29.040  1.00  0.00     0.124 S 
ATOM     84  O   UNL A   1      32.387  34.587  28.232  1.00  0.00    -0.237 OA
ATOM     85  O   UNL A   1      32.383  36.035  30.238  1.00  0.00    -0.237 OA
ATOM     86  O   UNL A   1      33.777  36.629  28.297  1.00  0.00    -0.744 OA
ENDBRANCH  82  83
ENDBRANCH  50  75
BRANCH  62  87
ATOM     87  C   UNL A   1      39.853  34.343  36.967  1.00  0.00     0.058 A 
ATOM     88  C   UNL A   1      39.032  34.160  38.091  1.00  0.00     0.135 A 
ATOM     89  C   UNL A   1      40.536  35.565  36.849  1.00  0.00     0.135 A 
ATOM     90  F   UNL A   1      38.354  33.011  38.252  1.00  0.00    -0.206 F 
ATOM     91  C   UNL A   1      38.857  35.164  39.037  1.00  0.00     0.059 A 
ATOM     92  C   UNL A   1      40.397  36.574  37.797  1.00  0.00     0.059 A 
ATOM     93  F   UNL A   1      41.345  35.788  35.801  1.00  0.00    -0.206 F 
ATOM     94  C   UNL A   1      39.538  36.373  38.876  1.00  0.00     0.060 A 
BRANCH  94  95
ATOM     95  S   UNL A   1      39.292  37.678  40.100  1.00  0.00     0.124 S 
ATOM     96  O   UNL A   1      40.584  38.357  40.065  1.00  0.00    -0.237 OA
ATOM     97  O   UNL A   1      38.169  38.425  39.544  1.00  0.00    -0.237 OA
ATOM     98  O   UNL A   1      39.002  36.941  41.325  1.00  0.00    -0.744 OA
ENDBRANCH  94  95
ENDBRANCH  62  87
ENDBRANCH  36  37
ENDBRANCH  28  31
ENDBRANCH  26  27
ENDBRANCH   1  26
TORSDOF 15
ENDMDL
MODEL 3
REMARK VINA RESULT:     -12.3      1.430      2.237
REMARK SMILES CC1(C)CCC[C@H]1NC(=O)N[C@@H]1COC[C@@]1(C)C(=O)NCCCNC(=O)c1ccc(-c2c3nc(c(-c4c(F)cc(S(=O)(=O)[O-])cc4F)c4ccc([nH]4)c(-c4c(F)cc(S(=O)(=O)[O-])cc4F)c4nc(c(-c5c(F)cc(S(=O)(=O)[O-])cc5F)c5ccc2[nH]5)C=C4)C=C3)cc1
REMARK SMILES IDX 22 1 21 2 20 3 18 4 19 5 16 7 12 8 13 9 14 10 15 11 17 12
REMARK SMILES IDX 11 13 8 14 9 15 10 17 7 19 1 20 2 21 3 22 4 23 5 24 6 25
REMARK SMILES IDX 23 26 24 27 25 28 26 30 27 31 28 32 92 33 29 34 91 35 30 36
REMARK SMILES IDX 31 37 32 38 85 39 33 40 90 41 84 42 86 43 34 44 89 45 83 46
REMARK SMILES IDX 82 47 35 49 69 50 48 51 68 52 49 53 52 54 67 55 87 56 50 57
REMARK SMILES IDX 51 58 66 60 88 61 53 62 36 63 37 64 46 65 38 66 39 67 45 68
REMARK SMILES IDX 47 69 40 70 41 71 42 72 43 73 44 74 70 75 71 76 80 77 72 78
REMARK SMILES IDX 73 79 79 80 81 81 74 82 75 83 76 84 77 85 78 86 54 87 55 88
REMARK SMILES IDX 64 89 56 90 57 91 63 92 65 93 58 94 59 95 60 96 61 97 62 98
REMARK H PARENT 20 6 8 16 11 18 24 29 86 48 52 59
REMARK Flexibility Score: inf
ROOT
ATOM      1  C   UNL A   1      39.583  21.888  26.448  1.00  0.00     0.042 C 
ENDROOT
BRANCH   1   2
ATOM      2  C   UNL A   1      38.249  22.026  25.713  1.00  0.00     0.117 C 
BRANCH   2   3
ATOM      3  N   UNL A   1      37.465  20.814  25.528  1.00  0.00    -0.355 N 
ATOM      4  C   UNL A   1      36.208  20.606  25.037  1.00  0.00     0.230 C 
ATOM      5  O   UNL A   1      35.946  19.449  24.693  1.00  0.00    -0.274 OA
ATOM      6  H   UNL A   1      37.927  19.991  25.811  1.00  0.00     0.163 HD
BRANCH   4   7
ATOM      7  C   UNL A   1      35.139  21.708  25.008  1.00  0.00     0.092 C 
ATOM      8  C   UNL A   1      33.677  21.221  25.046  1.00  0.00     0.127 C 
ATOM      9  C   UNL A   1      32.962  22.041  26.117  1.00  0.00     0.186 C 
ATOM     10  O   UNL A   1      33.885  23.034  26.564  1.00  0.00    -0.378 OA
ATOM     11  C   UNL A   1      35.197  22.496  26.338  1.00  0.00     0.179 C 
ATOM     12  C   UNL A   1      35.521  22.656  23.890  1.00  0.00     0.026 C 
BRANCH   8  13
ATOM     13  N   UNL A   1      32.898  21.065  23.812  1.00  0.00    -0.332 N 
ATOM     14  N   UNL A   1      32.055  23.070  22.833  1.00  0.00    -0.335 N 
ATOM     15  C   UNL A   1      32.252  21.758  22.881  1.00  0.00     0.315 C 
ATOM     16  H   UNL A   1      31.765  23.356  21.937  1.00  0.00     0.165 HD
ATOM     17  O   UNL A   1      31.806  21.091  21.942  1.00  0.00    -0.249 OA
ATOM     18  H   UNL A   1      32.831  20.106  23.598  1.00  0.00     0.165 HD
BRANCH  14  19
ATOM     19  C   UNL A   1      32.152  24.206  23.748  1.00  0.00     0.089 C 
ATOM     20  C   UNL A   1      33.159  25.512  21.678  1.00  0.00     0.013 C 
ATOM     21  C   UNL A   1      32.410  25.574  23.020  1.00  0.00    -0.015 C 
ATOM     22  C   UNL A   1      33.158  26.559  23.953  1.00  0.00     0.013 C 
ATOM     23  C   UNL A   1      30.985  26.096  22.772  1.00  0.00     0.008 C 
ATOM     24  C   UNL A   1      30.240  25.751  24.046  1.00  0.00     0.003 C 
ATOM     25  C   UNL A   1      30.786  24.385  24.457  1.00  0.00     0.025 C 
ENDBRANCH  14  19
ENDBRANCH   8  13
ENDBRANCH   4   7
ENDBRANCH   2   3
ENDBRANCH   1   2
BRANCH   1  26
ATOM     26  C   UNL A   1      40.144  23.159  27.074  1.00  0.00     0.118 C 
BRANCH  26  27
ATOM     27  N   UNL A   1      40.917  23.946  26.133  1.00  0.00    -0.352 N 
ATOM     28  C   UNL A   1      41.287  25.266  26.129  1.00  0.00     0.251 C 
ATOM     29  H   UNL A   1      41.236  23.437  25.352  1.00  0.00     0.163 HD
ATOM     30  O   UNL A   1      41.714  25.733  25.072  1.00  0.00    -0.269 OA
BRANCH  28  31
ATOM     31  C   UNL A   1      41.209  26.140  27.330  1.00  0.00     0.039 A 
ATOM     32  C   UNL A   1      40.107  25.979  28.180  1.00  0.00     0.014 A 
ATOM     33  C   UNL A   1      42.103  27.187  27.573  1.00  0.00     0.014 A 
ATOM     34  C   UNL A   1      39.907  26.848  29.258  1.00  0.00     0.010 A 
ATOM     35  C   UNL A   1      41.943  28.012  28.694  1.00  0.00     0.010 A 
ATOM     36  C   UNL A   1      40.829  27.870  29.534  1.00  0.00    -0.014 A 
BRANCH  36  37
ATOM     37  C   UNL A   1      40.610  28.787  30.687  1.00  0.00     0.031 A 
ATOM     38  C   UNL A   1      41.433  28.667  31.944  1.00  0.00     0.074 A 
ATOM     39  C   UNL A   1      39.649  29.727  30.609  1.00  0.00     0.049 A 
ATOM     40  N   UNL A   1      41.410  29.412  33.022  1.00  0.00    -0.248 NA
ATOM     41  C   UNL A   1      42.386  27.550  32.011  1.00  0.00     0.031 C 
ATOM     42  C   UNL A   1      38.733  29.902  29.481  1.00  0.00     0.029 A 
ATOM     43  N   UNL A   1      39.280  30.709  31.495  1.00  0.00    -0.354 N 
ATOM     44  C   UNL A   1      42.333  28.850  33.897  1.00  0.00     0.074 A 
ATOM     45  C   UNL A   1      42.862  27.672  33.242  1.00  0.00     0.031 C 
ATOM     46  C   UNL A   1      37.921  30.942  29.733  1.00  0.00     0.029 A 
ATOM     47  C   UNL A   1      38.245  31.494  31.045  1.00  0.00     0.049 A 
ATOM     48  H   UNL A   1      39.715  30.839  32.368  1.00  0.00     0.167 HD
ATOM     49  C   UNL A   1      42.720  29.283  35.122  1.00  0.00     0.037 A 
ATOM     50  C   UNL A   1      37.627  32.546  31.617  1.00  0.00     0.037 A 
ATOM     51  C   UNL A   1      42.203  30.466  35.764  1.00  0.00     0.049 A 
ATOM     52  C   UNL A   1      38.109  33.048  32.947  1.00  0.00     0.074 A 
ATOM     53  C   UNL A   1      42.587  31.034  36.967  1.00  0.00     0.029 A 
ATOM     54  N   UNL A   1      41.183  31.260  35.260  1.00  0.00    -0.354 N 
ATOM     55  N   UNL A   1      39.050  32.559  33.720  1.00  0.00    -0.248 NA
ATOM     56  C   UNL A   1      37.464  34.257  33.474  1.00  0.00     0.031 C 
ATOM     57  C   UNL A   1      41.769  32.146  37.210  1.00  0.00     0.029 A 
ATOM     58  C   UNL A   1      40.906  32.298  36.136  1.00  0.00     0.049 A 
ATOM     59  H   UNL A   1      40.721  31.108  34.403  1.00  0.00     0.167 HD
ATOM     60  C   UNL A   1      39.113  33.402  34.824  1.00  0.00     0.074 A 
ATOM     61  C   UNL A   1      38.133  34.448  34.602  1.00  0.00     0.031 C 
ATOM     62  C   UNL A   1      39.908  33.316  35.920  1.00  0.00     0.037 A 
BRANCH  49  63
ATOM     63  C   UNL A   1      43.748  28.458  35.852  1.00  0.00     0.058 A 
ATOM     64  C   UNL A   1      43.381  27.433  36.742  1.00  0.00     0.135 A 
ATOM     65  C   UNL A   1      45.120  28.698  35.668  1.00  0.00     0.135 A 
ATOM     66  F   UNL A   1      42.086  27.163  36.965  1.00  0.00    -0.206 F 
ATOM     67  C   UNL A   1      44.333  26.717  37.463  1.00  0.00     0.059 A 
ATOM     68  C   UNL A   1      46.090  27.974  36.357  1.00  0.00     0.059 A 
ATOM     69  F   UNL A   1      45.531  29.658  34.824  1.00  0.00    -0.206 F 
ATOM     70  C   UNL A   1      45.686  27.004  37.272  1.00  0.00     0.060 A 
BRANCH  70  71
ATOM     71  S   UNL A   1      46.908  26.100  38.247  1.00  0.00     0.124 S 
ATOM     72  O   UNL A   1      46.141  24.930  38.660  1.00  0.00    -0.237 OA
ATOM     73  O   UNL A   1      47.967  25.852  37.274  1.00  0.00    -0.237 OA
ATOM     74  O   UNL A   1      47.250  27.036  39.315  1.00  0.00    -0.744 OA
ENDBRANCH  70  71
ENDBRANCH  49  63
BRANCH  50  75
ATOM     75  C   UNL A   1      36.506  33.204  30.898  1.00  0.00     0.058 A 
ATOM     76  C   UNL A   1      35.191  33.125  31.377  1.00  0.00     0.135 A 
ATOM     77  C   UNL A   1      36.744  33.992  29.761  1.00  0.00     0.135 A 
ATOM     78  F   UNL A   1      34.915  32.378  32.458  1.00  0.00    -0.206 F 
ATOM     79  C   UNL A   1      34.150  33.812  30.761  1.00  0.00     0.059 A 
ATOM     80  C   UNL A   1      35.724  34.705  29.141  1.00  0.00     0.059 A 
ATOM     81  F   UNL A   1      37.990  34.111  29.275  1.00  0.00    -0.206 F 
ATOM     82  C   UNL A   1      34.429  34.610  29.649  1.00  0.00     0.060 A 
BRANCH  82  83
ATOM     83  S   UNL A   1      33.093  35.585  28.923  1.00  0.00     0.124 S 
ATOM     84  O   UNL A   1      33.834  36.639  28.241  1.00  0.00    -0.237 OA
ATOM     85  O   UNL A   1      32.432  34.608  28.063  1.00  0.00    -0.237 OA
ATOM     86  O   UNL A   1      32.317  36.007  30.086  1.00  0.00    -0.744 OA
ENDBRANCH  82  83
ENDBRANCH  50  75
BRANCH  62  87
ATOM     87  C   UNL A   1      39.737  34.384  36.967  1.00  0.00     0.058 A 
ATOM     88  C   UNL A   1      40.415  35.610  36.882  1.00  0.00     0.135 A 
ATOM     89  C   UNL A   1      38.889  34.180  38.067  1.00  0.00     0.135 A 
ATOM     90  F   UNL A   1      41.240  35.857  35.852  1.00  0.00    -0.206 F 
ATOM     91  C   UNL A   1      40.294  36.579  37.874  1.00  0.00     0.059 A 
ATOM     92  C   UNL A   1      38.732  35.145  39.058  1.00  0.00     0.059 A 
ATOM     93  F   UNL A   1      38.206  33.030  38.191  1.00  0.00    -0.206 F 
ATOM     94  C   UNL A   1      39.457  36.333  38.963  1.00  0.00     0.060 A 
BRANCH  94  95
ATOM     95  S   UNL A   1      39.319  37.588  40.254  1.00  0.00     0.124 S 
ATOM     96  O   UNL A   1      38.305  38.474  39.692  1.00  0.00    -0.237 OA
ATOM     97  O   UNL A   1      38.904  36.805  41.413  1.00  0.00    -0.237 OA
ATOM     98  O   UNL A   1      40.666  38.143  40.330  1.00  0.00    -0.744 OA
ENDBRANCH  94  95
ENDBRANCH  62  87
ENDBRANCH  36  37
ENDBRANCH  28  31
ENDBRANCH  26  27
ENDBRANCH   1  26
TORSDOF 15
ENDMDL
