MODEL 1
REMARK VINA RESULT:     -12.8      0.000      0.000
REMARK SMILES COc1ccc(C(=O)Nc2cc(C(=O)NCCCNC(=O)c3ccc(-c4c5nc(c(-c6c(F)cc(S(=O)(=O)[O-])cc6F)c6ccc([nH]6)c(-c6c(F)cc(S(=O)(=O)[O-])cc6F)c6nc(c(-c7c(F)cc(S(=O)(=O)[O-])cc7F)c7ccc4[nH]7)C=C6)C=C5)cc3)c(Cl)cc2Cl)cc1Cl
REMARK SMILES IDX 17 1 16 2 15 3 13 4 14 5 12 7 10 8 11 9 91 10 90 11 92 12
REMARK SMILES IDX 88 13 89 14 9 15 7 16 8 17 6 19 3 20 4 21 94 22 5 23 93 24
REMARK SMILES IDX 95 25 2 26 1 27 18 28 19 29 20 30 21 32 22 33 23 34 87 35
REMARK SMILES IDX 24 36 86 37 25 38 26 39 27 40 80 41 28 42 85 43 79 44 81 45
REMARK SMILES IDX 29 46 84 47 78 48 77 49 30 51 64 52 43 53 63 54 44 55 47 56
REMARK SMILES IDX 62 57 82 58 45 59 46 60 61 62 83 63 48 64 31 65 32 66 41 67
REMARK SMILES IDX 33 68 34 69 40 70 42 71 35 72 36 73 37 74 38 75 39 76 65 77
REMARK SMILES IDX 66 78 75 79 67 80 68 81 74 82 76 83 69 84 70 85 71 86 72 87
REMARK SMILES IDX 73 88 49 89 50 90 59 91 51 92 52 93 58 94 60 95 53 96 54 97
REMARK SMILES IDX 55 98 56 99 57 100
REMARK H PARENT 15 6 9 18 19 31 81 50 47 61
REMARK Flexibility Score: inf
ROOT
ATOM      1  C   UNL A   1      37.942  23.767  26.050  1.00  0.00     0.042 C 
ENDROOT
BRANCH   1   2
ATOM      2  C   UNL A   1      37.249  22.483  25.582  1.00  0.00     0.118 C 
BRANCH   2   3
ATOM      3  N   UNL A   1      36.218  22.072  26.506  1.00  0.00    -0.352 N 
ATOM      4  C   UNL A   1      34.860  21.986  26.514  1.00  0.00     0.252 C 
ATOM      5  O   UNL A   1      34.422  21.481  27.558  1.00  0.00    -0.269 OA
ATOM      6  H   UNL A   1      36.601  21.775  27.363  1.00  0.00     0.163 HD
BRANCH   4   7
ATOM      7  C   UNL A   1      33.852  22.373  25.463  1.00  0.00     0.060 A 
ATOM      8  C   UNL A   1      31.489  23.110  25.294  1.00  0.00     0.061 A 
ATOM      9  C   UNL A   1      32.560  22.583  26.023  1.00  0.00     0.043 A 
ATOM     10  C   UNL A   1      31.597  23.187  23.911  1.00  0.00     0.066 A 
ATOM     11  C   UNL A   1      32.837  22.982  23.321  1.00  0.00     0.044 A 
ATOM     12  Cl  UNL A   1      30.282  23.715  22.924  1.00  0.00    -0.082 Cl
ATOM     13  C   UNL A   1      33.974  22.665  24.096  1.00  0.00     0.055 A 
ATOM     14  Cl  UNL A   1      35.427  22.869  23.204  1.00  0.00    -0.083 Cl
BRANCH   8  15
ATOM     15  N   UNL A   1      30.356  23.652  25.926  1.00  0.00    -0.321 N 
ATOM     16  C   UNL A   1      30.004  24.961  26.199  1.00  0.00     0.255 C 
ATOM     17  O   UNL A   1      29.018  25.155  26.915  1.00  0.00    -0.269 OA
ATOM     18  H   UNL A   1      29.699  22.983  26.226  1.00  0.00     0.170 HD
BRANCH  16  19
ATOM     19  C   UNL A   1      30.684  26.154  25.594  1.00  0.00     0.041 A 
ATOM     20  C   UNL A   1      32.105  28.352  24.505  1.00  0.00     0.137 A 
ATOM     21  C   UNL A   1      32.575  27.681  25.641  1.00  0.00     0.049 A 
ATOM     22  C   UNL A   1      30.905  27.928  23.929  1.00  0.00     0.083 A 
ATOM     23  C   UNL A   1      31.881  26.589  26.174  1.00  0.00     0.018 A 
ATOM     24  C   UNL A   1      30.167  26.895  24.527  1.00  0.00     0.038 A 
ATOM     25  Cl  UNL A   1      30.283  28.527  22.430  1.00  0.00    -0.080 Cl
BRANCH  20  26
ATOM     26  O   UNL A   1      32.947  29.333  24.057  1.00  0.00    -0.495 OA
ATOM     27  C   UNL A   1      33.887  28.958  23.055  1.00  0.00     0.278 C 
ENDBRANCH  20  26
ENDBRANCH  16  19
ENDBRANCH   8  15
ENDBRANCH   4   7
ENDBRANCH   2   3
ENDBRANCH   1   2
BRANCH   1  28
ATOM     28  C   UNL A   1      39.189  23.514  26.899  1.00  0.00     0.118 C 
BRANCH  28  29
ATOM     29  N   UNL A   1      40.404  23.909  26.196  1.00  0.00    -0.352 N 
ATOM     30  C   UNL A   1      41.149  25.055  26.273  1.00  0.00     0.251 C 
ATOM     31  H   UNL A   1      40.746  23.240  25.562  1.00  0.00     0.163 HD
ATOM     32  O   UNL A   1      41.963  25.291  25.376  1.00  0.00    -0.269 OA
BRANCH  30  33
ATOM     33  C   UNL A   1      41.005  25.998  27.402  1.00  0.00     0.039 A 
ATOM     34  C   UNL A   1      41.933  27.036  27.532  1.00  0.00     0.014 A 
ATOM     35  C   UNL A   1      40.018  25.822  28.376  1.00  0.00     0.014 A 
ATOM     36  C   UNL A   1      41.845  27.920  28.610  1.00  0.00     0.010 A 
ATOM     37  C   UNL A   1      39.887  26.745  29.411  1.00  0.00     0.010 A 
ATOM     38  C   UNL A   1      40.803  27.798  29.544  1.00  0.00    -0.014 A 
BRANCH  38  39
ATOM     39  C   UNL A   1      40.659  28.770  30.657  1.00  0.00     0.031 A 
ATOM     40  C   UNL A   1      41.522  28.662  31.885  1.00  0.00     0.074 A 
ATOM     41  C   UNL A   1      39.704  29.718  30.580  1.00  0.00     0.049 A 
ATOM     42  N   UNL A   1      41.507  29.389  32.971  1.00  0.00    -0.248 NA
ATOM     43  C   UNL A   1      42.515  27.576  31.906  1.00  0.00     0.031 C 
ATOM     44  C   UNL A   1      38.768  29.884  29.466  1.00  0.00     0.029 A 
ATOM     45  N   UNL A   1      39.355  30.715  31.456  1.00  0.00    -0.354 N 
ATOM     46  C   UNL A   1      42.474  28.845  33.809  1.00  0.00     0.074 A 
ATOM     47  C   UNL A   1      43.020  27.692  33.124  1.00  0.00     0.031 C 
ATOM     48  C   UNL A   1      37.969  30.934  29.714  1.00  0.00     0.029 A 
ATOM     49  C   UNL A   1      38.312  31.494  31.018  1.00  0.00     0.049 A 
ATOM     50  H   UNL A   1      39.810  30.858  32.318  1.00  0.00     0.167 HD
ATOM     51  C   UNL A   1      42.884  29.279  35.025  1.00  0.00     0.037 A 
ATOM     52  C   UNL A   1      37.696  32.540  31.600  1.00  0.00     0.037 A 
ATOM     53  C   UNL A   1      42.348  30.442  35.686  1.00  0.00     0.049 A 
ATOM     54  C   UNL A   1      38.181  33.017  32.941  1.00  0.00     0.074 A 
ATOM     55  C   UNL A   1      42.733  31.001  36.892  1.00  0.00     0.029 A 
ATOM     56  N   UNL A   1      41.311  31.223  35.196  1.00  0.00    -0.354 N 
ATOM     57  N   UNL A   1      39.141  32.528  33.690  1.00  0.00    -0.248 NA
ATOM     58  C   UNL A   1      37.509  34.192  33.511  1.00  0.00     0.031 C 
ATOM     59  C   UNL A   1      41.902  32.097  37.151  1.00  0.00     0.029 A 
ATOM     60  C   UNL A   1      41.030  32.249  36.084  1.00  0.00     0.049 A 
ATOM     61  H   UNL A   1      40.843  31.070  34.345  1.00  0.00     0.167 HD
ATOM     62  C   UNL A   1      39.201  33.347  34.811  1.00  0.00     0.074 A 
ATOM     63  C   UNL A   1      38.191  34.372  34.633  1.00  0.00     0.031 C 
ATOM     64  C   UNL A   1      40.019  33.259  35.891  1.00  0.00     0.037 A 
BRANCH  51  65
ATOM     65  C   UNL A   1      43.968  28.495  35.715  1.00  0.00     0.058 A 
ATOM     66  C   UNL A   1      45.328  28.773  35.501  1.00  0.00     0.135 A 
ATOM     67  C   UNL A   1      43.647  27.467  36.617  1.00  0.00     0.135 A 
ATOM     68  F   UNL A   1      45.694  29.735  34.639  1.00  0.00    -0.206 F 
ATOM     69  C   UNL A   1      46.330  28.037  36.126  1.00  0.00     0.059 A 
ATOM     70  C   UNL A   1      44.633  26.737  37.277  1.00  0.00     0.059 A 
ATOM     71  F   UNL A   1      42.364  27.159  36.863  1.00  0.00    -0.206 F 
ATOM     72  C   UNL A   1      45.973  27.018  37.009  1.00  0.00     0.060 A 
BRANCH  72  73
ATOM     73  S   UNL A   1      47.283  26.066  37.808  1.00  0.00     0.124 S 
ATOM     74  O   UNL A   1      46.522  25.282  38.777  1.00  0.00    -0.237 OA
ATOM     75  O   UNL A   1      47.846  25.311  36.690  1.00  0.00    -0.237 OA
ATOM     76  O   UNL A   1      48.154  27.088  38.371  1.00  0.00    -0.744 OA
ENDBRANCH  72  73
ENDBRANCH  51  65
BRANCH  52  77
ATOM     77  C   UNL A   1      36.577  33.222  30.897  1.00  0.00     0.058 A 
ATOM     78  C   UNL A   1      35.255  33.083  31.341  1.00  0.00     0.135 A 
ATOM     79  C   UNL A   1      36.813  34.056  29.794  1.00  0.00     0.135 A 
ATOM     80  F   UNL A   1      34.979  32.293  32.390  1.00  0.00    -0.206 F 
ATOM     81  C   UNL A   1      34.202  33.742  30.713  1.00  0.00     0.059 A 
ATOM     82  C   UNL A   1      35.780  34.745  29.164  1.00  0.00     0.059 A 
ATOM     83  F   UNL A   1      38.064  34.238  29.342  1.00  0.00    -0.206 F 
ATOM     84  C   UNL A   1      34.476  34.575  29.628  1.00  0.00     0.060 A 
BRANCH  84  85
ATOM     85  S   UNL A   1      33.112  35.478  28.862  1.00  0.00     0.124 S 
ATOM     86  O   UNL A   1      32.398  35.978  30.030  1.00  0.00    -0.237 OA
ATOM     87  O   UNL A   1      33.817  36.480  28.067  1.00  0.00    -0.237 OA
ATOM     88  O   UNL A   1      32.422  34.450  28.090  1.00  0.00    -0.744 OA
ENDBRANCH  84  85
ENDBRANCH  52  77
BRANCH  64  89
ATOM     89  C   UNL A   1      39.868  34.312  36.953  1.00  0.00     0.058 A 
ATOM     90  C   UNL A   1      40.576  35.522  36.896  1.00  0.00     0.135 A 
ATOM     91  C   UNL A   1      38.973  34.123  38.019  1.00  0.00     0.135 A 
ATOM     92  F   UNL A   1      41.449  35.749  35.900  1.00  0.00    -0.206 F 
ATOM     93  C   UNL A   1      40.422  36.499  37.873  1.00  0.00     0.059 A 
ATOM     94  C   UNL A   1      38.784  35.098  38.992  1.00  0.00     0.059 A 
ATOM     95  F   UNL A   1      38.264  32.987  38.114  1.00  0.00    -0.206 F 
ATOM     96  C   UNL A   1      39.523  36.278  38.918  1.00  0.00     0.060 A 
BRANCH  96  97
ATOM     97  S   UNL A   1      39.314  37.564  40.168  1.00  0.00     0.124 S 
ATOM     98  O   UNL A   1      38.211  38.339  39.608  1.00  0.00    -0.237 OA
ATOM     99  O   UNL A   1      39.003  36.791  41.365  1.00  0.00    -0.237 OA
ATOM    100  O   UNL A   1      40.611  38.236  40.183  1.00  0.00    -0.744 OA
ENDBRANCH  96  97
ENDBRANCH  64  89
ENDBRANCH  38  39
ENDBRANCH  30  33
ENDBRANCH  28  29
ENDBRANCH   1  28
TORSDOF 16
ENDMDL
MODEL 2
REMARK VINA RESULT:     -12.8      1.381      2.189
REMARK SMILES COc1ccc(C(=O)Nc2cc(C(=O)NCCCNC(=O)c3ccc(-c4c5nc(c(-c6c(F)cc(S(=O)(=O)[O-])cc6F)c6ccc([nH]6)c(-c6c(F)cc(S(=O)(=O)[O-])cc6F)c6nc(c(-c7c(F)cc(S(=O)(=O)[O-])cc7F)c7ccc4[nH]7)C=C6)C=C5)cc3)c(Cl)cc2Cl)cc1Cl
REMARK SMILES IDX 17 1 16 2 15 3 13 4 14 5 12 7 10 8 11 9 91 10 90 11 92 12
REMARK SMILES IDX 88 13 89 14 9 15 7 16 8 17 6 19 3 20 4 21 94 22 5 23 93 24
REMARK SMILES IDX 95 25 2 26 1 27 18 28 19 29 20 30 21 32 22 33 23 34 87 35
REMARK SMILES IDX 24 36 86 37 25 38 26 39 27 40 80 41 28 42 85 43 79 44 81 45
REMARK SMILES IDX 29 46 84 47 78 48 77 49 30 51 64 52 43 53 63 54 44 55 47 56
REMARK SMILES IDX 62 57 82 58 45 59 46 60 61 62 83 63 48 64 31 65 32 66 41 67
REMARK SMILES IDX 33 68 34 69 40 70 42 71 35 72 36 73 37 74 38 75 39 76 65 77
REMARK SMILES IDX 66 78 75 79 67 80 68 81 74 82 76 83 69 84 70 85 71 86 72 87
REMARK SMILES IDX 73 88 49 89 50 90 59 91 51 92 52 93 58 94 60 95 53 96 54 97
REMARK SMILES IDX 55 98 56 99 57 100
REMARK H PARENT 15 6 9 18 19 31 81 50 47 61
REMARK Flexibility Score: inf
ROOT
ATOM      1  C   UNL A   1      38.501  23.627  26.315  1.00  0.00     0.042 C 
ENDROOT
BRANCH   1   2
ATOM      2  C   UNL A   1      37.767  22.416  25.732  1.00  0.00     0.118 C 
BRANCH   2   3
ATOM      3  N   UNL A   1      37.489  22.592  24.326  1.00  0.00    -0.352 N 
ATOM      4  C   UNL A   1      36.398  22.808  23.543  1.00  0.00     0.252 C 
ATOM      5  O   UNL A   1      36.694  22.973  22.350  1.00  0.00    -0.269 OA
ATOM      6  H   UNL A   1      38.313  22.543  23.788  1.00  0.00     0.163 HD
BRANCH   4   7
ATOM      7  C   UNL A   1      34.939  22.902  23.906  1.00  0.00     0.060 A 
ATOM      8  C   UNL A   1      32.920  24.206  23.291  1.00  0.00     0.061 A 
ATOM      9  C   UNL A   1      34.302  23.996  23.256  1.00  0.00     0.043 A 
ATOM     10  C   UNL A   1      32.159  23.486  24.204  1.00  0.00     0.066 A 
ATOM     11  C   UNL A   1      32.741  22.414  24.867  1.00  0.00     0.044 A 
ATOM     12  Cl  UNL A   1      30.465  23.763  24.396  1.00  0.00    -0.082 Cl
ATOM     13  C   UNL A   1      34.094  22.069  24.655  1.00  0.00     0.055 A 
ATOM     14  Cl  UNL A   1      34.450  20.499  25.254  1.00  0.00    -0.083 Cl
BRANCH   8  15
ATOM     15  N   UNL A   1      32.272  25.044  22.367  1.00  0.00    -0.321 N 
ATOM     16  C   UNL A   1      31.854  26.359  22.465  1.00  0.00     0.255 C 
ATOM     17  O   UNL A   1      31.161  26.812  21.553  1.00  0.00    -0.269 OA
ATOM     18  H   UNL A   1      32.084  24.622  21.497  1.00  0.00     0.170 HD
BRANCH  16  19
ATOM     19  C   UNL A   1      32.280  27.291  23.561  1.00  0.00     0.041 A 
ATOM     20  C   UNL A   1      33.106  29.161  25.525  1.00  0.00     0.137 A 
ATOM     21  C   UNL A   1      33.576  29.244  24.208  1.00  0.00     0.049 A 
ATOM     22  C   UNL A   1      32.236  28.121  25.859  1.00  0.00     0.083 A 
ATOM     23  C   UNL A   1      33.161  28.327  23.235  1.00  0.00     0.018 A 
ATOM     24  C   UNL A   1      31.902  27.152  24.901  1.00  0.00     0.038 A 
ATOM     25  Cl  UNL A   1      31.429  27.983  27.383  1.00  0.00    -0.080 Cl
BRANCH  20  26
ATOM     26  O   UNL A   1      33.533  30.185  26.326  1.00  0.00    -0.495 OA
ATOM     27  C   UNL A   1      34.369  29.829  27.424  1.00  0.00     0.278 C 
ENDBRANCH  20  26
ENDBRANCH  16  19
ENDBRANCH   8  15
ENDBRANCH   4   7
ENDBRANCH   2   3
ENDBRANCH   1   2
BRANCH   1  28
ATOM     28  C   UNL A   1      39.806  23.265  27.028  1.00  0.00     0.118 C 
BRANCH  28  29
ATOM     29  N   UNL A   1      40.969  23.721  26.277  1.00  0.00    -0.352 N 
ATOM     30  C   UNL A   1      41.627  24.922  26.290  1.00  0.00     0.251 C 
ATOM     31  H   UNL A   1      41.345  23.055  25.659  1.00  0.00     0.163 HD
ATOM     32  O   UNL A   1      42.398  25.183  25.361  1.00  0.00    -0.269 OA
BRANCH  30  33
ATOM     33  C   UNL A   1      41.441  25.896  27.385  1.00  0.00     0.039 A 
ATOM     34  C   UNL A   1      40.416  25.676  28.313  1.00  0.00     0.014 A 
ATOM     35  C   UNL A   1      42.207  27.063  27.460  1.00  0.00     0.014 A 
ATOM     36  C   UNL A   1      40.192  26.599  29.336  1.00  0.00     0.010 A 
ATOM     37  C   UNL A   1      42.030  27.947  28.522  1.00  0.00     0.010 A 
ATOM     38  C   UNL A   1      41.016  27.730  29.466  1.00  0.00    -0.014 A 
BRANCH  38  39
ATOM     39  C   UNL A   1      40.831  28.684  30.589  1.00  0.00     0.031 A 
ATOM     40  C   UNL A   1      41.676  28.579  31.829  1.00  0.00     0.074 A 
ATOM     41  C   UNL A   1      39.857  29.611  30.508  1.00  0.00     0.049 A 
ATOM     42  N   UNL A   1      41.627  29.292  32.924  1.00  0.00    -0.248 NA
ATOM     43  C   UNL A   1      42.693  27.515  31.853  1.00  0.00     0.031 C 
ATOM     44  C   UNL A   1      38.936  29.771  29.380  1.00  0.00     0.029 A 
ATOM     45  N   UNL A   1      39.471  30.588  31.390  1.00  0.00    -0.354 N 
ATOM     46  C   UNL A   1      42.592  28.758  33.771  1.00  0.00     0.074 A 
ATOM     47  C   UNL A   1      43.175  27.626  33.081  1.00  0.00     0.031 C 
ATOM     48  C   UNL A   1      38.109  30.800  29.628  1.00  0.00     0.029 A 
ATOM     49  C   UNL A   1      38.418  31.350  30.944  1.00  0.00     0.049 A 
ATOM     50  H   UNL A   1      39.908  30.730  32.261  1.00  0.00     0.167 HD
ATOM     51  C   UNL A   1      42.972  29.184  34.999  1.00  0.00     0.037 A 
ATOM     52  C   UNL A   1      37.770  32.374  31.530  1.00  0.00     0.037 A 
ATOM     53  C   UNL A   1      42.400  30.327  35.665  1.00  0.00     0.049 A 
ATOM     54  C   UNL A   1      38.222  32.845  32.884  1.00  0.00     0.074 A 
ATOM     55  C   UNL A   1      42.752  30.879  36.885  1.00  0.00     0.029 A 
ATOM     56  N   UNL A   1      41.353  31.091  35.169  1.00  0.00    -0.354 N 
ATOM     57  N   UNL A   1      39.180  32.367  33.643  1.00  0.00    -0.248 NA
ATOM     58  C   UNL A   1      37.514  33.997  33.458  1.00  0.00     0.031 C 
ATOM     59  C   UNL A   1      41.893  31.953  37.143  1.00  0.00     0.029 A 
ATOM     60  C   UNL A   1      41.036  32.099  36.064  1.00  0.00     0.049 A 
ATOM     61  H   UNL A   1      40.903  30.939  34.308  1.00  0.00     0.167 HD
ATOM     62  C   UNL A   1      39.204  33.173  34.775  1.00  0.00     0.074 A 
ATOM     63  C   UNL A   1      38.174  34.178  34.593  1.00  0.00     0.031 C 
ATOM     64  C   UNL A   1      40.005  33.089  35.867  1.00  0.00     0.037 A 
BRANCH  51  65
ATOM     65  C   UNL A   1      44.062  28.416  35.697  1.00  0.00     0.058 A 
ATOM     66  C   UNL A   1      43.769  27.369  36.588  1.00  0.00     0.135 A 
ATOM     67  C   UNL A   1      45.414  28.711  35.460  1.00  0.00     0.135 A 
ATOM     68  F   UNL A   1      42.494  27.051  36.863  1.00  0.00    -0.206 F 
ATOM     69  C   UNL A   1      44.776  26.670  37.247  1.00  0.00     0.059 A 
ATOM     70  C   UNL A   1      46.439  28.005  36.085  1.00  0.00     0.059 A 
ATOM     71  F   UNL A   1      45.753  29.699  34.617  1.00  0.00    -0.206 F 
ATOM     72  C   UNL A   1      46.108  26.997  36.992  1.00  0.00     0.060 A 
BRANCH  72  73
ATOM     73  S   UNL A   1      47.405  26.087  37.859  1.00  0.00     0.124 S 
ATOM     74  O   UNL A   1      47.935  25.248  36.788  1.00  0.00    -0.237 OA
ATOM     75  O   UNL A   1      48.286  27.159  38.316  1.00  0.00    -0.237 OA
ATOM     76  O   UNL A   1      46.683  25.383  38.911  1.00  0.00    -0.744 OA
ENDBRANCH  72  73
ENDBRANCH  51  65
BRANCH  52  77
ATOM     77  C   UNL A   1      36.648  33.040  30.816  1.00  0.00     0.058 A 
ATOM     78  C   UNL A   1      35.320  32.854  31.227  1.00  0.00     0.135 A 
ATOM     79  C   UNL A   1      36.884  33.907  29.738  1.00  0.00     0.135 A 
ATOM     80  F   UNL A   1      35.044  32.033  32.251  1.00  0.00    -0.206 F 
ATOM     81  C   UNL A   1      34.264  33.497  30.590  1.00  0.00     0.059 A 
ATOM     82  C   UNL A   1      35.846  34.580  29.100  1.00  0.00     0.059 A 
ATOM     83  F   UNL A   1      38.139  34.133  29.319  1.00  0.00    -0.206 F 
ATOM     84  C   UNL A   1      34.537  34.363  29.530  1.00  0.00     0.060 A 
BRANCH  84  85
ATOM     85  S   UNL A   1      33.165  35.245  28.753  1.00  0.00     0.124 S 
ATOM     86  O   UNL A   1      32.426  35.720  29.917  1.00  0.00    -0.237 OA
ATOM     87  O   UNL A   1      33.859  36.267  27.976  1.00  0.00    -0.237 OA
ATOM     88  O   UNL A   1      32.506  34.209  27.964  1.00  0.00    -0.744 OA
ENDBRANCH  84  85
ENDBRANCH  52  77
BRANCH  64  89
ATOM     89  C   UNL A   1      39.814  34.125  36.939  1.00  0.00     0.058 A 
ATOM     90  C   UNL A   1      39.040  33.868  38.081  1.00  0.00     0.135 A 
ATOM     91  C   UNL A   1      40.446  35.375  36.841  1.00  0.00     0.135 A 
ATOM     92  F   UNL A   1      38.409  32.690  38.220  1.00  0.00    -0.206 F 
ATOM     93  C   UNL A   1      38.878  34.824  39.078  1.00  0.00     0.059 A 
ATOM     94  C   UNL A   1      40.320  36.336  37.838  1.00  0.00     0.059 A 
ATOM     95  F   UNL A   1      41.206  35.667  35.773  1.00  0.00    -0.206 F 
ATOM     96  C   UNL A   1      39.522  36.056  38.948  1.00  0.00     0.060 A 
BRANCH  96  97
ATOM     97  S   UNL A   1      39.324  37.280  40.260  1.00  0.00     0.124 S 
ATOM     98  O   UNL A   1      38.554  36.530  41.247  1.00  0.00    -0.237 OA
ATOM     99  O   UNL A   1      40.706  37.575  40.624  1.00  0.00    -0.237 OA
ATOM    100  O   UNL A   1      38.609  38.370  39.601  1.00  0.00    -0.744 OA
ENDBRANCH  96  97
ENDBRANCH  64  89
ENDBRANCH  38  39
ENDBRANCH  30  33
ENDBRANCH  28  29
ENDBRANCH   1  28
TORSDOF 16
ENDMDL
MODEL 3
REMARK VINA RESULT:     -12.8      6.451     11.929
REMARK SMILES COc1ccc(C(=O)Nc2cc(C(=O)NCCCNC(=O)c3ccc(-c4c5nc(c(-c6c(F)cc(S(=O)(=O)[O-])cc6F)c6ccc([nH]6)c(-c6c(F)cc(S(=O)(=O)[O-])cc6F)c6nc(c(-c7c(F)cc(S(=O)(=O)[O-])cc7F)c7ccc4[nH]7)C=C6)C=C5)cc3)c(Cl)cc2Cl)cc1Cl
REMARK SMILES IDX 17 1 16 2 15 3 13 4 14 5 12 7 10 8 11 9 91 10 90 11 92 12
REMARK SMILES IDX 88 13 89 14 9 15 7 16 8 17 6 19 3 20 4 21 94 22 5 23 93 24
REMARK SMILES IDX 95 25 2 26 1 27 18 28 19 29 20 30 21 32 22 33 23 34 87 35
REMARK SMILES IDX 24 36 86 37 25 38 26 39 27 40 80 41 28 42 85 43 79 44 81 45
REMARK SMILES IDX 29 46 84 47 78 48 77 49 30 51 64 52 43 53 63 54 44 55 47 56
REMARK SMILES IDX 62 57 82 58 45 59 46 60 61 62 83 63 48 64 31 65 32 66 41 67
REMARK SMILES IDX 33 68 34 69 40 70 42 71 35 72 36 73 37 74 38 75 39 76 65 77
REMARK SMILES IDX 66 78 75 79 67 80 68 81 74 82 76 83 69 84 70 85 71 86 72 87
REMARK SMILES IDX 73 88 49 89 50 90 59 91 51 92 52 93 58 94 60 95 53 96 54 97
REMARK SMILES IDX 55 98 56 99 57 100
REMARK H PARENT 15 6 9 18 19 31 81 50 47 61
REMARK Flexibility Score: inf
ROOT
ATOM      1  C   UNL A   1      34.633  29.500  27.827  1.00  0.00     0.042 C 
ENDROOT
BRANCH   1   2
ATOM      2  C   UNL A   1      34.343  29.472  26.323  1.00  0.00     0.118 C 
BRANCH   2   3
ATOM      3  N   UNL A   1      33.078  30.098  26.017  1.00  0.00    -0.352 N 
ATOM      4  C   UNL A   1      31.920  29.756  25.389  1.00  0.00     0.252 C 
ATOM      5  O   UNL A   1      31.063  30.649  25.453  1.00  0.00    -0.269 OA
ATOM      6  H   UNL A   1      33.044  31.023  26.353  1.00  0.00     0.163 HD
BRANCH   4   7
ATOM      7  C   UNL A   1      31.533  28.483  24.681  1.00  0.00     0.060 A 
ATOM      8  C   UNL A   1      30.951  26.131  25.209  1.00  0.00     0.061 A 
ATOM      9  C   UNL A   1      31.450  27.383  25.580  1.00  0.00     0.043 A 
ATOM     10  C   UNL A   1      30.774  25.856  23.858  1.00  0.00     0.066 A 
ATOM     11  C   UNL A   1      30.853  26.898  22.944  1.00  0.00     0.044 A 
ATOM     12  Cl  UNL A   1      30.271  24.300  23.305  1.00  0.00    -0.082 Cl
ATOM     13  C   UNL A   1      31.142  28.217  23.360  1.00  0.00     0.055 A 
ATOM     14  Cl  UNL A   1      30.780  29.363  22.133  1.00  0.00    -0.083 Cl
BRANCH   8  15
ATOM     15  N   UNL A   1      30.531  25.187  26.163  1.00  0.00    -0.321 N 
ATOM     16  C   UNL A   1      31.036  23.943  26.498  1.00  0.00     0.255 C 
ATOM     17  O   UNL A   1      30.377  23.243  27.269  1.00  0.00    -0.269 OA
ATOM     18  H   UNL A   1      29.741  25.458  26.683  1.00  0.00     0.170 HD
BRANCH  16  19
ATOM     19  C   UNL A   1      32.381  23.442  26.061  1.00  0.00     0.041 A 
ATOM     20  C   UNL A   1      34.987  22.586  25.345  1.00  0.00     0.137 A 
ATOM     21  C   UNL A   1      34.772  23.853  25.900  1.00  0.00     0.049 A 
ATOM     22  C   UNL A   1      33.884  21.756  25.131  1.00  0.00     0.083 A 
ATOM     23  C   UNL A   1      33.487  24.274  26.263  1.00  0.00     0.018 A 
ATOM     24  C   UNL A   1      32.591  22.223  25.409  1.00  0.00     0.038 A 
ATOM     25  Cl  UNL A   1      33.996  20.105  24.626  1.00  0.00    -0.080 Cl
BRANCH  20  26
ATOM     26  O   UNL A   1      36.307  22.295  25.134  1.00  0.00    -0.495 OA
ATOM     27  C   UNL A   1      37.223  23.382  25.229  1.00  0.00     0.278 C 
ENDBRANCH  20  26
ENDBRANCH  16  19
ENDBRANCH   8  15
ENDBRANCH   4   7
ENDBRANCH   2   3
ENDBRANCH   1   2
BRANCH   1  28
ATOM     28  C   UNL A   1      35.406  30.741  28.277  1.00  0.00     0.118 C 
BRANCH  28  29
ATOM     29  N   UNL A   1      35.496  30.817  29.730  1.00  0.00    -0.352 N 
ATOM     30  C   UNL A   1      36.460  30.366  30.591  1.00  0.00     0.251 C 
ATOM     31  H   UNL A   1      34.738  31.268  30.165  1.00  0.00     0.163 HD
ATOM     32  O   UNL A   1      36.186  30.277  31.792  1.00  0.00    -0.269 OA
BRANCH  30  33
ATOM     33  C   UNL A   1      37.810  29.996  30.117  1.00  0.00     0.039 A 
ATOM     34  C   UNL A   1      38.783  29.650  31.061  1.00  0.00     0.014 A 
ATOM     35  C   UNL A   1      38.151  30.068  28.763  1.00  0.00     0.014 A 
ATOM     36  C   UNL A   1      40.078  29.333  30.645  1.00  0.00     0.010 A 
ATOM     37  C   UNL A   1      39.422  29.683  28.342  1.00  0.00     0.010 A 
ATOM     38  C   UNL A   1      40.401  29.320  29.279  1.00  0.00    -0.014 A 
BRANCH  38  39
ATOM     39  C   UNL A   1      41.755  28.921  28.818  1.00  0.00     0.031 A 
ATOM     40  C   UNL A   1      42.864  29.934  28.733  1.00  0.00     0.074 A 
ATOM     41  C   UNL A   1      41.965  27.650  28.422  1.00  0.00     0.049 A 
ATOM     42  N   UNL A   1      44.093  29.781  28.313  1.00  0.00    -0.248 NA
ATOM     43  C   UNL A   1      42.542  31.309  29.149  1.00  0.00     0.031 C 
ATOM     44  C   UNL A   1      40.951  26.594  28.404  1.00  0.00     0.029 A 
ATOM     45  N   UNL A   1      43.096  27.032  27.950  1.00  0.00    -0.354 N 
ATOM     46  C   UNL A   1      44.686  31.035  28.400  1.00  0.00     0.074 A 
ATOM     47  C   UNL A   1      43.665  31.951  28.864  1.00  0.00     0.031 C 
ATOM     48  C   UNL A   1      41.511  25.453  27.969  1.00  0.00     0.029 A 
ATOM     49  C   UNL A   1      42.911  25.705  27.646  1.00  0.00     0.049 A 
ATOM     50  H   UNL A   1      43.957  27.495  27.842  1.00  0.00     0.167 HD
ATOM     51  C   UNL A   1      45.968  31.386  28.140  1.00  0.00     0.037 A 
ATOM     52  C   UNL A   1      43.771  24.792  27.155  1.00  0.00     0.037 A 
ATOM     53  C   UNL A   1      46.982  30.461  27.701  1.00  0.00     0.049 A 
ATOM     54  C   UNL A   1      45.195  25.199  26.894  1.00  0.00     0.074 A 
ATOM     55  C   UNL A   1      48.324  30.701  27.464  1.00  0.00     0.029 A 
ATOM     56  N   UNL A   1      46.763  29.117  27.430  1.00  0.00    -0.354 N 
ATOM     57  N   UNL A   1      45.754  26.376  27.043  1.00  0.00    -0.248 NA
ATOM     58  C   UNL A   1      46.105  24.155  26.406  1.00  0.00     0.031 C 
ATOM     59  C   UNL A   1      48.909  29.512  27.013  1.00  0.00     0.029 A 
ATOM     60  C   UNL A   1      47.941  28.520  27.012  1.00  0.00     0.049 A 
ATOM     61  H   UNL A   1      45.898  28.657  27.520  1.00  0.00     0.167 HD
ATOM     62  C   UNL A   1      47.088  26.210  26.688  1.00  0.00     0.074 A 
ATOM     63  C   UNL A   1      47.253  24.814  26.331  1.00  0.00     0.031 C 
ATOM     64  C   UNL A   1      48.086  27.129  26.659  1.00  0.00     0.037 A 
BRANCH  51  65
ATOM     65  C   UNL A   1      46.347  32.831  28.329  1.00  0.00     0.058 A 
ATOM     66  C   UNL A   1      46.214  33.769  27.291  1.00  0.00     0.135 A 
ATOM     67  C   UNL A   1      46.828  33.291  29.566  1.00  0.00     0.135 A 
ATOM     68  F   UNL A   1      45.772  33.384  26.084  1.00  0.00    -0.206 F 
ATOM     69  C   UNL A   1      46.581  35.100  27.461  1.00  0.00     0.059 A 
ATOM     70  C   UNL A   1      47.173  34.625  29.767  1.00  0.00     0.059 A 
ATOM     71  F   UNL A   1      46.973  32.440  30.593  1.00  0.00    -0.206 F 
ATOM     72  C   UNL A   1      47.063  35.519  28.702  1.00  0.00     0.060 A 
BRANCH  72  73
ATOM     73  S   UNL A   1      47.542  37.248  28.906  1.00  0.00     0.124 S 
ATOM     74  O   UNL A   1      48.222  37.511  27.641  1.00  0.00    -0.237 OA
ATOM     75  O   UNL A   1      46.251  37.911  29.078  1.00  0.00    -0.237 OA
ATOM     76  O   UNL A   1      48.395  37.229  30.087  1.00  0.00    -0.744 OA
ENDBRANCH  72  73
ENDBRANCH  51  65
BRANCH  52  77
ATOM     77  C   UNL A   1      43.310  23.399  26.916  1.00  0.00     0.058 A 
ATOM     78  C   UNL A   1      43.111  22.919  25.615  1.00  0.00     0.135 A 
ATOM     79  C   UNL A   1      43.100  22.510  27.982  1.00  0.00     0.135 A 
ATOM     80  F   UNL A   1      43.296  23.732  24.564  1.00  0.00    -0.206 F 
ATOM     81  C   UNL A   1      42.712  21.607  25.375  1.00  0.00     0.059 A 
ATOM     82  C   UNL A   1      42.724  21.187  27.766  1.00  0.00     0.059 A 
ATOM     83  F   UNL A   1      43.296  22.916  29.246  1.00  0.00    -0.206 F 
ATOM     84  C   UNL A   1      42.527  20.747  26.458  1.00  0.00     0.060 A 
BRANCH  84  85
ATOM     85  S   UNL A   1      42.074  19.029  26.134  1.00  0.00     0.124 S 
ATOM     86  O   UNL A   1      42.323  18.410  27.430  1.00  0.00    -0.237 OA
ATOM     87  O   UNL A   1      40.673  19.150  25.743  1.00  0.00    -0.237 OA
ATOM     88  O   UNL A   1      42.985  18.640  25.062  1.00  0.00    -0.744 OA
ENDBRANCH  84  85
ENDBRANCH  52  77
BRANCH  64  89
ATOM     89  C   UNL A   1      49.449  26.648  26.248  1.00  0.00     0.058 A 
ATOM     90  C   UNL A   1      49.946  26.862  24.953  1.00  0.00     0.135 A 
ATOM     91  C   UNL A   1      50.284  26.002  27.174  1.00  0.00     0.135 A 
ATOM     92  F   UNL A   1      49.184  27.470  24.028  1.00  0.00    -0.206 F 
ATOM     93  C   UNL A   1      51.214  26.428  24.582  1.00  0.00     0.059 A 
ATOM     94  C   UNL A   1      51.566  25.584  26.832  1.00  0.00     0.059 A 
ATOM     95  F   UNL A   1      49.860  25.782  28.429  1.00  0.00    -0.206 F 
ATOM     96  C   UNL A   1      52.017  25.790  25.528  1.00  0.00     0.060 A 
BRANCH  96  97
ATOM     97  S   UNL A   1      53.671  25.253  25.042  1.00  0.00     0.124 S 
ATOM     98  O   UNL A   1      53.625  23.832  25.367  1.00  0.00    -0.237 OA
ATOM     99  O   UNL A   1      53.699  25.578  23.619  1.00  0.00    -0.237 OA
ATOM    100  O   UNL A   1      54.550  26.064  25.881  1.00  0.00    -0.744 OA
ENDBRANCH  96  97
ENDBRANCH  64  89
ENDBRANCH  38  39
ENDBRANCH  30  33
ENDBRANCH  28  29
ENDBRANCH   1  28
TORSDOF 16
ENDMDL
