MODEL 1
REMARK VINA RESULT:     -12.5      0.000      0.000
REMARK SMILES O=C(NCCCNC(=O)[C@H]1CC[C@H]2CCCC[C@@H]2[N@H+]1[C@@H]1CCCSC1)c1ccc(-c2c3nc(c(-c4c(F)cc(S(=O)(=O)[O-])cc4F)c4ccc([nH]4)c(-c4c(F)cc(S(=O)(=O)[O-])cc4F)c4nc(c(-c5c(F)cc(S(=O)(=O)[O-])cc5F)c5ccc2[nH]5)C=C4)C=C3)cc1
REMARK SMILES IDX 4 1 3 2 1 3 2 4 26 6 27 7 91 8 28 9 90 10 29 11 30 12 31 13
REMARK SMILES IDX 84 14 32 15 89 16 83 17 85 18 33 19 88 20 82 21 81 22 34 24
REMARK SMILES IDX 68 25 47 26 67 27 48 28 51 29 66 30 86 31 49 32 50 33 65 35
REMARK SMILES IDX 87 36 52 37 35 38 36 39 45 40 37 41 38 42 44 43 46 44 39 45
REMARK SMILES IDX 40 46 41 47 42 48 43 49 69 50 70 51 79 52 71 53 72 54 78 55
REMARK SMILES IDX 80 56 73 57 74 58 75 59 76 60 77 61 53 62 54 63 63 64 55 65
REMARK SMILES IDX 56 66 62 67 64 68 57 69 58 70 59 71 60 72 61 73 5 74 6 75
REMARK SMILES IDX 7 76 8 77 9 79 10 80 11 81 19 82 12 83 18 84 13 86 17 87
REMARK SMILES IDX 14 88 16 89 15 90 20 91 21 92 25 93 22 94 24 95 23 96
REMARK H PARENT 3 5 85 23 51 34 7 78 19 85
REMARK Flexibility Score: inf
ROOT
ATOM      1  C   UNL A   1      39.072  23.704  26.816  1.00  0.00     0.118 C 
ENDROOT
BRANCH   1   2
ATOM      2  N   UNL A   1      40.142  24.210  25.953  1.00  0.00    -0.352 N 
ATOM      3  O   UNL A   1      41.645  25.658  25.114  1.00  0.00    -0.269 OA
ATOM      4  C   UNL A   1      40.951  25.320  26.064  1.00  0.00     0.251 C 
ATOM      5  H   UNL A   1      40.311  23.663  25.153  1.00  0.00     0.163 HD
BRANCH   4   6
ATOM      6  C   UNL A   1      40.960  26.114  27.313  1.00  0.00     0.039 A 
ATOM      7  C   UNL A   1      40.191  25.719  28.402  1.00  0.00     0.014 A 
ATOM      8  C   UNL A   1      41.739  27.272  27.398  1.00  0.00     0.014 A 
ATOM      9  C   UNL A   1      39.999  26.592  29.460  1.00  0.00     0.010 A 
ATOM     10  C   UNL A   1      41.659  28.081  28.538  1.00  0.00     0.010 A 
ATOM     11  C   UNL A   1      40.742  27.779  29.553  1.00  0.00    -0.014 A 
BRANCH  11  12
ATOM     12  C   UNL A   1      40.539  28.648  30.744  1.00  0.00     0.031 A 
ATOM     13  C   UNL A   1      41.476  28.591  31.921  1.00  0.00     0.074 A 
ATOM     14  C   UNL A   1      39.543  29.557  30.713  1.00  0.00     0.049 A 
ATOM     15  N   UNL A   1      41.475  29.323  33.007  1.00  0.00    -0.248 NA
ATOM     16  C   UNL A   1      42.543  27.578  31.889  1.00  0.00     0.031 C 
ATOM     17  C   UNL A   1      38.566  29.697  29.628  1.00  0.00     0.029 A 
ATOM     18  N   UNL A   1      39.214  30.565  31.580  1.00  0.00    -0.354 N 
ATOM     19  C   UNL A   1      42.504  28.833  33.802  1.00  0.00     0.074 A 
ATOM     20  C   UNL A   1      43.106  27.734  33.080  1.00  0.00     0.031 C 
ATOM     21  C   UNL A   1      37.812  30.782  29.847  1.00  0.00     0.029 A 
ATOM     22  C   UNL A   1      38.194  31.368  31.126  1.00  0.00     0.049 A 
ATOM     23  H   UNL A   1      39.664  30.701  32.445  1.00  0.00     0.167 HD
ATOM     24  C   UNL A   1      42.910  29.264  35.022  1.00  0.00     0.037 A 
ATOM     25  C   UNL A   1      37.622  32.454  31.677  1.00  0.00     0.037 A 
ATOM     26  C   UNL A   1      42.334  30.390  35.711  1.00  0.00     0.049 A 
ATOM     27  C   UNL A   1      38.117  32.933  33.008  1.00  0.00     0.074 A 
ATOM     28  C   UNL A   1      42.690  30.925  36.938  1.00  0.00     0.029 A 
ATOM     29  N   UNL A   1      41.287  31.163  35.229  1.00  0.00    -0.354 N 
ATOM     30  N   UNL A   1      39.088  32.451  33.745  1.00  0.00    -0.248 NA
ATOM     31  C   UNL A   1      37.432  34.093  33.589  1.00  0.00     0.031 C 
ATOM     32  C   UNL A   1      41.840  32.003  37.210  1.00  0.00     0.029 A 
ATOM     33  C   UNL A   1      40.980  32.165  36.137  1.00  0.00     0.049 A 
ATOM     34  H   UNL A   1      40.830  31.021  34.369  1.00  0.00     0.167 HD
ATOM     35  C   UNL A   1      39.139  33.257  34.875  1.00  0.00     0.074 A 
ATOM     36  C   UNL A   1      38.114  34.268  34.713  1.00  0.00     0.031 C 
ATOM     37  C   UNL A   1      39.957  33.163  35.952  1.00  0.00     0.037 A 
BRANCH  24  38
ATOM     38  C   UNL A   1      44.012  28.499  35.703  1.00  0.00     0.058 A 
ATOM     39  C   UNL A   1      43.748  27.434  36.579  1.00  0.00     0.135 A 
ATOM     40  C   UNL A   1      45.356  28.822  35.452  1.00  0.00     0.135 A 
ATOM     41  F   UNL A   1      42.482  27.094  36.869  1.00  0.00    -0.206 F 
ATOM     42  C   UNL A   1      44.777  26.733  37.203  1.00  0.00     0.059 A 
ATOM     43  C   UNL A   1      46.401  28.121  36.047  1.00  0.00     0.059 A 
ATOM     44  F   UNL A   1      45.664  29.831  34.623  1.00  0.00    -0.206 F 
ATOM     45  C   UNL A   1      46.101  27.088  36.934  1.00  0.00     0.060 A 
BRANCH  45  46
ATOM     46  S   UNL A   1      47.427  26.178  37.757  1.00  0.00     0.124 S 
ATOM     47  O   UNL A   1      48.308  27.265  38.173  1.00  0.00    -0.237 OA
ATOM     48  O   UNL A   1      46.718  25.491  38.831  1.00  0.00    -0.237 OA
ATOM     49  O   UNL A   1      47.949  25.314  36.702  1.00  0.00    -0.744 OA
ENDBRANCH  45  46
ENDBRANCH  24  38
BRANCH  25  50
ATOM     50  C   UNL A   1      36.525  33.153  30.959  1.00  0.00     0.058 A 
ATOM     51  C   UNL A   1      35.198  33.065  31.404  1.00  0.00     0.135 A 
ATOM     52  C   UNL A   1      36.789  33.960  29.840  1.00  0.00     0.135 A 
ATOM     53  F   UNL A   1      34.897  32.305  32.468  1.00  0.00    -0.206 F 
ATOM     54  C   UNL A   1      34.169  33.746  30.763  1.00  0.00     0.059 A 
ATOM     55  C   UNL A   1      35.782  34.671  29.200  1.00  0.00     0.059 A 
ATOM     56  F   UNL A   1      38.047  34.093  29.389  1.00  0.00    -0.206 F 
ATOM     57  C   UNL A   1      34.473  34.550  29.663  1.00  0.00     0.060 A 
BRANCH  57  58
ATOM     58  S   UNL A   1      33.145  35.485  28.873  1.00  0.00     0.124 S 
ATOM     59  O   UNL A   1      33.898  36.484  28.125  1.00  0.00    -0.237 OA
ATOM     60  O   UNL A   1      32.476  34.461  28.075  1.00  0.00    -0.237 OA
ATOM     61  O   UNL A   1      32.372  35.988  30.005  1.00  0.00    -0.744 OA
ENDBRANCH  57  58
ENDBRANCH  25  50
BRANCH  37  62
ATOM     62  C   UNL A   1      39.790  34.205  37.019  1.00  0.00     0.058 A 
ATOM     63  C   UNL A   1      40.368  35.478  36.898  1.00  0.00     0.135 A 
ATOM     64  C   UNL A   1      39.034  33.928  38.168  1.00  0.00     0.135 A 
ATOM     65  F   UNL A   1      41.108  35.786  35.822  1.00  0.00    -0.206 F 
ATOM     66  C   UNL A   1      40.226  36.435  37.898  1.00  0.00     0.059 A 
ATOM     67  C   UNL A   1      38.860  34.878  39.169  1.00  0.00     0.059 A 
ATOM     68  F   UNL A   1      38.455  32.728  38.324  1.00  0.00    -0.206 F 
ATOM     69  C   UNL A   1      39.473  36.122  39.032  1.00  0.00     0.060 A 
BRANCH  69  70
ATOM     70  S   UNL A   1      39.286  37.372  40.322  1.00  0.00     0.124 S 
ATOM     71  O   UNL A   1      38.485  38.380  39.637  1.00  0.00    -0.237 OA
ATOM     72  O   UNL A   1      38.605  36.633  41.381  1.00  0.00    -0.237 OA
ATOM     73  O   UNL A   1      40.662  37.756  40.621  1.00  0.00    -0.744 OA
ENDBRANCH  69  70
ENDBRANCH  37  62
ENDBRANCH  11  12
ENDBRANCH   4   6
ENDBRANCH   1   2
BRANCH   1  74
ATOM     74  C   UNL A   1      37.707  24.238  26.426  1.00  0.00     0.042 C 
BRANCH  74  75
ATOM     75  C   UNL A   1      36.779  23.138  25.966  1.00  0.00     0.118 C 
BRANCH  75  76
ATOM     76  N   UNL A   1      36.923  22.779  24.576  1.00  0.00    -0.351 N 
ATOM     77  C   UNL A   1      36.073  23.017  23.535  1.00  0.00     0.278 C 
ATOM     78  H   UNL A   1      37.748  22.293  24.347  1.00  0.00     0.163 HD
ATOM     79  O   UNL A   1      36.542  22.859  22.401  1.00  0.00    -0.268 OA
BRANCH  77  80
ATOM     80  C   UNL A   1      34.591  23.432  23.726  1.00  0.00     0.274 C 
ATOM     81  C   UNL A   1      33.918  24.093  22.508  1.00  0.00     0.076 C 
ATOM     82  N   UNL A   1      33.755  22.481  24.513  1.00  0.00    -0.319 N 
ATOM     83  C   UNL A   1      32.420  24.345  22.721  1.00  0.00     0.016 C 
ATOM     84  C   UNL A   1      32.461  23.069  24.907  1.00  0.00     0.188 C 
ATOM     85  H   UNL A   1      34.311  22.354  25.358  1.00  0.00     0.349 HD
ATOM     86  C   UNL A   1      32.106  24.408  24.212  1.00  0.00     0.048 C 
ATOM     87  C   UNL A   1      32.403  23.306  26.425  1.00  0.00     0.065 C 
ATOM     88  C   UNL A   1      30.639  24.732  24.506  1.00  0.00     0.010 C 
ATOM     89  C   UNL A   1      30.983  23.718  26.832  1.00  0.00     0.006 C 
ATOM     90  C   UNL A   1      30.428  24.889  26.014  1.00  0.00     0.001 C 
BRANCH  82  91
ATOM     91  C   UNL A   1      33.681  21.068  24.070  1.00  0.00     0.194 C 
ATOM     92  C   UNL A   1      32.296  20.602  23.547  1.00  0.00     0.067 C 
ATOM     93  C   UNL A   1      34.150  20.106  25.188  1.00  0.00     0.134 C 
ATOM     94  C   UNL A   1      32.356  19.231  22.870  1.00  0.00     0.017 C 
ATOM     95  S   UNL A   1      34.372  18.392  24.586  1.00  0.00    -0.156 SA
ATOM     96  C   UNL A   1      32.738  18.122  23.837  1.00  0.00     0.070 C 
ENDBRANCH  82  91
ENDBRANCH  77  80
ENDBRANCH  75  76
ENDBRANCH  74  75
ENDBRANCH   1  74
TORSDOF 14
ENDMDL
MODEL 2
REMARK VINA RESULT:     -12.4      5.086      9.637
REMARK SMILES O=C(NCCCNC(=O)[C@H]1CC[C@H]2CCCC[C@@H]2[N@H+]1[C@@H]1CCCSC1)c1ccc(-c2c3nc(c(-c4c(F)cc(S(=O)(=O)[O-])cc4F)c4ccc([nH]4)c(-c4c(F)cc(S(=O)(=O)[O-])cc4F)c4nc(c(-c5c(F)cc(S(=O)(=O)[O-])cc5F)c5ccc2[nH]5)C=C4)C=C3)cc1
REMARK SMILES IDX 4 1 3 2 1 3 2 4 26 6 27 7 91 8 28 9 90 10 29 11 30 12 31 13
REMARK SMILES IDX 84 14 32 15 89 16 83 17 85 18 33 19 88 20 82 21 81 22 34 24
REMARK SMILES IDX 68 25 47 26 67 27 48 28 51 29 66 30 86 31 49 32 50 33 65 35
REMARK SMILES IDX 87 36 52 37 35 38 36 39 45 40 37 41 38 42 44 43 46 44 39 45
REMARK SMILES IDX 40 46 41 47 42 48 43 49 69 50 70 51 79 52 71 53 72 54 78 55
REMARK SMILES IDX 80 56 73 57 74 58 75 59 76 60 77 61 53 62 54 63 63 64 55 65
REMARK SMILES IDX 56 66 62 67 64 68 57 69 58 70 59 71 60 72 61 73 5 74 6 75
REMARK SMILES IDX 7 76 8 77 9 79 10 80 11 81 19 82 12 83 18 84 13 86 17 87
REMARK SMILES IDX 14 88 16 89 15 90 20 91 21 92 25 93 22 94 24 95 23 96
REMARK H PARENT 3 5 85 23 51 34 7 78 19 85
REMARK Flexibility Score: inf
ROOT
ATOM      1  C   UNL A   1      33.509  28.317  27.233  1.00  0.00     0.118 C 
ENDROOT
BRANCH   1   2
ATOM      2  N   UNL A   1      33.495  29.734  27.604  1.00  0.00    -0.352 N 
ATOM      3  O   UNL A   1      34.153  31.647  28.588  1.00  0.00    -0.269 OA
ATOM      4  C   UNL A   1      34.458  30.532  28.181  1.00  0.00     0.251 C 
ATOM      5  H   UNL A   1      32.649  30.197  27.406  1.00  0.00     0.163 HD
BRANCH   4   6
ATOM      6  C   UNL A   1      35.843  30.036  28.337  1.00  0.00     0.039 A 
ATOM      7  C   UNL A   1      36.267  29.507  29.551  1.00  0.00     0.014 A 
ATOM      8  C   UNL A   1      36.735  30.106  27.262  1.00  0.00     0.014 A 
ATOM      9  C   UNL A   1      37.617  29.290  29.771  1.00  0.00     0.010 A 
ATOM     10  C   UNL A   1      38.073  29.740  27.444  1.00  0.00     0.010 A 
ATOM     11  C   UNL A   1      38.540  29.386  28.718  1.00  0.00    -0.014 A 
BRANCH  11  12
ATOM     12  C   UNL A   1      39.968  29.080  28.999  1.00  0.00     0.031 A 
ATOM     13  C   UNL A   1      40.582  27.769  28.588  1.00  0.00     0.074 A 
ATOM     14  C   UNL A   1      40.733  30.042  29.556  1.00  0.00     0.049 A 
ATOM     15  N   UNL A   1      41.824  27.372  28.703  1.00  0.00    -0.248 NA
ATOM     16  C   UNL A   1      39.692  26.765  27.982  1.00  0.00     0.031 C 
ATOM     17  C   UNL A   1      40.244  31.350  30.006  1.00  0.00     0.029 A 
ATOM     18  N   UNL A   1      42.081  30.099  29.793  1.00  0.00    -0.354 N 
ATOM     19  C   UNL A   1      41.857  26.065  28.230  1.00  0.00     0.074 A 
ATOM     20  C   UNL A   1      40.507  25.729  27.833  1.00  0.00     0.031 C 
ATOM     21  C   UNL A   1      41.284  32.109  30.373  1.00  0.00     0.029 A 
ATOM     22  C   UNL A   1      42.504  31.319  30.266  1.00  0.00     0.049 A 
ATOM     23  H   UNL A   1      42.688  29.339  29.640  1.00  0.00     0.167 HD
ATOM     24  C   UNL A   1      42.916  25.225  28.135  1.00  0.00     0.037 A 
ATOM     25  C   UNL A   1      43.736  31.756  30.585  1.00  0.00     0.037 A 
ATOM     26  C   UNL A   1      44.266  25.586  28.489  1.00  0.00     0.049 A 
ATOM     27  C   UNL A   1      44.896  30.820  30.432  1.00  0.00     0.074 A 
ATOM     28  C   UNL A   1      45.415  24.818  28.404  1.00  0.00     0.029 A 
ATOM     29  N   UNL A   1      44.649  26.824  28.986  1.00  0.00    -0.354 N 
ATOM     30  N   UNL A   1      44.903  29.586  29.987  1.00  0.00    -0.248 NA
ATOM     31  C   UNL A   1      46.213  31.327  30.834  1.00  0.00     0.031 C 
ATOM     32  C   UNL A   1      46.488  25.582  28.877  1.00  0.00     0.029 A 
ATOM     33  C   UNL A   1      46.015  26.838  29.220  1.00  0.00     0.049 A 
ATOM     34  H   UNL A   1      44.041  27.580  29.149  1.00  0.00     0.167 HD
ATOM     35  C   UNL A   1      46.226  29.172  30.046  1.00  0.00     0.074 A 
ATOM     36  C   UNL A   1      46.993  30.294  30.551  1.00  0.00     0.031 C 
ATOM     37  C   UNL A   1      46.758  27.968  29.719  1.00  0.00     0.037 A 
BRANCH  24  38
ATOM     38  C   UNL A   1      42.658  23.824  27.653  1.00  0.00     0.058 A 
ATOM     39  C   UNL A   1      42.460  22.755  28.541  1.00  0.00     0.135 A 
ATOM     40  C   UNL A   1      42.580  23.553  26.276  1.00  0.00     0.135 A 
ATOM     41  F   UNL A   1      42.540  22.953  29.866  1.00  0.00    -0.206 F 
ATOM     42  C   UNL A   1      42.219  21.463  28.082  1.00  0.00     0.059 A 
ATOM     43  C   UNL A   1      42.319  22.273  25.795  1.00  0.00     0.059 A 
ATOM     44  F   UNL A   1      42.761  24.538  25.383  1.00  0.00    -0.206 F 
ATOM     45  C   UNL A   1      42.156  21.230  26.707  1.00  0.00     0.060 A 
BRANCH  45  46
ATOM     46  S   UNL A   1      41.854  19.548  26.124  1.00  0.00     0.124 S 
ATOM     47  O   UNL A   1      42.237  18.764  27.294  1.00  0.00    -0.237 OA
ATOM     48  O   UNL A   1      40.428  19.572  25.817  1.00  0.00    -0.237 OA
ATOM     49  O   UNL A   1      42.738  19.426  24.969  1.00  0.00    -0.744 OA
ENDBRANCH  45  46
ENDBRANCH  24  38
BRANCH  25  50
ATOM     50  C   UNL A   1      43.920  33.148  31.072  1.00  0.00     0.058 A 
ATOM     51  C   UNL A   1      44.096  34.210  30.175  1.00  0.00     0.135 A 
ATOM     52  C   UNL A   1      43.879  33.446  32.444  1.00  0.00     0.135 A 
ATOM     53  F   UNL A   1      44.143  33.974  28.855  1.00  0.00    -0.206 F 
ATOM     54  C   UNL A   1      44.231  35.522  30.619  1.00  0.00     0.059 A 
ATOM     55  C   UNL A   1      43.985  34.752  32.909  1.00  0.00     0.059 A 
ATOM     56  F   UNL A   1      43.692  32.465  33.340  1.00  0.00    -0.206 F 
ATOM     57  C   UNL A   1      44.170  35.782  31.989  1.00  0.00     0.060 A 
BRANCH  57  58
ATOM     58  S   UNL A   1      44.280  37.492  32.558  1.00  0.00     0.124 S 
ATOM     59  O   UNL A   1      45.656  37.553  33.035  1.00  0.00    -0.237 OA
ATOM     60  O   UNL A   1      43.992  38.244  31.339  1.00  0.00    -0.237 OA
ATOM     61  O   UNL A   1      43.247  37.568  33.587  1.00  0.00    -0.744 OA
ENDBRANCH  57  58
ENDBRANCH  25  50
BRANCH  37  62
ATOM     62  C   UNL A   1      48.244  27.823  29.868  1.00  0.00     0.058 A 
ATOM     63  C   UNL A   1      48.819  27.352  31.059  1.00  0.00     0.135 A 
ATOM     64  C   UNL A   1      49.098  28.147  28.804  1.00  0.00     0.135 A 
ATOM     65  F   UNL A   1      48.043  27.038  32.108  1.00  0.00    -0.206 F 
ATOM     66  C   UNL A   1      50.198  27.236  31.199  1.00  0.00     0.059 A 
ATOM     67  C   UNL A   1      50.478  28.016  28.915  1.00  0.00     0.059 A 
ATOM     68  F   UNL A   1      48.594  28.593  27.643  1.00  0.00    -0.206 F 
ATOM     69  C   UNL A   1      51.020  27.576  30.122  1.00  0.00     0.060 A 
BRANCH  69  70
ATOM     70  S   UNL A   1      52.808  27.415  30.307  1.00  0.00     0.124 S 
ATOM     71  O   UNL A   1      52.910  26.207  31.117  1.00  0.00    -0.237 OA
ATOM     72  O   UNL A   1      53.260  27.292  28.924  1.00  0.00    -0.237 OA
ATOM     73  O   UNL A   1      53.190  28.656  30.976  1.00  0.00    -0.744 OA
ENDBRANCH  69  70
ENDBRANCH  37  62
ENDBRANCH  11  12
ENDBRANCH   4   6
ENDBRANCH   1   2
BRANCH   1  74
ATOM     74  C   UNL A   1      34.203  28.069  25.907  1.00  0.00     0.042 C 
BRANCH  74  75
ATOM     75  C   UNL A   1      33.251  28.183  24.740  1.00  0.00     0.118 C 
BRANCH  75  76
ATOM     76  N   UNL A   1      33.792  27.728  23.482  1.00  0.00    -0.351 N 
ATOM     77  C   UNL A   1      33.510  26.587  22.790  1.00  0.00     0.278 C 
ATOM     78  H   UNL A   1      34.457  28.323  23.067  1.00  0.00     0.163 HD
ATOM     79  O   UNL A   1      33.891  26.554  21.612  1.00  0.00    -0.268 OA
BRANCH  77  80
ATOM     80  C   UNL A   1      32.785  25.368  23.419  1.00  0.00     0.274 C 
ATOM     81  C   UNL A   1      32.097  24.413  22.425  1.00  0.00     0.076 C 
ATOM     82  N   UNL A   1      33.480  24.737  24.576  1.00  0.00    -0.319 N 
ATOM     83  C   UNL A   1      31.526  23.161  23.104  1.00  0.00     0.016 C 
ATOM     84  C   UNL A   1      32.609  23.793  25.302  1.00  0.00     0.188 C 
ATOM     85  H   UNL A   1      33.652  25.535  25.186  1.00  0.00     0.349 HD
ATOM     86  C   UNL A   1      31.284  23.431  24.585  1.00  0.00     0.048 C 
ATOM     87  C   UNL A   1      32.248  24.336  26.694  1.00  0.00     0.065 C 
ATOM     88  C   UNL A   1      30.643  22.249  25.317  1.00  0.00     0.010 C 
ATOM     89  C   UNL A   1      31.523  23.254  27.503  1.00  0.00     0.006 C 
ATOM     90  C   UNL A   1      30.330  22.637  26.765  1.00  0.00     0.001 C 
BRANCH  82  91
ATOM     91  C   UNL A   1      34.878  24.274  24.399  1.00  0.00     0.194 C 
ATOM     92  C   UNL A   1      35.068  23.070  23.439  1.00  0.00     0.067 C 
ATOM     93  C   UNL A   1      35.534  23.945  25.761  1.00  0.00     0.134 C 
ATOM     94  C   UNL A   1      36.538  22.815  23.102  1.00  0.00     0.017 C 
ATOM     95  S   UNL A   1      37.339  23.674  25.619  1.00  0.00    -0.156 SA
ATOM     96  C   UNL A   1      37.351  22.404  24.319  1.00  0.00     0.070 C 
ENDBRANCH  82  91
ENDBRANCH  77  80
ENDBRANCH  75  76
ENDBRANCH  74  75
ENDBRANCH   1  74
TORSDOF 14
ENDMDL
MODEL 3
REMARK VINA RESULT:     -12.3      6.789     12.251
REMARK SMILES O=C(NCCCNC(=O)[C@H]1CC[C@H]2CCCC[C@@H]2[N@H+]1[C@@H]1CCCSC1)c1ccc(-c2c3nc(c(-c4c(F)cc(S(=O)(=O)[O-])cc4F)c4ccc([nH]4)c(-c4c(F)cc(S(=O)(=O)[O-])cc4F)c4nc(c(-c5c(F)cc(S(=O)(=O)[O-])cc5F)c5ccc2[nH]5)C=C4)C=C3)cc1
REMARK SMILES IDX 4 1 3 2 1 3 2 4 26 6 27 7 91 8 28 9 90 10 29 11 30 12 31 13
REMARK SMILES IDX 84 14 32 15 89 16 83 17 85 18 33 19 88 20 82 21 81 22 34 24
REMARK SMILES IDX 68 25 47 26 67 27 48 28 51 29 66 30 86 31 49 32 50 33 65 35
REMARK SMILES IDX 87 36 52 37 35 38 36 39 45 40 37 41 38 42 44 43 46 44 39 45
REMARK SMILES IDX 40 46 41 47 42 48 43 49 69 50 70 51 79 52 71 53 72 54 78 55
REMARK SMILES IDX 80 56 73 57 74 58 75 59 76 60 77 61 53 62 54 63 63 64 55 65
REMARK SMILES IDX 56 66 62 67 64 68 57 69 58 70 59 71 60 72 61 73 5 74 6 75
REMARK SMILES IDX 7 76 8 77 9 79 10 80 11 81 19 82 12 83 18 84 13 86 17 87
REMARK SMILES IDX 14 88 16 89 15 90 20 91 21 92 25 93 22 94 24 95 23 96
REMARK H PARENT 3 5 85 23 51 34 7 78 19 85
REMARK Flexibility Score: inf
ROOT
ATOM      1  C   UNL A   1      35.520  30.421  28.223  1.00  0.00     0.118 C 
ENDROOT
BRANCH   1   2
ATOM      2  N   UNL A   1      35.503  30.429  29.688  1.00  0.00    -0.352 N 
ATOM      3  O   UNL A   1      36.196  30.032  31.791  1.00  0.00    -0.269 OA
ATOM      4  C   UNL A   1      36.492  30.163  30.610  1.00  0.00     0.251 C 
ATOM      5  H   UNL A   1      34.633  30.664  30.082  1.00  0.00     0.163 HD
BRANCH   4   6
ATOM      6  C   UNL A   1      37.897  30.006  30.173  1.00  0.00     0.039 A 
ATOM      7  C   UNL A   1      38.249  30.234  28.847  1.00  0.00     0.014 A 
ATOM      8  C   UNL A   1      38.876  29.620  31.093  1.00  0.00     0.014 A 
ATOM      9  C   UNL A   1      39.495  29.839  28.389  1.00  0.00     0.010 A 
ATOM     10  C   UNL A   1      40.181  29.365  30.655  1.00  0.00     0.010 A 
ATOM     11  C   UNL A   1      40.486  29.413  29.288  1.00  0.00    -0.014 A 
BRANCH  11  12
ATOM     12  C   UNL A   1      41.826  29.060  28.746  1.00  0.00     0.031 A 
ATOM     13  C   UNL A   1      42.970  30.038  28.793  1.00  0.00     0.074 A 
ATOM     14  C   UNL A   1      42.023  27.807  28.288  1.00  0.00     0.049 A 
ATOM     15  N   UNL A   1      44.214  29.865  28.422  1.00  0.00    -0.248 NA
ATOM     16  C   UNL A   1      42.687  31.387  29.309  1.00  0.00     0.031 C 
ATOM     17  C   UNL A   1      40.985  26.776  28.185  1.00  0.00     0.029 A 
ATOM     18  N   UNL A   1      43.161  27.166  27.874  1.00  0.00    -0.354 N 
ATOM     19  C   UNL A   1      44.847  31.087  28.614  1.00  0.00     0.074 A 
ATOM     20  C   UNL A   1      43.850  32.000  29.128  1.00  0.00     0.031 C 
ATOM     21  C   UNL A   1      41.548  25.614  27.829  1.00  0.00     0.029 A 
ATOM     22  C   UNL A   1      42.970  25.833  27.598  1.00  0.00     0.049 A 
ATOM     23  H   UNL A   1      44.031  27.617  27.782  1.00  0.00     0.167 HD
ATOM     24  C   UNL A   1      46.142  31.415  28.384  1.00  0.00     0.037 A 
ATOM     25  C   UNL A   1      43.839  24.887  27.198  1.00  0.00     0.037 A 
ATOM     26  C   UNL A   1      47.138  30.485  27.917  1.00  0.00     0.049 A 
ATOM     27  C   UNL A   1      45.274  25.267  26.990  1.00  0.00     0.074 A 
ATOM     28  C   UNL A   1      48.484  30.710  27.678  1.00  0.00     0.029 A 
ATOM     29  N   UNL A   1      46.900  29.149  27.627  1.00  0.00    -0.354 N 
ATOM     30  N   UNL A   1      45.850  26.431  27.173  1.00  0.00    -0.248 NA
ATOM     31  C   UNL A   1      46.175  24.213  26.509  1.00  0.00     0.031 C 
ATOM     32  C   UNL A   1      49.052  29.517  27.217  1.00  0.00     0.029 A 
ATOM     33  C   UNL A   1      48.071  28.540  27.205  1.00  0.00     0.049 A 
ATOM     34  H   UNL A   1      46.028  28.700  27.708  1.00  0.00     0.167 HD
ATOM     35  C   UNL A   1      47.185  26.247  26.840  1.00  0.00     0.074 A 
ATOM     36  C   UNL A   1      47.334  24.855  26.464  1.00  0.00     0.031 C 
ATOM     37  C   UNL A   1      48.196  27.151  26.839  1.00  0.00     0.037 A 
BRANCH  24  38
ATOM     38  C   UNL A   1      46.552  32.845  28.608  1.00  0.00     0.058 A 
ATOM     39  C   UNL A   1      47.042  33.295  29.845  1.00  0.00     0.135 A 
ATOM     40  C   UNL A   1      46.479  33.775  27.557  1.00  0.00     0.135 A 
ATOM     41  F   UNL A   1      47.117  32.454  30.888  1.00  0.00    -0.206 F 
ATOM     42  C   UNL A   1      47.419  34.621  30.039  1.00  0.00     0.059 A 
ATOM     43  C   UNL A   1      46.872  35.100  27.722  1.00  0.00     0.059 A 
ATOM     44  F   UNL A   1      46.018  33.398  26.354  1.00  0.00    -0.206 F 
ATOM     45  C   UNL A   1      47.326  35.518  28.972  1.00  0.00     0.060 A 
BRANCH  45  46
ATOM     46  S   UNL A   1      47.809  37.237  29.239  1.00  0.00     0.124 S 
ATOM     47  O   UNL A   1      47.140  37.532  30.503  1.00  0.00    -0.237 OA
ATOM     48  O   UNL A   1      49.264  37.150  29.299  1.00  0.00    -0.237 OA
ATOM     49  O   UNL A   1      47.273  37.925  28.069  1.00  0.00    -0.744 OA
ENDBRANCH  45  46
ENDBRANCH  24  38
BRANCH  25  50
ATOM     50  C   UNL A   1      43.365  23.496  26.976  1.00  0.00     0.058 A 
ATOM     51  C   UNL A   1      43.190  22.990  25.681  1.00  0.00     0.135 A 
ATOM     52  C   UNL A   1      43.122  22.633  28.057  1.00  0.00     0.135 A 
ATOM     53  F   UNL A   1      43.409  23.778  24.617  1.00  0.00    -0.206 F 
ATOM     54  C   UNL A   1      42.783  21.677  25.462  1.00  0.00     0.059 A 
ATOM     55  C   UNL A   1      42.741  21.311  27.863  1.00  0.00     0.059 A 
ATOM     56  F   UNL A   1      43.296  23.066  29.316  1.00  0.00    -0.206 F 
ATOM     57  C   UNL A   1      42.565  20.845  26.561  1.00  0.00     0.060 A 
BRANCH  57  58
ATOM     58  S   UNL A   1      42.102  19.123  26.273  1.00  0.00     0.124 S 
ATOM     59  O   UNL A   1      42.306  18.542  27.594  1.00  0.00    -0.237 OA
ATOM     60  O   UNL A   1      40.714  19.245  25.835  1.00  0.00    -0.237 OA
ATOM     61  O   UNL A   1      43.039  18.695  25.238  1.00  0.00    -0.744 OA
ENDBRANCH  57  58
ENDBRANCH  25  50
BRANCH  37  62
ATOM     62  C   UNL A   1      49.554  26.646  26.449  1.00  0.00     0.058 A 
ATOM     63  C   UNL A   1      50.038  26.778  25.139  1.00  0.00     0.135 A 
ATOM     64  C   UNL A   1      50.382  26.034  27.402  1.00  0.00     0.135 A 
ATOM     65  F   UNL A   1      49.278  27.349  24.191  1.00  0.00    -0.206 F 
ATOM     66  C   UNL A   1      51.290  26.292  24.777  1.00  0.00     0.059 A 
ATOM     67  C   UNL A   1      51.647  25.562  27.068  1.00  0.00     0.059 A 
ATOM     68  F   UNL A   1      49.966  25.892  28.670  1.00  0.00    -0.206 F 
ATOM     69  C   UNL A   1      52.085  25.680  25.749  1.00  0.00     0.060 A 
BRANCH  69  70
ATOM     70  S   UNL A   1      53.713  25.059  25.276  1.00  0.00     0.124 S 
ATOM     71  O   UNL A   1      53.478  23.621  25.241  1.00  0.00    -0.237 OA
ATOM     72  O   UNL A   1      53.931  25.699  23.981  1.00  0.00    -0.237 OA
ATOM     73  O   UNL A   1      54.579  25.531  26.353  1.00  0.00    -0.744 OA
ENDBRANCH  69  70
ENDBRANCH  37  62
ENDBRANCH  11  12
ENDBRANCH   4   6
ENDBRANCH   1   2
BRANCH   1  74
ATOM     74  C   UNL A   1      34.991  29.124  27.641  1.00  0.00     0.042 C 
BRANCH  74  75
ATOM     75  C   UNL A   1      34.661  29.256  26.173  1.00  0.00     0.118 C 
BRANCH  75  76
ATOM     76  N   UNL A   1      33.499  30.063  25.892  1.00  0.00    -0.351 N 
ATOM     77  C   UNL A   1      32.211  29.667  25.674  1.00  0.00     0.278 C 
ATOM     78  H   UNL A   1      33.657  31.034  25.851  1.00  0.00     0.163 HD
ATOM     79  O   UNL A   1      31.351  30.554  25.731  1.00  0.00    -0.268 OA
BRANCH  77  80
ATOM     80  C   UNL A   1      31.817  28.204  25.340  1.00  0.00     0.274 C 
ATOM     81  C   UNL A   1      31.135  27.419  26.476  1.00  0.00     0.076 C 
ATOM     82  N   UNL A   1      31.287  27.982  23.965  1.00  0.00    -0.319 N 
ATOM     83  C   UNL A   1      30.647  26.035  26.031  1.00  0.00     0.016 C 
ATOM     84  C   UNL A   1      31.217  26.549  23.619  1.00  0.00     0.188 C 
ATOM     85  H   UNL A   1      32.007  28.409  23.384  1.00  0.00     0.349 HD
ATOM     86  C   UNL A   1      31.426  25.573  24.805  1.00  0.00     0.048 C 
ATOM     87  C   UNL A   1      32.250  26.193  22.539  1.00  0.00     0.065 C 
ATOM     88  C   UNL A   1      31.046  24.163  24.344  1.00  0.00     0.010 C 
ATOM     89  C   UNL A   1      32.017  24.759  22.050  1.00  0.00     0.006 C 
ATOM     90  C   UNL A   1      31.947  23.731  23.183  1.00  0.00     0.001 C 
BRANCH  82  91
ATOM     91  C   UNL A   1      30.121  28.782  23.516  1.00  0.00     0.194 C 
ATOM     92  C   UNL A   1      28.811  27.985  23.286  1.00  0.00     0.067 C 
ATOM     93  C   UNL A   1      30.457  29.587  22.237  1.00  0.00     0.134 C 
ATOM     94  C   UNL A   1      27.599  28.896  23.081  1.00  0.00     0.017 C 
ATOM     95  S   UNL A   1      29.165  30.818  21.829  1.00  0.00    -0.156 SA
ATOM     96  C   UNL A   1      27.708  29.733  21.816  1.00  0.00     0.070 C 
ENDBRANCH  82  91
ENDBRANCH  77  80
ENDBRANCH  75  76
ENDBRANCH  74  75
ENDBRANCH   1  74
TORSDOF 14
ENDMDL
