MODEL 1
REMARK VINA RESULT:     -11.1      0.000      0.000
REMARK SMILES O=C(Cc1ccc(Cl)nc1)NCCCNC(=O)c1ccc(-c2c3nc(c(-c4c(F)cc(S(=O)(=O)[O-])cc4F)c4ccc([nH]4)c(-c4c(F)cc(S(=O)(=O)[O-])cc4F)c4nc(c(-c5c(F)cc(S(=O)(=O)[O-])cc5F)c5ccc2[nH]5)C=C4)C=C3)cc1
REMARK SMILES IDX 14 1 13 2 12 3 11 4 1 5 2 6 3 8 4 9 5 10 10 11 6 12 9 13
REMARK SMILES IDX 7 14 8 15 15 16 16 17 17 19 18 20 19 21 83 22 20 23 82 24
REMARK SMILES IDX 21 25 22 26 23 27 76 28 24 29 81 30 75 31 77 32 25 33 80 34
REMARK SMILES IDX 74 35 73 36 26 38 60 39 39 40 59 41 40 42 43 43 58 44 78 45
REMARK SMILES IDX 41 46 42 47 57 49 79 50 44 51 27 52 28 53 37 54 29 55 30 56
REMARK SMILES IDX 36 57 38 58 31 59 32 60 33 61 34 62 35 63 61 64 62 65 71 66
REMARK SMILES IDX 63 67 64 68 70 69 72 70 65 71 66 72 67 73 68 74 69 75 45 76
REMARK SMILES IDX 46 77 55 78 47 79 48 80 54 81 56 82 49 83 50 84 51 85 52 86
REMARK SMILES IDX 53 87
REMARK H PARENT 11 7 15 18 77 37 43 48
REMARK Flexibility Score: inf
ROOT
ATOM      1  C   UNL A   1      41.344  22.984  27.405  1.00  0.00     0.118 C 
ENDROOT
BRANCH   1   2
ATOM      2  C   UNL A   1      40.423  21.781  27.229  1.00  0.00     0.042 C 
BRANCH   2   3
ATOM      3  C   UNL A   1      39.631  21.759  25.929  1.00  0.00     0.117 C 
BRANCH   3   4
ATOM      4  N   UNL A   1      38.204  21.926  26.132  1.00  0.00    -0.356 N 
ATOM      5  O   UNL A   1      38.138  24.163  25.598  1.00  0.00    -0.275 OA
ATOM      6  C   UNL A   1      37.560  23.124  25.901  1.00  0.00     0.224 C 
ATOM      7  H   UNL A   1      37.677  21.157  26.448  1.00  0.00     0.163 HD
BRANCH   6   8
ATOM      8  C   UNL A   1      36.049  23.055  26.033  1.00  0.00     0.137 C 
BRANCH   8   9
ATOM      9  C   UNL A   1      35.276  23.830  24.991  1.00  0.00    -0.020 A 
ATOM     10  C   UNL A   1      34.651  25.032  25.349  1.00  0.00     0.009 A 
ATOM     11  C   UNL A   1      35.175  23.437  23.657  1.00  0.00     0.117 A 
ATOM     12  C   UNL A   1      33.934  25.753  24.397  1.00  0.00     0.041 A 
ATOM     13  N   UNL A   1      34.477  24.110  22.715  1.00  0.00    -0.244 NA
ATOM     14  C   UNL A   1      33.873  25.245  23.112  1.00  0.00     0.129 A 
ATOM     15  Cl  UNL A   1      32.999  26.061  21.883  1.00  0.00    -0.062 Cl
ENDBRANCH   8   9
ENDBRANCH   6   8
ENDBRANCH   3   4
ENDBRANCH   2   3
ENDBRANCH   1   2
BRANCH   1  16
ATOM     16  N   UNL A   1      41.382  23.862  26.245  1.00  0.00    -0.352 N 
ATOM     17  C   UNL A   1      41.216  25.222  26.155  1.00  0.00     0.251 C 
ATOM     18  H   UNL A   1      41.556  23.409  25.388  1.00  0.00     0.163 HD
ATOM     19  O   UNL A   1      41.175  25.742  25.040  1.00  0.00    -0.269 OA
BRANCH  17  20
ATOM     20  C   UNL A   1      41.056  26.063  27.364  1.00  0.00     0.039 A 
ATOM     21  C   UNL A   1      42.014  27.052  27.616  1.00  0.00     0.014 A 
ATOM     22  C   UNL A   1      40.007  25.875  28.268  1.00  0.00     0.014 A 
ATOM     23  C   UNL A   1      41.884  27.884  28.732  1.00  0.00     0.010 A 
ATOM     24  C   UNL A   1      39.839  26.752  29.341  1.00  0.00     0.010 A 
ATOM     25  C   UNL A   1      40.777  27.765  29.588  1.00  0.00    -0.014 A 
BRANCH  25  26
ATOM     26  C   UNL A   1      40.595  28.701  30.729  1.00  0.00     0.031 A 
ATOM     27  C   UNL A   1      41.440  28.580  31.969  1.00  0.00     0.074 A 
ATOM     28  C   UNL A   1      39.637  29.649  30.662  1.00  0.00     0.049 A 
ATOM     29  N   UNL A   1      41.422  29.310  33.056  1.00  0.00    -0.248 NA
ATOM     30  C   UNL A   1      42.417  27.480  32.006  1.00  0.00     0.031 C 
ATOM     31  C   UNL A   1      38.708  29.832  29.544  1.00  0.00     0.029 A 
ATOM     32  N   UNL A   1      39.284  30.634  31.550  1.00  0.00    -0.354 N 
ATOM     33  C   UNL A   1      42.373  28.756  33.905  1.00  0.00     0.074 A 
ATOM     34  C   UNL A   1      42.912  27.595  33.230  1.00  0.00     0.031 C 
ATOM     35  C   UNL A   1      37.915  30.885  29.799  1.00  0.00     0.029 A 
ATOM     36  C   UNL A   1      38.258  31.435  31.107  1.00  0.00     0.049 A 
ATOM     37  H   UNL A   1      39.724  30.756  32.422  1.00  0.00     0.167 HD
ATOM     38  C   UNL A   1      42.780  29.189  35.124  1.00  0.00     0.037 A 
ATOM     39  C   UNL A   1      37.663  32.498  31.684  1.00  0.00     0.037 A 
ATOM     40  C   UNL A   1      42.259  30.360  35.783  1.00  0.00     0.049 A 
ATOM     41  C   UNL A   1      38.152  32.976  33.023  1.00  0.00     0.074 A 
ATOM     42  C   UNL A   1      42.648  30.912  36.992  1.00  0.00     0.029 A 
ATOM     43  N   UNL A   1      41.240  31.162  35.290  1.00  0.00    -0.354 N 
ATOM     44  N   UNL A   1      39.101  32.480  33.780  1.00  0.00    -0.248 NA
ATOM     45  C   UNL A   1      37.499  34.168  33.580  1.00  0.00     0.031 C 
ATOM     46  C   UNL A   1      41.839  32.025  37.246  1.00  0.00     0.029 A 
ATOM     47  C   UNL A   1      40.977  32.194  36.176  1.00  0.00     0.049 A 
ATOM     48  H   UNL A   1      40.772  31.018  34.436  1.00  0.00     0.167 HD
ATOM     49  C   UNL A   1      39.175  33.313  34.891  1.00  0.00     0.074 A 
ATOM     50  C   UNL A   1      38.188  34.355  34.698  1.00  0.00     0.031 C 
ATOM     51  C   UNL A   1      39.990  33.225  35.973  1.00  0.00     0.037 A 
BRANCH  38  52
ATOM     52  C   UNL A   1      43.849  28.394  35.824  1.00  0.00     0.058 A 
ATOM     53  C   UNL A   1      45.213  28.667  35.630  1.00  0.00     0.135 A 
ATOM     54  C   UNL A   1      43.510  27.371  36.723  1.00  0.00     0.135 A 
ATOM     55  F   UNL A   1      45.596  29.625  34.770  1.00  0.00    -0.206 F 
ATOM     56  C   UNL A   1      46.203  27.935  36.278  1.00  0.00     0.059 A 
ATOM     57  C   UNL A   1      44.482  26.643  37.404  1.00  0.00     0.059 A 
ATOM     58  F   UNL A   1      42.222  27.068  36.948  1.00  0.00    -0.206 F 
ATOM     59  C   UNL A   1      45.827  26.923  37.163  1.00  0.00     0.060 A 
BRANCH  59  60
ATOM     60  S   UNL A   1      47.121  25.980  37.996  1.00  0.00     0.124 S 
ATOM     61  O   UNL A   1      47.233  24.812  37.128  1.00  0.00    -0.237 OA
ATOM     62  O   UNL A   1      48.251  26.903  37.963  1.00  0.00    -0.237 OA
ATOM     63  O   UNL A   1      46.561  25.728  39.319  1.00  0.00    -0.744 OA
ENDBRANCH  59  60
ENDBRANCH  38  52
BRANCH  39  64
ATOM     64  C   UNL A   1      36.564  33.206  30.977  1.00  0.00     0.058 A 
ATOM     65  C   UNL A   1      35.235  33.092  31.414  1.00  0.00     0.135 A 
ATOM     66  C   UNL A   1      36.819  34.018  29.862  1.00  0.00     0.135 A 
ATOM     67  F   UNL A   1      34.941  32.323  32.473  1.00  0.00    -0.206 F 
ATOM     68  C   UNL A   1      34.195  33.744  30.760  1.00  0.00     0.059 A 
ATOM     69  C   UNL A   1      35.798  34.700  29.206  1.00  0.00     0.059 A 
ATOM     70  F   UNL A   1      38.075  34.174  29.416  1.00  0.00    -0.206 F 
ATOM     71  C   UNL A   1      34.487  34.547  29.656  1.00  0.00     0.060 A 
BRANCH  71  72
ATOM     72  S   UNL A   1      33.137  35.429  28.843  1.00  0.00     0.124 S 
ATOM     73  O   UNL A   1      32.511  34.360  28.073  1.00  0.00    -0.237 OA
ATOM     74  O   UNL A   1      32.371  35.932  29.979  1.00  0.00    -0.237 OA
ATOM     75  O   UNL A   1      33.829  36.450  28.061  1.00  0.00    -0.744 OA
ENDBRANCH  71  72
ENDBRANCH  39  64
BRANCH  51  76
ATOM     76  C   UNL A   1      39.865  34.301  37.015  1.00  0.00     0.058 A 
ATOM     77  C   UNL A   1      40.524  35.534  36.886  1.00  0.00     0.135 A 
ATOM     78  C   UNL A   1      39.061  34.103  38.149  1.00  0.00     0.135 A 
ATOM     79  F   UNL A   1      41.308  35.772  35.823  1.00  0.00    -0.206 F 
ATOM     80  C   UNL A   1      40.423  36.518  37.864  1.00  0.00     0.059 A 
ATOM     81  C   UNL A   1      38.924  35.084  39.127  1.00  0.00     0.059 A 
ATOM     82  F   UNL A   1      38.398  32.948  38.315  1.00  0.00    -0.206 F 
ATOM     83  C   UNL A   1      39.624  36.281  38.984  1.00  0.00     0.060 A 
BRANCH  83  84
ATOM     84  S   UNL A   1      39.496  37.566  40.247  1.00  0.00     0.124 S 
ATOM     85  O   UNL A   1      38.562  38.497  39.623  1.00  0.00    -0.237 OA
ATOM     86  O   UNL A   1      38.982  36.827  41.397  1.00  0.00    -0.237 OA
ATOM     87  O   UNL A   1      40.868  38.046  40.381  1.00  0.00    -0.744 OA
ENDBRANCH  83  84
ENDBRANCH  51  76
ENDBRANCH  25  26
ENDBRANCH  17  20
ENDBRANCH   1  16
TORSDOF 14
ENDMDL
MODEL 2
REMARK VINA RESULT:     -11.0      7.150     13.545
REMARK SMILES O=C(Cc1ccc(Cl)nc1)NCCCNC(=O)c1ccc(-c2c3nc(c(-c4c(F)cc(S(=O)(=O)[O-])cc4F)c4ccc([nH]4)c(-c4c(F)cc(S(=O)(=O)[O-])cc4F)c4nc(c(-c5c(F)cc(S(=O)(=O)[O-])cc5F)c5ccc2[nH]5)C=C4)C=C3)cc1
REMARK SMILES IDX 14 1 13 2 12 3 11 4 1 5 2 6 3 8 4 9 5 10 10 11 6 12 9 13
REMARK SMILES IDX 7 14 8 15 15 16 16 17 17 19 18 20 19 21 83 22 20 23 82 24
REMARK SMILES IDX 21 25 22 26 23 27 76 28 24 29 81 30 75 31 77 32 25 33 80 34
REMARK SMILES IDX 74 35 73 36 26 38 60 39 39 40 59 41 40 42 43 43 58 44 78 45
REMARK SMILES IDX 41 46 42 47 57 49 79 50 44 51 27 52 28 53 37 54 29 55 30 56
REMARK SMILES IDX 36 57 38 58 31 59 32 60 33 61 34 62 35 63 61 64 62 65 71 66
REMARK SMILES IDX 63 67 64 68 70 69 72 70 65 71 66 72 67 73 68 74 69 75 45 76
REMARK SMILES IDX 46 77 55 78 47 79 48 80 54 81 56 82 49 83 50 84 51 85 52 86
REMARK SMILES IDX 53 87
REMARK H PARENT 11 7 15 18 77 37 43 48
REMARK Flexibility Score: inf
ROOT
ATOM      1  C   UNL A   1      36.620  33.077  29.954  1.00  0.00     0.118 C 
ENDROOT
BRANCH   1   2
ATOM      2  C   UNL A   1      36.135  33.282  28.521  1.00  0.00     0.042 C 
BRANCH   2   3
ATOM      3  C   UNL A   1      35.096  34.380  28.343  1.00  0.00     0.117 C 
BRANCH   3   4
ATOM      4  N   UNL A   1      34.590  34.891  29.602  1.00  0.00    -0.356 N 
ATOM      5  O   UNL A   1      32.504  35.464  28.818  1.00  0.00    -0.275 OA
ATOM      6  C   UNL A   1      33.299  35.355  29.747  1.00  0.00     0.224 C 
ATOM      7  H   UNL A   1      35.190  34.907  30.383  1.00  0.00     0.163 HD
BRANCH   6   8
ATOM      8  C   UNL A   1      32.920  35.711  31.173  1.00  0.00     0.137 C 
BRANCH   8   9
ATOM      9  C   UNL A   1      33.840  35.166  32.240  1.00  0.00    -0.020 A 
ATOM     10  C   UNL A   1      33.712  33.832  32.646  1.00  0.00     0.009 A 
ATOM     11  C   UNL A   1      34.858  35.913  32.832  1.00  0.00     0.117 A 
ATOM     12  C   UNL A   1      34.554  33.320  33.629  1.00  0.00     0.041 A 
ATOM     13  N   UNL A   1      35.682  35.446  33.797  1.00  0.00    -0.244 NA
ATOM     14  C   UNL A   1      35.504  34.166  34.172  1.00  0.00     0.129 A 
ATOM     15  Cl  UNL A   1      36.571  33.622  35.399  1.00  0.00    -0.062 Cl
ENDBRANCH   8   9
ENDBRANCH   6   8
ENDBRANCH   3   4
ENDBRANCH   2   3
ENDBRANCH   1   2
BRANCH   1  16
ATOM     16  N   UNL A   1      36.092  31.875  30.581  1.00  0.00    -0.352 N 
ATOM     17  C   UNL A   1      36.612  30.605  30.643  1.00  0.00     0.251 C 
ATOM     18  H   UNL A   1      35.224  31.989  31.032  1.00  0.00     0.163 HD
ATOM     19  O   UNL A   1      35.927  29.707  31.132  1.00  0.00    -0.269 OA
BRANCH  17  20
ATOM     20  C   UNL A   1      37.958  30.293  30.108  1.00  0.00     0.039 A 
ATOM     21  C   UNL A   1      39.023  30.191  31.010  1.00  0.00     0.014 A 
ATOM     22  C   UNL A   1      38.196  30.135  28.740  1.00  0.00     0.014 A 
ATOM     23  C   UNL A   1      40.303  29.872  30.548  1.00  0.00     0.010 A 
ATOM     24  C   UNL A   1      39.459  29.746  28.288  1.00  0.00     0.010 A 
ATOM     25  C   UNL A   1      40.528  29.613  29.186  1.00  0.00    -0.014 A 
BRANCH  25  26
ATOM     26  C   UNL A   1      41.872  29.194  28.704  1.00  0.00     0.031 A 
ATOM     27  C   UNL A   1      43.003  30.184  28.619  1.00  0.00     0.074 A 
ATOM     28  C   UNL A   1      42.065  27.920  28.308  1.00  0.00     0.049 A 
ATOM     29  N   UNL A   1      44.239  29.994  28.228  1.00  0.00    -0.248 NA
ATOM     30  C   UNL A   1      42.705  31.574  28.998  1.00  0.00     0.031 C 
ATOM     31  C   UNL A   1      41.036  26.878  28.280  1.00  0.00     0.029 A 
ATOM     32  N   UNL A   1      43.192  27.282  27.853  1.00  0.00    -0.354 N 
ATOM     33  C   UNL A   1      44.860  31.235  28.306  1.00  0.00     0.074 A 
ATOM     34  C   UNL A   1      43.851  32.182  28.729  1.00  0.00     0.031 C 
ATOM     35  C   UNL A   1      41.585  25.727  27.863  1.00  0.00     0.029 A 
ATOM     36  C   UNL A   1      42.996  25.951  27.568  1.00  0.00     0.049 A 
ATOM     37  H   UNL A   1      44.059  27.735  27.740  1.00  0.00     0.167 HD
ATOM     38  C   UNL A   1      46.157  31.553  28.072  1.00  0.00     0.037 A 
ATOM     39  C   UNL A   1      43.857  25.013  27.125  1.00  0.00     0.037 A 
ATOM     40  C   UNL A   1      47.165  30.604  27.675  1.00  0.00     0.049 A 
ATOM     41  C   UNL A   1      45.297  25.384  26.902  1.00  0.00     0.074 A 
ATOM     42  C   UNL A   1      48.518  30.818  27.472  1.00  0.00     0.029 A 
ATOM     43  N   UNL A   1      46.934  29.259  27.425  1.00  0.00    -0.354 N 
ATOM     44  N   UNL A   1      45.881  26.549  27.048  1.00  0.00    -0.248 NA
ATOM     45  C   UNL A   1      46.199  24.309  26.467  1.00  0.00     0.031 C 
ATOM     46  C   UNL A   1      49.096  29.612  27.062  1.00  0.00     0.029 A 
ATOM     47  C   UNL A   1      48.115  28.636  27.054  1.00  0.00     0.049 A 
ATOM     48  H   UNL A   1      46.059  28.813  27.499  1.00  0.00     0.167 HD
ATOM     49  C   UNL A   1      47.223  26.342  26.747  1.00  0.00     0.074 A 
ATOM     50  C   UNL A   1      47.367  24.936  26.428  1.00  0.00     0.031 C 
ATOM     51  C   UNL A   1      48.244  27.235  26.737  1.00  0.00     0.037 A 
BRANCH  38  52
ATOM     52  C   UNL A   1      46.563  32.992  28.248  1.00  0.00     0.058 A 
ATOM     53  C   UNL A   1      46.456  33.919  27.199  1.00  0.00     0.135 A 
ATOM     54  C   UNL A   1      47.032  33.459  29.486  1.00  0.00     0.135 A 
ATOM     55  F   UNL A   1      46.027  33.525  25.989  1.00  0.00    -0.206 F 
ATOM     56  C   UNL A   1      46.828  35.250  27.361  1.00  0.00     0.059 A 
ATOM     57  C   UNL A   1      47.385  34.792  29.680  1.00  0.00     0.059 A 
ATOM     58  F   UNL A   1      47.153  32.617  30.524  1.00  0.00    -0.206 F 
ATOM     59  C   UNL A   1      47.294  35.676  28.606  1.00  0.00     0.060 A 
BRANCH  59  60
ATOM     60  S   UNL A   1      47.775  37.405  28.801  1.00  0.00     0.124 S 
ATOM     61  O   UNL A   1      46.854  38.068  27.884  1.00  0.00    -0.237 OA
ATOM     62  O   UNL A   1      47.530  37.639  30.221  1.00  0.00    -0.237 OA
ATOM     63  O   UNL A   1      49.177  37.416  28.401  1.00  0.00    -0.744 OA
ENDBRANCH  59  60
ENDBRANCH  38  52
BRANCH  39  64
ATOM     64  C   UNL A   1      43.386  23.621  26.904  1.00  0.00     0.058 A 
ATOM     65  C   UNL A   1      43.200  23.121  25.605  1.00  0.00     0.135 A 
ATOM     66  C   UNL A   1      43.124  22.760  27.979  1.00  0.00     0.135 A 
ATOM     67  F   UNL A   1      43.434  23.909  24.544  1.00  0.00    -0.206 F 
ATOM     68  C   UNL A   1      42.755  21.823  25.381  1.00  0.00     0.059 A 
ATOM     69  C   UNL A   1      42.701  21.449  27.780  1.00  0.00     0.059 A 
ATOM     70  F   UNL A   1      43.304  23.184  29.240  1.00  0.00    -0.206 F 
ATOM     71  C   UNL A   1      42.509  20.994  26.476  1.00  0.00     0.060 A 
BRANCH  71  72
ATOM     72  S   UNL A   1      41.977  19.294  26.175  1.00  0.00     0.124 S 
ATOM     73  O   UNL A   1      42.781  18.937  25.011  1.00  0.00    -0.237 OA
ATOM     74  O   UNL A   1      42.336  18.634  27.426  1.00  0.00    -0.237 OA
ATOM     75  O   UNL A   1      40.544  19.430  25.936  1.00  0.00    -0.744 OA
ENDBRANCH  71  72
ENDBRANCH  39  64
BRANCH  51  76
ATOM     76  C   UNL A   1      49.612  26.709  26.399  1.00  0.00     0.058 A 
ATOM     77  C   UNL A   1      50.411  26.060  27.354  1.00  0.00     0.135 A 
ATOM     78  C   UNL A   1      50.123  26.840  25.098  1.00  0.00     0.135 A 
ATOM     79  F   UNL A   1      49.971  25.912  28.614  1.00  0.00    -0.206 F 
ATOM     80  C   UNL A   1      51.684  25.596  27.042  1.00  0.00     0.059 A 
ATOM     81  C   UNL A   1      51.383  26.359  24.756  1.00  0.00     0.059 A 
ATOM     82  F   UNL A   1      49.395  27.441  24.143  1.00  0.00    -0.206 F 
ATOM     83  C   UNL A   1      52.164  25.755  25.740  1.00  0.00     0.060 A 
BRANCH  83  84
ATOM     84  S   UNL A   1      53.816  25.145  25.343  1.00  0.00     0.124 S 
ATOM     85  O   UNL A   1      54.004  25.667  23.993  1.00  0.00    -0.237 OA
ATOM     86  O   UNL A   1      54.638  25.762  26.380  1.00  0.00    -0.237 OA
ATOM     87  O   UNL A   1      53.676  23.696  25.444  1.00  0.00    -0.744 OA
ENDBRANCH  83  84
ENDBRANCH  51  76
ENDBRANCH  25  26
ENDBRANCH  17  20
ENDBRANCH   1  16
TORSDOF 14
ENDMDL
MODEL 3
REMARK VINA RESULT:     -11.0      1.552      2.526
REMARK SMILES O=C(Cc1ccc(Cl)nc1)NCCCNC(=O)c1ccc(-c2c3nc(c(-c4c(F)cc(S(=O)(=O)[O-])cc4F)c4ccc([nH]4)c(-c4c(F)cc(S(=O)(=O)[O-])cc4F)c4nc(c(-c5c(F)cc(S(=O)(=O)[O-])cc5F)c5ccc2[nH]5)C=C4)C=C3)cc1
REMARK SMILES IDX 14 1 13 2 12 3 11 4 1 5 2 6 3 8 4 9 5 10 10 11 6 12 9 13
REMARK SMILES IDX 7 14 8 15 15 16 16 17 17 19 18 20 19 21 83 22 20 23 82 24
REMARK SMILES IDX 21 25 22 26 23 27 76 28 24 29 81 30 75 31 77 32 25 33 80 34
REMARK SMILES IDX 74 35 73 36 26 38 60 39 39 40 59 41 40 42 43 43 58 44 78 45
REMARK SMILES IDX 41 46 42 47 57 49 79 50 44 51 27 52 28 53 37 54 29 55 30 56
REMARK SMILES IDX 36 57 38 58 31 59 32 60 33 61 34 62 35 63 61 64 62 65 71 66
REMARK SMILES IDX 63 67 64 68 70 69 72 70 65 71 66 72 67 73 68 74 69 75 45 76
REMARK SMILES IDX 46 77 55 78 47 79 48 80 54 81 56 82 49 83 50 84 51 85 52 86
REMARK SMILES IDX 53 87
REMARK H PARENT 11 7 15 18 77 37 43 48
REMARK Flexibility Score: inf
ROOT
ATOM      1  C   UNL A   1      45.172  25.133  26.710  1.00  0.00     0.118 C 
ENDROOT
BRANCH   1   2
ATOM      2  C   UNL A   1      45.203  23.855  27.544  1.00  0.00     0.042 C 
BRANCH   2   3
ATOM      3  C   UNL A   1      44.730  22.601  26.821  1.00  0.00     0.117 C 
BRANCH   3   4
ATOM      4  N   UNL A   1      43.403  22.180  27.227  1.00  0.00    -0.356 N 
ATOM      5  O   UNL A   1      42.467  22.250  25.127  1.00  0.00    -0.275 OA
ATOM      6  C   UNL A   1      42.378  21.993  26.324  1.00  0.00     0.224 C 
ATOM      7  H   UNL A   1      43.227  22.023  28.183  1.00  0.00     0.163 HD
BRANCH   6   8
ATOM      8  C   UNL A   1      41.111  21.413  26.927  1.00  0.00     0.137 C 
BRANCH   8   9
ATOM      9  C   UNL A   1      39.829  22.099  26.516  1.00  0.00    -0.020 A 
ATOM     10  C   UNL A   1      39.618  23.437  26.874  1.00  0.00     0.009 A 
ATOM     11  C   UNL A   1      38.839  21.484  25.752  1.00  0.00     0.117 A 
ATOM     12  C   UNL A   1      38.439  24.078  26.501  1.00  0.00     0.041 A 
ATOM     13  N   UNL A   1      37.680  22.078  25.386  1.00  0.00    -0.244 NA
ATOM     14  C   UNL A   1      37.512  23.355  25.775  1.00  0.00     0.129 A 
ATOM     15  Cl  UNL A   1      36.027  24.062  25.289  1.00  0.00    -0.062 Cl
ENDBRANCH   8   9
ENDBRANCH   6   8
ENDBRANCH   3   4
ENDBRANCH   2   3
ENDBRANCH   1   2
BRANCH   1  16
ATOM     16  N   UNL A   1      44.094  25.163  25.732  1.00  0.00    -0.352 N 
ATOM     17  C   UNL A   1      42.853  25.747  25.797  1.00  0.00     0.251 C 
ATOM     18  H   UNL A   1      44.285  24.689  24.890  1.00  0.00     0.163 HD
ATOM     19  O   UNL A   1      42.053  25.542  24.885  1.00  0.00    -0.269 OA
BRANCH  17  20
ATOM     20  C   UNL A   1      42.453  26.588  26.950  1.00  0.00     0.039 A 
ATOM     21  C   UNL A   1      41.643  26.018  27.938  1.00  0.00     0.014 A 
ATOM     22  C   UNL A   1      42.831  27.930  27.058  1.00  0.00     0.014 A 
ATOM     23  C   UNL A   1      41.266  26.770  29.054  1.00  0.00     0.010 A 
ATOM     24  C   UNL A   1      42.515  28.657  28.207  1.00  0.00     0.010 A 
ATOM     25  C   UNL A   1      41.726  28.088  29.217  1.00  0.00    -0.014 A 
BRANCH  25  26
ATOM     26  C   UNL A   1      41.392  28.862  30.443  1.00  0.00     0.031 A 
ATOM     27  C   UNL A   1      42.196  28.692  31.705  1.00  0.00     0.074 A 
ATOM     28  C   UNL A   1      40.336  29.700  30.429  1.00  0.00     0.049 A 
ATOM     29  N   UNL A   1      42.051  29.286  32.862  1.00  0.00    -0.248 NA
ATOM     30  C   UNL A   1      43.289  27.707  31.673  1.00  0.00     0.031 C 
ATOM     31  C   UNL A   1      39.438  29.909  29.291  1.00  0.00     0.029 A 
ATOM     32  N   UNL A   1      39.838  30.533  31.400  1.00  0.00    -0.354 N 
ATOM     33  C   UNL A   1      43.023  28.745  33.695  1.00  0.00     0.074 A 
ATOM     34  C   UNL A   1      43.718  27.735  32.926  1.00  0.00     0.031 C 
ATOM     35  C   UNL A   1      38.521  30.833  29.617  1.00  0.00     0.029 A 
ATOM     36  C   UNL A   1      38.745  31.263  30.994  1.00  0.00     0.049 A 
ATOM     37  H   UNL A   1      40.226  30.601  32.302  1.00  0.00     0.167 HD
ATOM     38  C   UNL A   1      43.329  29.077  34.974  1.00  0.00     0.037 A 
ATOM     39  C   UNL A   1      38.011  32.182  31.651  1.00  0.00     0.037 A 
ATOM     40  C   UNL A   1      42.652  30.101  35.729  1.00  0.00     0.049 A 
ATOM     41  C   UNL A   1      38.388  32.554  33.059  1.00  0.00     0.074 A 
ATOM     42  C   UNL A   1      42.927  30.549  37.010  1.00  0.00     0.029 A 
ATOM     43  N   UNL A   1      41.569  30.838  35.273  1.00  0.00    -0.354 N 
ATOM     44  N   UNL A   1      39.356  32.080  33.806  1.00  0.00    -0.248 NA
ATOM     45  C   UNL A   1      37.581  33.596  33.708  1.00  0.00     0.031 C 
ATOM     46  C   UNL A   1      41.987  31.531  37.341  1.00  0.00     0.029 A 
ATOM     47  C   UNL A   1      41.155  31.727  36.252  1.00  0.00     0.049 A 
ATOM     48  H   UNL A   1      41.155  30.743  34.385  1.00  0.00     0.167 HD
ATOM     49  C   UNL A   1      39.290  32.783  35.004  1.00  0.00     0.074 A 
ATOM     50  C   UNL A   1      38.199  33.727  34.874  1.00  0.00     0.031 C 
ATOM     51  C   UNL A   1      40.065  32.661  36.111  1.00  0.00     0.037 A 
BRANCH  38  52
ATOM     52  C   UNL A   1      44.453  28.328  35.637  1.00  0.00     0.058 A 
ATOM     53  C   UNL A   1      44.220  27.155  36.374  1.00  0.00     0.135 A 
ATOM     54  C   UNL A   1      45.780  28.765  35.510  1.00  0.00     0.135 A 
ATOM     55  F   UNL A   1      42.968  26.698  36.542  1.00  0.00    -0.206 F 
ATOM     56  C   UNL A   1      45.258  26.459  36.986  1.00  0.00     0.059 A 
ATOM     57  C   UNL A   1      46.839  28.070  36.090  1.00  0.00     0.059 A 
ATOM     58  F   UNL A   1      46.061  29.879  34.816  1.00  0.00    -0.206 F 
ATOM     59  C   UNL A   1      46.565  26.927  36.839  1.00  0.00     0.060 A 
BRANCH  59  60
ATOM     60  S   UNL A   1      47.903  26.016  37.639  1.00  0.00     0.124 S 
ATOM     61  O   UNL A   1      47.200  24.831  38.119  1.00  0.00    -0.237 OA
ATOM     62  O   UNL A   1      48.834  25.796  36.537  1.00  0.00    -0.237 OA
ATOM     63  O   UNL A   1      48.367  26.933  38.674  1.00  0.00    -0.744 OA
ENDBRANCH  59  60
ENDBRANCH  38  52
BRANCH  39  64
ATOM     64  C   UNL A   1      36.867  32.843  30.969  1.00  0.00     0.058 A 
ATOM     65  C   UNL A   1      35.543  32.506  31.292  1.00  0.00     0.135 A 
ATOM     66  C   UNL A   1      37.072  33.829  29.993  1.00  0.00     0.135 A 
ATOM     67  F   UNL A   1      35.297  31.565  32.216  1.00  0.00    -0.206 F 
ATOM     68  C   UNL A   1      34.463  33.111  30.659  1.00  0.00     0.059 A 
ATOM     69  C   UNL A   1      36.008  34.466  29.364  1.00  0.00     0.059 A 
ATOM     70  F   UNL A   1      38.319  34.199  29.663  1.00  0.00    -0.206 F 
ATOM     71  C   UNL A   1      34.706  34.092  29.696  1.00  0.00     0.060 A 
BRANCH  71  72
ATOM     72  S   UNL A   1      33.297  34.908  28.914  1.00  0.00     0.124 S 
ATOM     73  O   UNL A   1      32.440  35.179  30.062  1.00  0.00    -0.237 OA
ATOM     74  O   UNL A   1      33.921  36.072  28.294  1.00  0.00    -0.237 OA
ATOM     75  O   UNL A   1      32.804  33.899  27.981  1.00  0.00    -0.744 OA
ENDBRANCH  71  72
ENDBRANCH  39  64
BRANCH  51  76
ATOM     76  C   UNL A   1      39.776  33.590  37.257  1.00  0.00     0.058 A 
ATOM     77  C   UNL A   1      40.368  34.861  37.344  1.00  0.00     0.135 A 
ATOM     78  C   UNL A   1      38.883  33.213  38.272  1.00  0.00     0.135 A 
ATOM     79  F   UNL A   1      41.232  35.269  36.402  1.00  0.00    -0.206 F 
ATOM     80  C   UNL A   1      40.115  35.708  38.417  1.00  0.00     0.059 A 
ATOM     81  C   UNL A   1      38.594  34.055  39.341  1.00  0.00     0.059 A 
ATOM     82  F   UNL A   1      38.279  32.014  38.230  1.00  0.00    -0.206 F 
ATOM     83  C   UNL A   1      39.230  35.294  39.415  1.00  0.00     0.060 A 
BRANCH  83  84
ATOM     84  S   UNL A   1      38.905  36.402  40.803  1.00  0.00     0.124 S 
ATOM     85  O   UNL A   1      38.529  37.632  40.113  1.00  0.00    -0.237 OA
ATOM     86  O   UNL A   1      37.826  35.715  41.508  1.00  0.00    -0.237 OA
ATOM     87  O   UNL A   1      40.180  36.441  41.510  1.00  0.00    -0.744 OA
ENDBRANCH  83  84
ENDBRANCH  51  76
ENDBRANCH  25  26
ENDBRANCH  17  20
ENDBRANCH   1  16
TORSDOF 14
ENDMDL
