MODEL 1
REMARK VINA RESULT:     -13.4      0.000      0.000
REMARK SMILES Cc1c(NC(=O)c2ccccc2NC(=O)[C@@H]2CCCO2)cccc1C(=O)NCCCNC(=O)c1ccc(-c2c3nc(c(-c4c(F)cc(S(=O)(=O)[O-])cc4F)c4ccc([nH]4)c(-c4c(F)cc(S(=O)(=O)[O-])cc4F)c4nc(c(-c5c(F)cc(S(=O)(=O)[O-])cc5F)c5ccc2[nH]5)C=C4)C=C3)cc1
REMARK SMILES IDX 28 1 27 2 25 3 26 4 24 6 1 7 2 8 3 9 21 10 23 11 22 12 4 13
REMARK SMILES IDX 5 14 6 16 7 17 8 18 12 19 9 20 11 21 10 22 13 23 14 24 15 26
REMARK SMILES IDX 16 27 17 28 20 29 18 30 19 31 29 32 30 33 31 34 32 35 33 37
REMARK SMILES IDX 34 38 35 39 99 40 36 41 98 42 37 43 38 44 39 45 92 46 40 47
REMARK SMILES IDX 97 48 91 49 93 50 41 51 96 52 90 53 89 54 42 56 76 57 55 58
REMARK SMILES IDX 75 59 56 60 59 61 74 62 94 63 57 64 58 65 73 67 95 68 60 69
REMARK SMILES IDX 43 70 44 71 53 72 45 73 46 74 52 75 54 76 47 77 48 78 49 79
REMARK SMILES IDX 50 80 51 81 77 82 78 83 87 84 79 85 80 86 86 87 88 88 81 89
REMARK SMILES IDX 82 90 83 91 84 92 85 93 61 94 62 95 71 96 63 97 64 98 70 99
REMARK SMILES IDX 72 100 65 101 66 102 67 103 68 104 69 105
REMARK H PARENT 27 5 4 15 13 25 31 36 93 55 59 66
REMARK Flexibility Score: inf
ROOT
ATOM      1  C   UNL A   1      35.347  21.679  26.054  1.00  0.00     0.118 C 
ENDROOT
BRANCH   1   2
ATOM      2  N   UNL A   1      34.194  20.770  25.783  1.00  0.00    -0.352 N 
ATOM      3  C   UNL A   1      32.901  20.868  25.292  1.00  0.00     0.251 C 
ATOM      4  O   UNL A   1      32.293  19.880  24.877  1.00  0.00    -0.269 OA
ATOM      5  H   UNL A   1      34.413  19.839  26.018  1.00  0.00     0.163 HD
BRANCH   3   6
ATOM      6  C   UNL A   1      32.185  22.167  25.227  1.00  0.00     0.044 A 
ATOM      7  C   UNL A   1      33.287  22.774  23.026  1.00  0.00     0.047 C 
ATOM      8  C   UNL A   1      32.214  22.952  24.079  1.00  0.00    -0.015 A 
ATOM      9  C   UNL A   1      31.348  24.051  23.985  1.00  0.00     0.045 A 
ATOM     10  C   UNL A   1      30.653  24.523  25.099  1.00  0.00     0.026 A 
ATOM     11  C   UNL A   1      31.541  22.673  26.375  1.00  0.00     0.014 A 
ATOM     12  C   UNL A   1      30.798  23.860  26.317  1.00  0.00     0.003 A 
BRANCH   9  13
ATOM     13  N   UNL A   1      31.267  24.625  22.716  1.00  0.00    -0.322 N 
ATOM     14  C   UNL A   1      31.567  25.872  22.254  1.00  0.00     0.257 C 
ATOM     15  H   UNL A   1      30.928  24.012  22.023  1.00  0.00     0.170 HD
ATOM     16  O   UNL A   1      31.444  26.081  21.044  1.00  0.00    -0.269 OA
BRANCH  14  17
ATOM     17  C   UNL A   1      32.040  26.974  23.128  1.00  0.00     0.063 A 
ATOM     18  C   UNL A   1      33.386  26.821  23.506  1.00  0.00     0.016 A 
ATOM     19  C   UNL A   1      31.280  28.067  23.618  1.00  0.00     0.054 A 
ATOM     20  C   UNL A   1      34.019  27.784  24.273  1.00  0.00     0.001 A 
ATOM     21  C   UNL A   1      31.975  29.076  24.285  1.00  0.00     0.027 A 
ATOM     22  C   UNL A   1      33.324  28.932  24.621  1.00  0.00     0.002 A 
BRANCH  19  23
ATOM     23  N   UNL A   1      29.880  28.073  23.465  1.00  0.00    -0.323 N 
ATOM     24  C   UNL A   1      28.919  28.816  22.842  1.00  0.00     0.253 C 
ATOM     25  H   UNL A   1      29.476  27.318  23.950  1.00  0.00     0.170 HD
ATOM     26  O   UNL A   1      27.758  28.403  22.933  1.00  0.00    -0.272 OA
BRANCH  24  27
ATOM     27  C   UNL A   1      29.227  30.136  22.151  1.00  0.00     0.207 C 
ATOM     28  C   UNL A   1      28.827  31.270  23.083  1.00  0.00     0.044 C 
ATOM     29  O   UNL A   1      28.513  30.374  20.926  1.00  0.00    -0.368 OA
ATOM     30  C   UNL A   1      28.583  32.396  22.120  1.00  0.00     0.032 C 
ATOM     31  C   UNL A   1      27.904  31.668  20.984  1.00  0.00     0.161 C 
ENDBRANCH  24  27
ENDBRANCH  19  23
ENDBRANCH  14  17
ENDBRANCH   9  13
ENDBRANCH   3   6
ENDBRANCH   1   2
BRANCH   1  32
ATOM     32  C   UNL A   1      36.602  21.758  24.990  1.00  0.00     0.042 C 
BRANCH  32  33
ATOM     33  C   UNL A   1      37.949  21.019  25.410  1.00  0.00     0.118 C 
BRANCH  33  34
ATOM     34  N   UNL A   1      39.323  21.654  25.829  1.00  0.00    -0.352 N 
ATOM     35  C   UNL A   1      39.787  22.596  26.858  1.00  0.00     0.251 C 
ATOM     36  H   UNL A   1      40.061  21.344  25.256  1.00  0.00     0.163 HD
ATOM     37  O   UNL A   1      40.537  22.065  27.699  1.00  0.00    -0.269 OA
BRANCH  35  38
ATOM     38  C   UNL A   1      39.603  24.163  27.091  1.00  0.00     0.039 A 
ATOM     39  C   UNL A   1      40.020  25.118  26.104  1.00  0.00     0.014 A 
ATOM     40  C   UNL A   1      39.136  24.784  28.243  1.00  0.00     0.014 A 
ATOM     41  C   UNL A   1      40.508  26.438  26.488  1.00  0.00     0.010 A 
ATOM     42  C   UNL A   1      39.624  26.076  28.630  1.00  0.00     0.010 A 
ATOM     43  C   UNL A   1      40.540  26.796  27.848  1.00  0.00    -0.014 A 
BRANCH  43  44
ATOM     44  C   UNL A   1      41.649  27.623  28.520  1.00  0.00     0.031 A 
ATOM     45  C   UNL A   1      43.002  27.094  28.638  1.00  0.00     0.074 A 
ATOM     46  C   UNL A   1      41.652  28.934  28.934  1.00  0.00     0.049 A 
ATOM     47  N   UNL A   1      43.701  27.077  29.727  1.00  0.00    -0.248 NA
ATOM     48  C   UNL A   1      43.703  26.652  27.448  1.00  0.00     0.031 C 
ATOM     49  C   UNL A   1      42.701  29.850  29.429  1.00  0.00     0.029 A 
ATOM     50  N   UNL A   1      40.614  29.838  28.928  1.00  0.00    -0.354 N 
ATOM     51  C   UNL A   1      45.008  26.938  29.312  1.00  0.00     0.074 A 
ATOM     52  C   UNL A   1      44.926  26.461  27.942  1.00  0.00     0.031 C 
ATOM     53  C   UNL A   1      42.129  30.936  30.008  1.00  0.00     0.029 A 
ATOM     54  C   UNL A   1      40.693  30.760  29.963  1.00  0.00     0.049 A 
ATOM     55  H   UNL A   1      39.891  29.831  28.260  1.00  0.00     0.167 HD
ATOM     56  C   UNL A   1      46.051  27.517  29.987  1.00  0.00     0.037 A 
ATOM     57  C   UNL A   1      39.750  30.722  30.963  1.00  0.00     0.037 A 
ATOM     58  C   UNL A   1      45.593  28.499  30.991  1.00  0.00     0.049 A 
ATOM     59  C   UNL A   1      40.381  30.182  32.217  1.00  0.00     0.074 A 
ATOM     60  C   UNL A   1      45.686  29.883  31.097  1.00  0.00     0.029 A 
ATOM     61  N   UNL A   1      44.663  28.134  31.951  1.00  0.00    -0.354 N 
ATOM     62  N   UNL A   1      41.668  30.126  32.390  1.00  0.00    -0.248 NA
ATOM     63  C   UNL A   1      39.645  29.570  33.323  1.00  0.00     0.031 C 
ATOM     64  C   UNL A   1      44.825  30.326  32.145  1.00  0.00     0.029 A 
ATOM     65  C   UNL A   1      44.218  29.215  32.696  1.00  0.00     0.049 A 
ATOM     66  H   UNL A   1      44.353  27.210  32.089  1.00  0.00     0.167 HD
ATOM     67  C   UNL A   1      41.952  29.352  33.471  1.00  0.00     0.074 A 
ATOM     68  C   UNL A   1      40.654  29.074  34.063  1.00  0.00     0.031 C 
ATOM     69  C   UNL A   1      43.234  28.974  33.747  1.00  0.00     0.037 A 
BRANCH  56  70
ATOM     70  C   UNL A   1      47.494  27.412  29.508  1.00  0.00     0.058 A 
ATOM     71  C   UNL A   1      48.367  26.406  29.970  1.00  0.00     0.135 A 
ATOM     72  C   UNL A   1      48.061  28.257  28.526  1.00  0.00     0.135 A 
ATOM     73  F   UNL A   1      47.944  25.424  30.777  1.00  0.00    -0.206 F 
ATOM     74  C   UNL A   1      49.709  26.323  29.585  1.00  0.00     0.059 A 
ATOM     75  C   UNL A   1      49.415  28.250  28.187  1.00  0.00     0.059 A 
ATOM     76  F   UNL A   1      47.299  29.074  27.781  1.00  0.00    -0.206 F 
ATOM     77  C   UNL A   1      50.235  27.268  28.716  1.00  0.00     0.060 A 
BRANCH  77  78
ATOM     78  S   UNL A   1      51.956  27.132  28.200  1.00  0.00     0.124 S 
ATOM     79  O   UNL A   1      51.851  26.383  26.952  1.00  0.00    -0.237 OA
ATOM     80  O   UNL A   1      52.342  28.532  28.072  1.00  0.00    -0.237 OA
ATOM     81  O   UNL A   1      52.587  26.411  29.303  1.00  0.00    -0.744 OA
ENDBRANCH  77  78
ENDBRANCH  56  70
BRANCH  57  82
ATOM     82  C   UNL A   1      38.287  30.416  30.542  1.00  0.00     0.058 A 
ATOM     83  C   UNL A   1      37.536  29.777  31.541  1.00  0.00     0.135 A 
ATOM     84  C   UNL A   1      37.647  31.528  30.028  1.00  0.00     0.135 A 
ATOM     85  F   UNL A   1      37.595  28.445  31.670  1.00  0.00    -0.206 F 
ATOM     86  C   UNL A   1      36.778  30.507  32.456  1.00  0.00     0.059 A 
ATOM     87  C   UNL A   1      36.916  32.283  30.949  1.00  0.00     0.059 A 
ATOM     88  F   UNL A   1      38.126  32.134  28.927  1.00  0.00    -0.206 F 
ATOM     89  C   UNL A   1      36.662  31.865  32.238  1.00  0.00     0.060 A 
BRANCH  89  90
ATOM     90  S   UNL A   1      36.555  33.147  33.775  1.00  0.00     0.124 S 
ATOM     91  O   UNL A   1      35.147  32.986  34.094  1.00  0.00    -0.237 OA
ATOM     92  O   UNL A   1      37.416  32.637  34.805  1.00  0.00    -0.237 OA
ATOM     93  O   UNL A   1      36.908  34.470  33.272  1.00  0.00    -0.744 OA
ENDBRANCH  89  90
ENDBRANCH  57  82
BRANCH  69  94
ATOM     94  C   UNL A   1      43.650  28.295  35.020  1.00  0.00     0.058 A 
ATOM     95  C   UNL A   1      44.216  28.995  36.099  1.00  0.00     0.135 A 
ATOM     96  C   UNL A   1      43.626  26.888  35.152  1.00  0.00     0.135 A 
ATOM     97  F   UNL A   1      44.449  30.315  36.028  1.00  0.00    -0.206 F 
ATOM     98  C   UNL A   1      44.602  28.360  37.276  1.00  0.00     0.059 A 
ATOM     99  C   UNL A   1      44.050  26.228  36.296  1.00  0.00     0.059 A 
ATOM    100  F   UNL A   1      43.189  26.081  34.178  1.00  0.00    -0.206 F 
ATOM    101  C   UNL A   1      44.500  26.975  37.369  1.00  0.00     0.060 A 
BRANCH 101 102
ATOM    102  S   UNL A   1      44.990  26.156  38.888  1.00  0.00     0.124 S 
ATOM    103  O   UNL A   1      44.678  24.758  38.603  1.00  0.00    -0.237 OA
ATOM    104  O   UNL A   1      46.409  26.489  38.951  1.00  0.00    -0.237 OA
ATOM    105  O   UNL A   1      44.150  26.784  39.904  1.00  0.00    -0.744 OA
ENDBRANCH 101 102
ENDBRANCH  69  94
ENDBRANCH  43  44
ENDBRANCH  35  38
ENDBRANCH  33  34
ENDBRANCH  32  33
ENDBRANCH   1  32
TORSDOF 17
ENDMDL
MODEL 2
REMARK VINA RESULT:     -13.4      3.277      8.496
REMARK SMILES Cc1c(NC(=O)c2ccccc2NC(=O)[C@@H]2CCCO2)cccc1C(=O)NCCCNC(=O)c1ccc(-c2c3nc(c(-c4c(F)cc(S(=O)(=O)[O-])cc4F)c4ccc([nH]4)c(-c4c(F)cc(S(=O)(=O)[O-])cc4F)c4nc(c(-c5c(F)cc(S(=O)(=O)[O-])cc5F)c5ccc2[nH]5)C=C4)C=C3)cc1
REMARK SMILES IDX 28 1 27 2 25 3 26 4 24 6 1 7 2 8 3 9 21 10 23 11 22 12 4 13
REMARK SMILES IDX 5 14 6 16 7 17 8 18 12 19 9 20 11 21 10 22 13 23 14 24 15 26
REMARK SMILES IDX 16 27 17 28 20 29 18 30 19 31 29 32 30 33 31 34 32 35 33 37
REMARK SMILES IDX 34 38 35 39 99 40 36 41 98 42 37 43 38 44 39 45 92 46 40 47
REMARK SMILES IDX 97 48 91 49 93 50 41 51 96 52 90 53 89 54 42 56 76 57 55 58
REMARK SMILES IDX 75 59 56 60 59 61 74 62 94 63 57 64 58 65 73 67 95 68 60 69
REMARK SMILES IDX 43 70 44 71 53 72 45 73 46 74 52 75 54 76 47 77 48 78 49 79
REMARK SMILES IDX 50 80 51 81 77 82 78 83 87 84 79 85 80 86 86 87 88 88 81 89
REMARK SMILES IDX 82 90 83 91 84 92 85 93 61 94 62 95 71 96 63 97 64 98 70 99
REMARK SMILES IDX 72 100 65 101 66 102 67 103 68 104 69 105
REMARK H PARENT 27 5 4 15 13 25 31 36 93 55 59 66
REMARK Flexibility Score: inf
ROOT
ATOM      1  C   UNL A   1      35.338  21.270  25.693  1.00  0.00     0.118 C 
ENDROOT
BRANCH   1   2
ATOM      2  N   UNL A   1      34.280  20.444  25.038  1.00  0.00    -0.352 N 
ATOM      3  C   UNL A   1      33.064  20.646  24.402  1.00  0.00     0.251 C 
ATOM      4  O   UNL A   1      32.570  19.786  23.672  1.00  0.00    -0.269 OA
ATOM      5  H   UNL A   1      34.510  19.487  25.066  1.00  0.00     0.163 HD
BRANCH   3   6
ATOM      6  C   UNL A   1      32.301  21.909  24.556  1.00  0.00     0.044 A 
ATOM      7  C   UNL A   1      33.380  22.924  22.498  1.00  0.00     0.047 C 
ATOM      8  C   UNL A   1      32.301  22.880  23.559  1.00  0.00    -0.015 A 
ATOM      9  C   UNL A   1      31.395  23.947  23.649  1.00  0.00     0.045 A 
ATOM     10  C   UNL A   1      30.683  24.196  24.823  1.00  0.00     0.026 A 
ATOM     11  C   UNL A   1      31.639  22.188  25.770  1.00  0.00     0.014 A 
ATOM     12  C   UNL A   1      30.853  23.340  25.911  1.00  0.00     0.003 A 
BRANCH   9  13
ATOM     13  N   UNL A   1      31.292  24.725  22.496  1.00  0.00    -0.322 N 
ATOM     14  C   UNL A   1      31.524  26.049  22.262  1.00  0.00     0.257 C 
ATOM     15  H   UNL A   1      30.998  24.224  21.701  1.00  0.00     0.170 HD
ATOM     16  O   UNL A   1      31.400  26.457  21.104  1.00  0.00    -0.269 OA
BRANCH  14  17
ATOM     17  C   UNL A   1      31.923  27.008  23.321  1.00  0.00     0.063 A 
ATOM     18  C   UNL A   1      33.227  26.777  23.792  1.00  0.00     0.016 A 
ATOM     19  C   UNL A   1      31.128  28.036  23.891  1.00  0.00     0.054 A 
ATOM     20  C   UNL A   1      33.794  27.611  24.741  1.00  0.00     0.001 A 
ATOM     21  C   UNL A   1      31.766  28.928  24.753  1.00  0.00     0.027 A 
ATOM     22  C   UNL A   1      33.078  28.712  25.184  1.00  0.00     0.002 A 
BRANCH  19  23
ATOM     23  N   UNL A   1      29.748  28.091  23.617  1.00  0.00    -0.323 N 
ATOM     24  C   UNL A   1      28.871  28.867  22.915  1.00  0.00     0.253 C 
ATOM     25  H   UNL A   1      29.277  27.350  24.061  1.00  0.00     0.170 HD
ATOM     26  O   UNL A   1      27.693  28.494  22.903  1.00  0.00    -0.272 OA
BRANCH  24  27
ATOM     27  C   UNL A   1      29.284  30.176  22.258  1.00  0.00     0.207 C 
ATOM     28  C   UNL A   1      28.840  31.323  23.155  1.00  0.00     0.044 C 
ATOM     29  O   UNL A   1      28.690  30.438  20.976  1.00  0.00    -0.368 OA
ATOM     30  C   UNL A   1      28.720  32.456  22.178  1.00  0.00     0.032 C 
ATOM     31  C   UNL A   1      28.121  31.752  20.984  1.00  0.00     0.161 C 
ENDBRANCH  24  27
ENDBRANCH  19  23
ENDBRANCH  14  17
ENDBRANCH   9  13
ENDBRANCH   3   6
ENDBRANCH   1   2
BRANCH   1  32
ATOM     32  C   UNL A   1      36.687  21.696  24.852  1.00  0.00     0.042 C 
BRANCH  32  33
ATOM     33  C   UNL A   1      38.046  20.971  25.257  1.00  0.00     0.118 C 
BRANCH  33  34
ATOM     34  N   UNL A   1      39.427  21.620  25.633  1.00  0.00    -0.352 N 
ATOM     35  C   UNL A   1      39.909  22.581  26.634  1.00  0.00     0.251 C 
ATOM     36  H   UNL A   1      40.153  21.302  25.049  1.00  0.00     0.163 HD
ATOM     37  O   UNL A   1      40.680  22.069  27.467  1.00  0.00    -0.269 OA
BRANCH  35  38
ATOM     38  C   UNL A   1      39.724  24.152  26.843  1.00  0.00     0.039 A 
ATOM     39  C   UNL A   1      40.506  25.100  26.104  1.00  0.00     0.014 A 
ATOM     40  C   UNL A   1      38.904  24.776  27.775  1.00  0.00     0.014 A 
ATOM     41  C   UNL A   1      40.883  26.385  26.683  1.00  0.00     0.010 A 
ATOM     42  C   UNL A   1      39.279  26.033  28.357  1.00  0.00     0.010 A 
ATOM     43  C   UNL A   1      40.444  26.716  27.978  1.00  0.00    -0.014 A 
BRANCH  43  44
ATOM     44  C   UNL A   1      41.276  27.470  29.029  1.00  0.00     0.031 A 
ATOM     45  C   UNL A   1      40.660  28.488  29.872  1.00  0.00     0.074 A 
ATOM     46  C   UNL A   1      42.561  27.253  29.469  1.00  0.00     0.049 A 
ATOM     47  N   UNL A   1      41.131  29.677  30.065  1.00  0.00    -0.248 NA
ATOM     48  C   UNL A   1      39.497  28.147  30.667  1.00  0.00     0.031 C 
ATOM     49  C   UNL A   1      43.374  27.808  30.571  1.00  0.00     0.029 A 
ATOM     50  N   UNL A   1      43.479  26.335  29.013  1.00  0.00    -0.354 N 
ATOM     51  C   UNL A   1      40.534  30.115  31.228  1.00  0.00     0.074 A 
ATOM     52  C   UNL A   1      39.391  29.241  31.423  1.00  0.00     0.031 C 
ATOM     53  C   UNL A   1      44.682  27.500  30.379  1.00  0.00     0.029 A 
ATOM     54  C   UNL A   1      44.790  26.778  29.128  1.00  0.00     0.049 A 
ATOM     55  H   UNL A   1      43.233  25.456  28.643  1.00  0.00     0.167 HD
ATOM     56  C   UNL A   1      41.182  30.937  32.113  1.00  0.00     0.037 A 
ATOM     57  C   UNL A   1      45.508  27.041  27.985  1.00  0.00     0.037 A 
ATOM     58  C   UNL A   1      42.626  31.048  31.822  1.00  0.00     0.049 A 
ATOM     59  C   UNL A   1      45.668  28.529  27.834  1.00  0.00     0.074 A 
ATOM     60  C   UNL A   1      43.776  30.619  32.476  1.00  0.00     0.029 A 
ATOM     61  N   UNL A   1      43.057  31.420  30.559  1.00  0.00    -0.354 N 
ATOM     62  N   UNL A   1      45.474  29.362  28.813  1.00  0.00    -0.248 NA
ATOM     63  C   UNL A   1      45.945  29.213  26.572  1.00  0.00     0.031 C 
ATOM     64  C   UNL A   1      44.891  30.767  31.598  1.00  0.00     0.029 A 
ATOM     65  C   UNL A   1      44.430  31.306  30.412  1.00  0.00     0.049 A 
ATOM     66  H   UNL A   1      42.455  31.732  29.845  1.00  0.00     0.167 HD
ATOM     67  C   UNL A   1      45.414  30.631  28.331  1.00  0.00     0.074 A 
ATOM     68  C   UNL A   1      45.775  30.499  26.929  1.00  0.00     0.031 C 
ATOM     69  C   UNL A   1      45.023  31.668  29.128  1.00  0.00     0.037 A 
BRANCH  56  70
ATOM     70  C   UNL A   1      40.550  31.385  33.425  1.00  0.00     0.058 A 
ATOM     71  C   UNL A   1      40.391  30.510  34.520  1.00  0.00     0.135 A 
ATOM     72  C   UNL A   1      40.132  32.711  33.686  1.00  0.00     0.135 A 
ATOM     73  F   UNL A   1      40.883  29.264  34.501  1.00  0.00    -0.206 F 
ATOM     74  C   UNL A   1      39.766  30.884  35.713  1.00  0.00     0.059 A 
ATOM     75  C   UNL A   1      39.431  33.090  34.832  1.00  0.00     0.059 A 
ATOM     76  F   UNL A   1      40.468  33.723  32.871  1.00  0.00    -0.206 F 
ATOM     77  C   UNL A   1      39.260  32.169  35.851  1.00  0.00     0.060 A 
BRANCH  77  78
ATOM     78  S   UNL A   1      38.487  32.651  37.406  1.00  0.00     0.124 S 
ATOM     79  O   UNL A   1      37.344  31.748  37.480  1.00  0.00    -0.237 OA
ATOM     80  O   UNL A   1      39.559  32.402  38.363  1.00  0.00    -0.237 OA
ATOM     81  O   UNL A   1      38.152  34.058  37.199  1.00  0.00    -0.744 OA
ENDBRANCH  77  78
ENDBRANCH  56  70
BRANCH  57  82
ATOM     82  C   UNL A   1      45.304  26.076  26.786  1.00  0.00     0.058 A 
ATOM     83  C   UNL A   1      45.250  26.727  25.543  1.00  0.00     0.135 A 
ATOM     84  C   UNL A   1      46.206  25.030  26.797  1.00  0.00     0.135 A 
ATOM     85  F   UNL A   1      44.092  27.237  25.108  1.00  0.00    -0.206 F 
ATOM     86  C   UNL A   1      46.400  26.920  24.777  1.00  0.00     0.059 A 
ATOM     87  C   UNL A   1      47.375  25.233  26.060  1.00  0.00     0.059 A 
ATOM     88  F   UNL A   1      46.233  24.173  27.834  1.00  0.00    -0.206 F 
ATOM     89  C   UNL A   1      47.556  26.300  25.206  1.00  0.00     0.060 A 
BRANCH  89  90
ATOM     90  S   UNL A   1      49.344  27.166  24.942  1.00  0.00     0.124 S 
ATOM     91  O   UNL A   1      49.320  28.063  26.084  1.00  0.00    -0.237 OA
ATOM     92  O   UNL A   1      50.333  26.132  25.074  1.00  0.00    -0.237 OA
ATOM     93  O   UNL A   1      49.322  27.840  23.649  1.00  0.00    -0.744 OA
ENDBRANCH  89  90
ENDBRANCH  57  82
BRANCH  69  94
ATOM     94  C   UNL A   1      45.122  33.112  28.730  1.00  0.00     0.058 A 
ATOM     95  C   UNL A   1      44.386  33.653  27.662  1.00  0.00     0.135 A 
ATOM     96  C   UNL A   1      46.069  33.980  29.319  1.00  0.00     0.135 A 
ATOM     97  F   UNL A   1      43.577  32.887  26.913  1.00  0.00    -0.206 F 
ATOM     98  C   UNL A   1      44.483  34.992  27.296  1.00  0.00     0.059 A 
ATOM     99  C   UNL A   1      46.219  35.306  28.939  1.00  0.00     0.059 A 
ATOM    100  F   UNL A   1      46.897  33.587  30.293  1.00  0.00    -0.206 F 
ATOM    101  C   UNL A   1      45.393  35.815  27.953  1.00  0.00     0.060 A 
BRANCH 101 102
ATOM    102  S   UNL A   1      45.514  37.544  27.488  1.00  0.00     0.124 S 
ATOM    103  O   UNL A   1      45.939  38.173  28.735  1.00  0.00    -0.237 OA
ATOM    104  O   UNL A   1      46.520  37.489  26.432  1.00  0.00    -0.237 OA
ATOM    105  O   UNL A   1      44.162  37.878  27.053  1.00  0.00    -0.744 OA
ENDBRANCH 101 102
ENDBRANCH  69  94
ENDBRANCH  43  44
ENDBRANCH  35  38
ENDBRANCH  33  34
ENDBRANCH  32  33
ENDBRANCH   1  32
TORSDOF 17
ENDMDL
MODEL 3
REMARK VINA RESULT:     -13.4      3.988      5.726
REMARK SMILES Cc1c(NC(=O)c2ccccc2NC(=O)[C@@H]2CCCO2)cccc1C(=O)NCCCNC(=O)c1ccc(-c2c3nc(c(-c4c(F)cc(S(=O)(=O)[O-])cc4F)c4ccc([nH]4)c(-c4c(F)cc(S(=O)(=O)[O-])cc4F)c4nc(c(-c5c(F)cc(S(=O)(=O)[O-])cc5F)c5ccc2[nH]5)C=C4)C=C3)cc1
REMARK SMILES IDX 28 1 27 2 25 3 26 4 24 6 1 7 2 8 3 9 21 10 23 11 22 12 4 13
REMARK SMILES IDX 5 14 6 16 7 17 8 18 12 19 9 20 11 21 10 22 13 23 14 24 15 26
REMARK SMILES IDX 16 27 17 28 20 29 18 30 19 31 29 32 30 33 31 34 32 35 33 37
REMARK SMILES IDX 34 38 35 39 99 40 36 41 98 42 37 43 38 44 39 45 92 46 40 47
REMARK SMILES IDX 97 48 91 49 93 50 41 51 96 52 90 53 89 54 42 56 76 57 55 58
REMARK SMILES IDX 75 59 56 60 59 61 74 62 94 63 57 64 58 65 73 67 95 68 60 69
REMARK SMILES IDX 43 70 44 71 53 72 45 73 46 74 52 75 54 76 47 77 48 78 49 79
REMARK SMILES IDX 50 80 51 81 77 82 78 83 87 84 79 85 80 86 86 87 88 88 81 89
REMARK SMILES IDX 82 90 83 91 84 92 85 93 61 94 62 95 71 96 63 97 64 98 70 99
REMARK SMILES IDX 72 100 65 101 66 102 67 103 68 104 69 105
REMARK H PARENT 27 5 4 15 13 25 31 36 93 55 59 66
REMARK Flexibility Score: inf
ROOT
ATOM      1  C   UNL A   1      36.416  23.078  25.835  1.00  0.00     0.118 C 
ENDROOT
BRANCH   1   2
ATOM      2  N   UNL A   1      35.654  21.793  25.838  1.00  0.00    -0.352 N 
ATOM      3  C   UNL A   1      34.494  21.285  25.273  1.00  0.00     0.251 C 
ATOM      4  O   UNL A   1      34.292  20.072  25.201  1.00  0.00    -0.269 OA
ATOM      5  H   UNL A   1      36.100  21.118  26.399  1.00  0.00     0.163 HD
BRANCH   3   6
ATOM      6  C   UNL A   1      33.443  22.170  24.714  1.00  0.00     0.044 A 
ATOM      7  C   UNL A   1      32.531  22.704  27.018  1.00  0.00     0.047 C 
ATOM      8  C   UNL A   1      32.668  22.981  25.536  1.00  0.00    -0.015 A 
ATOM      9  C   UNL A   1      31.848  23.958  24.951  1.00  0.00     0.045 A 
ATOM     10  C   UNL A   1      31.598  23.967  23.578  1.00  0.00     0.026 A 
ATOM     11  C   UNL A   1      33.146  22.126  23.335  1.00  0.00     0.014 A 
ATOM     12  C   UNL A   1      32.209  23.004  22.774  1.00  0.00     0.003 A 
BRANCH   9  13
ATOM     13  N   UNL A   1      31.306  24.879  25.847  1.00  0.00    -0.322 N 
ATOM     14  C   UNL A   1      31.263  26.242  25.844  1.00  0.00     0.257 C 
ATOM     15  H   UNL A   1      30.871  24.466  26.629  1.00  0.00     0.170 HD
ATOM     16  O   UNL A   1      30.653  26.799  26.761  1.00  0.00    -0.269 OA
BRANCH  14  17
ATOM     17  C   UNL A   1      31.899  27.077  24.796  1.00  0.00     0.063 A 
ATOM     18  C   UNL A   1      33.267  27.292  25.036  1.00  0.00     0.016 A 
ATOM     19  C   UNL A   1      31.268  27.675  23.675  1.00  0.00     0.054 A 
ATOM     20  C   UNL A   1      34.042  27.999  24.132  1.00  0.00     0.001 A 
ATOM     21  C   UNL A   1      32.094  28.277  22.726  1.00  0.00     0.027 A 
ATOM     22  C   UNL A   1      33.462  28.450  22.956  1.00  0.00     0.002 A 
BRANCH  19  23
ATOM     23  N   UNL A   1      29.862  27.687  23.584  1.00  0.00    -0.323 N 
ATOM     24  C   UNL A   1      28.869  28.512  23.140  1.00  0.00     0.253 C 
ATOM     25  H   UNL A   1      29.486  26.853  23.946  1.00  0.00     0.170 HD
ATOM     26  O   UNL A   1      27.717  28.072  23.207  1.00  0.00    -0.272 OA
BRANCH  24  27
ATOM     27  C   UNL A   1      29.136  29.936  22.677  1.00  0.00     0.207 C 
ATOM     28  C   UNL A   1      27.987  30.817  23.145  1.00  0.00     0.044 C 
ATOM     29  O   UNL A   1      29.206  30.119  21.252  1.00  0.00    -0.368 OA
ATOM     30  C   UNL A   1      28.031  31.943  22.154  1.00  0.00     0.032 C 
ATOM     31  C   UNL A   1      28.343  31.198  20.878  1.00  0.00     0.161 C 
ENDBRANCH  24  27
ENDBRANCH  19  23
ENDBRANCH  14  17
ENDBRANCH   9  13
ENDBRANCH   3   6
ENDBRANCH   1   2
BRANCH   1  32
ATOM     32  C   UNL A   1      38.061  23.059  25.880  1.00  0.00     0.042 C 
BRANCH  32  33
ATOM     33  C   UNL A   1      38.756  23.810  27.100  1.00  0.00     0.118 C 
BRANCH  33  34
ATOM     34  N   UNL A   1      39.477  25.206  27.107  1.00  0.00    -0.352 N 
ATOM     35  C   UNL A   1      39.905  26.174  28.126  1.00  0.00     0.251 C 
ATOM     36  H   UNL A   1      39.697  25.511  26.196  1.00  0.00     0.163 HD
ATOM     37  O   UNL A   1      41.144  26.283  28.202  1.00  0.00    -0.269 OA
BRANCH  35  38
ATOM     38  C   UNL A   1      39.133  27.171  29.103  1.00  0.00     0.039 A 
ATOM     39  C   UNL A   1      38.487  28.351  28.605  1.00  0.00     0.014 A 
ATOM     40  C   UNL A   1      39.065  27.092  30.488  1.00  0.00     0.014 A 
ATOM     41  C   UNL A   1      38.394  29.561  29.415  1.00  0.00     0.010 A 
ATOM     42  C   UNL A   1      38.988  28.281  31.288  1.00  0.00     0.010 A 
ATOM     43  C   UNL A   1      38.918  29.562  30.721  1.00  0.00    -0.014 A 
BRANCH  43  44
ATOM     44  C   UNL A   1      39.654  30.741  31.379  1.00  0.00     0.031 A 
ATOM     45  C   UNL A   1      40.826  30.511  32.214  1.00  0.00     0.074 A 
ATOM     46  C   UNL A   1      39.499  32.096  31.201  1.00  0.00     0.049 A 
ATOM     47  N   UNL A   1      41.005  31.005  33.397  1.00  0.00    -0.248 NA
ATOM     48  C   UNL A   1      41.955  29.779  31.674  1.00  0.00     0.031 C 
ATOM     49  C   UNL A   1      40.256  33.282  31.654  1.00  0.00     0.029 A 
ATOM     50  N   UNL A   1      38.570  32.759  30.433  1.00  0.00    -0.354 N 
ATOM     51  C   UNL A   1      42.364  30.931  33.615  1.00  0.00     0.074 A 
ATOM     52  C   UNL A   1      42.857  29.977  32.636  1.00  0.00     0.031 C 
ATOM     53  C   UNL A   1      39.508  34.401  31.480  1.00  0.00     0.029 A 
ATOM     54  C   UNL A   1      38.220  33.997  30.955  1.00  0.00     0.049 A 
ATOM     55  H   UNL A   1      38.193  32.394  29.599  1.00  0.00     0.167 HD
ATOM     56  C   UNL A   1      43.035  31.873  34.350  1.00  0.00     0.037 A 
ATOM     57  C   UNL A   1      36.944  34.182  31.434  1.00  0.00     0.037 A 
ATOM     58  C   UNL A   1      42.211  33.070  34.614  1.00  0.00     0.049 A 
ATOM     59  C   UNL A   1      36.986  34.247  32.936  1.00  0.00     0.074 A 
ATOM     60  C   UNL A   1      42.269  34.392  34.186  1.00  0.00     0.029 A 
ATOM     61  N   UNL A   1      40.960  32.942  35.195  1.00  0.00    -0.354 N 
ATOM     62  N   UNL A   1      38.082  34.460  33.602  1.00  0.00    -0.248 NA
ATOM     63  C   UNL A   1      35.848  33.976  33.813  1.00  0.00     0.031 C 
ATOM     64  C   UNL A   1      41.054  35.049  34.545  1.00  0.00     0.029 A 
ATOM     65  C   UNL A   1      40.258  34.137  35.210  1.00  0.00     0.049 A 
ATOM     66  H   UNL A   1      40.609  32.098  35.559  1.00  0.00     0.167 HD
ATOM     67  C   UNL A   1      37.878  34.192  34.919  1.00  0.00     0.074 A 
ATOM     68  C   UNL A   1      36.447  33.951  35.018  1.00  0.00     0.031 C 
ATOM     69  C   UNL A   1      38.921  34.148  35.797  1.00  0.00     0.037 A 
BRANCH  56  70
ATOM     70  C   UNL A   1      44.544  31.827  34.554  1.00  0.00     0.058 A 
ATOM     71  C   UNL A   1      45.132  31.193  35.668  1.00  0.00     0.135 A 
ATOM     72  C   UNL A   1      45.481  32.347  33.630  1.00  0.00     0.135 A 
ATOM     73  F   UNL A   1      44.400  30.506  36.553  1.00  0.00    -0.206 F 
ATOM     74  C   UNL A   1      46.511  31.185  35.903  1.00  0.00     0.059 A 
ATOM     75  C   UNL A   1      46.852  32.429  33.880  1.00  0.00     0.059 A 
ATOM     76  F   UNL A   1      45.111  32.724  32.397  1.00  0.00    -0.206 F 
ATOM     77  C   UNL A   1      47.363  31.832  35.020  1.00  0.00     0.060 A 
BRANCH  77  78
ATOM     78  S   UNL A   1      49.140  31.786  35.314  1.00  0.00     0.124 S 
ATOM     79  O   UNL A   1      49.469  30.394  35.028  1.00  0.00    -0.237 OA
ATOM     80  O   UNL A   1      49.629  32.767  34.351  1.00  0.00    -0.237 OA
ATOM     81  O   UNL A   1      49.264  32.176  36.717  1.00  0.00    -0.744 OA
ENDBRANCH  77  78
ENDBRANCH  56  70
BRANCH  57  82
ATOM     82  C   UNL A   1      35.788  33.518  30.638  1.00  0.00     0.058 A 
ATOM     83  C   UNL A   1      34.746  33.043  31.450  1.00  0.00     0.135 A 
ATOM     84  C   UNL A   1      35.334  34.319  29.608  1.00  0.00     0.135 A 
ATOM     85  F   UNL A   1      34.834  31.827  32.004  1.00  0.00    -0.206 F 
ATOM     86  C   UNL A   1      33.645  33.843  31.756  1.00  0.00     0.059 A 
ATOM     87  C   UNL A   1      34.254  35.148  29.920  1.00  0.00     0.059 A 
ATOM     88  F   UNL A   1      36.169  34.686  28.619  1.00  0.00    -0.206 F 
ATOM     89  C   UNL A   1      33.538  35.050  31.095  1.00  0.00     0.060 A 
BRANCH  89  90
ATOM     90  S   UNL A   1      32.754  36.654  32.005  1.00  0.00     0.124 S 
ATOM     91  O   UNL A   1      31.389  36.177  32.145  1.00  0.00    -0.237 OA
ATOM     92  O   UNL A   1      33.424  36.787  33.269  1.00  0.00    -0.237 OA
ATOM     93  O   UNL A   1      32.903  37.790  31.103  1.00  0.00    -0.744 OA
ENDBRANCH  89  90
ENDBRANCH  57  82
BRANCH  69  94
ATOM     94  C   UNL A   1      38.758  34.058  37.287  1.00  0.00     0.058 A 
ATOM     95  C   UNL A   1      39.205  35.066  38.158  1.00  0.00     0.135 A 
ATOM     96  C   UNL A   1      38.270  32.887  37.910  1.00  0.00     0.135 A 
ATOM     97  F   UNL A   1      39.842  36.154  37.697  1.00  0.00    -0.206 F 
ATOM     98  C   UNL A   1      39.053  34.976  39.538  1.00  0.00     0.059 A 
ATOM     99  C   UNL A   1      38.154  32.755  39.286  1.00  0.00     0.059 A 
ATOM    100  F   UNL A   1      37.880  31.812  37.216  1.00  0.00    -0.206 F 
ATOM    101  C   UNL A   1      38.511  33.821  40.091  1.00  0.00     0.060 A 
BRANCH 101 102
ATOM    102  S   UNL A   1      38.307  33.706  41.871  1.00  0.00     0.124 S 
ATOM    103  O   UNL A   1      38.294  35.109  42.274  1.00  0.00    -0.237 OA
ATOM    104  O   UNL A   1      37.030  33.006  41.971  1.00  0.00    -0.237 OA
ATOM    105  O   UNL A   1      39.477  32.947  42.303  1.00  0.00    -0.744 OA
ENDBRANCH 101 102
ENDBRANCH  69  94
ENDBRANCH  43  44
ENDBRANCH  35  38
ENDBRANCH  33  34
ENDBRANCH  32  33
ENDBRANCH   1  32
TORSDOF 17
ENDMDL
