MODEL 1
REMARK VINA RESULT:     -10.8      0.000      0.000
REMARK SMILES [NH3+]C[C@@H]1CC[C@H](C(=O)N[C@@H](Cc2ccccc2)C(=O)NCCCNC(=O)c2ccc(-c3c4nc(c(-c5c(F)cc(S(=O)(=O)[O-])cc5F)c5ccc([nH]5)c(-c5c(F)cc(S(=O)(=O)[O-])cc5F)c5nc(c(-c6c(F)cc(S(=O)(=O)[O-])cc6F)c6ccc3[nH]6)C=C5)C=C4)cc2)O1
REMARK SMILES IDX 21 1 20 2 18 3 19 4 10 6 9 7 7 8 8 9 6 11 3 12 4 13 93 14
REMARK SMILES IDX 5 15 2 16 1 17 11 21 12 22 13 23 17 24 14 25 16 26 15 27
REMARK SMILES IDX 22 28 23 29 24 30 25 31 26 33 27 34 28 35 92 36 29 37 91 38
REMARK SMILES IDX 30 39 31 40 32 41 85 42 33 43 90 44 84 45 86 46 34 47 89 48
REMARK SMILES IDX 83 49 82 50 35 52 69 53 48 54 68 55 49 56 52 57 67 58 87 59
REMARK SMILES IDX 50 60 51 61 66 63 88 64 53 65 36 66 37 67 46 68 38 69 39 70
REMARK SMILES IDX 45 71 47 72 40 73 41 74 42 75 43 76 44 77 70 78 71 79 80 80
REMARK SMILES IDX 72 81 73 82 79 83 81 84 74 85 75 86 76 87 77 88 78 89 54 90
REMARK SMILES IDX 55 91 64 92 56 93 57 94 63 95 65 96 58 97 59 98 60 99 61 100
REMARK SMILES IDX 62 101
REMARK H PARENT 20 5 9 10 1 18 1 19 1 20 24 32 86 51 52 62
REMARK Flexibility Score: inf
ROOT
ATOM      1  C   UNL A   1      33.371  26.084  25.132  1.00  0.00     0.117 C 
ENDROOT
BRANCH   1   2
ATOM      2  N   UNL A   1      32.852  25.647  23.858  1.00  0.00    -0.354 N 
ATOM      3  C   UNL A   1      32.804  24.369  23.391  1.00  0.00     0.242 C 
ATOM      4  O   UNL A   1      31.824  24.067  22.699  1.00  0.00    -0.273 OA
ATOM      5  H   UNL A   1      32.494  26.348  23.265  1.00  0.00     0.163 HD
BRANCH   3   6
ATOM      6  C   UNL A   1      33.824  23.285  23.804  1.00  0.00     0.175 C 
BRANCH   6   7
ATOM      7  N   UNL A   1      33.503  21.894  23.470  1.00  0.00    -0.342 N 
ATOM      8  C   UNL A   1      32.822  20.956  24.184  1.00  0.00     0.249 C 
ATOM      9  O   UNL A   1      32.728  19.826  23.695  1.00  0.00    -0.272 OA
ATOM     10  H   UNL A   1      33.832  21.591  22.592  1.00  0.00     0.164 HD
BRANCH   8  11
ATOM     11  C   UNL A   1      32.228  21.264  25.565  1.00  0.00     0.207 C 
ATOM     12  C   UNL A   1      31.117  22.994  26.641  1.00  0.00     0.174 C 
ATOM     13  C   UNL A   1      32.572  23.129  27.062  1.00  0.00     0.041 C 
ATOM     14  O   UNL A   1      31.121  22.162  25.472  1.00  0.00    -0.359 OA
ATOM     15  C   UNL A   1      33.215  21.848  26.568  1.00  0.00     0.045 C 
BRANCH  12  16
ATOM     16  C   UNL A   1      30.433  24.330  26.313  1.00  0.00     0.291 C 
BRANCH  16  17
ATOM     17  N   UNL A   1      29.135  24.460  26.986  1.00  0.00    -0.355 N 
ATOM     18  H   UNL A   1      28.906  25.447  27.095  1.00  0.00     0.344 HD
ATOM     19  H   UNL A   1      29.182  24.017  27.903  1.00  0.00     0.344 HD
ATOM     20  H   UNL A   1      28.415  24.003  26.425  1.00  0.00     0.344 HD
ENDBRANCH  16  17
ENDBRANCH  12  16
ENDBRANCH   8  11
ENDBRANCH   6   7
BRANCH   6  21
ATOM     21  C   UNL A   1      35.288  23.654  23.486  1.00  0.00     0.070 C 
BRANCH  21  22
ATOM     22  C   UNL A   1      36.328  23.105  24.431  1.00  0.00    -0.045 A 
ATOM     23  C   UNL A   1      36.898  23.939  25.405  1.00  0.00     0.004 A 
ATOM     24  C   UNL A   1      36.797  21.789  24.302  1.00  0.00     0.004 A 
ATOM     25  C   UNL A   1      37.962  23.486  26.187  1.00  0.00     0.000 A 
ATOM     26  C   UNL A   1      37.875  21.347  25.071  1.00  0.00     0.000 A 
ATOM     27  C   UNL A   1      38.464  22.200  26.004  1.00  0.00     0.000 A 
ENDBRANCH  21  22
ENDBRANCH   6  21
ENDBRANCH   3   6
ENDBRANCH   1   2
BRANCH   1  28
ATOM     28  C   UNL A   1      33.747  27.542  25.195  1.00  0.00     0.042 C 
BRANCH  28  29
ATOM     29  C   UNL A   1      34.287  27.955  26.551  1.00  0.00     0.118 C 
BRANCH  29  30
ATOM     30  N   UNL A   1      33.851  29.286  26.973  1.00  0.00    -0.352 N 
ATOM     31  C   UNL A   1      34.471  30.240  27.752  1.00  0.00     0.251 C 
ATOM     32  H   UNL A   1      32.960  29.546  26.645  1.00  0.00     0.163 HD
ATOM     33  O   UNL A   1      33.847  31.222  28.126  1.00  0.00    -0.269 OA
BRANCH  31  34
ATOM     34  C   UNL A   1      35.879  30.046  28.158  1.00  0.00     0.039 A 
ATOM     35  C   UNL A   1      36.172  29.542  29.428  1.00  0.00     0.014 A 
ATOM     36  C   UNL A   1      36.910  30.322  27.265  1.00  0.00     0.014 A 
ATOM     37  C   UNL A   1      37.492  29.223  29.752  1.00  0.00     0.010 A 
ATOM     38  C   UNL A   1      38.185  29.850  27.523  1.00  0.00     0.010 A 
ATOM     39  C   UNL A   1      38.502  29.322  28.780  1.00  0.00    -0.014 A 
BRANCH  39  40
ATOM     40  C   UNL A   1      39.904  28.914  29.053  1.00  0.00     0.031 A 
ATOM     41  C   UNL A   1      40.869  29.906  29.651  1.00  0.00     0.074 A 
ATOM     42  C   UNL A   1      40.334  27.696  28.669  1.00  0.00     0.049 A 
ATOM     43  N   UNL A   1      42.152  29.781  29.876  1.00  0.00    -0.248 NA
ATOM     44  C   UNL A   1      40.335  31.238  29.984  1.00  0.00     0.031 C 
ATOM     45  C   UNL A   1      39.525  26.687  27.980  1.00  0.00     0.029 A 
ATOM     46  N   UNL A   1      41.563  27.101  28.796  1.00  0.00    -0.354 N 
ATOM     47  C   UNL A   1      42.576  31.024  30.329  1.00  0.00     0.074 A 
ATOM     48  C   UNL A   1      41.438  31.911  30.267  1.00  0.00     0.031 C 
ATOM     49  C   UNL A   1      40.268  25.586  27.782  1.00  0.00     0.029 A 
ATOM     50  C   UNL A   1      41.611  25.820  28.300  1.00  0.00     0.049 A 
ATOM     51  H   UNL A   1      42.339  27.550  29.204  1.00  0.00     0.167 HD
ATOM     52  C   UNL A   1      43.793  31.387  30.801  1.00  0.00     0.037 A 
ATOM     53  C   UNL A   1      42.623  24.931  28.277  1.00  0.00     0.037 A 
ATOM     54  C   UNL A   1      44.898  30.477  30.923  1.00  0.00     0.049 A 
ATOM     55  C   UNL A   1      43.938  25.314  28.893  1.00  0.00     0.074 A 
ATOM     56  C   UNL A   1      46.144  30.702  31.479  1.00  0.00     0.029 A 
ATOM     57  N   UNL A   1      44.881  29.158  30.492  1.00  0.00    -0.354 N 
ATOM     58  N   UNL A   1      44.299  26.466  29.409  1.00  0.00    -0.248 NA
ATOM     59  C   UNL A   1      44.976  24.277  28.945  1.00  0.00     0.031 C 
ATOM     60  C   UNL A   1      46.891  29.525  31.355  1.00  0.00     0.029 A 
ATOM     61  C   UNL A   1      46.098  28.556  30.758  1.00  0.00     0.049 A 
ATOM     62  H   UNL A   1      44.115  28.716  30.057  1.00  0.00     0.167 HD
ATOM     63  C   UNL A   1      45.601  26.291  29.860  1.00  0.00     0.074 A 
ATOM     64  C   UNL A   1      45.958  24.915  29.571  1.00  0.00     0.031 C 
ATOM     65  C   UNL A   1      46.427  27.184  30.461  1.00  0.00     0.037 A 
BRANCH  52  66
ATOM     66  C   UNL A   1      43.963  32.819  31.232  1.00  0.00     0.058 A 
ATOM     67  C   UNL A   1      43.690  33.233  32.548  1.00  0.00     0.135 A 
ATOM     68  C   UNL A   1      44.363  33.802  30.311  1.00  0.00     0.135 A 
ATOM     69  F   UNL A   1      43.289  32.340  33.467  1.00  0.00    -0.206 F 
ATOM     70  C   UNL A   1      43.743  34.572  32.917  1.00  0.00     0.059 A 
ATOM     71  C   UNL A   1      44.456  35.144  30.670  1.00  0.00     0.059 A 
ATOM     72  F   UNL A   1      44.642  33.465  29.043  1.00  0.00    -0.206 F 
ATOM     73  C   UNL A   1      44.115  35.522  31.967  1.00  0.00     0.060 A 
BRANCH  73  74
ATOM     74  S   UNL A   1      44.133  37.263  32.446  1.00  0.00     0.124 S 
ATOM     75  O   UNL A   1      43.841  37.916  31.174  1.00  0.00    -0.237 OA
ATOM     76  O   UNL A   1      43.074  37.325  33.448  1.00  0.00    -0.237 OA
ATOM     77  O   UNL A   1      45.487  37.458  32.958  1.00  0.00    -0.744 OA
ENDBRANCH  73  74
ENDBRANCH  52  66
BRANCH  53  78
ATOM     78  C   UNL A   1      42.389  23.578  27.708  1.00  0.00     0.058 A 
ATOM     79  C   UNL A   1      42.459  23.360  26.324  1.00  0.00     0.135 A 
ATOM     80  C   UNL A   1      42.177  22.465  28.536  1.00  0.00     0.135 A 
ATOM     81  F   UNL A   1      42.658  24.394  25.492  1.00  0.00    -0.206 F 
ATOM     82  C   UNL A   1      42.332  22.086  25.779  1.00  0.00     0.059 A 
ATOM     83  C   UNL A   1      42.066  21.178  28.016  1.00  0.00     0.059 A 
ATOM     84  F   UNL A   1      42.124  22.619  29.867  1.00  0.00    -0.206 F 
ATOM     85  C   UNL A   1      42.146  20.999  26.635  1.00  0.00     0.060 A 
BRANCH  85  86
ATOM     86  S   UNL A   1      42.085  19.339  25.925  1.00  0.00     0.124 S 
ATOM     87  O   UNL A   1      42.601  18.529  27.022  1.00  0.00    -0.237 OA
ATOM     88  O   UNL A   1      40.663  19.183  25.631  1.00  0.00    -0.237 OA
ATOM     89  O   UNL A   1      42.950  19.442  24.754  1.00  0.00    -0.744 OA
ENDBRANCH  85  86
ENDBRANCH  53  78
BRANCH  65  90
ATOM     90  C   UNL A   1      47.790  26.700  30.861  1.00  0.00     0.058 A 
ATOM     91  C   UNL A   1      48.864  26.702  29.958  1.00  0.00     0.135 A 
ATOM     92  C   UNL A   1      48.040  26.296  32.182  1.00  0.00     0.135 A 
ATOM     93  F   UNL A   1      48.673  27.075  28.682  1.00  0.00    -0.206 F 
ATOM     94  C   UNL A   1      50.137  26.302  30.346  1.00  0.00     0.059 A 
ATOM     95  C   UNL A   1      49.310  25.915  32.598  1.00  0.00     0.059 A 
ATOM     96  F   UNL A   1      47.047  26.288  33.087  1.00  0.00    -0.206 F 
ATOM     97  C   UNL A   1      50.351  25.912  31.670  1.00  0.00     0.060 A 
BRANCH  97  98
ATOM     98  S   UNL A   1      52.017  25.434  32.173  1.00  0.00     0.124 S 
ATOM     99  O   UNL A   1      52.824  26.021  31.109  1.00  0.00    -0.237 OA
ATOM    100  O   UNL A   1      52.142  26.063  33.485  1.00  0.00    -0.237 OA
ATOM    101  O   UNL A   1      51.961  23.975  32.189  1.00  0.00    -0.744 OA
ENDBRANCH  97  98
ENDBRANCH  65  90
ENDBRANCH  39  40
ENDBRANCH  31  34
ENDBRANCH  29  30
ENDBRANCH  28  29
ENDBRANCH   1  28
TORSDOF 19
ENDMDL
MODEL 2
REMARK VINA RESULT:     -10.5      2.747      4.161
REMARK SMILES [NH3+]C[C@@H]1CC[C@H](C(=O)N[C@@H](Cc2ccccc2)C(=O)NCCCNC(=O)c2ccc(-c3c4nc(c(-c5c(F)cc(S(=O)(=O)[O-])cc5F)c5ccc([nH]5)c(-c5c(F)cc(S(=O)(=O)[O-])cc5F)c5nc(c(-c6c(F)cc(S(=O)(=O)[O-])cc6F)c6ccc3[nH]6)C=C5)C=C4)cc2)O1
REMARK SMILES IDX 21 1 20 2 18 3 19 4 10 6 9 7 7 8 8 9 6 11 3 12 4 13 93 14
REMARK SMILES IDX 5 15 2 16 1 17 11 21 12 22 13 23 17 24 14 25 16 26 15 27
REMARK SMILES IDX 22 28 23 29 24 30 25 31 26 33 27 34 28 35 92 36 29 37 91 38
REMARK SMILES IDX 30 39 31 40 32 41 85 42 33 43 90 44 84 45 86 46 34 47 89 48
REMARK SMILES IDX 83 49 82 50 35 52 69 53 48 54 68 55 49 56 52 57 67 58 87 59
REMARK SMILES IDX 50 60 51 61 66 63 88 64 53 65 36 66 37 67 46 68 38 69 39 70
REMARK SMILES IDX 45 71 47 72 40 73 41 74 42 75 43 76 44 77 70 78 71 79 80 80
REMARK SMILES IDX 72 81 73 82 79 83 81 84 74 85 75 86 76 87 77 88 78 89 54 90
REMARK SMILES IDX 55 91 64 92 56 93 57 94 63 95 65 96 58 97 59 98 60 99 61 100
REMARK SMILES IDX 62 101
REMARK H PARENT 20 5 9 10 1 18 1 19 1 20 24 32 86 51 52 62
REMARK Flexibility Score: inf
ROOT
ATOM      1  C   UNL A   1      32.417  26.624  26.405  1.00  0.00     0.117 C 
ENDROOT
BRANCH   1   2
ATOM      2  N   UNL A   1      31.155  25.958  26.625  1.00  0.00    -0.354 N 
ATOM      3  C   UNL A   1      30.765  24.760  26.110  1.00  0.00     0.242 C 
ATOM      4  O   UNL A   1      30.061  24.046  26.835  1.00  0.00    -0.273 OA
ATOM      5  H   UNL A   1      30.510  26.419  27.210  1.00  0.00     0.163 HD
BRANCH   3   6
ATOM      6  C   UNL A   1      31.274  24.222  24.754  1.00  0.00     0.175 C 
BRANCH   6   7
ATOM      7  N   UNL A   1      31.621  22.800  24.680  1.00  0.00    -0.342 N 
ATOM      8  C   UNL A   1      32.827  22.201  24.478  1.00  0.00     0.249 C 
ATOM      9  O   UNL A   1      32.847  20.969  24.407  1.00  0.00    -0.272 OA
ATOM     10  H   UNL A   1      30.863  22.181  24.793  1.00  0.00     0.164 HD
BRANCH   8  11
ATOM     11  C   UNL A   1      34.115  23.017  24.298  1.00  0.00     0.207 C 
ATOM     12  C   UNL A   1      36.407  22.733  24.526  1.00  0.00     0.174 C 
ATOM     13  C   UNL A   1      35.961  23.424  25.804  1.00  0.00     0.041 C 
ATOM     14  O   UNL A   1      35.218  22.183  23.939  1.00  0.00    -0.359 OA
ATOM     15  C   UNL A   1      34.529  23.833  25.517  1.00  0.00     0.045 C 
BRANCH  12  16
ATOM     16  C   UNL A   1      37.432  21.609  24.746  1.00  0.00     0.291 C 
BRANCH  16  17
ATOM     17  N   UNL A   1      38.593  22.071  25.518  1.00  0.00    -0.355 N 
ATOM     18  H   UNL A   1      39.438  21.960  24.959  1.00  0.00     0.344 HD
ATOM     19  H   UNL A   1      38.674  21.521  26.372  1.00  0.00     0.344 HD
ATOM     20  H   UNL A   1      38.470  23.055  25.758  1.00  0.00     0.344 HD
ENDBRANCH  16  17
ENDBRANCH  12  16
ENDBRANCH   8  11
ENDBRANCH   6   7
BRANCH   6  21
ATOM     21  C   UNL A   1      30.445  24.700  23.543  1.00  0.00     0.070 C 
BRANCH  21  22
ATOM     22  C   UNL A   1      30.513  26.175  23.237  1.00  0.00    -0.045 A 
ATOM     23  C   UNL A   1      31.721  26.745  22.807  1.00  0.00     0.004 A 
ATOM     24  C   UNL A   1      29.406  27.009  23.452  1.00  0.00     0.004 A 
ATOM     25  C   UNL A   1      31.837  28.128  22.660  1.00  0.00     0.000 A 
ATOM     26  C   UNL A   1      29.532  28.394  23.325  1.00  0.00     0.000 A 
ATOM     27  C   UNL A   1      30.750  28.952  22.941  1.00  0.00     0.000 A 
ENDBRANCH  21  22
ENDBRANCH   6  21
ENDBRANCH   3   6
ENDBRANCH   1   2
BRANCH   1  28
ATOM     28  C   UNL A   1      32.479  28.042  26.913  1.00  0.00     0.042 C 
BRANCH  28  29
ATOM     29  C   UNL A   1      33.659  28.817  26.358  1.00  0.00     0.118 C 
BRANCH  29  30
ATOM     30  N   UNL A   1      33.650  30.235  26.720  1.00  0.00    -0.352 N 
ATOM     31  C   UNL A   1      34.493  30.971  27.525  1.00  0.00     0.251 C 
ATOM     32  H   UNL A   1      32.913  30.753  26.321  1.00  0.00     0.163 HD
ATOM     33  O   UNL A   1      34.197  32.117  27.832  1.00  0.00    -0.269 OA
BRANCH  31  34
ATOM     34  C   UNL A   1      35.733  30.353  28.039  1.00  0.00     0.039 A 
ATOM     35  C   UNL A   1      36.925  30.488  27.322  1.00  0.00     0.014 A 
ATOM     36  C   UNL A   1      35.726  29.675  29.255  1.00  0.00     0.014 A 
ATOM     37  C   UNL A   1      38.118  30.030  27.884  1.00  0.00     0.010 A 
ATOM     38  C   UNL A   1      36.923  29.377  29.881  1.00  0.00     0.010 A 
ATOM     39  C   UNL A   1      38.135  29.522  29.194  1.00  0.00    -0.014 A 
BRANCH  39  40
ATOM     40  C   UNL A   1      39.392  29.102  29.864  1.00  0.00     0.031 A 
ATOM     41  C   UNL A   1      39.878  29.849  31.080  1.00  0.00     0.074 A 
ATOM     42  C   UNL A   1      40.145  28.124  29.322  1.00  0.00     0.049 A 
ATOM     43  N   UNL A   1      40.992  29.704  31.750  1.00  0.00    -0.248 NA
ATOM     44  C   UNL A   1      39.027  30.946  31.572  1.00  0.00     0.031 C 
ATOM     45  C   UNL A   1      39.839  27.402  28.085  1.00  0.00     0.029 A 
ATOM     46  N   UNL A   1      41.332  27.576  29.738  1.00  0.00    -0.354 N 
ATOM     47  C   UNL A   1      40.990  30.715  32.704  1.00  0.00     0.074 A 
ATOM     48  C   UNL A   1      39.811  31.516  32.472  1.00  0.00     0.031 C 
ATOM     49  C   UNL A   1      40.790  26.479  27.866  1.00  0.00     0.029 A 
ATOM     50  C   UNL A   1      41.788  26.565  28.926  1.00  0.00     0.049 A 
ATOM     51  H   UNL A   1      41.812  27.879  30.543  1.00  0.00     0.167 HD
ATOM     52  C   UNL A   1      41.866  30.933  33.714  1.00  0.00     0.037 A 
ATOM     53  C   UNL A   1      42.883  25.788  29.033  1.00  0.00     0.037 A 
ATOM     54  C   UNL A   1      42.997  30.088  33.976  1.00  0.00     0.049 A 
ATOM     55  C   UNL A   1      43.793  25.976  30.213  1.00  0.00     0.074 A 
ATOM     56  C   UNL A   1      43.895  30.147  35.026  1.00  0.00     0.029 A 
ATOM     57  N   UNL A   1      43.378  29.015  33.181  1.00  0.00    -0.354 N 
ATOM     58  N   UNL A   1      43.727  26.877  31.166  1.00  0.00    -0.248 NA
ATOM     59  C   UNL A   1      44.912  25.035  30.348  1.00  0.00     0.031 C 
ATOM     60  C   UNL A   1      44.837  29.128  34.849  1.00  0.00     0.029 A 
ATOM     61  C   UNL A   1      44.503  28.409  33.710  1.00  0.00     0.049 A 
ATOM     62  H   UNL A   1      42.915  28.729  32.360  1.00  0.00     0.167 HD
ATOM     63  C   UNL A   1      44.786  26.604  32.022  1.00  0.00     0.074 A 
ATOM     64  C   UNL A   1      45.468  25.443  31.482  1.00  0.00     0.031 C 
ATOM     65  C   UNL A   1      45.162  27.252  33.153  1.00  0.00     0.037 A 
BRANCH  52  66
ATOM     66  C   UNL A   1      41.604  32.117  34.605  1.00  0.00     0.058 A 
ATOM     67  C   UNL A   1      40.731  32.037  35.705  1.00  0.00     0.135 A 
ATOM     68  C   UNL A   1      42.200  33.361  34.337  1.00  0.00     0.135 A 
ATOM     69  F   UNL A   1      40.122  30.878  36.000  1.00  0.00    -0.206 F 
ATOM     70  C   UNL A   1      40.407  33.157  36.462  1.00  0.00     0.059 A 
ATOM     71  C   UNL A   1      41.917  34.487  35.105  1.00  0.00     0.059 A 
ATOM     72  F   UNL A   1      43.047  33.496  33.305  1.00  0.00    -0.206 F 
ATOM     73  C   UNL A   1      40.996  34.381  36.146  1.00  0.00     0.060 A 
BRANCH  73  74
ATOM     74  S   UNL A   1      40.530  35.837  37.107  1.00  0.00     0.124 S 
ATOM     75  O   UNL A   1      39.679  36.549  36.158  1.00  0.00    -0.237 OA
ATOM     76  O   UNL A   1      39.847  35.252  38.256  1.00  0.00    -0.237 OA
ATOM     77  O   UNL A   1      41.812  36.472  37.401  1.00  0.00    -0.744 OA
ENDBRANCH  73  74
ENDBRANCH  52  66
BRANCH  53  78
ATOM     78  C   UNL A   1      43.122  24.725  28.022  1.00  0.00     0.058 A 
ATOM     79  C   UNL A   1      43.765  25.018  26.810  1.00  0.00     0.135 A 
ATOM     80  C   UNL A   1      42.790  23.385  28.279  1.00  0.00     0.135 A 
ATOM     81  F   UNL A   1      44.100  26.285  26.518  1.00  0.00    -0.206 F 
ATOM     82  C   UNL A   1      44.077  24.022  25.890  1.00  0.00     0.059 A 
ATOM     83  C   UNL A   1      43.109  22.369  27.383  1.00  0.00     0.059 A 
ATOM     84  F   UNL A   1      42.194  23.051  29.433  1.00  0.00    -0.206 F 
ATOM     85  C   UNL A   1      43.754  22.698  26.191  1.00  0.00     0.060 A 
BRANCH  85  86
ATOM     86  S   UNL A   1      44.255  21.401  25.037  1.00  0.00     0.124 S 
ATOM     87  O   UNL A   1      45.594  21.081  25.516  1.00  0.00    -0.237 OA
ATOM     88  O   UNL A   1      43.236  20.380  25.261  1.00  0.00    -0.237 OA
ATOM     89  O   UNL A   1      44.190  22.064  23.738  1.00  0.00    -0.744 OA
ENDBRANCH  85  86
ENDBRANCH  53  78
BRANCH  65  90
ATOM     90  C   UNL A   1      46.351  26.714  33.893  1.00  0.00     0.058 A 
ATOM     91  C   UNL A   1      47.646  27.193  33.647  1.00  0.00     0.135 A 
ATOM     92  C   UNL A   1      46.183  25.758  34.907  1.00  0.00     0.135 A 
ATOM     93  F   UNL A   1      47.858  28.104  32.684  1.00  0.00    -0.206 F 
ATOM     94  C   UNL A   1      48.740  26.729  34.370  1.00  0.00     0.059 A 
ATOM     95  C   UNL A   1      47.257  25.298  35.659  1.00  0.00     0.059 A 
ATOM     96  F   UNL A   1      44.960  25.278  35.188  1.00  0.00    -0.206 F 
ATOM     97  C   UNL A   1      48.534  25.782  35.376  1.00  0.00     0.060 A 
BRANCH  97  98
ATOM     98  S   UNL A   1      49.954  25.217  36.336  1.00  0.00     0.124 S 
ATOM     99  O   UNL A   1      49.326  24.850  37.601  1.00  0.00    -0.237 OA
ATOM    100  O   UNL A   1      50.456  24.107  35.531  1.00  0.00    -0.237 OA
ATOM    101  O   UNL A   1      50.821  26.391  36.381  1.00  0.00    -0.744 OA
ENDBRANCH  97  98
ENDBRANCH  65  90
ENDBRANCH  39  40
ENDBRANCH  31  34
ENDBRANCH  29  30
ENDBRANCH  28  29
ENDBRANCH   1  28
TORSDOF 19
ENDMDL
MODEL 3
REMARK VINA RESULT:     -10.5      2.970      3.993
REMARK SMILES [NH3+]C[C@@H]1CC[C@H](C(=O)N[C@@H](Cc2ccccc2)C(=O)NCCCNC(=O)c2ccc(-c3c4nc(c(-c5c(F)cc(S(=O)(=O)[O-])cc5F)c5ccc([nH]5)c(-c5c(F)cc(S(=O)(=O)[O-])cc5F)c5nc(c(-c6c(F)cc(S(=O)(=O)[O-])cc6F)c6ccc3[nH]6)C=C5)C=C4)cc2)O1
REMARK SMILES IDX 21 1 20 2 18 3 19 4 10 6 9 7 7 8 8 9 6 11 3 12 4 13 93 14
REMARK SMILES IDX 5 15 2 16 1 17 11 21 12 22 13 23 17 24 14 25 16 26 15 27
REMARK SMILES IDX 22 28 23 29 24 30 25 31 26 33 27 34 28 35 92 36 29 37 91 38
REMARK SMILES IDX 30 39 31 40 32 41 85 42 33 43 90 44 84 45 86 46 34 47 89 48
REMARK SMILES IDX 83 49 82 50 35 52 69 53 48 54 68 55 49 56 52 57 67 58 87 59
REMARK SMILES IDX 50 60 51 61 66 63 88 64 53 65 36 66 37 67 46 68 38 69 39 70
REMARK SMILES IDX 45 71 47 72 40 73 41 74 42 75 43 76 44 77 70 78 71 79 80 80
REMARK SMILES IDX 72 81 73 82 79 83 81 84 74 85 75 86 76 87 77 88 78 89 54 90
REMARK SMILES IDX 55 91 64 92 56 93 57 94 63 95 65 96 58 97 59 98 60 99 61 100
REMARK SMILES IDX 62 101
REMARK H PARENT 20 5 9 10 1 18 1 19 1 20 24 32 86 51 52 62
REMARK Flexibility Score: inf
ROOT
ATOM      1  C   UNL A   1      33.297  29.459  26.426  1.00  0.00     0.117 C 
ENDROOT
BRANCH   1   2
ATOM      2  N   UNL A   1      33.927  29.247  25.144  1.00  0.00    -0.354 N 
ATOM      3  C   UNL A   1      33.857  28.124  24.376  1.00  0.00     0.242 C 
ATOM      4  O   UNL A   1      33.836  28.290  23.151  1.00  0.00    -0.273 OA
ATOM      5  H   UNL A   1      34.461  29.993  24.787  1.00  0.00     0.163 HD
BRANCH   3   6
ATOM      6  C   UNL A   1      33.666  26.711  24.971  1.00  0.00     0.175 C 
BRANCH   6   7
ATOM      7  N   UNL A   1      32.528  26.507  25.873  1.00  0.00    -0.342 N 
ATOM      8  C   UNL A   1      31.191  26.543  25.618  1.00  0.00     0.249 C 
ATOM      9  O   UNL A   1      30.425  26.385  26.574  1.00  0.00    -0.272 OA
ATOM     10  H   UNL A   1      32.769  26.315  26.808  1.00  0.00     0.164 HD
BRANCH   8  11
ATOM     11  C   UNL A   1      30.641  26.815  24.211  1.00  0.00     0.207 C 
ATOM     12  C   UNL A   1      29.475  28.473  23.082  1.00  0.00     0.174 C 
ATOM     13  C   UNL A   1      28.430  27.437  23.462  1.00  0.00     0.041 C 
ATOM     14  O   UNL A   1      30.611  28.212  23.920  1.00  0.00    -0.359 OA
ATOM     15  C   UNL A   1      29.247  26.257  23.953  1.00  0.00     0.045 C 
BRANCH  12  16
ATOM     16  C   UNL A   1      29.018  29.926  23.282  1.00  0.00     0.291 C 
BRANCH  16  17
ATOM     17  N   UNL A   1      30.044  30.735  23.953  1.00  0.00    -0.355 N 
ATOM     18  H   UNL A   1      30.629  31.191  23.254  1.00  0.00     0.344 HD
ATOM     19  H   UNL A   1      30.621  30.132  24.540  1.00  0.00     0.344 HD
ATOM     20  H   UNL A   1      29.592  31.442  24.534  1.00  0.00     0.344 HD
ENDBRANCH  16  17
ENDBRANCH  12  16
ENDBRANCH   8  11
ENDBRANCH   6   7
BRANCH   6  21
ATOM     21  C   UNL A   1      33.822  25.575  23.938  1.00  0.00     0.070 C 
BRANCH  21  22
ATOM     22  C   UNL A   1      34.530  24.335  24.423  1.00  0.00    -0.045 A 
ATOM     23  C   UNL A   1      34.223  23.088  23.859  1.00  0.00     0.004 A 
ATOM     24  C   UNL A   1      35.439  24.394  25.490  1.00  0.00     0.004 A 
ATOM     25  C   UNL A   1      34.762  21.917  24.395  1.00  0.00     0.000 A 
ATOM     26  C   UNL A   1      35.959  23.219  26.038  1.00  0.00     0.000 A 
ATOM     27  C   UNL A   1      35.611  21.983  25.497  1.00  0.00     0.000 A 
ENDBRANCH  21  22
ENDBRANCH   6  21
ENDBRANCH   3   6
ENDBRANCH   1   2
BRANCH   1  28
ATOM     28  C   UNL A   1      33.981  30.473  27.306  1.00  0.00     0.042 C 
BRANCH  28  29
ATOM     29  C   UNL A   1      35.150  29.892  28.078  1.00  0.00     0.118 C 
BRANCH  29  30
ATOM     30  N   UNL A   1      35.377  30.540  29.371  1.00  0.00    -0.352 N 
ATOM     31  C   UNL A   1      36.470  30.533  30.210  1.00  0.00     0.251 C 
ATOM     32  H   UNL A   1      34.616  31.073  29.698  1.00  0.00     0.163 HD
ATOM     33  O   UNL A   1      36.380  31.006  31.334  1.00  0.00    -0.269 OA
BRANCH  31  34
ATOM     34  C   UNL A   1      37.735  29.918  29.754  1.00  0.00     0.039 A 
ATOM     35  C   UNL A   1      38.103  30.005  28.409  1.00  0.00     0.014 A 
ATOM     36  C   UNL A   1      38.578  29.293  30.667  1.00  0.00     0.014 A 
ATOM     37  C   UNL A   1      39.363  29.553  28.013  1.00  0.00     0.010 A 
ATOM     38  C   UNL A   1      39.883  29.004  30.308  1.00  0.00     0.010 A 
ATOM     39  C   UNL A   1      40.287  29.100  28.971  1.00  0.00    -0.014 A 
BRANCH  39  40
ATOM     40  C   UNL A   1      41.667  28.690  28.607  1.00  0.00     0.031 A 
ATOM     41  C   UNL A   1      42.770  29.718  28.579  1.00  0.00     0.074 A 
ATOM     42  C   UNL A   1      41.906  27.427  28.204  1.00  0.00     0.049 A 
ATOM     43  N   UNL A   1      44.014  29.586  28.198  1.00  0.00    -0.248 NA
ATOM     44  C   UNL A   1      42.411  31.092  28.974  1.00  0.00     0.031 C 
ATOM     45  C   UNL A   1      40.900  26.369  28.081  1.00  0.00     0.029 A 
ATOM     46  N   UNL A   1      43.072  26.820  27.813  1.00  0.00    -0.354 N 
ATOM     47  C   UNL A   1      44.564  30.861  28.266  1.00  0.00     0.074 A 
ATOM     48  C   UNL A   1      43.501  31.764  28.639  1.00  0.00     0.031 C 
ATOM     49  C   UNL A   1      41.499  25.235  27.684  1.00  0.00     0.029 A 
ATOM     50  C   UNL A   1      42.922  25.491  27.494  1.00  0.00     0.049 A 
ATOM     51  H   UNL A   1      43.935  27.291  27.764  1.00  0.00     0.167 HD
ATOM     52  C   UNL A   1      45.850  31.243  28.079  1.00  0.00     0.037 A 
ATOM     53  C   UNL A   1      43.834  24.579  27.103  1.00  0.00     0.037 A 
ATOM     54  C   UNL A   1      46.912  30.325  27.775  1.00  0.00     0.049 A 
ATOM     55  C   UNL A   1      45.273  24.996  26.996  1.00  0.00     0.074 A 
ATOM     56  C   UNL A   1      48.267  30.579  27.664  1.00  0.00     0.029 A 
ATOM     57  N   UNL A   1      46.736  28.968  27.547  1.00  0.00    -0.354 N 
ATOM     58  N   UNL A   1      45.798  26.188  27.157  1.00  0.00    -0.248 NA
ATOM     59  C   UNL A   1      46.248  23.945  26.675  1.00  0.00     0.031 C 
ATOM     60  C   UNL A   1      48.906  29.377  27.338  1.00  0.00     0.029 A 
ATOM     61  C   UNL A   1      47.955  28.368  27.285  1.00  0.00     0.049 A 
ATOM     62  H   UNL A   1      45.869  28.499  27.567  1.00  0.00     0.167 HD
ATOM     63  C   UNL A   1      47.166  26.031  26.972  1.00  0.00     0.074 A 
ATOM     64  C   UNL A   1      47.389  24.623  26.703  1.00  0.00     0.031 C 
ATOM     65  C   UNL A   1      48.150  26.964  27.021  1.00  0.00     0.037 A 
BRANCH  52  66
ATOM     66  C   UNL A   1      46.158  32.709  28.223  1.00  0.00     0.058 A 
ATOM     67  C   UNL A   1      46.531  33.269  29.458  1.00  0.00     0.135 A 
ATOM     68  C   UNL A   1      46.041  33.578  27.125  1.00  0.00     0.135 A 
ATOM     69  F   UNL A   1      46.644  32.490  30.545  1.00  0.00    -0.206 F 
ATOM     70  C   UNL A   1      46.709  34.639  29.615  1.00  0.00     0.059 A 
ATOM     71  C   UNL A   1      46.250  34.949  27.252  1.00  0.00     0.059 A 
ATOM     72  F   UNL A   1      45.694  33.100  25.920  1.00  0.00    -0.206 F 
ATOM     73  C   UNL A   1      46.555  35.472  28.507  1.00  0.00     0.060 A 
BRANCH  73  74
ATOM     74  S   UNL A   1      46.742  37.254  28.733  1.00  0.00     0.124 S 
ATOM     75  O   UNL A   1      46.472  37.393  30.161  1.00  0.00    -0.237 OA
ATOM     76  O   UNL A   1      48.125  37.480  28.326  1.00  0.00    -0.237 OA
ATOM     77  O   UNL A   1      45.730  37.816  27.844  1.00  0.00    -0.744 OA
ENDBRANCH  73  74
ENDBRANCH  52  66
BRANCH  53  78
ATOM     78  C   UNL A   1      43.404  23.179  26.858  1.00  0.00     0.058 A 
ATOM     79  C   UNL A   1      43.398  22.646  25.560  1.00  0.00     0.135 A 
ATOM     80  C   UNL A   1      43.072  22.321  27.918  1.00  0.00     0.135 A 
ATOM     81  F   UNL A   1      43.706  23.428  24.514  1.00  0.00    -0.206 F 
ATOM     82  C   UNL A   1      43.083  21.312  25.320  1.00  0.00     0.059 A 
ATOM     83  C   UNL A   1      42.772  20.978  27.706  1.00  0.00     0.059 A 
ATOM     84  F   UNL A   1      43.084  22.777  29.180  1.00  0.00    -0.206 F 
ATOM     85  C   UNL A   1      42.783  20.483  26.402  1.00  0.00     0.060 A 
BRANCH  85  86
ATOM     86  S   UNL A   1      42.477  18.730  26.089  1.00  0.00     0.124 S 
ATOM     87  O   UNL A   1      42.777  18.141  27.389  1.00  0.00    -0.237 OA
ATOM     88  O   UNL A   1      41.070  18.729  25.698  1.00  0.00    -0.237 OA
ATOM     89  O   UNL A   1      43.416  18.411  25.018  1.00  0.00    -0.744 OA
ENDBRANCH  85  86
ENDBRANCH  53  78
BRANCH  65  90
ATOM     90  C   UNL A   1      49.557  26.493  26.796  1.00  0.00     0.058 A 
ATOM     91  C   UNL A   1      50.083  26.343  25.504  1.00  0.00     0.135 A 
ATOM     92  C   UNL A   1      50.409  26.257  27.887  1.00  0.00     0.135 A 
ATOM     93  F   UNL A   1      49.305  26.553  24.430  1.00  0.00    -0.206 F 
ATOM     94  C   UNL A   1      51.403  25.957  25.300  1.00  0.00     0.059 A 
ATOM     95  C   UNL A   1      51.738  25.893  27.706  1.00  0.00     0.059 A 
ATOM     96  F   UNL A   1      49.955  26.399  29.143  1.00  0.00    -0.206 F 
ATOM     97  C   UNL A   1      52.223  25.736  26.408  1.00  0.00     0.060 A 
BRANCH  97  98
ATOM     98  S   UNL A   1      53.946  25.275  26.131  1.00  0.00     0.124 S 
ATOM     99  O   UNL A   1      54.420  26.389  25.316  1.00  0.00    -0.237 OA
ATOM    100  O   UNL A   1      54.477  25.212  27.489  1.00  0.00    -0.237 OA
ATOM    101  O   UNL A   1      53.847  23.991  25.445  1.00  0.00    -0.744 OA
ENDBRANCH  97  98
ENDBRANCH  65  90
ENDBRANCH  39  40
ENDBRANCH  31  34
ENDBRANCH  29  30
ENDBRANCH  28  29
ENDBRANCH   1  28
TORSDOF 19
ENDMDL
