MODEL 1
REMARK VINA RESULT:     -12.4      0.000      0.000
REMARK SMILES CO[C@H]1C[C@@H](C(=O)NCCCNC(=O)c2ccc(-c3c4nc(c(-c5c(F)cc(S(=O)(=O)[O-])cc5F)c5ccc([nH]5)c(-c5c(F)cc(S(=O)(=O)[O-])cc5F)c5nc(c(-c6c(F)cc(S(=O)(=O)[O-])cc6F)c6ccc3[nH]6)C=C5)C=C4)cc2)N(C(=O)Nc2cc(C)cc(F)c2)C1
REMARK SMILES IDX 10 1 9 2 8 3 6 4 7 5 5 7 3 8 4 9 93 10 81 11 2 12 1 13 82 14
REMARK SMILES IDX 83 15 84 16 85 18 86 19 92 20 87 21 90 22 88 23 89 24 91 25
REMARK SMILES IDX 11 26 12 27 13 28 14 30 15 31 16 32 80 33 17 34 79 35 18 36
REMARK SMILES IDX 19 37 20 38 73 39 21 40 78 41 72 42 74 43 22 44 77 45 71 46
REMARK SMILES IDX 70 47 23 49 57 50 36 51 56 52 37 53 40 54 55 55 75 56 38 57
REMARK SMILES IDX 39 58 54 60 76 61 41 62 24 63 25 64 34 65 26 66 27 67 33 68
REMARK SMILES IDX 35 69 28 70 29 71 30 72 31 73 32 74 58 75 59 76 68 77 60 78
REMARK SMILES IDX 61 79 67 80 69 81 62 82 63 83 64 84 65 85 66 86 42 87 43 88
REMARK SMILES IDX 52 89 44 90 45 91 51 92 53 93 46 94 47 95 48 96 49 97 50 98
REMARK H PARENT 8 6 84 17 12 29 74 48 40 59
REMARK Flexibility Score: inf
ROOT
ATOM      1  C   UNL A   1      39.482  22.073  26.308  1.00  0.00     0.042 C 
ENDROOT
BRANCH   1   2
ATOM      2  C   UNL A   1      38.164  22.684  25.806  1.00  0.00     0.117 C 
BRANCH   2   3
ATOM      3  N   UNL A   1      37.612  22.079  24.596  1.00  0.00    -0.354 N 
ATOM      4  C   UNL A   1      36.714  22.689  23.750  1.00  0.00     0.242 C 
ATOM      5  O   UNL A   1      37.027  22.775  22.559  1.00  0.00    -0.273 OA
ATOM      6  H   UNL A   1      37.905  21.166  24.368  1.00  0.00     0.163 HD
BRANCH   4   7
ATOM      7  C   UNL A   1      35.248  22.895  24.189  1.00  0.00     0.179 C 
ATOM      8  C   UNL A   1      33.153  21.866  24.744  1.00  0.00     0.140 C 
ATOM      9  C   UNL A   1      34.663  21.689  24.931  1.00  0.00     0.069 C 
ATOM     10  C   UNL A   1      33.101  22.369  23.301  1.00  0.00     0.154 C 
ATOM     11  N   UNL A   1      34.202  23.325  23.257  1.00  0.00    -0.310 N 
BRANCH   8  12
ATOM     12  O   UNL A   1      32.459  20.643  24.940  1.00  0.00    -0.380 OA
ATOM     13  C   UNL A   1      32.508  19.821  23.777  1.00  0.00     0.195 C 
ENDBRANCH   8  12
BRANCH  11  14
ATOM     14  C   UNL A   1      33.925  24.695  23.168  1.00  0.00     0.322 C 
ATOM     15  O   UNL A   1      33.598  25.252  22.131  1.00  0.00    -0.248 OA
ATOM     16  N   UNL A   1      34.021  25.310  24.390  1.00  0.00    -0.308 N 
ATOM     17  H   UNL A   1      34.792  25.066  24.950  1.00  0.00     0.171 HD
BRANCH  16  18
ATOM     18  C   UNL A   1      33.133  26.248  24.919  1.00  0.00     0.046 A 
ATOM     19  C   UNL A   1      33.655  27.308  25.660  1.00  0.00     0.029 A 
ATOM     20  C   UNL A   1      31.800  25.871  25.080  1.00  0.00     0.065 A 
ATOM     21  C   UNL A   1      32.845  28.000  26.571  1.00  0.00    -0.046 A 
ATOM     22  C   UNL A   1      31.015  26.528  26.015  1.00  0.00     0.125 A 
ATOM     23  C   UNL A   1      33.419  29.113  27.397  1.00  0.00     0.044 C 
ATOM     24  C   UNL A   1      31.525  27.577  26.769  1.00  0.00     0.042 A 
ATOM     25  F   UNL A   1      29.769  26.090  26.244  1.00  0.00    -0.207 F 
ENDBRANCH  16  18
ENDBRANCH  11  14
ENDBRANCH   4   7
ENDBRANCH   2   3
ENDBRANCH   1   2
BRANCH   1  26
ATOM     26  C   UNL A   1      40.444  23.001  27.059  1.00  0.00     0.118 C 
BRANCH  26  27
ATOM     27  N   UNL A   1      41.297  23.759  26.165  1.00  0.00    -0.352 N 
ATOM     28  C   UNL A   1      41.514  25.111  26.066  1.00  0.00     0.251 C 
ATOM     29  H   UNL A   1      41.805  23.213  25.521  1.00  0.00     0.163 HD
ATOM     30  O   UNL A   1      42.107  25.528  25.070  1.00  0.00    -0.269 OA
BRANCH  28  31
ATOM     31  C   UNL A   1      41.072  26.082  27.102  1.00  0.00     0.039 A 
ATOM     32  C   UNL A   1      41.783  27.285  27.215  1.00  0.00     0.014 A 
ATOM     33  C   UNL A   1      40.093  25.781  28.054  1.00  0.00     0.014 A 
ATOM     34  C   UNL A   1      41.525  28.169  28.269  1.00  0.00     0.010 A 
ATOM     35  C   UNL A   1      39.805  26.689  29.087  1.00  0.00     0.010 A 
ATOM     36  C   UNL A   1      40.540  27.879  29.224  1.00  0.00    -0.014 A 
BRANCH  36  37
ATOM     37  C   UNL A   1      40.346  28.778  30.401  1.00  0.00     0.031 A 
ATOM     38  C   UNL A   1      41.221  28.634  31.624  1.00  0.00     0.074 A 
ATOM     39  C   UNL A   1      39.403  29.740  30.379  1.00  0.00     0.049 A 
ATOM     40  N   UNL A   1      41.216  29.329  32.735  1.00  0.00    -0.248 NA
ATOM     41  C   UNL A   1      42.221  27.556  31.600  1.00  0.00     0.031 C 
ATOM     42  C   UNL A   1      38.469  29.985  29.280  1.00  0.00     0.029 A 
ATOM     43  N   UNL A   1      39.077  30.698  31.311  1.00  0.00    -0.354 N 
ATOM     44  C   UNL A   1      42.195  28.764  33.546  1.00  0.00     0.074 A 
ATOM     45  C   UNL A   1      42.748  27.646  32.812  1.00  0.00     0.031 C 
ATOM     46  C   UNL A   1      37.689  31.035  29.590  1.00  0.00     0.029 A 
ATOM     47  C   UNL A   1      38.056  31.530  30.916  1.00  0.00     0.049 A 
ATOM     48  H   UNL A   1      39.532  30.780  32.179  1.00  0.00     0.167 HD
ATOM     49  C   UNL A   1      42.612  29.149  34.778  1.00  0.00     0.037 A 
ATOM     50  C   UNL A   1      37.485  32.580  31.541  1.00  0.00     0.037 A 
ATOM     51  C   UNL A   1      42.096  30.282  35.502  1.00  0.00     0.049 A 
ATOM     52  C   UNL A   1      37.995  33.017  32.888  1.00  0.00     0.074 A 
ATOM     53  C   UNL A   1      42.480  30.764  36.742  1.00  0.00     0.029 A 
ATOM     54  N   UNL A   1      41.090  31.121  35.046  1.00  0.00    -0.354 N 
ATOM     55  N   UNL A   1      38.945  32.489  33.622  1.00  0.00    -0.248 NA
ATOM     56  C   UNL A   1      37.366  34.206  33.483  1.00  0.00     0.031 C 
ATOM     57  C   UNL A   1      41.695  31.884  37.043  1.00  0.00     0.029 A 
ATOM     58  C   UNL A   1      40.844  32.117  35.977  1.00  0.00     0.049 A 
ATOM     59  H   UNL A   1      40.620  31.024  34.186  1.00  0.00     0.167 HD
ATOM     60  C   UNL A   1      39.048  33.297  34.749  1.00  0.00     0.074 A 
ATOM     61  C   UNL A   1      38.069  34.354  34.598  1.00  0.00     0.031 C 
ATOM     62  C   UNL A   1      39.879  33.174  35.813  1.00  0.00     0.037 A 
BRANCH  49  63
ATOM     63  C   UNL A   1      43.694  28.328  35.427  1.00  0.00     0.058 A 
ATOM     64  C   UNL A   1      45.053  28.586  35.192  1.00  0.00     0.135 A 
ATOM     65  C   UNL A   1      43.367  27.283  36.306  1.00  0.00     0.135 A 
ATOM     66  F   UNL A   1      45.419  29.566  34.351  1.00  0.00    -0.206 F 
ATOM     67  C   UNL A   1      46.051  27.812  35.775  1.00  0.00     0.059 A 
ATOM     68  C   UNL A   1      44.350  26.511  36.919  1.00  0.00     0.059 A 
ATOM     69  F   UNL A   1      42.082  26.996  36.569  1.00  0.00    -0.206 F 
ATOM     70  C   UNL A   1      45.690  26.771  36.631  1.00  0.00     0.060 A 
BRANCH  70  71
ATOM     71  S   UNL A   1      46.992  25.757  37.364  1.00  0.00     0.124 S 
ATOM     72  O   UNL A   1      47.159  26.398  38.664  1.00  0.00    -0.237 OA
ATOM     73  O   UNL A   1      46.384  24.429  37.386  1.00  0.00    -0.237 OA
ATOM     74  O   UNL A   1      48.106  25.915  36.436  1.00  0.00    -0.744 OA
ENDBRANCH  70  71
ENDBRANCH  49  63
BRANCH  50  75
ATOM     75  C   UNL A   1      36.384  33.326  30.876  1.00  0.00     0.058 A 
ATOM     76  C   UNL A   1      35.061  33.210  31.328  1.00  0.00     0.135 A 
ATOM     77  C   UNL A   1      36.633  34.170  29.785  1.00  0.00     0.135 A 
ATOM     78  F   UNL A   1      34.775  32.405  32.364  1.00  0.00    -0.206 F 
ATOM     79  C   UNL A   1      34.020  33.896  30.714  1.00  0.00     0.059 A 
ATOM     80  C   UNL A   1      35.611  34.882  29.166  1.00  0.00     0.059 A 
ATOM     81  F   UNL A   1      37.885  34.323  29.325  1.00  0.00    -0.206 F 
ATOM     82  C   UNL A   1      34.305  34.732  29.633  1.00  0.00     0.060 A 
BRANCH  82  83
ATOM     83  S   UNL A   1      32.957  35.665  28.876  1.00  0.00     0.124 S 
ATOM     84  O   UNL A   1      32.181  36.062  30.044  1.00  0.00    -0.237 OA
ATOM     85  O   UNL A   1      33.672  36.738  28.190  1.00  0.00    -0.237 OA
ATOM     86  O   UNL A   1      32.326  34.685  27.998  1.00  0.00    -0.744 OA
ENDBRANCH  82  83
ENDBRANCH  50  75
BRANCH  62  87
ATOM     87  C   UNL A   1      39.799  34.233  36.877  1.00  0.00     0.058 A 
ATOM     88  C   UNL A   1      39.032  34.056  38.039  1.00  0.00     0.135 A 
ATOM     89  C   UNL A   1      40.518  35.432  36.742  1.00  0.00     0.135 A 
ATOM     90  F   UNL A   1      38.323  32.930  38.214  1.00  0.00    -0.206 F 
ATOM     91  C   UNL A   1      38.954  35.044  39.016  1.00  0.00     0.059 A 
ATOM     92  C   UNL A   1      40.472  36.424  37.715  1.00  0.00     0.059 A 
ATOM     93  F   UNL A   1      41.276  35.646  35.655  1.00  0.00    -0.206 F 
ATOM     94  C   UNL A   1      39.673  36.228  38.842  1.00  0.00     0.060 A 
BRANCH  94  95
ATOM     95  S   UNL A   1      39.577  37.504  40.117  1.00  0.00     0.124 S 
ATOM     96  O   UNL A   1      38.560  38.392  39.566  1.00  0.00    -0.237 OA
ATOM     97  O   UNL A   1      39.181  36.743  41.299  1.00  0.00    -0.237 OA
ATOM     98  O   UNL A   1      40.933  38.045  40.156  1.00  0.00    -0.744 OA
ENDBRANCH  94  95
ENDBRANCH  62  87
ENDBRANCH  36  37
ENDBRANCH  28  31
ENDBRANCH  26  27
ENDBRANCH   1  26
TORSDOF 16
ENDMDL
MODEL 2
REMARK VINA RESULT:     -12.2      6.307      8.935
REMARK SMILES CO[C@H]1C[C@@H](C(=O)NCCCNC(=O)c2ccc(-c3c4nc(c(-c5c(F)cc(S(=O)(=O)[O-])cc5F)c5ccc([nH]5)c(-c5c(F)cc(S(=O)(=O)[O-])cc5F)c5nc(c(-c6c(F)cc(S(=O)(=O)[O-])cc6F)c6ccc3[nH]6)C=C5)C=C4)cc2)N(C(=O)Nc2cc(C)cc(F)c2)C1
REMARK SMILES IDX 10 1 9 2 8 3 6 4 7 5 5 7 3 8 4 9 93 10 81 11 2 12 1 13 82 14
REMARK SMILES IDX 83 15 84 16 85 18 86 19 92 20 87 21 90 22 88 23 89 24 91 25
REMARK SMILES IDX 11 26 12 27 13 28 14 30 15 31 16 32 80 33 17 34 79 35 18 36
REMARK SMILES IDX 19 37 20 38 73 39 21 40 78 41 72 42 74 43 22 44 77 45 71 46
REMARK SMILES IDX 70 47 23 49 57 50 36 51 56 52 37 53 40 54 55 55 75 56 38 57
REMARK SMILES IDX 39 58 54 60 76 61 41 62 24 63 25 64 34 65 26 66 27 67 33 68
REMARK SMILES IDX 35 69 28 70 29 71 30 72 31 73 32 74 58 75 59 76 68 77 60 78
REMARK SMILES IDX 61 79 67 80 69 81 62 82 63 83 64 84 65 85 66 86 42 87 43 88
REMARK SMILES IDX 52 89 44 90 45 91 51 92 53 93 46 94 47 95 48 96 49 97 50 98
REMARK H PARENT 8 6 84 17 12 29 74 48 40 59
REMARK Flexibility Score: inf
ROOT
ATOM      1  C   UNL A   1      38.294  19.801  24.964  1.00  0.00     0.042 C 
ENDROOT
BRANCH   1   2
ATOM      2  C   UNL A   1      36.935  20.503  25.113  1.00  0.00     0.117 C 
BRANCH   2   3
ATOM      3  N   UNL A   1      36.964  21.959  24.995  1.00  0.00    -0.354 N 
ATOM      4  C   UNL A   1      35.905  22.792  25.279  1.00  0.00     0.242 C 
ATOM      5  O   UNL A   1      36.100  23.691  26.103  1.00  0.00    -0.273 OA
ATOM      6  H   UNL A   1      37.802  22.375  24.688  1.00  0.00     0.163 HD
BRANCH   4   7
ATOM      7  C   UNL A   1      34.682  22.845  24.339  1.00  0.00     0.179 C 
ATOM      8  C   UNL A   1      33.492  24.071  22.655  1.00  0.00     0.140 C 
ATOM      9  C   UNL A   1      34.913  23.702  23.091  1.00  0.00     0.069 C 
ATOM     10  C   UNL A   1      32.829  24.307  24.013  1.00  0.00     0.154 C 
ATOM     11  N   UNL A   1      33.341  23.200  24.814  1.00  0.00    -0.310 N 
BRANCH   8  12
ATOM     12  O   UNL A   1      33.487  25.219  21.819  1.00  0.00    -0.380 OA
ATOM     13  C   UNL A   1      32.220  25.872  21.836  1.00  0.00     0.195 C 
ENDBRANCH   8  12
BRANCH  11  14
ATOM     14  C   UNL A   1      32.480  22.160  25.186  1.00  0.00     0.322 C 
ATOM     15  O   UNL A   1      31.295  22.321  25.436  1.00  0.00    -0.248 OA
ATOM     16  N   UNL A   1      33.122  20.948  25.188  1.00  0.00    -0.308 N 
ATOM     17  H   UNL A   1      34.021  20.923  25.590  1.00  0.00     0.171 HD
BRANCH  16  18
ATOM     18  C   UNL A   1      32.629  19.747  24.678  1.00  0.00     0.046 A 
ATOM     19  C   UNL A   1      32.788  18.590  25.440  1.00  0.00     0.029 A 
ATOM     20  C   UNL A   1      32.421  19.656  23.302  1.00  0.00     0.065 A 
ATOM     21  C   UNL A   1      32.740  17.329  24.829  1.00  0.00    -0.046 A 
ATOM     22  C   UNL A   1      32.420  18.410  22.695  1.00  0.00     0.125 A 
ATOM     23  C   UNL A   1      32.953  16.088  25.643  1.00  0.00     0.044 C 
ATOM     24  C   UNL A   1      32.590  17.250  23.439  1.00  0.00     0.042 A 
ATOM     25  F   UNL A   1      32.330  18.335  21.359  1.00  0.00    -0.207 F 
ENDBRANCH  16  18
ENDBRANCH  11  14
ENDBRANCH   4   7
ENDBRANCH   2   3
ENDBRANCH   1   2
BRANCH   1  26
ATOM     26  C   UNL A   1      39.419  20.240  25.909  1.00  0.00     0.118 C 
BRANCH  26  27
ATOM     27  N   UNL A   1      40.426  19.213  26.090  1.00  0.00    -0.352 N 
ATOM     28  C   UNL A   1      41.792  19.307  26.199  1.00  0.00     0.251 C 
ATOM     29  H   UNL A   1      40.072  18.295  26.143  1.00  0.00     0.163 HD
ATOM     30  O   UNL A   1      42.449  18.269  26.111  1.00  0.00    -0.269 OA
BRANCH  28  31
ATOM     31  C   UNL A   1      42.501  20.595  26.421  1.00  0.00     0.039 A 
ATOM     32  C   UNL A   1      42.558  21.091  27.731  1.00  0.00     0.014 A 
ATOM     33  C   UNL A   1      42.970  21.392  25.373  1.00  0.00     0.014 A 
ATOM     34  C   UNL A   1      43.067  22.370  27.988  1.00  0.00     0.010 A 
ATOM     35  C   UNL A   1      43.520  22.658  25.636  1.00  0.00     0.010 A 
ATOM     36  C   UNL A   1      43.546  23.174  26.943  1.00  0.00    -0.014 A 
BRANCH  36  37
ATOM     37  C   UNL A   1      43.988  24.574  27.215  1.00  0.00     0.031 A 
ATOM     38  C   UNL A   1      45.429  24.975  26.999  1.00  0.00     0.074 A 
ATOM     39  C   UNL A   1      43.106  25.501  27.636  1.00  0.00     0.049 A 
ATOM     40  N   UNL A   1      45.999  26.143  27.164  1.00  0.00    -0.248 NA
ATOM     41  C   UNL A   1      46.350  23.919  26.555  1.00  0.00     0.031 C 
ATOM     42  C   UNL A   1      41.690  25.258  27.912  1.00  0.00     0.029 A 
ATOM     43  N   UNL A   1      43.271  26.840  27.904  1.00  0.00    -0.354 N 
ATOM     44  C   UNL A   1      47.344  25.959  26.863  1.00  0.00     0.074 A 
ATOM     45  C   UNL A   1      47.511  24.559  26.540  1.00  0.00     0.031 C 
ATOM     46  C   UNL A   1      41.111  26.411  28.289  1.00  0.00     0.029 A 
ATOM     47  C   UNL A   1      42.115  27.473  28.299  1.00  0.00     0.049 A 
ATOM     48  H   UNL A   1      44.135  27.302  27.821  1.00  0.00     0.167 HD
ATOM     49  C   UNL A   1      48.348  26.872  26.837  1.00  0.00     0.037 A 
ATOM     50  C   UNL A   1      41.884  28.762  28.621  1.00  0.00     0.037 A 
ATOM     51  C   UNL A   1      48.187  28.276  27.118  1.00  0.00     0.049 A 
ATOM     52  C   UNL A   1      43.002  29.766  28.539  1.00  0.00     0.074 A 
ATOM     53  C   UNL A   1      49.141  29.279  27.086  1.00  0.00     0.029 A 
ATOM     54  N   UNL A   1      46.991  28.880  27.474  1.00  0.00    -0.354 N 
ATOM     55  N   UNL A   1      44.259  29.577  28.219  1.00  0.00    -0.248 NA
ATOM     56  C   UNL A   1      42.663  31.164  28.846  1.00  0.00     0.031 C 
ATOM     57  C   UNL A   1      48.526  30.486  27.438  1.00  0.00     0.029 A 
ATOM     58  C   UNL A   1      47.182  30.239  27.660  1.00  0.00     0.049 A 
ATOM     59  H   UNL A   1      46.131  28.411  27.578  1.00  0.00     0.167 HD
ATOM     60  C   UNL A   1      44.854  30.833  28.257  1.00  0.00     0.074 A 
ATOM     61  C   UNL A   1      43.819  31.777  28.624  1.00  0.00     0.031 C 
ATOM     62  C   UNL A   1      46.143  31.174  28.009  1.00  0.00     0.037 A 
BRANCH  49  63
ATOM     63  C   UNL A   1      49.724  26.374  26.484  1.00  0.00     0.058 A 
ATOM     64  C   UNL A   1      50.184  26.365  25.158  1.00  0.00     0.135 A 
ATOM     65  C   UNL A   1      50.596  25.917  27.484  1.00  0.00     0.135 A 
ATOM     66  F   UNL A   1      49.386  26.780  24.162  1.00  0.00    -0.206 F 
ATOM     67  C   UNL A   1      51.448  25.884  24.831  1.00  0.00     0.059 A 
ATOM     68  C   UNL A   1      51.874  25.453  27.182  1.00  0.00     0.059 A 
ATOM     69  F   UNL A   1      50.208  25.909  28.770  1.00  0.00    -0.206 F 
ATOM     70  C   UNL A   1      52.283  25.422  25.850  1.00  0.00     0.060 A 
BRANCH  70  71
ATOM     71  S   UNL A   1      53.912  24.777  25.413  1.00  0.00     0.124 S 
ATOM     72  O   UNL A   1      54.646  24.981  26.657  1.00  0.00    -0.237 OA
ATOM     73  O   UNL A   1      53.621  23.388  25.069  1.00  0.00    -0.237 OA
ATOM     74  O   UNL A   1      54.321  25.622  24.296  1.00  0.00    -0.744 OA
ENDBRANCH  70  71
ENDBRANCH  49  63
BRANCH  50  75
ATOM     75  C   UNL A   1      40.515  29.191  29.012  1.00  0.00     0.058 A 
ATOM     76  C   UNL A   1      40.173  29.360  30.362  1.00  0.00     0.135 A 
ATOM     77  C   UNL A   1      39.530  29.445  28.048  1.00  0.00     0.135 A 
ATOM     78  F   UNL A   1      41.082  29.118  31.319  1.00  0.00    -0.206 F 
ATOM     79  C   UNL A   1      38.896  29.755  30.744  1.00  0.00     0.059 A 
ATOM     80  C   UNL A   1      38.251  29.861  28.405  1.00  0.00     0.059 A 
ATOM     81  F   UNL A   1      39.815  29.310  26.743  1.00  0.00    -0.206 F 
ATOM     82  C   UNL A   1      37.941  30.005  29.758  1.00  0.00     0.060 A 
BRANCH  82  83
ATOM     83  S   UNL A   1      36.301  30.574  30.258  1.00  0.00     0.124 S 
ATOM     84  O   UNL A   1      35.565  30.488  29.003  1.00  0.00    -0.237 OA
ATOM     85  O   UNL A   1      35.935  29.598  31.281  1.00  0.00    -0.237 OA
ATOM     86  O   UNL A   1      36.555  31.923  30.754  1.00  0.00    -0.744 OA
ENDBRANCH  82  83
ENDBRANCH  50  75
BRANCH  62  87
ATOM     87  C   UNL A   1      46.497  32.633  28.082  1.00  0.00     0.058 A 
ATOM     88  C   UNL A   1      46.272  33.503  27.004  1.00  0.00     0.135 A 
ATOM     89  C   UNL A   1      47.048  33.173  29.256  1.00  0.00     0.135 A 
ATOM     90  F   UNL A   1      45.751  33.036  25.858  1.00  0.00    -0.206 F 
ATOM     91  C   UNL A   1      46.611  34.850  27.074  1.00  0.00     0.059 A 
ATOM     92  C   UNL A   1      47.376  34.521  29.356  1.00  0.00     0.059 A 
ATOM     93  F   UNL A   1      47.274  32.386  30.320  1.00  0.00    -0.206 F 
ATOM     94  C   UNL A   1      47.168  35.350  28.253  1.00  0.00     0.060 A 
BRANCH  94  95
ATOM     95  S   UNL A   1      47.597  37.102  28.344  1.00  0.00     0.124 S 
ATOM     96  O   UNL A   1      48.661  37.091  29.342  1.00  0.00    -0.237 OA
ATOM     97  O   UNL A   1      48.015  37.398  26.976  1.00  0.00    -0.237 OA
ATOM     98  O   UNL A   1      46.349  37.735  28.759  1.00  0.00    -0.744 OA
ENDBRANCH  94  95
ENDBRANCH  62  87
ENDBRANCH  36  37
ENDBRANCH  28  31
ENDBRANCH  26  27
ENDBRANCH   1  26
TORSDOF 16
ENDMDL
MODEL 3
REMARK VINA RESULT:     -12.1      1.753      3.661
REMARK SMILES CO[C@H]1C[C@@H](C(=O)NCCCNC(=O)c2ccc(-c3c4nc(c(-c5c(F)cc(S(=O)(=O)[O-])cc5F)c5ccc([nH]5)c(-c5c(F)cc(S(=O)(=O)[O-])cc5F)c5nc(c(-c6c(F)cc(S(=O)(=O)[O-])cc6F)c6ccc3[nH]6)C=C5)C=C4)cc2)N(C(=O)Nc2cc(C)cc(F)c2)C1
REMARK SMILES IDX 10 1 9 2 8 3 6 4 7 5 5 7 3 8 4 9 93 10 81 11 2 12 1 13 82 14
REMARK SMILES IDX 83 15 84 16 85 18 86 19 92 20 87 21 90 22 88 23 89 24 91 25
REMARK SMILES IDX 11 26 12 27 13 28 14 30 15 31 16 32 80 33 17 34 79 35 18 36
REMARK SMILES IDX 19 37 20 38 73 39 21 40 78 41 72 42 74 43 22 44 77 45 71 46
REMARK SMILES IDX 70 47 23 49 57 50 36 51 56 52 37 53 40 54 55 55 75 56 38 57
REMARK SMILES IDX 39 58 54 60 76 61 41 62 24 63 25 64 34 65 26 66 27 67 33 68
REMARK SMILES IDX 35 69 28 70 29 71 30 72 31 73 32 74 58 75 59 76 68 77 60 78
REMARK SMILES IDX 61 79 67 80 69 81 62 82 63 83 64 84 65 85 66 86 42 87 43 88
REMARK SMILES IDX 52 89 44 90 45 91 51 92 53 93 46 94 47 95 48 96 49 97 50 98
REMARK H PARENT 8 6 84 17 12 29 74 48 40 59
REMARK Flexibility Score: inf
ROOT
ATOM      1  C   UNL A   1      38.206  23.108  25.497  1.00  0.00     0.042 C 
ENDROOT
BRANCH   1   2
ATOM      2  C   UNL A   1      36.949  22.254  25.728  1.00  0.00     0.117 C 
BRANCH   2   3
ATOM      3  N   UNL A   1      35.959  22.824  26.638  1.00  0.00    -0.354 N 
ATOM      4  C   UNL A   1      34.629  22.469  26.679  1.00  0.00     0.242 C 
ATOM      5  O   UNL A   1      34.179  22.088  27.764  1.00  0.00    -0.273 OA
ATOM      6  H   UNL A   1      36.266  23.515  27.271  1.00  0.00     0.163 HD
BRANCH   4   7
ATOM      7  C   UNL A   1      33.675  22.896  25.543  1.00  0.00     0.179 C 
ATOM      8  C   UNL A   1      32.169  24.564  24.703  1.00  0.00     0.140 C 
ATOM      9  C   UNL A   1      33.510  24.414  25.429  1.00  0.00     0.069 C 
ATOM     10  C   UNL A   1      31.363  23.441  25.357  1.00  0.00     0.154 C 
ATOM     11  N   UNL A   1      32.324  22.344  25.404  1.00  0.00    -0.310 N 
BRANCH   8  12
ATOM     12  O   UNL A   1      31.609  25.853  24.907  1.00  0.00    -0.380 OA
ATOM     13  C   UNL A   1      30.187  25.798  24.988  1.00  0.00     0.195 C 
ENDBRANCH   8  12
BRANCH  11  14
ATOM     14  C   UNL A   1      32.151  21.238  24.562  1.00  0.00     0.322 C 
ATOM     15  O   UNL A   1      31.954  21.328  23.360  1.00  0.00    -0.248 OA
ATOM     16  N   UNL A   1      32.276  20.057  25.248  1.00  0.00    -0.308 N 
ATOM     17  H   UNL A   1      31.828  20.002  26.123  1.00  0.00     0.171 HD
BRANCH  16  18
ATOM     18  C   UNL A   1      32.976  18.924  24.828  1.00  0.00     0.046 A 
ATOM     19  C   UNL A   1      32.405  17.672  25.057  1.00  0.00     0.029 A 
ATOM     20  C   UNL A   1      34.351  19.041  24.628  1.00  0.00     0.065 A 
ATOM     21  C   UNL A   1      33.208  16.524  25.087  1.00  0.00    -0.046 A 
ATOM     22  C   UNL A   1      35.148  17.909  24.704  1.00  0.00     0.125 A 
ATOM     23  C   UNL A   1      32.599  15.184  25.374  1.00  0.00     0.044 C 
ATOM     24  C   UNL A   1      34.595  16.658  24.943  1.00  0.00     0.042 A 
ATOM     25  F   UNL A   1      36.479  18.042  24.620  1.00  0.00    -0.207 F 
ENDBRANCH  16  18
ENDBRANCH  11  14
ENDBRANCH   4   7
ENDBRANCH   2   3
ENDBRANCH   1   2
BRANCH   1  26
ATOM     26  C   UNL A   1      39.160  23.287  26.683  1.00  0.00     0.118 C 
BRANCH  26  27
ATOM     27  N   UNL A   1      40.499  23.656  26.269  1.00  0.00    -0.352 N 
ATOM     28  C   UNL A   1      41.221  24.803  26.490  1.00  0.00     0.251 C 
ATOM     29  H   UNL A   1      40.969  22.970  25.741  1.00  0.00     0.163 HD
ATOM     30  O   UNL A   1      42.251  24.970  25.835  1.00  0.00    -0.269 OA
BRANCH  28  31
ATOM     31  C   UNL A   1      40.819  25.837  27.481  1.00  0.00     0.039 A 
ATOM     32  C   UNL A   1      41.631  26.973  27.603  1.00  0.00     0.014 A 
ATOM     33  C   UNL A   1      39.771  25.651  28.387  1.00  0.00     0.014 A 
ATOM     34  C   UNL A   1      41.403  27.906  28.623  1.00  0.00     0.010 A 
ATOM     35  C   UNL A   1      39.516  26.609  29.383  1.00  0.00     0.010 A 
ATOM     36  C   UNL A   1      40.349  27.731  29.532  1.00  0.00    -0.014 A 
BRANCH  36  37
ATOM     37  C   UNL A   1      40.180  28.675  30.677  1.00  0.00     0.031 A 
ATOM     38  C   UNL A   1      41.053  28.551  31.904  1.00  0.00     0.074 A 
ATOM     39  C   UNL A   1      39.262  29.660  30.622  1.00  0.00     0.049 A 
ATOM     40  N   UNL A   1      41.067  29.284  32.990  1.00  0.00    -0.248 NA
ATOM     41  C   UNL A   1      42.025  27.448  31.916  1.00  0.00     0.031 C 
ATOM     42  C   UNL A   1      38.333  29.890  29.516  1.00  0.00     0.029 A 
ATOM     43  N   UNL A   1      38.962  30.657  31.520  1.00  0.00    -0.354 N 
ATOM     44  C   UNL A   1      42.032  28.722  33.819  1.00  0.00     0.074 A 
ATOM     45  C   UNL A   1      42.556  27.566  33.125  1.00  0.00     0.031 C 
ATOM     46  C   UNL A   1      37.581  30.970  29.790  1.00  0.00     0.029 A 
ATOM     47  C   UNL A   1      37.963  31.501  31.097  1.00  0.00     0.049 A 
ATOM     48  H   UNL A   1      39.421  30.758  32.385  1.00  0.00     0.167 HD
ATOM     49  C   UNL A   1      42.461  29.139  35.037  1.00  0.00     0.037 A 
ATOM     50  C   UNL A   1      37.420  32.586  31.686  1.00  0.00     0.037 A 
ATOM     51  C   UNL A   1      41.976  30.310  35.721  1.00  0.00     0.049 A 
ATOM     52  C   UNL A   1      37.943  33.057  33.016  1.00  0.00     0.074 A 
ATOM     53  C   UNL A   1      42.374  30.824  36.944  1.00  0.00     0.029 A 
ATOM     54  N   UNL A   1      40.991  31.158  35.237  1.00  0.00    -0.354 N 
ATOM     55  N   UNL A   1      38.880  32.530  33.767  1.00  0.00    -0.248 NA
ATOM     56  C   UNL A   1      37.346  34.282  33.570  1.00  0.00     0.031 C 
ATOM     57  C   UNL A   1      41.619  31.973  37.207  1.00  0.00     0.029 A 
ATOM     58  C   UNL A   1      40.772  32.191  36.134  1.00  0.00     0.049 A 
ATOM     59  H   UNL A   1      40.518  31.043  34.381  1.00  0.00     0.167 HD
ATOM     60  C   UNL A   1      39.005  33.374  34.866  1.00  0.00     0.074 A 
ATOM     61  C   UNL A   1      38.054  34.450  34.679  1.00  0.00     0.031 C 
ATOM     62  C   UNL A   1      39.835  33.267  35.933  1.00  0.00     0.037 A 
BRANCH  49  63
ATOM     63  C   UNL A   1      43.523  28.313  35.714  1.00  0.00     0.058 A 
ATOM     64  C   UNL A   1      43.193  27.258  36.579  1.00  0.00     0.135 A 
ATOM     65  C   UNL A   1      44.883  28.569  35.480  1.00  0.00     0.135 A 
ATOM     66  F   UNL A   1      41.907  26.979  36.845  1.00  0.00    -0.206 F 
ATOM     67  C   UNL A   1      44.175  26.510  37.220  1.00  0.00     0.059 A 
ATOM     68  C   UNL A   1      45.883  27.817  36.093  1.00  0.00     0.059 A 
ATOM     69  F   UNL A   1      45.254  29.563  34.657  1.00  0.00    -0.206 F 
ATOM     70  C   UNL A   1      45.518  26.803  36.977  1.00  0.00     0.060 A 
BRANCH  70  71
ATOM     71  S   UNL A   1      46.786  25.842  37.832  1.00  0.00     0.124 S 
ATOM     72  O   UNL A   1      46.256  24.489  37.706  1.00  0.00    -0.237 OA
ATOM     73  O   UNL A   1      47.983  26.130  37.049  1.00  0.00    -0.237 OA
ATOM     74  O   UNL A   1      46.777  26.398  39.182  1.00  0.00    -0.744 OA
ENDBRANCH  70  71
ENDBRANCH  49  63
BRANCH  50  75
ATOM     75  C   UNL A   1      36.337  33.337  30.996  1.00  0.00     0.058 A 
ATOM     76  C   UNL A   1      35.014  33.277  31.457  1.00  0.00     0.135 A 
ATOM     77  C   UNL A   1      36.605  34.130  29.871  1.00  0.00     0.135 A 
ATOM     78  F   UNL A   1      34.709  32.523  32.525  1.00  0.00    -0.206 F 
ATOM     79  C   UNL A   1      33.990  33.968  30.820  1.00  0.00     0.059 A 
ATOM     80  C   UNL A   1      35.601  34.847  29.229  1.00  0.00     0.059 A 
ATOM     81  F   UNL A   1      37.859  34.229  29.402  1.00  0.00    -0.206 F 
ATOM     82  C   UNL A   1      34.293  34.752  29.706  1.00  0.00     0.060 A 
BRANCH  82  83
ATOM     83  S   UNL A   1      32.969  35.694  28.918  1.00  0.00     0.124 S 
ATOM     84  O   UNL A   1      32.396  34.699  28.020  1.00  0.00    -0.237 OA
ATOM     85  O   UNL A   1      32.141  36.076  30.058  1.00  0.00    -0.237 OA
ATOM     86  O   UNL A   1      33.680  36.794  28.275  1.00  0.00    -0.744 OA
ENDBRANCH  82  83
ENDBRANCH  50  75
BRANCH  62  87
ATOM     87  C   UNL A   1      39.784  34.363  36.960  1.00  0.00     0.058 A 
ATOM     88  C   UNL A   1      38.964  34.275  38.095  1.00  0.00     0.135 A 
ATOM     89  C   UNL A   1      40.583  35.509  36.816  1.00  0.00     0.135 A 
ATOM     90  F   UNL A   1      38.177  33.202  38.278  1.00  0.00    -0.206 F 
ATOM     91  C   UNL A   1      38.914  35.297  39.037  1.00  0.00     0.059 A 
ATOM     92  C   UNL A   1      40.565  36.535  37.756  1.00  0.00     0.059 A 
ATOM     93  F   UNL A   1      41.394  35.639  35.753  1.00  0.00    -0.206 F 
ATOM     94  C   UNL A   1      39.714  36.427  38.856  1.00  0.00     0.060 A 
BRANCH  94  95
ATOM     95  S   UNL A   1      39.653  37.748  40.086  1.00  0.00     0.124 S 
ATOM     96  O   UNL A   1      39.422  36.995  41.313  1.00  0.00    -0.237 OA
ATOM     97  O   UNL A   1      40.971  38.363  39.958  1.00  0.00    -0.237 OA
ATOM     98  O   UNL A   1      38.538  38.577  39.636  1.00  0.00    -0.744 OA
ENDBRANCH  94  95
ENDBRANCH  62  87
ENDBRANCH  36  37
ENDBRANCH  28  31
ENDBRANCH  26  27
ENDBRANCH   1  26
TORSDOF 16
ENDMDL
