MODEL 1
REMARK VINA RESULT:     -12.9      0.000      0.000
REMARK SMILES Cc1cc(Cl)cc2c1O[C@H](C(F)(F)F)C(C(=O)NCCCNC(=O)c1ccc(-c3c4nc(c(-c5c(F)cc(S(=O)(=O)[O-])cc5F)c5ccc([nH]5)c(-c5c(F)cc(S(=O)(=O)[O-])cc5F)c5nc(c(-c6c(F)cc(S(=O)(=O)[O-])cc6F)c6ccc3[nH]6)C=C5)C=C4)cc1)=C2
REMARK SMILES IDX 21 1 20 2 19 3 18 4 16 5 17 6 15 8 1 9 2 10 3 11 8 12 4 13
REMARK SMILES IDX 7 14 9 15 5 16 6 17 91 18 10 19 11 20 12 21 13 22 14 23
REMARK SMILES IDX 22 24 23 25 24 27 25 28 26 29 90 30 27 31 89 32 28 33 29 34
REMARK SMILES IDX 30 35 83 36 31 37 88 38 82 39 84 40 32 41 87 42 81 43 80 44
REMARK SMILES IDX 33 46 67 47 46 48 66 49 47 50 50 51 65 52 85 53 48 54 49 55
REMARK SMILES IDX 64 57 86 58 51 59 34 60 35 61 44 62 36 63 37 64 43 65 45 66
REMARK SMILES IDX 38 67 39 68 40 69 41 70 42 71 68 72 69 73 78 74 70 75 71 76
REMARK SMILES IDX 77 77 79 78 72 79 73 80 74 81 75 82 76 83 52 84 53 85 62 86
REMARK SMILES IDX 54 87 55 88 61 89 63 90 56 91 57 92 58 93 59 94 60 95
REMARK H PARENT 18 7 22 26 84 45 50 56
REMARK Flexibility Score: inf
ROOT
ATOM      1  C   UNL A   1      40.286  23.210  27.160  1.00  0.00     0.118 C 
ENDROOT
BRANCH   1   2
ATOM      2  C   UNL A   1      39.081  22.576  26.480  1.00  0.00     0.042 C 
BRANCH   2   3
ATOM      3  C   UNL A   1      38.079  23.619  26.010  1.00  0.00     0.118 C 
BRANCH   3   4
ATOM      4  N   UNL A   1      37.595  23.344  24.665  1.00  0.00    -0.352 N 
ATOM      5  C   UNL A   1      36.403  23.318  24.026  1.00  0.00     0.251 C 
ATOM      6  O   UNL A   1      36.453  23.037  22.825  1.00  0.00    -0.270 OA
ATOM      7  H   UNL A   1      38.334  23.115  24.056  1.00  0.00     0.163 HD
BRANCH   5   8
ATOM      8  C   UNL A   1      35.085  23.604  24.663  1.00  0.00     0.067 C 
ATOM      9  C   UNL A   1      30.291  23.487  26.541  1.00  0.00     0.048 C 
ATOM     10  C   UNL A   1      31.312  24.554  26.258  1.00  0.00    -0.007 A 
ATOM     11  C   UNL A   1      31.051  25.877  26.638  1.00  0.00     0.027 A 
ATOM     12  C   UNL A   1      32.552  24.254  25.680  1.00  0.00     0.131 A 
ATOM     13  C   UNL A   1      32.001  26.873  26.413  1.00  0.00     0.042 A 
ATOM     14  C   UNL A   1      33.506  25.252  25.452  1.00  0.00     0.019 A 
ATOM     15  O   UNL A   1      32.767  22.959  25.305  1.00  0.00    -0.475 OA
ATOM     16  Cl  UNL A   1      31.658  28.495  26.877  1.00  0.00    -0.084 Cl
ATOM     17  C   UNL A   1      33.225  26.570  25.818  1.00  0.00     0.032 A 
ATOM     18  C   UNL A   1      34.769  24.904  24.810  1.00  0.00     0.025 C 
ATOM     19  C   UNL A   1      34.147  22.542  25.158  1.00  0.00     0.314 C 
BRANCH  19  20
ATOM     20  C   UNL A   1      34.621  21.897  26.474  1.00  0.00     0.429 C 
ATOM     21  F   UNL A   1      34.927  22.850  27.388  1.00  0.00    -0.167 F 
ATOM     22  F   UNL A   1      33.678  21.107  27.042  1.00  0.00    -0.167 F 
ATOM     23  F   UNL A   1      35.721  21.127  26.309  1.00  0.00    -0.167 F 
ENDBRANCH  19  20
ENDBRANCH   5   8
ENDBRANCH   3   4
ENDBRANCH   2   3
ENDBRANCH   1   2
BRANCH   1  24
ATOM     24  N   UNL A   1      41.151  23.892  26.200  1.00  0.00    -0.352 N 
ATOM     25  C   UNL A   1      41.452  25.224  26.073  1.00  0.00     0.251 C 
ATOM     26  H   UNL A   1      41.586  23.303  25.542  1.00  0.00     0.163 HD
ATOM     27  O   UNL A   1      41.956  25.636  25.029  1.00  0.00    -0.269 OA
BRANCH  25  28
ATOM     28  C   UNL A   1      41.171  26.152  27.183  1.00  0.00     0.039 A 
ATOM     29  C   UNL A   1      40.156  25.852  28.095  1.00  0.00     0.014 A 
ATOM     30  C   UNL A   1      41.902  27.336  27.307  1.00  0.00     0.014 A 
ATOM     31  C   UNL A   1      39.920  26.713  29.167  1.00  0.00     0.010 A 
ATOM     32  C   UNL A   1      41.741  28.132  28.430  1.00  0.00     0.010 A 
ATOM     33  C   UNL A   1      40.733  27.843  29.359  1.00  0.00    -0.014 A 
BRANCH  33  34
ATOM     34  C   UNL A   1      40.525  28.765  30.499  1.00  0.00     0.031 A 
ATOM     35  C   UNL A   1      41.385  28.638  31.726  1.00  0.00     0.074 A 
ATOM     36  C   UNL A   1      39.531  29.671  30.450  1.00  0.00     0.049 A 
ATOM     37  N   UNL A   1      41.330  29.308  32.846  1.00  0.00    -0.248 NA
ATOM     38  C   UNL A   1      42.426  27.597  31.700  1.00  0.00     0.031 C 
ATOM     39  C   UNL A   1      38.609  29.855  29.328  1.00  0.00     0.029 A 
ATOM     40  N   UNL A   1      39.132  30.611  31.366  1.00  0.00    -0.354 N 
ATOM     41  C   UNL A   1      42.322  28.769  33.656  1.00  0.00     0.074 A 
ATOM     42  C   UNL A   1      42.905  27.662  32.932  1.00  0.00     0.031 C 
ATOM     43  C   UNL A   1      37.784  30.878  29.601  1.00  0.00     0.029 A 
ATOM     44  C   UNL A   1      38.091  31.396  30.932  1.00  0.00     0.049 A 
ATOM     45  H   UNL A   1      39.552  30.713  32.251  1.00  0.00     0.167 HD
ATOM     46  C   UNL A   1      42.741  29.185  34.875  1.00  0.00     0.037 A 
ATOM     47  C   UNL A   1      37.463  32.422  31.536  1.00  0.00     0.037 A 
ATOM     48  C   UNL A   1      42.160  30.296  35.578  1.00  0.00     0.049 A 
ATOM     49  C   UNL A   1      37.912  32.845  32.906  1.00  0.00     0.074 A 
ATOM     50  C   UNL A   1      42.521  30.823  36.804  1.00  0.00     0.029 A 
ATOM     51  N   UNL A   1      41.090  31.051  35.116  1.00  0.00    -0.354 N 
ATOM     52  N   UNL A   1      38.883  32.355  33.641  1.00  0.00    -0.248 NA
ATOM     53  C   UNL A   1      37.183  33.956  33.531  1.00  0.00     0.031 C 
ATOM     54  C   UNL A   1      41.642  31.869  37.104  1.00  0.00     0.029 A 
ATOM     55  C   UNL A   1      40.762  32.026  36.044  1.00  0.00     0.049 A 
ATOM     56  H   UNL A   1      40.632  30.913  34.256  1.00  0.00     0.167 HD
ATOM     57  C   UNL A   1      38.893  33.107  34.810  1.00  0.00     0.074 A 
ATOM     58  C   UNL A   1      37.839  34.095  34.676  1.00  0.00     0.031 C 
ATOM     59  C   UNL A   1      39.700  32.993  35.894  1.00  0.00     0.037 A 
BRANCH  46  60
ATOM     60  C   UNL A   1      43.882  28.432  35.501  1.00  0.00     0.058 A 
ATOM     61  C   UNL A   1      45.220  28.750  35.205  1.00  0.00     0.135 A 
ATOM     62  C   UNL A   1      43.646  27.369  36.388  1.00  0.00     0.135 A 
ATOM     63  F   UNL A   1      45.506  29.746  34.351  1.00  0.00    -0.206 F 
ATOM     64  C   UNL A   1      46.277  28.009  35.721  1.00  0.00     0.059 A 
ATOM     65  C   UNL A   1      44.691  26.635  36.943  1.00  0.00     0.059 A 
ATOM     66  F   UNL A   1      42.390  27.023  36.707  1.00  0.00    -0.206 F 
ATOM     67  C   UNL A   1      46.002  26.948  36.584  1.00  0.00     0.060 A 
BRANCH  67  68
ATOM     68  S   UNL A   1      47.384  25.972  37.213  1.00  0.00     0.124 S 
ATOM     69  O   UNL A   1      46.996  24.625  36.803  1.00  0.00    -0.237 OA
ATOM     70  O   UNL A   1      48.520  26.548  36.500  1.00  0.00    -0.237 OA
ATOM     71  O   UNL A   1      47.354  26.223  38.649  1.00  0.00    -0.744 OA
ENDBRANCH  67  68
ENDBRANCH  46  60
BRANCH  47  72
ATOM     72  C   UNL A   1      36.390  33.149  30.807  1.00  0.00     0.058 A 
ATOM     73  C   UNL A   1      35.050  33.016  31.199  1.00  0.00     0.135 A 
ATOM     74  C   UNL A   1      36.683  34.050  29.773  1.00  0.00     0.135 A 
ATOM     75  F   UNL A   1      34.720  32.161  32.179  1.00  0.00    -0.206 F 
ATOM     76  C   UNL A   1      34.040  33.761  30.601  1.00  0.00     0.059 A 
ATOM     77  C   UNL A   1      35.693  34.822  29.173  1.00  0.00     0.059 A 
ATOM     78  F   UNL A   1      37.953  34.224  29.373  1.00  0.00    -0.206 F 
ATOM     79  C   UNL A   1      34.374  34.674  29.599  1.00  0.00     0.060 A 
BRANCH  79  80
ATOM     80  S   UNL A   1      33.064  35.710  28.909  1.00  0.00     0.124 S 
ATOM     81  O   UNL A   1      32.354  36.131  30.111  1.00  0.00    -0.237 OA
ATOM     82  O   UNL A   1      33.829  36.746  28.223  1.00  0.00    -0.237 OA
ATOM     83  O   UNL A   1      32.337  34.794  28.035  1.00  0.00    -0.744 OA
ENDBRANCH  79  80
ENDBRANCH  47  72
BRANCH  59  84
ATOM     84  C   UNL A   1      39.483  33.955  37.027  1.00  0.00     0.058 A 
ATOM     85  C   UNL A   1      38.747  33.590  38.165  1.00  0.00     0.135 A 
ATOM     86  C   UNL A   1      40.087  35.222  37.014  1.00  0.00     0.135 A 
ATOM     87  F   UNL A   1      38.142  32.393  38.224  1.00  0.00    -0.206 F 
ATOM     88  C   UNL A   1      38.611  34.452  39.248  1.00  0.00     0.059 A 
ATOM     89  C   UNL A   1      39.989  36.089  38.097  1.00  0.00     0.059 A 
ATOM     90  F   UNL A   1      40.811  35.616  35.953  1.00  0.00    -0.206 F 
ATOM     91  C   UNL A   1      39.244  35.696  39.208  1.00  0.00     0.060 A 
BRANCH  91  92
ATOM     92  S   UNL A   1      39.104  36.778  40.647  1.00  0.00     0.124 S 
ATOM     93  O   UNL A   1      40.506  37.034  40.960  1.00  0.00    -0.237 OA
ATOM     94  O   UNL A   1      38.357  37.911  40.111  1.00  0.00    -0.237 OA
ATOM     95  O   UNL A   1      38.383  35.961  41.619  1.00  0.00    -0.744 OA
ENDBRANCH  91  92
ENDBRANCH  59  84
ENDBRANCH  33  34
ENDBRANCH  25  28
ENDBRANCH   1  24
TORSDOF 14
ENDMDL
MODEL 2
REMARK VINA RESULT:     -12.8      4.827     10.425
REMARK SMILES Cc1cc(Cl)cc2c1O[C@H](C(F)(F)F)C(C(=O)NCCCNC(=O)c1ccc(-c3c4nc(c(-c5c(F)cc(S(=O)(=O)[O-])cc5F)c5ccc([nH]5)c(-c5c(F)cc(S(=O)(=O)[O-])cc5F)c5nc(c(-c6c(F)cc(S(=O)(=O)[O-])cc6F)c6ccc3[nH]6)C=C5)C=C4)cc1)=C2
REMARK SMILES IDX 21 1 20 2 19 3 18 4 16 5 17 6 15 8 1 9 2 10 3 11 8 12 4 13
REMARK SMILES IDX 7 14 9 15 5 16 6 17 91 18 10 19 11 20 12 21 13 22 14 23
REMARK SMILES IDX 22 24 23 25 24 27 25 28 26 29 90 30 27 31 89 32 28 33 29 34
REMARK SMILES IDX 30 35 83 36 31 37 88 38 82 39 84 40 32 41 87 42 81 43 80 44
REMARK SMILES IDX 33 46 67 47 46 48 66 49 47 50 50 51 65 52 85 53 48 54 49 55
REMARK SMILES IDX 64 57 86 58 51 59 34 60 35 61 44 62 36 63 37 64 43 65 45 66
REMARK SMILES IDX 38 67 39 68 40 69 41 70 42 71 68 72 69 73 78 74 70 75 71 76
REMARK SMILES IDX 77 77 79 78 72 79 73 80 74 81 75 82 76 83 52 84 53 85 62 86
REMARK SMILES IDX 54 87 55 88 61 89 63 90 56 91 57 92 58 93 59 94 60 95
REMARK H PARENT 18 7 22 26 84 45 50 56
REMARK Flexibility Score: inf
ROOT
ATOM      1  C   UNL A   1      33.672  28.269  26.901  1.00  0.00     0.118 C 
ENDROOT
BRANCH   1   2
ATOM      2  C   UNL A   1      33.983  28.115  25.418  1.00  0.00     0.042 C 
BRANCH   2   3
ATOM      3  C   UNL A   1      32.845  27.446  24.664  1.00  0.00     0.118 C 
BRANCH   3   4
ATOM      4  N   UNL A   1      31.889  26.816  25.563  1.00  0.00    -0.352 N 
ATOM      5  C   UNL A   1      31.669  25.581  26.069  1.00  0.00     0.251 C 
ATOM      6  O   UNL A   1      30.711  25.491  26.843  1.00  0.00    -0.270 OA
ATOM      7  H   UNL A   1      31.223  27.463  25.890  1.00  0.00     0.163 HD
BRANCH   5   8
ATOM      8  C   UNL A   1      32.489  24.373  25.764  1.00  0.00     0.067 C 
ATOM      9  C   UNL A   1      34.272  19.671  24.658  1.00  0.00     0.048 C 
ATOM     10  C   UNL A   1      34.867  20.961  25.149  1.00  0.00    -0.007 A 
ATOM     11  C   UNL A   1      36.256  21.068  25.296  1.00  0.00     0.027 A 
ATOM     12  C   UNL A   1      34.077  22.088  25.405  1.00  0.00     0.131 A 
ATOM     13  C   UNL A   1      36.828  22.269  25.719  1.00  0.00     0.042 A 
ATOM     14  C   UNL A   1      34.647  23.293  25.831  1.00  0.00     0.019 A 
ATOM     15  O   UNL A   1      32.725  21.945  25.271  1.00  0.00    -0.475 OA
ATOM     16  Cl  UNL A   1      38.536  22.378  25.904  1.00  0.00    -0.084 Cl
ATOM     17  C   UNL A   1      36.032  23.381  25.991  1.00  0.00     0.032 A 
ATOM     18  C   UNL A   1      33.784  24.431  26.127  1.00  0.00     0.025 C 
ATOM     19  C   UNL A   1      31.957  23.155  25.067  1.00  0.00     0.314 C 
BRANCH  19  20
ATOM     20  C   UNL A   1      31.755  23.377  23.556  1.00  0.00     0.429 C 
ATOM     21  F   UNL A   1      32.527  24.403  23.119  1.00  0.00    -0.167 F 
ATOM     22  F   UNL A   1      32.099  22.296  22.815  1.00  0.00    -0.167 F 
ATOM     23  F   UNL A   1      30.474  23.671  23.239  1.00  0.00    -0.167 F 
ENDBRANCH  19  20
ENDBRANCH   5   8
ENDBRANCH   3   4
ENDBRANCH   2   3
ENDBRANCH   1   2
BRANCH   1  24
ATOM     24  N   UNL A   1      33.567  29.674  27.286  1.00  0.00    -0.352 N 
ATOM     25  C   UNL A   1      34.426  30.455  28.018  1.00  0.00     0.251 C 
ATOM     26  H   UNL A   1      32.754  30.132  26.973  1.00  0.00     0.163 HD
ATOM     27  O   UNL A   1      34.028  31.520  28.488  1.00  0.00    -0.269 OA
BRANCH  25  28
ATOM     28  C   UNL A   1      35.816  30.017  28.235  1.00  0.00     0.039 A 
ATOM     29  C   UNL A   1      36.743  30.114  27.194  1.00  0.00     0.014 A 
ATOM     30  C   UNL A   1      36.197  29.487  29.470  1.00  0.00     0.014 A 
ATOM     31  C   UNL A   1      38.067  29.736  27.417  1.00  0.00     0.010 A 
ATOM     32  C   UNL A   1      37.533  29.216  29.722  1.00  0.00     0.010 A 
ATOM     33  C   UNL A   1      38.477  29.313  28.693  1.00  0.00    -0.014 A 
BRANCH  33  34
ATOM     34  C   UNL A   1      39.880  28.926  28.969  1.00  0.00     0.031 A 
ATOM     35  C   UNL A   1      40.807  29.909  29.628  1.00  0.00     0.074 A 
ATOM     36  C   UNL A   1      40.328  27.719  28.576  1.00  0.00     0.049 A 
ATOM     37  N   UNL A   1      42.078  29.787  29.908  1.00  0.00    -0.248 NA
ATOM     38  C   UNL A   1      40.236  31.217  29.993  1.00  0.00     0.031 C 
ATOM     39  C   UNL A   1      39.528  26.703  27.891  1.00  0.00     0.029 A 
ATOM     40  N   UNL A   1      41.565  27.142  28.700  1.00  0.00    -0.354 N 
ATOM     41  C   UNL A   1      42.456  30.997  30.476  1.00  0.00     0.074 A 
ATOM     42  C   UNL A   1      41.304  31.869  30.422  1.00  0.00     0.031 C 
ATOM     43  C   UNL A   1      40.280  25.608  27.700  1.00  0.00     0.029 A 
ATOM     44  C   UNL A   1      41.626  25.859  28.211  1.00  0.00     0.049 A 
ATOM     45  H   UNL A   1      42.337  27.602  29.102  1.00  0.00     0.167 HD
ATOM     46  C   UNL A   1      43.643  31.338  31.033  1.00  0.00     0.037 A 
ATOM     47  C   UNL A   1      42.648  24.984  28.185  1.00  0.00     0.037 A 
ATOM     48  C   UNL A   1      44.776  30.457  31.090  1.00  0.00     0.049 A 
ATOM     49  C   UNL A   1      43.971  25.392  28.770  1.00  0.00     0.074 A 
ATOM     50  C   UNL A   1      46.018  30.685  31.654  1.00  0.00     0.029 A 
ATOM     51  N   UNL A   1      44.806  29.173  30.560  1.00  0.00    -0.354 N 
ATOM     52  N   UNL A   1      44.301  26.524  29.345  1.00  0.00    -0.248 NA
ATOM     53  C   UNL A   1      45.059  24.409  28.701  1.00  0.00     0.031 C 
ATOM     54  C   UNL A   1      46.813  29.557  31.426  1.00  0.00     0.029 A 
ATOM     55  C   UNL A   1      46.053  28.606  30.763  1.00  0.00     0.049 A 
ATOM     56  H   UNL A   1      44.052  28.732  30.107  1.00  0.00     0.167 HD
ATOM     57  C   UNL A   1      45.632  26.386  29.722  1.00  0.00     0.074 A 
ATOM     58  C   UNL A   1      46.040  25.054  29.321  1.00  0.00     0.031 C 
ATOM     59  C   UNL A   1      46.441  27.279  30.345  1.00  0.00     0.037 A 
BRANCH  46  60
ATOM     60  C   UNL A   1      43.751  32.718  31.623  1.00  0.00     0.058 A 
ATOM     61  C   UNL A   1      43.546  32.946  32.995  1.00  0.00     0.135 A 
ATOM     62  C   UNL A   1      44.040  33.828  30.814  1.00  0.00     0.135 A 
ATOM     63  F   UNL A   1      43.250  31.923  33.814  1.00  0.00    -0.206 F 
ATOM     64  C   UNL A   1      43.570  34.227  33.533  1.00  0.00     0.059 A 
ATOM     65  C   UNL A   1      44.103  35.117  31.338  1.00  0.00     0.059 A 
ATOM     66  F   UNL A   1      44.246  33.669  29.497  1.00  0.00    -0.206 F 
ATOM     67  C   UNL A   1      43.843  35.308  32.694  1.00  0.00     0.060 A 
BRANCH  67  68
ATOM     68  S   UNL A   1      43.830  36.969  33.401  1.00  0.00     0.124 S 
ATOM     69  O   UNL A   1      43.896  37.796  32.200  1.00  0.00    -0.237 OA
ATOM     70  O   UNL A   1      42.557  36.992  34.116  1.00  0.00    -0.237 OA
ATOM     71  O   UNL A   1      45.020  36.990  34.243  1.00  0.00    -0.744 OA
ENDBRANCH  67  68
ENDBRANCH  46  60
BRANCH  47  72
ATOM     72  C   UNL A   1      42.423  23.618  27.642  1.00  0.00     0.058 A 
ATOM     73  C   UNL A   1      42.510  23.378  26.263  1.00  0.00     0.135 A 
ATOM     74  C   UNL A   1      42.206  22.517  28.485  1.00  0.00     0.135 A 
ATOM     75  F   UNL A   1      42.710  24.401  25.417  1.00  0.00    -0.206 F 
ATOM     76  C   UNL A   1      42.405  22.095  25.739  1.00  0.00     0.059 A 
ATOM     77  C   UNL A   1      42.118  21.221  27.986  1.00  0.00     0.059 A 
ATOM     78  F   UNL A   1      42.131  22.693  29.814  1.00  0.00    -0.206 F 
ATOM     79  C   UNL A   1      42.225  21.020  26.611  1.00  0.00     0.060 A 
BRANCH  79  80
ATOM     80  S   UNL A   1      42.197  19.350  25.922  1.00  0.00     0.124 S 
ATOM     81  O   UNL A   1      43.045  19.500  24.745  1.00  0.00    -0.237 OA
ATOM     82  O   UNL A   1      42.755  18.563  27.016  1.00  0.00    -0.237 OA
ATOM     83  O   UNL A   1      40.780  19.121  25.653  1.00  0.00    -0.744 OA
ENDBRANCH  79  80
ENDBRANCH  47  72
BRANCH  59  84
ATOM     84  C   UNL A   1      47.853  26.853  30.634  1.00  0.00     0.058 A 
ATOM     85  C   UNL A   1      48.897  27.128  29.737  1.00  0.00     0.135 A 
ATOM     86  C   UNL A   1      48.179  26.243  31.855  1.00  0.00     0.135 A 
ATOM     87  F   UNL A   1      48.637  27.702  28.552  1.00  0.00    -0.206 F 
ATOM     88  C   UNL A   1      50.215  26.804  30.039  1.00  0.00     0.059 A 
ATOM     89  C   UNL A   1      49.494  25.937  32.190  1.00  0.00     0.059 A 
ATOM     90  F   UNL A   1      47.218  25.969  32.752  1.00  0.00    -0.206 F 
ATOM     91  C   UNL A   1      50.505  26.217  31.272  1.00  0.00     0.060 A 
BRANCH  91  92
ATOM     92  S   UNL A   1      52.229  25.857  31.669  1.00  0.00     0.124 S 
ATOM     93  O   UNL A   1      52.884  26.107  30.389  1.00  0.00    -0.237 OA
ATOM     94  O   UNL A   1      52.512  26.823  32.726  1.00  0.00    -0.237 OA
ATOM     95  O   UNL A   1      52.197  24.462  32.095  1.00  0.00    -0.744 OA
ENDBRANCH  91  92
ENDBRANCH  59  84
ENDBRANCH  33  34
ENDBRANCH  25  28
ENDBRANCH   1  24
TORSDOF 14
ENDMDL
MODEL 3
REMARK VINA RESULT:     -12.6      6.557     12.070
REMARK SMILES Cc1cc(Cl)cc2c1O[C@H](C(F)(F)F)C(C(=O)NCCCNC(=O)c1ccc(-c3c4nc(c(-c5c(F)cc(S(=O)(=O)[O-])cc5F)c5ccc([nH]5)c(-c5c(F)cc(S(=O)(=O)[O-])cc5F)c5nc(c(-c6c(F)cc(S(=O)(=O)[O-])cc6F)c6ccc3[nH]6)C=C5)C=C4)cc1)=C2
REMARK SMILES IDX 21 1 20 2 19 3 18 4 16 5 17 6 15 8 1 9 2 10 3 11 8 12 4 13
REMARK SMILES IDX 7 14 9 15 5 16 6 17 91 18 10 19 11 20 12 21 13 22 14 23
REMARK SMILES IDX 22 24 23 25 24 27 25 28 26 29 90 30 27 31 89 32 28 33 29 34
REMARK SMILES IDX 30 35 83 36 31 37 88 38 82 39 84 40 32 41 87 42 81 43 80 44
REMARK SMILES IDX 33 46 67 47 46 48 66 49 47 50 50 51 65 52 85 53 48 54 49 55
REMARK SMILES IDX 64 57 86 58 51 59 34 60 35 61 44 62 36 63 37 64 43 65 45 66
REMARK SMILES IDX 38 67 39 68 40 69 41 70 42 71 68 72 69 73 78 74 70 75 71 76
REMARK SMILES IDX 77 77 79 78 72 79 73 80 74 81 75 82 76 83 52 84 53 85 62 86
REMARK SMILES IDX 54 87 55 88 61 89 63 90 56 91 57 92 58 93 59 94 60 95
REMARK H PARENT 18 7 22 26 84 45 50 56
REMARK Flexibility Score: inf
ROOT
ATOM      1  C   UNL A   1      35.654  31.588  28.361  1.00  0.00     0.118 C 
ENDROOT
BRANCH   1   2
ATOM      2  C   UNL A   1      34.421  31.079  27.626  1.00  0.00     0.042 C 
BRANCH   2   3
ATOM      3  C   UNL A   1      34.427  29.566  27.482  1.00  0.00     0.118 C 
BRANCH   3   4
ATOM      4  N   UNL A   1      33.126  28.984  27.776  1.00  0.00    -0.352 N 
ATOM      5  C   UNL A   1      32.313  28.048  27.233  1.00  0.00     0.251 C 
ATOM      6  O   UNL A   1      31.259  27.846  27.844  1.00  0.00    -0.270 OA
ATOM      7  H   UNL A   1      32.730  29.377  28.587  1.00  0.00     0.163 HD
BRANCH   5   8
ATOM      8  C   UNL A   1      32.609  27.273  25.994  1.00  0.00     0.067 C 
ATOM      9  C   UNL A   1      32.723  25.203  21.280  1.00  0.00     0.048 C 
ATOM     10  C   UNL A   1      33.342  24.884  22.612  1.00  0.00    -0.007 A 
ATOM     11  C   UNL A   1      34.273  23.841  22.709  1.00  0.00     0.027 A 
ATOM     12  C   UNL A   1      33.065  25.643  23.756  1.00  0.00     0.131 A 
ATOM     13  C   UNL A   1      34.882  23.553  23.931  1.00  0.00     0.042 A 
ATOM     14  C   UNL A   1      33.674  25.356  24.983  1.00  0.00     0.019 A 
ATOM     15  O   UNL A   1      32.140  26.641  23.632  1.00  0.00    -0.475 OA
ATOM     16  Cl  UNL A   1      36.015  22.261  24.032  1.00  0.00    -0.084 Cl
ATOM     17  C   UNL A   1      34.585  24.301  25.069  1.00  0.00     0.032 A 
ATOM     18  C   UNL A   1      33.325  26.145  26.159  1.00  0.00     0.025 C 
ATOM     19  C   UNL A   1      32.186  27.700  24.619  1.00  0.00     0.314 C 
BRANCH  19  20
ATOM     20  C   UNL A   1      33.034  28.864  24.071  1.00  0.00     0.429 C 
ATOM     21  F   UNL A   1      32.783  29.055  22.753  1.00  0.00    -0.167 F 
ATOM     22  F   UNL A   1      32.770  30.041  24.687  1.00  0.00    -0.167 F 
ATOM     23  F   UNL A   1      34.362  28.647  24.203  1.00  0.00    -0.167 F 
ENDBRANCH  19  20
ENDBRANCH   5   8
ENDBRANCH   3   4
ENDBRANCH   2   3
ENDBRANCH   1   2
BRANCH   1  24
ATOM     24  N   UNL A   1      35.566  31.339  29.798  1.00  0.00    -0.352 N 
ATOM     25  C   UNL A   1      36.347  30.555  30.608  1.00  0.00     0.251 C 
ATOM     26  H   UNL A   1      34.831  31.807  30.257  1.00  0.00     0.163 HD
ATOM     27  O   UNL A   1      35.939  30.240  31.725  1.00  0.00    -0.269 OA
BRANCH  25  28
ATOM     28  C   UNL A   1      37.667  30.098  30.139  1.00  0.00     0.039 A 
ATOM     29  C   UNL A   1      37.957  30.106  28.772  1.00  0.00     0.014 A 
ATOM     30  C   UNL A   1      38.614  29.637  31.056  1.00  0.00     0.014 A 
ATOM     31  C   UNL A   1      39.221  29.710  28.336  1.00  0.00     0.010 A 
ATOM     32  C   UNL A   1      39.902  29.349  30.633  1.00  0.00     0.010 A 
ATOM     33  C   UNL A   1      40.212  29.358  29.268  1.00  0.00    -0.014 A 
BRANCH  33  34
ATOM     34  C   UNL A   1      41.572  28.955  28.839  1.00  0.00     0.031 A 
ATOM     35  C   UNL A   1      42.685  29.965  28.847  1.00  0.00     0.074 A 
ATOM     36  C   UNL A   1      41.786  27.703  28.394  1.00  0.00     0.049 A 
ATOM     37  N   UNL A   1      43.927  29.830  28.463  1.00  0.00    -0.248 NA
ATOM     38  C   UNL A   1      42.349  31.318  29.321  1.00  0.00     0.031 C 
ATOM     39  C   UNL A   1      40.771  26.653  28.303  1.00  0.00     0.029 A 
ATOM     40  N   UNL A   1      42.930  27.101  27.936  1.00  0.00    -0.354 N 
ATOM     41  C   UNL A   1      44.515  31.075  28.646  1.00  0.00     0.074 A 
ATOM     42  C   UNL A   1      43.475  31.974  29.092  1.00  0.00     0.031 C 
ATOM     43  C   UNL A   1      41.347  25.522  27.868  1.00  0.00     0.029 A 
ATOM     44  C   UNL A   1      42.762  25.777  27.609  1.00  0.00     0.049 A 
ATOM     45  H   UNL A   1      43.790  27.572  27.851  1.00  0.00     0.167 HD
ATOM     46  C   UNL A   1      45.814  31.430  28.497  1.00  0.00     0.037 A 
ATOM     47  C   UNL A   1      43.651  24.871  27.159  1.00  0.00     0.037 A 
ATOM     48  C   UNL A   1      46.841  30.522  28.064  1.00  0.00     0.049 A 
ATOM     49  C   UNL A   1      45.080  25.291  26.960  1.00  0.00     0.074 A 
ATOM     50  C   UNL A   1      48.193  30.763  27.904  1.00  0.00     0.029 A 
ATOM     51  N   UNL A   1      46.626  29.194  27.717  1.00  0.00    -0.354 N 
ATOM     52  N   UNL A   1      45.632  26.461  27.180  1.00  0.00    -0.248 NA
ATOM     53  C   UNL A   1      46.007  24.272  26.451  1.00  0.00     0.031 C 
ATOM     54  C   UNL A   1      48.789  29.594  27.419  1.00  0.00     0.029 A 
ATOM     55  C   UNL A   1      47.818  28.609  27.321  1.00  0.00     0.049 A 
ATOM     56  H   UNL A   1      45.756  28.737  27.747  1.00  0.00     0.167 HD
ATOM     57  C   UNL A   1      46.975  26.317  26.851  1.00  0.00     0.074 A 
ATOM     58  C   UNL A   1      47.153  24.940  26.430  1.00  0.00     0.031 C 
ATOM     59  C   UNL A   1      47.969  27.238  26.895  1.00  0.00     0.037 A 
BRANCH  46  60
ATOM     60  C   UNL A   1      46.177  32.854  28.817  1.00  0.00     0.058 A 
ATOM     61  C   UNL A   1      46.454  33.261  30.134  1.00  0.00     0.135 A 
ATOM     62  C   UNL A   1      46.228  33.829  27.808  1.00  0.00     0.135 A 
ATOM     63  F   UNL A   1      46.404  32.374  31.141  1.00  0.00    -0.206 F 
ATOM     64  C   UNL A   1      46.716  34.590  30.446  1.00  0.00     0.059 A 
ATOM     65  C   UNL A   1      46.521  35.160  28.095  1.00  0.00     0.059 A 
ATOM     66  F   UNL A   1      45.972  33.498  26.534  1.00  0.00    -0.206 F 
ATOM     67  C   UNL A   1      46.740  35.534  29.420  1.00  0.00     0.060 A 
BRANCH  67  68
ATOM     68  S   UNL A   1      47.040  37.262  29.849  1.00  0.00     0.124 S 
ATOM     69  O   UNL A   1      45.704  37.699  30.243  1.00  0.00    -0.237 OA
ATOM     70  O   UNL A   1      48.013  37.148  30.931  1.00  0.00    -0.237 OA
ATOM     71  O   UNL A   1      47.548  37.838  28.609  1.00  0.00    -0.744 OA
ENDBRANCH  67  68
ENDBRANCH  46  60
BRANCH  47  72
ATOM     72  C   UNL A   1      43.211  23.468  26.937  1.00  0.00     0.058 A 
ATOM     73  C   UNL A   1      43.041  22.975  25.635  1.00  0.00     0.135 A 
ATOM     74  C   UNL A   1      43.037  22.573  28.003  1.00  0.00     0.135 A 
ATOM     75  F   UNL A   1      43.190  23.795  24.583  1.00  0.00    -0.206 F 
ATOM     76  C   UNL A   1      42.730  21.641  25.397  1.00  0.00     0.059 A 
ATOM     77  C   UNL A   1      42.745  21.230  27.790  1.00  0.00     0.059 A 
ATOM     78  F   UNL A   1      43.203  22.994  29.267  1.00  0.00    -0.206 F 
ATOM     79  C   UNL A   1      42.599  20.772  26.481  1.00  0.00     0.060 A 
BRANCH  79  80
ATOM     80  S   UNL A   1      42.300  19.022  26.148  1.00  0.00     0.124 S 
ATOM     81  O   UNL A   1      42.599  18.418  27.441  1.00  0.00    -0.237 OA
ATOM     82  O   UNL A   1      40.896  19.026  25.753  1.00  0.00    -0.237 OA
ATOM     83  O   UNL A   1      43.245  18.717  25.077  1.00  0.00    -0.744 OA
ENDBRANCH  79  80
ENDBRANCH  47  72
BRANCH  59  84
ATOM     84  C   UNL A   1      49.344  26.797  26.477  1.00  0.00     0.058 A 
ATOM     85  C   UNL A   1      50.210  26.153  27.376  1.00  0.00     0.135 A 
ATOM     86  C   UNL A   1      49.766  26.940  25.146  1.00  0.00     0.135 A 
ATOM     87  F   UNL A   1      49.856  25.999  28.661  1.00  0.00    -0.206 F 
ATOM     88  C   UNL A   1      51.450  25.675  26.969  1.00  0.00     0.059 A 
ATOM     89  C   UNL A   1      50.991  26.444  24.711  1.00  0.00     0.059 A 
ATOM     90  F   UNL A   1      48.971  27.539  24.244  1.00  0.00    -0.206 F 
ATOM     91  C   UNL A   1      51.828  25.818  25.633  1.00  0.00     0.060 A 
BRANCH  91  92
ATOM     92  S   UNL A   1      53.418  25.139  25.112  1.00  0.00     0.124 S 
ATOM     93  O   UNL A   1      53.206  23.709  25.309  1.00  0.00    -0.237 OA
ATOM     94  O   UNL A   1      53.505  25.582  23.724  1.00  0.00    -0.237 OA
ATOM     95  O   UNL A   1      54.371  25.764  26.025  1.00  0.00    -0.744 OA
ENDBRANCH  91  92
ENDBRANCH  59  84
ENDBRANCH  33  34
ENDBRANCH  25  28
ENDBRANCH   1  24
TORSDOF 14
ENDMDL
