MODEL 1
REMARK VINA RESULT:     -10.0      0.000      0.000
REMARK SMILES CC[C@@](O)(C(=O)NCCCNC(=O)c1ccc(-c2c3nc(c(-c4c(F)cc(S(=O)(=O)[O-])cc4F)c4ccc([nH]4)c(-c4c(F)cc(S(=O)(=O)[O-])cc4F)c4nc(c(-c5c(F)cc(S(=O)(=O)[O-])cc5F)c5ccc2[nH]5)C=C4)C=C3)cc1)[C@H]1CCc2ccc(OC)cc21
REMARK SMILES IDX 9 1 8 2 7 3 5 4 6 5 3 7 2 8 1 9 4 10 80 12 81 13 90 14 82 15
REMARK SMILES IDX 83 16 89 17 84 18 86 19 85 20 87 21 88 22 10 23 11 24 12 25
REMARK SMILES IDX 13 27 14 28 15 29 79 30 16 31 78 32 17 33 18 34 19 35 72 36
REMARK SMILES IDX 20 37 77 38 71 39 73 40 21 41 76 42 70 43 69 44 22 46 56 47
REMARK SMILES IDX 35 48 55 49 36 50 39 51 54 52 74 53 37 54 38 55 53 57 75 58
REMARK SMILES IDX 40 59 23 60 24 61 33 62 25 63 26 64 32 65 34 66 27 67 28 68
REMARK SMILES IDX 29 69 30 70 31 71 57 72 58 73 67 74 59 75 60 76 66 77 68 78
REMARK SMILES IDX 61 79 62 80 63 81 64 82 65 83 41 84 42 85 51 86 43 87 44 88
REMARK SMILES IDX 50 89 52 90 45 91 46 92 47 93 48 94 49 95
REMARK H PARENT 7 6 4 11 11 26 73 45 39 56
REMARK Flexibility Score: inf
ROOT
ATOM      1  C   UNL A   1      41.912  21.062  26.953  1.00  0.00     0.042 C 
ENDROOT
BRANCH   1   2
ATOM      2  C   UNL A   1      42.712  22.284  26.502  1.00  0.00     0.117 C 
BRANCH   2   3
ATOM      3  N   UNL A   1      42.939  22.237  25.070  1.00  0.00    -0.354 N 
ATOM      4  C   UNL A   1      44.026  22.600  24.328  1.00  0.00     0.252 C 
ATOM      5  O   UNL A   1      43.860  22.604  23.103  1.00  0.00    -0.272 OA
ATOM      6  H   UNL A   1      42.182  21.885  24.547  1.00  0.00     0.163 HD
BRANCH   4   7
ATOM      7  C   UNL A   1      45.403  22.961  24.984  1.00  0.00     0.149 C 
BRANCH   7   8
ATOM      8  C   UNL A   1      46.299  21.699  25.133  1.00  0.00     0.043 C 
ATOM      9  C   UNL A   1      45.614  20.337  25.152  1.00  0.00     0.007 C 
ENDBRANCH   7   8
BRANCH   7  10
ATOM     10  O   UNL A   1      46.024  23.865  24.045  1.00  0.00    -0.379 OA
ATOM     11  H   UNL A   1      45.339  24.375  23.585  1.00  0.00     0.212 HD
ENDBRANCH   7  10
BRANCH   7  12
ATOM     12  C   UNL A   1      45.086  23.729  26.321  1.00  0.00     0.061 C 
ATOM     13  C   UNL A   1      46.279  23.758  27.321  1.00  0.00     0.017 C 
ATOM     14  C   UNL A   1      44.745  25.195  26.201  1.00  0.00    -0.035 A 
ATOM     15  C   UNL A   1      46.300  25.128  28.010  1.00  0.00     0.036 C 
ATOM     16  C   UNL A   1      45.512  25.974  27.067  1.00  0.00    -0.044 A 
ATOM     17  C   UNL A   1      43.766  25.780  25.407  1.00  0.00     0.050 A 
ATOM     18  C   UNL A   1      45.435  27.355  27.033  1.00  0.00     0.008 A 
ATOM     19  C   UNL A   1      43.657  27.169  25.379  1.00  0.00     0.119 A 
ATOM     20  C   UNL A   1      44.525  27.951  26.154  1.00  0.00     0.047 A 
BRANCH  19  21
ATOM     21  O   UNL A   1      42.756  27.868  24.619  1.00  0.00    -0.497 OA
ATOM     22  C   UNL A   1      41.950  28.806  25.328  1.00  0.00     0.278 C 
ENDBRANCH  19  21
ENDBRANCH   7  12
ENDBRANCH   4   7
ENDBRANCH   2   3
ENDBRANCH   1   2
BRANCH   1  23
ATOM     23  C   UNL A   1      40.522  21.416  27.458  1.00  0.00     0.118 C 
BRANCH  23  24
ATOM     24  N   UNL A   1      39.624  21.727  26.361  1.00  0.00    -0.352 N 
ATOM     25  C   UNL A   1      38.920  22.878  26.112  1.00  0.00     0.251 C 
ATOM     26  H   UNL A   1      39.501  21.007  25.700  1.00  0.00     0.163 HD
ATOM     27  O   UNL A   1      38.013  22.854  25.283  1.00  0.00    -0.269 OA
BRANCH  25  28
ATOM     28  C   UNL A   1      39.241  24.136  26.828  1.00  0.00     0.039 A 
ATOM     29  C   UNL A   1      40.106  25.049  26.218  1.00  0.00     0.014 A 
ATOM     30  C   UNL A   1      38.763  24.387  28.118  1.00  0.00     0.014 A 
ATOM     31  C   UNL A   1      40.484  26.209  26.895  1.00  0.00     0.010 A 
ATOM     32  C   UNL A   1      39.074  25.584  28.759  1.00  0.00     0.010 A 
ATOM     33  C   UNL A   1      39.968  26.488  28.170  1.00  0.00    -0.014 A 
BRANCH  33  34
ATOM     34  C   UNL A   1      40.419  27.680  28.933  1.00  0.00     0.031 A 
ATOM     35  C   UNL A   1      41.791  27.693  29.557  1.00  0.00     0.074 A 
ATOM     36  C   UNL A   1      39.593  28.732  29.091  1.00  0.00     0.049 A 
ATOM     37  N   UNL A   1      42.359  28.616  30.291  1.00  0.00    -0.248 NA
ATOM     38  C   UNL A   1      42.625  26.497  29.350  1.00  0.00     0.031 C 
ATOM     39  C   UNL A   1      38.224  28.816  28.576  1.00  0.00     0.029 A 
ATOM     40  N   UNL A   1      39.781  29.929  29.733  1.00  0.00    -0.354 N 
ATOM     41  C   UNL A   1      43.604  28.106  30.645  1.00  0.00     0.074 A 
ATOM     42  C   UNL A   1      43.685  26.771  30.097  1.00  0.00     0.031 C 
ATOM     43  C   UNL A   1      37.704  30.009  28.906  1.00  0.00     0.029 A 
ATOM     44  C   UNL A   1      38.690  30.763  29.675  1.00  0.00     0.049 A 
ATOM     45  H   UNL A   1      40.618  30.167  30.192  1.00  0.00     0.167 HD
ATOM     46  C   UNL A   1      44.601  28.705  31.338  1.00  0.00     0.037 A 
ATOM     47  C   UNL A   1      38.508  31.997  30.184  1.00  0.00     0.037 A 
ATOM     48  C   UNL A   1      44.526  30.048  31.853  1.00  0.00     0.049 A 
ATOM     49  C   UNL A   1      39.642  32.661  30.916  1.00  0.00     0.074 A 
ATOM     50  C   UNL A   1      45.489  30.765  32.539  1.00  0.00     0.029 A 
ATOM     51  N   UNL A   1      43.422  30.880  31.728  1.00  0.00    -0.354 N 
ATOM     52  N   UNL A   1      40.829  32.181  31.206  1.00  0.00    -0.248 NA
ATOM     53  C   UNL A   1      39.423  34.039  31.372  1.00  0.00     0.031 C 
ATOM     54  C   UNL A   1      44.958  32.022  32.853  1.00  0.00     0.029 A 
ATOM     55  C   UNL A   1      43.680  32.103  32.323  1.00  0.00     0.049 A 
ATOM     56  H   UNL A   1      42.579  30.636  31.282  1.00  0.00     0.167 HD
ATOM     57  C   UNL A   1      41.509  33.210  31.848  1.00  0.00     0.074 A 
ATOM     58  C   UNL A   1      40.603  34.339  31.897  1.00  0.00     0.031 C 
ATOM     59  C   UNL A   1      42.770  33.220  32.348  1.00  0.00     0.037 A 
BRANCH  46  60
ATOM     60  C   UNL A   1      45.861  27.913  31.566  1.00  0.00     0.058 A 
ATOM     61  C   UNL A   1      46.990  28.077  30.748  1.00  0.00     0.135 A 
ATOM     62  C   UNL A   1      45.944  26.985  32.616  1.00  0.00     0.135 A 
ATOM     63  F   UNL A   1      46.961  28.938  29.718  1.00  0.00    -0.206 F 
ATOM     64  C   UNL A   1      48.144  27.323  30.938  1.00  0.00     0.059 A 
ATOM     65  C   UNL A   1      47.098  26.241  32.844  1.00  0.00     0.059 A 
ATOM     66  F   UNL A   1      44.896  26.788  33.431  1.00  0.00    -0.206 F 
ATOM     67  C   UNL A   1      48.187  26.403  31.987  1.00  0.00     0.060 A 
BRANCH  67  68
ATOM     68  S   UNL A   1      49.685  25.424  32.215  1.00  0.00     0.124 S 
ATOM     69  O   UNL A   1      50.648  26.452  32.600  1.00  0.00    -0.237 OA
ATOM     70  O   UNL A   1      49.297  24.495  33.271  1.00  0.00    -0.237 OA
ATOM     71  O   UNL A   1      49.901  24.821  30.904  1.00  0.00    -0.744 OA
ENDBRANCH  67  68
ENDBRANCH  46  60
BRANCH  47  72
ATOM     72  C   UNL A   1      37.213  32.696  29.977  1.00  0.00     0.058 A 
ATOM     73  C   UNL A   1      36.132  32.491  30.847  1.00  0.00     0.135 A 
ATOM     74  C   UNL A   1      37.039  33.606  28.922  1.00  0.00     0.135 A 
ATOM     75  F   UNL A   1      36.249  31.629  31.869  1.00  0.00    -0.206 F 
ATOM     76  C   UNL A   1      34.919  33.149  30.671  1.00  0.00     0.059 A 
ATOM     77  C   UNL A   1      35.844  34.294  28.740  1.00  0.00     0.059 A 
ATOM     78  F   UNL A   1      38.049  33.853  28.073  1.00  0.00    -0.206 F 
ATOM     79  C   UNL A   1      34.785  34.052  29.615  1.00  0.00     0.060 A 
BRANCH  79  80
ATOM     80  S   UNL A   1      33.226  34.944  29.430  1.00  0.00     0.124 S 
ATOM     81  O   UNL A   1      32.701  34.903  30.789  1.00  0.00    -0.237 OA
ATOM     82  O   UNL A   1      33.674  36.250  28.956  1.00  0.00    -0.237 OA
ATOM     83  O   UNL A   1      32.500  34.146  28.446  1.00  0.00    -0.744 OA
ENDBRANCH  79  80
ENDBRANCH  47  72
BRANCH  59  84
ATOM     84  C   UNL A   1      43.263  34.508  32.944  1.00  0.00     0.058 A 
ATOM     85  C   UNL A   1      43.867  35.505  32.162  1.00  0.00     0.135 A 
ATOM     86  C   UNL A   1      43.095  34.762  34.315  1.00  0.00     0.135 A 
ATOM     87  F   UNL A   1      44.054  35.311  30.848  1.00  0.00    -0.206 F 
ATOM     88  C   UNL A   1      44.318  36.695  32.725  1.00  0.00     0.059 A 
ATOM     89  C   UNL A   1      43.513  35.955  34.894  1.00  0.00     0.059 A 
ATOM     90  F   UNL A   1      42.510  33.846  35.105  1.00  0.00    -0.206 F 
ATOM     91  C   UNL A   1      44.139  36.910  34.093  1.00  0.00     0.060 A 
BRANCH  91  92
ATOM     92  S   UNL A   1      44.715  38.462  34.811  1.00  0.00     0.124 S 
ATOM     93  O   UNL A   1      46.156  38.362  34.607  1.00  0.00    -0.237 OA
ATOM     94  O   UNL A   1      44.027  39.459  33.997  1.00  0.00    -0.237 OA
ATOM     95  O   UNL A   1      44.268  38.379  36.199  1.00  0.00    -0.744 OA
ENDBRANCH  91  92
ENDBRANCH  59  84
ENDBRANCH  33  34
ENDBRANCH  25  28
ENDBRANCH  23  24
ENDBRANCH   1  23
TORSDOF 17
ENDMDL
MODEL 2
REMARK VINA RESULT:     -10.0      3.056     11.199
REMARK SMILES CC[C@@](O)(C(=O)NCCCNC(=O)c1ccc(-c2c3nc(c(-c4c(F)cc(S(=O)(=O)[O-])cc4F)c4ccc([nH]4)c(-c4c(F)cc(S(=O)(=O)[O-])cc4F)c4nc(c(-c5c(F)cc(S(=O)(=O)[O-])cc5F)c5ccc2[nH]5)C=C4)C=C3)cc1)[C@H]1CCc2ccc(OC)cc21
REMARK SMILES IDX 9 1 8 2 7 3 5 4 6 5 3 7 2 8 1 9 4 10 80 12 81 13 90 14 82 15
REMARK SMILES IDX 83 16 89 17 84 18 86 19 85 20 87 21 88 22 10 23 11 24 12 25
REMARK SMILES IDX 13 27 14 28 15 29 79 30 16 31 78 32 17 33 18 34 19 35 72 36
REMARK SMILES IDX 20 37 77 38 71 39 73 40 21 41 76 42 70 43 69 44 22 46 56 47
REMARK SMILES IDX 35 48 55 49 36 50 39 51 54 52 74 53 37 54 38 55 53 57 75 58
REMARK SMILES IDX 40 59 23 60 24 61 33 62 25 63 26 64 32 65 34 66 27 67 28 68
REMARK SMILES IDX 29 69 30 70 31 71 57 72 58 73 67 74 59 75 60 76 66 77 68 78
REMARK SMILES IDX 61 79 62 80 63 81 64 82 65 83 41 84 42 85 51 86 43 87 44 88
REMARK SMILES IDX 50 89 52 90 45 91 46 92 47 93 48 94 49 95
REMARK H PARENT 7 6 4 11 11 26 73 45 39 56
REMARK Flexibility Score: inf
ROOT
ATOM      1  C   UNL A   1      34.395  33.742  29.865  1.00  0.00     0.042 C 
ENDROOT
BRANCH   1   2
ATOM      2  C   UNL A   1      35.570  34.077  30.784  1.00  0.00     0.117 C 
BRANCH   2   3
ATOM      3  N   UNL A   1      35.168  35.049  31.782  1.00  0.00    -0.354 N 
ATOM      4  C   UNL A   1      35.249  35.012  33.145  1.00  0.00     0.252 C 
ATOM      5  O   UNL A   1      34.665  35.924  33.740  1.00  0.00    -0.272 OA
ATOM      6  H   UNL A   1      34.771  35.872  31.415  1.00  0.00     0.163 HD
BRANCH   4   7
ATOM      7  C   UNL A   1      36.055  33.902  33.905  1.00  0.00     0.149 C 
BRANCH   7   8
ATOM      8  C   UNL A   1      36.310  34.311  35.383  1.00  0.00     0.043 C 
ATOM      9  C   UNL A   1      36.868  33.255  36.329  1.00  0.00     0.007 C 
ENDBRANCH   7   8
BRANCH   7  10
ATOM     10  O   UNL A   1      35.186  32.749  33.883  1.00  0.00    -0.379 OA
ATOM     11  H   UNL A   1      34.528  32.827  34.591  1.00  0.00     0.212 HD
ENDBRANCH   7  10
BRANCH   7  12
ATOM     12  C   UNL A   1      37.343  33.606  33.050  1.00  0.00     0.061 C 
ATOM     13  C   UNL A   1      38.549  34.525  33.403  1.00  0.00     0.017 C 
ATOM     14  C   UNL A   1      37.950  32.230  33.186  1.00  0.00    -0.035 A 
ATOM     15  C   UNL A   1      39.832  33.690  33.326  1.00  0.00     0.036 C 
ATOM     16  C   UNL A   1      39.317  32.296  33.453  1.00  0.00    -0.044 A 
ATOM     17  C   UNL A   1      37.322  31.002  33.018  1.00  0.00     0.050 A 
ATOM     18  C   UNL A   1      40.041  31.148  33.726  1.00  0.00     0.008 A 
ATOM     19  C   UNL A   1      38.043  29.834  33.263  1.00  0.00     0.119 A 
ATOM     20  C   UNL A   1      39.384  29.915  33.664  1.00  0.00     0.047 A 
BRANCH  19  21
ATOM     21  O   UNL A   1      37.535  28.566  33.163  1.00  0.00    -0.497 OA
ATOM     22  C   UNL A   1      38.394  27.605  32.555  1.00  0.00     0.278 C 
ENDBRANCH  19  21
ENDBRANCH   7  12
ENDBRANCH   4   7
ENDBRANCH   2   3
ENDBRANCH   1   2
BRANCH   1  23
ATOM     23  C   UNL A   1      34.826  33.074  28.569  1.00  0.00     0.118 C 
BRANCH  23  24
ATOM     24  N   UNL A   1      33.991  31.927  28.262  1.00  0.00    -0.352 N 
ATOM     25  C   UNL A   1      34.358  30.645  27.941  1.00  0.00     0.251 C 
ATOM     26  H   UNL A   1      33.020  32.093  28.288  1.00  0.00     0.163 HD
ATOM     27  O   UNL A   1      33.518  29.889  27.457  1.00  0.00    -0.269 OA
BRANCH  25  28
ATOM     28  C   UNL A   1      35.743  30.170  28.168  1.00  0.00     0.039 A 
ATOM     29  C   UNL A   1      36.089  29.703  29.440  1.00  0.00     0.014 A 
ATOM     30  C   UNL A   1      36.719  30.252  27.170  1.00  0.00     0.014 A 
ATOM     31  C   UNL A   1      37.403  29.316  29.707  1.00  0.00     0.010 A 
ATOM     32  C   UNL A   1      38.010  29.787  27.413  1.00  0.00     0.010 A 
ATOM     33  C   UNL A   1      38.373  29.351  28.694  1.00  0.00    -0.014 A 
BRANCH  33  34
ATOM     34  C   UNL A   1      39.792  29.014  28.982  1.00  0.00     0.031 A 
ATOM     35  C   UNL A   1      40.694  30.048  29.605  1.00  0.00     0.074 A 
ATOM     36  C   UNL A   1      40.273  27.799  28.659  1.00  0.00     0.049 A 
ATOM     37  N   UNL A   1      41.966  29.967  29.900  1.00  0.00    -0.248 NA
ATOM     38  C   UNL A   1      40.092  31.356  29.911  1.00  0.00     0.031 C 
ATOM     39  C   UNL A   1      39.510  26.732  28.008  1.00  0.00     0.029 A 
ATOM     40  N   UNL A   1      41.522  27.257  28.832  1.00  0.00    -0.354 N 
ATOM     41  C   UNL A   1      42.317  31.213  30.409  1.00  0.00     0.074 A 
ATOM     42  C   UNL A   1      41.141  32.050  30.326  1.00  0.00     0.031 C 
ATOM     43  C   UNL A   1      40.302  25.658  27.854  1.00  0.00     0.029 A 
ATOM     44  C   UNL A   1      41.632  25.967  28.371  1.00  0.00     0.049 A 
ATOM     45  H   UNL A   1      42.268  27.747  29.246  1.00  0.00     0.167 HD
ATOM     46  C   UNL A   1      43.502  31.616  30.925  1.00  0.00     0.037 A 
ATOM     47  C   UNL A   1      42.686  25.129  28.368  1.00  0.00     0.037 A 
ATOM     48  C   UNL A   1      44.660  30.768  31.034  1.00  0.00     0.049 A 
ATOM     49  C   UNL A   1      43.982  25.582  28.984  1.00  0.00     0.074 A 
ATOM     50  C   UNL A   1      45.900  31.063  31.572  1.00  0.00     0.029 A 
ATOM     51  N   UNL A   1      44.715  29.449  30.604  1.00  0.00    -0.354 N 
ATOM     52  N   UNL A   1      44.285  26.751  29.499  1.00  0.00    -0.248 NA
ATOM     53  C   UNL A   1      45.072  24.600  29.036  1.00  0.00     0.031 C 
ATOM     54  C   UNL A   1      46.714  29.931  31.442  1.00  0.00     0.029 A 
ATOM     55  C   UNL A   1      45.966  28.918  30.864  1.00  0.00     0.049 A 
ATOM     56  H   UNL A   1      43.973  28.964  30.176  1.00  0.00     0.167 HD
ATOM     57  C   UNL A   1      45.589  26.633  29.968  1.00  0.00     0.074 A 
ATOM     58  C   UNL A   1      46.013  25.278  29.681  1.00  0.00     0.031 C 
ATOM     59  C   UNL A   1      46.364  27.561  30.583  1.00  0.00     0.037 A 
BRANCH  46  60
ATOM     60  C   UNL A   1      43.596  33.035  31.421  1.00  0.00     0.058 A 
ATOM     61  C   UNL A   1      43.914  34.096  30.558  1.00  0.00     0.135 A 
ATOM     62  C   UNL A   1      43.359  33.339  32.771  1.00  0.00     0.135 A 
ATOM     63  F   UNL A   1      44.167  33.860  29.261  1.00  0.00    -0.206 F 
ATOM     64  C   UNL A   1      44.032  35.402  31.021  1.00  0.00     0.059 A 
ATOM     65  C   UNL A   1      43.442  34.644  33.251  1.00  0.00     0.059 A 
ATOM     66  F   UNL A   1      43.050  32.366  33.641  1.00  0.00    -0.206 F 
ATOM     67  C   UNL A   1      43.799  35.666  32.372  1.00  0.00     0.060 A 
BRANCH  67  68
ATOM     68  S   UNL A   1      43.966  37.364  32.961  1.00  0.00     0.124 S 
ATOM     69  O   UNL A   1      45.356  37.380  33.407  1.00  0.00    -0.237 OA
ATOM     70  O   UNL A   1      43.678  38.143  31.761  1.00  0.00    -0.237 OA
ATOM     71  O   UNL A   1      42.965  37.456  34.019  1.00  0.00    -0.744 OA
ENDBRANCH  67  68
ENDBRANCH  46  60
BRANCH  47  72
ATOM     72  C   UNL A   1      42.541  23.762  27.803  1.00  0.00     0.058 A 
ATOM     73  C   UNL A   1      42.584  23.545  26.417  1.00  0.00     0.135 A 
ATOM     74  C   UNL A   1      42.384  22.644  28.636  1.00  0.00     0.135 A 
ATOM     75  F   UNL A   1      42.730  24.583  25.579  1.00  0.00    -0.206 F 
ATOM     76  C   UNL A   1      42.462  22.269  25.876  1.00  0.00     0.059 A 
ATOM     77  C   UNL A   1      42.284  21.356  28.119  1.00  0.00     0.059 A 
ATOM     78  F   UNL A   1      42.357  22.797  29.969  1.00  0.00    -0.206 F 
ATOM     79  C   UNL A   1      42.315  21.179  26.736  1.00  0.00     0.060 A 
BRANCH  79  80
ATOM     80  S   UNL A   1      42.215  19.522  26.026  1.00  0.00     0.124 S 
ATOM     81  O   UNL A   1      42.651  18.697  27.145  1.00  0.00    -0.237 OA
ATOM     82  O   UNL A   1      40.803  19.424  25.672  1.00  0.00    -0.237 OA
ATOM     83  O   UNL A   1      43.134  19.589  24.893  1.00  0.00    -0.744 OA
ENDBRANCH  79  80
ENDBRANCH  47  72
BRANCH  59  84
ATOM     84  C   UNL A   1      47.730  27.126  31.035  1.00  0.00     0.058 A 
ATOM     85  C   UNL A   1      47.928  26.437  32.241  1.00  0.00     0.135 A 
ATOM     86  C   UNL A   1      48.852  27.374  30.229  1.00  0.00     0.135 A 
ATOM     87  F   UNL A   1      46.889  26.177  33.050  1.00  0.00    -0.206 F 
ATOM     88  C   UNL A   1      49.197  26.037  32.648  1.00  0.00     0.059 A 
ATOM     89  C   UNL A   1      50.126  26.961  30.602  1.00  0.00     0.059 A 
ATOM     90  F   UNL A   1      48.715  28.019  29.058  1.00  0.00    -0.206 F 
ATOM     91  C   UNL A   1      50.291  26.307  31.823  1.00  0.00     0.060 A 
BRANCH  91  92
ATOM     92  S   UNL A   1      51.931  25.773  32.354  1.00  0.00     0.124 S 
ATOM     93  O   UNL A   1      52.601  27.052  32.566  1.00  0.00    -0.237 OA
ATOM     94  O   UNL A   1      51.637  25.002  33.558  1.00  0.00    -0.237 OA
ATOM     95  O   UNL A   1      52.416  24.991  31.220  1.00  0.00    -0.744 OA
ENDBRANCH  91  92
ENDBRANCH  59  84
ENDBRANCH  33  34
ENDBRANCH  25  28
ENDBRANCH  23  24
ENDBRANCH   1  23
TORSDOF 17
ENDMDL
MODEL 3
REMARK VINA RESULT:      -9.9      4.210      6.946
REMARK SMILES CC[C@@](O)(C(=O)NCCCNC(=O)c1ccc(-c2c3nc(c(-c4c(F)cc(S(=O)(=O)[O-])cc4F)c4ccc([nH]4)c(-c4c(F)cc(S(=O)(=O)[O-])cc4F)c4nc(c(-c5c(F)cc(S(=O)(=O)[O-])cc5F)c5ccc2[nH]5)C=C4)C=C3)cc1)[C@H]1CCc2ccc(OC)cc21
REMARK SMILES IDX 9 1 8 2 7 3 5 4 6 5 3 7 2 8 1 9 4 10 80 12 81 13 90 14 82 15
REMARK SMILES IDX 83 16 89 17 84 18 86 19 85 20 87 21 88 22 10 23 11 24 12 25
REMARK SMILES IDX 13 27 14 28 15 29 79 30 16 31 78 32 17 33 18 34 19 35 72 36
REMARK SMILES IDX 20 37 77 38 71 39 73 40 21 41 76 42 70 43 69 44 22 46 56 47
REMARK SMILES IDX 35 48 55 49 36 50 39 51 54 52 74 53 37 54 38 55 53 57 75 58
REMARK SMILES IDX 40 59 23 60 24 61 33 62 25 63 26 64 32 65 34 66 27 67 28 68
REMARK SMILES IDX 29 69 30 70 31 71 57 72 58 73 67 74 59 75 60 76 66 77 68 78
REMARK SMILES IDX 61 79 62 80 63 81 64 82 65 83 41 84 42 85 51 86 43 87 44 88
REMARK SMILES IDX 50 89 52 90 45 91 46 92 47 93 48 94 49 95
REMARK H PARENT 7 6 4 11 11 26 73 45 39 56
REMARK Flexibility Score: inf
ROOT
ATOM      1  C   UNL A   1      38.628  22.715  26.284  1.00  0.00     0.042 C 
ENDROOT
BRANCH   1   2
ATOM      2  C   UNL A   1      37.426  23.636  26.077  1.00  0.00     0.117 C 
BRANCH   2   3
ATOM      3  N   UNL A   1      36.257  23.096  26.744  1.00  0.00    -0.354 N 
ATOM      4  C   UNL A   1      35.125  22.527  26.236  1.00  0.00     0.252 C 
ATOM      5  O   UNL A   1      34.221  22.314  27.051  1.00  0.00    -0.272 OA
ATOM      6  H   UNL A   1      36.285  23.150  27.727  1.00  0.00     0.163 HD
BRANCH   4   7
ATOM      7  C   UNL A   1      34.991  22.140  24.722  1.00  0.00     0.149 C 
BRANCH   7   8
ATOM      8  C   UNL A   1      35.520  23.280  23.807  1.00  0.00     0.043 C 
ATOM      9  C   UNL A   1      36.637  22.947  22.825  1.00  0.00     0.007 C 
ENDBRANCH   7   8
BRANCH   7  10
ATOM     10  O   UNL A   1      35.843  20.985  24.569  1.00  0.00    -0.379 OA
ATOM     11  H   UNL A   1      36.304  20.809  25.404  1.00  0.00     0.212 HD
ENDBRANCH   7  10
BRANCH   7  12
ATOM     12  C   UNL A   1      33.491  21.722  24.488  1.00  0.00     0.061 C 
ATOM     13  C   UNL A   1      32.881  22.303  23.179  1.00  0.00     0.017 C 
ATOM     14  C   UNL A   1      33.211  20.246  24.334  1.00  0.00    -0.035 A 
ATOM     15  C   UNL A   1      31.961  21.242  22.562  1.00  0.00     0.036 C 
ATOM     16  C   UNL A   1      32.454  19.983  23.193  1.00  0.00    -0.044 A 
ATOM     17  C   UNL A   1      33.564  19.218  25.199  1.00  0.00     0.050 A 
ATOM     18  C   UNL A   1      32.184  18.681  22.808  1.00  0.00     0.008 A 
ATOM     19  C   UNL A   1      33.277  17.902  24.840  1.00  0.00     0.119 A 
ATOM     20  C   UNL A   1      32.633  17.638  23.623  1.00  0.00     0.047 A 
BRANCH  19  21
ATOM     21  O   UNL A   1      33.597  16.799  25.587  1.00  0.00    -0.497 OA
ATOM     22  C   UNL A   1      32.865  15.615  25.281  1.00  0.00     0.278 C 
ENDBRANCH  19  21
ENDBRANCH   7  12
ENDBRANCH   4   7
ENDBRANCH   2   3
ENDBRANCH   1   2
BRANCH   1  23
ATOM     23  C   UNL A   1      39.741  23.362  27.095  1.00  0.00     0.118 C 
BRANCH  23  24
ATOM     24  N   UNL A   1      40.774  23.909  26.234  1.00  0.00    -0.352 N 
ATOM     25  C   UNL A   1      41.267  25.187  26.171  1.00  0.00     0.251 C 
ATOM     26  H   UNL A   1      41.178  23.269  25.603  1.00  0.00     0.163 HD
ATOM     27  O   UNL A   1      41.947  25.515  25.201  1.00  0.00    -0.269 OA
BRANCH  25  28
ATOM     28  C   UNL A   1      40.990  26.164  27.250  1.00  0.00     0.039 A 
ATOM     29  C   UNL A   1      41.799  27.300  27.346  1.00  0.00     0.014 A 
ATOM     30  C   UNL A   1      39.997  25.935  28.208  1.00  0.00     0.014 A 
ATOM     31  C   UNL A   1      41.609  28.203  28.393  1.00  0.00     0.010 A 
ATOM     32  C   UNL A   1      39.754  26.879  29.203  1.00  0.00     0.010 A 
ATOM     33  C   UNL A   1      40.582  28.002  29.328  1.00  0.00    -0.014 A 
BRANCH  33  34
ATOM     34  C   UNL A   1      40.417  28.913  30.490  1.00  0.00     0.031 A 
ATOM     35  C   UNL A   1      41.287  28.738  31.708  1.00  0.00     0.074 A 
ATOM     36  C   UNL A   1      39.473  29.873  30.464  1.00  0.00     0.049 A 
ATOM     37  N   UNL A   1      41.276  29.400  32.837  1.00  0.00    -0.248 NA
ATOM     38  C   UNL A   1      42.284  27.655  31.661  1.00  0.00     0.031 C 
ATOM     39  C   UNL A   1      38.538  30.109  29.361  1.00  0.00     0.029 A 
ATOM     40  N   UNL A   1      39.140  30.826  31.392  1.00  0.00    -0.354 N 
ATOM     41  C   UNL A   1      42.248  28.806  33.635  1.00  0.00     0.074 A 
ATOM     42  C   UNL A   1      42.786  27.692  32.886  1.00  0.00     0.031 C 
ATOM     43  C   UNL A   1      37.750  31.153  29.670  1.00  0.00     0.029 A 
ATOM     44  C   UNL A   1      38.108  31.643  30.999  1.00  0.00     0.049 A 
ATOM     45  H   UNL A   1      39.598  30.916  32.259  1.00  0.00     0.167 HD
ATOM     46  C   UNL A   1      42.674  29.170  34.867  1.00  0.00     0.037 A 
ATOM     47  C   UNL A   1      37.516  32.671  31.637  1.00  0.00     0.037 A 
ATOM     48  C   UNL A   1      42.156  30.300  35.594  1.00  0.00     0.049 A 
ATOM     49  C   UNL A   1      38.032  33.086  32.988  1.00  0.00     0.074 A 
ATOM     50  C   UNL A   1      42.539  30.779  36.833  1.00  0.00     0.029 A 
ATOM     51  N   UNL A   1      41.145  31.135  35.137  1.00  0.00    -0.354 N 
ATOM     52  N   UNL A   1      38.981  32.538  33.712  1.00  0.00    -0.248 NA
ATOM     53  C   UNL A   1      37.414  34.268  33.602  1.00  0.00     0.031 C 
ATOM     54  C   UNL A   1      41.742  31.889  37.139  1.00  0.00     0.029 A 
ATOM     55  C   UNL A   1      40.892  32.126  36.070  1.00  0.00     0.049 A 
ATOM     56  H   UNL A   1      40.677  31.036  34.277  1.00  0.00     0.167 HD
ATOM     57  C   UNL A   1      39.096  33.329  34.850  1.00  0.00     0.074 A 
ATOM     58  C   UNL A   1      38.125  34.396  34.714  1.00  0.00     0.031 C 
ATOM     59  C   UNL A   1      39.931  33.188  35.909  1.00  0.00     0.037 A 
BRANCH  46  60
ATOM     60  C   UNL A   1      43.762  28.343  35.497  1.00  0.00     0.058 A 
ATOM     61  C   UNL A   1      45.120  28.595  35.242  1.00  0.00     0.135 A 
ATOM     62  C   UNL A   1      43.447  27.291  36.372  1.00  0.00     0.135 A 
ATOM     63  F   UNL A   1      45.478  29.578  34.400  1.00  0.00    -0.206 F 
ATOM     64  C   UNL A   1      46.125  27.812  35.799  1.00  0.00     0.059 A 
ATOM     65  C   UNL A   1      44.438  26.512  36.965  1.00  0.00     0.059 A 
ATOM     66  F   UNL A   1      42.167  27.004  36.654  1.00  0.00    -0.206 F 
ATOM     67  C   UNL A   1      45.774  26.768  36.656  1.00  0.00     0.060 A 
BRANCH  67  68
ATOM     68  S   UNL A   1      47.088  25.753  37.363  1.00  0.00     0.124 S 
ATOM     69  O   UNL A   1      46.517  24.414  37.243  1.00  0.00    -0.237 OA
ATOM     70  O   UNL A   1      48.216  26.040  36.484  1.00  0.00    -0.237 OA
ATOM     71  O   UNL A   1      47.214  26.261  38.725  1.00  0.00    -0.744 OA
ENDBRANCH  67  68
ENDBRANCH  46  60
BRANCH  47  72
ATOM     72  C   UNL A   1      36.402  33.404  30.982  1.00  0.00     0.058 A 
ATOM     73  C   UNL A   1      36.633  34.231  29.873  1.00  0.00     0.135 A 
ATOM     74  C   UNL A   1      35.080  33.271  31.434  1.00  0.00     0.135 A 
ATOM     75  F   UNL A   1      37.880  34.393  29.404  1.00  0.00    -0.206 F 
ATOM     76  C   UNL A   1      35.597  34.913  29.243  1.00  0.00     0.059 A 
ATOM     77  C   UNL A   1      34.023  33.923  30.806  1.00  0.00     0.059 A 
ATOM     78  F   UNL A   1      34.803  32.475  32.479  1.00  0.00    -0.206 F 
ATOM     79  C   UNL A   1      34.293  34.750  29.716  1.00  0.00     0.060 A 
BRANCH  79  80
ATOM     80  S   UNL A   1      32.947  35.594  28.856  1.00  0.00     0.124 S 
ATOM     81  O   UNL A   1      32.365  34.504  28.083  1.00  0.00    -0.237 OA
ATOM     82  O   UNL A   1      32.141  36.094  29.965  1.00  0.00    -0.237 OA
ATOM     83  O   UNL A   1      33.639  36.621  28.082  1.00  0.00    -0.744 OA
ENDBRANCH  79  80
ENDBRANCH  47  72
BRANCH  59  84
ATOM     84  C   UNL A   1      39.869  34.241  36.980  1.00  0.00     0.058 A 
ATOM     85  C   UNL A   1      40.556  35.459  36.863  1.00  0.00     0.135 A 
ATOM     86  C   UNL A   1      39.079  34.040  38.123  1.00  0.00     0.135 A 
ATOM     87  F   UNL A   1      41.327  35.701  35.791  1.00  0.00    -0.206 F 
ATOM     88  C   UNL A   1      40.489  36.428  37.860  1.00  0.00     0.059 A 
ATOM     89  C   UNL A   1      38.976  35.004  39.119  1.00  0.00     0.059 A 
ATOM     90  F   UNL A   1      38.391  32.896  38.277  1.00  0.00    -0.206 F 
ATOM     91  C   UNL A   1      39.699  36.190  38.986  1.00  0.00     0.060 A 
BRANCH  91  92
ATOM     92  S   UNL A   1      39.609  37.458  40.267  1.00  0.00     0.124 S 
ATOM     93  O   UNL A   1      38.752  38.454  39.633  1.00  0.00    -0.237 OA
ATOM     94  O   UNL A   1      39.017  36.732  41.387  1.00  0.00    -0.237 OA
ATOM     95  O   UNL A   1      41.003  37.853  40.451  1.00  0.00    -0.744 OA
ENDBRANCH  91  92
ENDBRANCH  59  84
ENDBRANCH  33  34
ENDBRANCH  25  28
ENDBRANCH  23  24
ENDBRANCH   1  23
TORSDOF 17
ENDMDL
