MODEL 1
REMARK VINA RESULT:     -12.0      0.000      0.000
REMARK SMILES CC(C)c1cc(OCC(=O)NCCCNC(=O)c2ccc(-c3c4nc(c(-c5c(F)cc(S(=O)(=O)[O-])cc5F)c5ccc([nH]5)c(-c5c(F)cc(S(=O)(=O)[O-])cc5F)c5nc(c(-c6c(F)cc(S(=O)(=O)[O-])cc6F)c6ccc3[nH]6)C=C5)C=C4)cc2)nc(Nc2ccc(F)cc2F)n1
REMARK SMILES IDX 12 1 11 2 9 3 10 4 8 6 7 7 6 8 4 9 5 10 95 11 85 12 84 13
REMARK SMILES IDX 2 14 1 15 3 16 86 17 87 19 88 20 93 21 89 22 92 23 94 24
REMARK SMILES IDX 90 25 91 26 13 27 14 28 15 29 16 30 17 32 18 33 19 34 83 35
REMARK SMILES IDX 20 36 82 37 21 38 22 39 23 40 76 41 24 42 81 43 75 44 77 45
REMARK SMILES IDX 25 46 80 47 74 48 73 49 26 51 60 52 39 53 59 54 40 55 43 56
REMARK SMILES IDX 58 57 78 58 41 59 42 60 57 62 79 63 44 64 27 65 28 66 37 67
REMARK SMILES IDX 29 68 30 69 36 70 38 71 31 72 32 73 33 74 34 75 35 76 61 77
REMARK SMILES IDX 62 78 71 79 63 80 64 81 70 82 72 83 65 84 66 85 67 86 68 87
REMARK SMILES IDX 69 88 45 89 46 90 55 91 47 92 48 93 54 94 56 95 49 96 50 97
REMARK SMILES IDX 51 98 52 99 53 100
REMARK H PARENT 11 5 86 18 15 31 77 50 43 61
REMARK Flexibility Score: inf
ROOT
ATOM      1  C   UNL A   1      34.791  31.086  27.561  1.00  0.00     0.117 C 
ENDROOT
BRANCH   1   2
ATOM      2  N   UNL A   1      33.401  30.710  27.745  1.00  0.00    -0.353 N 
ATOM      3  C   UNL A   1      32.602  29.994  26.903  1.00  0.00     0.258 C 
ATOM      4  O   UNL A   1      31.455  29.717  27.262  1.00  0.00    -0.271 OA
ATOM      5  H   UNL A   1      32.982  31.010  28.583  1.00  0.00     0.163 HD
BRANCH   3   6
ATOM      6  C   UNL A   1      33.144  29.532  25.546  1.00  0.00     0.331 C 
BRANCH   6   7
ATOM      7  O   UNL A   1      33.811  28.283  25.525  1.00  0.00    -0.467 OA
BRANCH   7   8
ATOM      8  C   UNL A   1      33.413  27.349  24.610  1.00  0.00     0.218 A 
ATOM      9  C   UNL A   1      33.477  25.306  23.450  1.00  0.00     0.052 A 
ATOM     10  C   UNL A   1      34.049  26.149  24.375  1.00  0.00     0.092 A 
ATOM     11  N   UNL A   1      32.346  25.657  22.816  1.00  0.00    -0.217 NA
ATOM     12  C   UNL A   1      31.791  26.850  23.077  1.00  0.00     0.230 A 
ATOM     13  N   UNL A   1      32.303  27.721  23.951  1.00  0.00    -0.177 NA
BRANCH   9  14
ATOM     14  C   UNL A   1      34.025  23.917  23.153  1.00  0.00     0.032 C 
ATOM     15  C   UNL A   1      34.043  23.035  24.409  1.00  0.00     0.014 C 
ATOM     16  C   UNL A   1      33.277  23.171  22.041  1.00  0.00     0.014 C 
ENDBRANCH   9  14
BRANCH  12  17
ATOM     17  N   UNL A   1      30.686  27.261  22.338  1.00  0.00    -0.322 N 
ATOM     18  H   UNL A   1      30.470  26.718  21.545  1.00  0.00     0.170 HD
BRANCH  17  19
ATOM     19  C   UNL A   1      29.845  28.351  22.585  1.00  0.00     0.077 A 
ATOM     20  C   UNL A   1      30.234  29.630  22.163  1.00  0.00     0.032 A 
ATOM     21  C   UNL A   1      28.564  28.202  23.151  1.00  0.00     0.149 A 
ATOM     22  C   UNL A   1      29.358  30.714  22.282  1.00  0.00     0.041 A 
ATOM     23  C   UNL A   1      27.696  29.279  23.291  1.00  0.00     0.080 A 
ATOM     24  F   UNL A   1      28.164  27.006  23.611  1.00  0.00    -0.205 F 
ATOM     25  C   UNL A   1      28.099  30.526  22.842  1.00  0.00     0.126 A 
ATOM     26  F   UNL A   1      27.259  31.565  22.937  1.00  0.00    -0.207 F 
ENDBRANCH  17  19
ENDBRANCH  12  17
ENDBRANCH   7   8
ENDBRANCH   6   7
ENDBRANCH   3   6
ENDBRANCH   1   2
BRANCH   1  27
ATOM     27  C   UNL A   1      35.093  32.499  28.047  1.00  0.00     0.042 C 
BRANCH  27  28
ATOM     28  C   UNL A   1      36.052  32.574  29.234  1.00  0.00     0.118 C 
BRANCH  28  29
ATOM     29  N   UNL A   1      35.786  31.561  30.249  1.00  0.00    -0.352 N 
ATOM     30  C   UNL A   1      36.530  30.483  30.657  1.00  0.00     0.251 C 
ATOM     31  H   UNL A   1      34.930  31.670  30.722  1.00  0.00     0.163 HD
ATOM     32  O   UNL A   1      36.022  29.660  31.420  1.00  0.00    -0.269 OA
BRANCH  30  33
ATOM     33  C   UNL A   1      37.915  30.283  30.177  1.00  0.00     0.039 A 
ATOM     34  C   UNL A   1      38.964  30.364  31.098  1.00  0.00     0.014 A 
ATOM     35  C   UNL A   1      38.190  30.040  28.830  1.00  0.00     0.014 A 
ATOM     36  C   UNL A   1      40.275  30.109  30.685  1.00  0.00     0.010 A 
ATOM     37  C   UNL A   1      39.487  29.717  28.432  1.00  0.00     0.010 A 
ATOM     38  C   UNL A   1      40.541  29.731  29.358  1.00  0.00    -0.014 A 
BRANCH  38  39
ATOM     39  C   UNL A   1      41.898  29.293  28.937  1.00  0.00     0.031 A 
ATOM     40  C   UNL A   1      43.023  30.283  28.817  1.00  0.00     0.074 A 
ATOM     41  C   UNL A   1      42.092  28.006  28.585  1.00  0.00     0.049 A 
ATOM     42  N   UNL A   1      44.243  30.097  28.382  1.00  0.00    -0.248 NA
ATOM     43  C   UNL A   1      42.736  31.668  29.221  1.00  0.00     0.031 C 
ATOM     44  C   UNL A   1      41.068  26.958  28.617  1.00  0.00     0.029 A 
ATOM     45  N   UNL A   1      43.208  27.359  28.114  1.00  0.00    -0.354 N 
ATOM     46  C   UNL A   1      44.866  31.337  28.448  1.00  0.00     0.074 A 
ATOM     47  C   UNL A   1      43.874  32.279  28.924  1.00  0.00     0.031 C 
ATOM     48  C   UNL A   1      41.606  25.801  28.201  1.00  0.00     0.029 A 
ATOM     49  C   UNL A   1      42.996  26.031  27.824  1.00  0.00     0.049 A 
ATOM     50  H   UNL A   1      44.078  27.805  27.996  1.00  0.00     0.167 HD
ATOM     51  C   UNL A   1      46.150  31.657  28.155  1.00  0.00     0.037 A 
ATOM     52  C   UNL A   1      43.820  25.106  27.294  1.00  0.00     0.037 A 
ATOM     53  C   UNL A   1      47.132  30.711  27.687  1.00  0.00     0.049 A 
ATOM     54  C   UNL A   1      45.231  25.495  26.945  1.00  0.00     0.074 A 
ATOM     55  C   UNL A   1      48.472  30.927  27.417  1.00  0.00     0.029 A 
ATOM     56  N   UNL A   1      46.880  29.375  27.407  1.00  0.00    -0.354 N 
ATOM     57  N   UNL A   1      45.823  26.658  27.080  1.00  0.00    -0.248 NA
ATOM     58  C   UNL A   1      46.087  24.446  26.372  1.00  0.00     0.031 C 
ATOM     59  C   UNL A   1      49.017  29.738  26.920  1.00  0.00     0.029 A 
ATOM     60  C   UNL A   1      48.031  28.763  26.936  1.00  0.00     0.049 A 
ATOM     61  H   UNL A   1      46.012  28.928  27.526  1.00  0.00     0.167 HD
ATOM     62  C   UNL A   1      47.126  26.476  26.628  1.00  0.00     0.074 A 
ATOM     63  C   UNL A   1      47.240  25.087  26.235  1.00  0.00     0.031 C 
ATOM     64  C   UNL A   1      48.135  27.379  26.543  1.00  0.00     0.037 A 
BRANCH  51  65
ATOM     65  C   UNL A   1      46.571  33.094  28.324  1.00  0.00     0.058 A 
ATOM     66  C   UNL A   1      46.453  34.026  27.282  1.00  0.00     0.135 A 
ATOM     67  C   UNL A   1      47.052  33.556  29.561  1.00  0.00     0.135 A 
ATOM     68  F   UNL A   1      46.010  33.638  26.074  1.00  0.00    -0.206 F 
ATOM     69  C   UNL A   1      46.821  35.357  27.449  1.00  0.00     0.059 A 
ATOM     70  C   UNL A   1      47.398  34.889  29.760  1.00  0.00     0.059 A 
ATOM     71  F   UNL A   1      47.184  32.709  30.594  1.00  0.00    -0.206 F 
ATOM     72  C   UNL A   1      47.292  35.780  28.693  1.00  0.00     0.060 A 
BRANCH  72  73
ATOM     73  S   UNL A   1      47.757  37.513  28.894  1.00  0.00     0.124 S 
ATOM     74  O   UNL A   1      46.503  38.190  28.574  1.00  0.00    -0.237 OA
ATOM     75  O   UNL A   1      48.165  37.565  30.294  1.00  0.00    -0.237 OA
ATOM     76  O   UNL A   1      48.831  37.694  27.923  1.00  0.00    -0.744 OA
ENDBRANCH  72  73
ENDBRANCH  51  65
BRANCH  52  77
ATOM     77  C   UNL A   1      43.329  23.721  27.060  1.00  0.00     0.058 A 
ATOM     78  C   UNL A   1      42.975  23.286  25.774  1.00  0.00     0.135 A 
ATOM     79  C   UNL A   1      43.216  22.800  28.114  1.00  0.00     0.135 A 
ATOM     80  F   UNL A   1      43.057  24.132  24.735  1.00  0.00    -0.206 F 
ATOM     81  C   UNL A   1      42.512  21.996  25.542  1.00  0.00     0.059 A 
ATOM     82  C   UNL A   1      42.784  21.495  27.902  1.00  0.00     0.059 A 
ATOM     83  F   UNL A   1      43.556  23.159  29.361  1.00  0.00    -0.206 F 
ATOM     84  C   UNL A   1      42.424  21.105  26.613  1.00  0.00     0.060 A 
BRANCH  84  85
ATOM     85  S   UNL A   1      41.870  19.416  26.292  1.00  0.00     0.124 S 
ATOM     86  O   UNL A   1      40.432  19.604  26.136  1.00  0.00    -0.237 OA
ATOM     87  O   UNL A   1      42.606  19.080  25.078  1.00  0.00    -0.237 OA
ATOM     88  O   UNL A   1      42.287  18.692  27.489  1.00  0.00    -0.744 OA
ENDBRANCH  84  85
ENDBRANCH  52  77
BRANCH  64  89
ATOM     89  C   UNL A   1      49.459  26.890  26.024  1.00  0.00     0.058 A 
ATOM     90  C   UNL A   1      49.831  27.055  24.679  1.00  0.00     0.135 A 
ATOM     91  C   UNL A   1      50.388  26.290  26.890  1.00  0.00     0.135 A 
ATOM     92  F   UNL A   1      48.978  27.614  23.806  1.00  0.00    -0.206 F 
ATOM     93  C   UNL A   1      51.066  26.621  24.208  1.00  0.00     0.059 A 
ATOM     94  C   UNL A   1      51.641  25.878  26.446  1.00  0.00     0.059 A 
ATOM     95  F   UNL A   1      50.088  26.116  28.187  1.00  0.00    -0.206 F 
ATOM     96  C   UNL A   1      51.966  26.036  25.100  1.00  0.00     0.060 A 
BRANCH  96  97
ATOM     97  S   UNL A   1      53.577  25.508  24.481  1.00  0.00     0.124 S 
ATOM     98  O   UNL A   1      53.550  24.078  24.768  1.00  0.00    -0.237 OA
ATOM     99  O   UNL A   1      53.503  25.873  23.068  1.00  0.00    -0.237 OA
ATOM    100  O   UNL A   1      54.520  26.291  25.275  1.00  0.00    -0.744 OA
ENDBRANCH  96  97
ENDBRANCH  64  89
ENDBRANCH  38  39
ENDBRANCH  30  33
ENDBRANCH  28  29
ENDBRANCH  27  28
ENDBRANCH   1  27
TORSDOF 18
ENDMDL
MODEL 2
REMARK VINA RESULT:     -11.8      0.459      8.107
REMARK SMILES CC(C)c1cc(OCC(=O)NCCCNC(=O)c2ccc(-c3c4nc(c(-c5c(F)cc(S(=O)(=O)[O-])cc5F)c5ccc([nH]5)c(-c5c(F)cc(S(=O)(=O)[O-])cc5F)c5nc(c(-c6c(F)cc(S(=O)(=O)[O-])cc6F)c6ccc3[nH]6)C=C5)C=C4)cc2)nc(Nc2ccc(F)cc2F)n1
REMARK SMILES IDX 12 1 11 2 9 3 10 4 8 6 7 7 6 8 4 9 5 10 95 11 85 12 84 13
REMARK SMILES IDX 2 14 1 15 3 16 86 17 87 19 88 20 93 21 89 22 92 23 94 24
REMARK SMILES IDX 90 25 91 26 13 27 14 28 15 29 16 30 17 32 18 33 19 34 83 35
REMARK SMILES IDX 20 36 82 37 21 38 22 39 23 40 76 41 24 42 81 43 75 44 77 45
REMARK SMILES IDX 25 46 80 47 74 48 73 49 26 51 60 52 39 53 59 54 40 55 43 56
REMARK SMILES IDX 58 57 78 58 41 59 42 60 57 62 79 63 44 64 27 65 28 66 37 67
REMARK SMILES IDX 29 68 30 69 36 70 38 71 31 72 32 73 33 74 34 75 35 76 61 77
REMARK SMILES IDX 62 78 71 79 63 80 64 81 70 82 72 83 65 84 66 85 67 86 68 87
REMARK SMILES IDX 69 88 45 89 46 90 55 91 47 92 48 93 54 94 56 95 49 96 50 97
REMARK SMILES IDX 51 98 52 99 53 100
REMARK H PARENT 11 5 86 18 15 31 77 50 43 61
REMARK Flexibility Score: inf
ROOT
ATOM      1  C   UNL A   1      34.885  30.891  27.618  1.00  0.00     0.117 C 
ENDROOT
BRANCH   1   2
ATOM      2  N   UNL A   1      33.574  30.334  27.895  1.00  0.00    -0.353 N 
ATOM      3  C   UNL A   1      32.756  29.640  27.054  1.00  0.00     0.258 C 
ATOM      4  O   UNL A   1      31.696  29.187  27.491  1.00  0.00    -0.271 OA
ATOM      5  H   UNL A   1      33.231  30.475  28.807  1.00  0.00     0.163 HD
BRANCH   3   6
ATOM      6  C   UNL A   1      33.174  29.419  25.595  1.00  0.00     0.331 C 
BRANCH   6   7
ATOM      7  O   UNL A   1      33.958  28.270  25.330  1.00  0.00    -0.467 OA
BRANCH   7   8
ATOM      8  C   UNL A   1      33.463  27.330  24.470  1.00  0.00     0.218 A 
ATOM      9  C   UNL A   1      33.289  25.216  23.457  1.00  0.00     0.052 A 
ATOM     10  C   UNL A   1      33.944  26.045  24.340  1.00  0.00     0.092 A 
ATOM     11  N   UNL A   1      32.229  25.662  22.763  1.00  0.00    -0.217 NA
ATOM     12  C   UNL A   1      31.828  26.932  22.921  1.00  0.00     0.230 A 
ATOM     13  N   UNL A   1      32.428  27.792  23.750  1.00  0.00    -0.177 NA
BRANCH   9  14
ATOM     14  C   UNL A   1      33.659  23.751  23.275  1.00  0.00     0.032 C 
ATOM     15  C   UNL A   1      33.244  23.230  21.892  1.00  0.00     0.014 C 
ATOM     16  C   UNL A   1      35.148  23.448  23.486  1.00  0.00     0.014 C 
ENDBRANCH   9  14
BRANCH  12  17
ATOM     17  N   UNL A   1      30.805  27.426  22.119  1.00  0.00    -0.322 N 
ATOM     18  H   UNL A   1      30.699  26.997  21.239  1.00  0.00     0.170 HD
BRANCH  17  19
ATOM     19  C   UNL A   1      29.906  28.458  22.411  1.00  0.00     0.077 A 
ATOM     20  C   UNL A   1      30.195  29.763  21.990  1.00  0.00     0.032 A 
ATOM     21  C   UNL A   1      28.661  28.222  23.024  1.00  0.00     0.149 A 
ATOM     22  C   UNL A   1      29.257  30.787  22.155  1.00  0.00     0.041 A 
ATOM     23  C   UNL A   1      27.731  29.239  23.211  1.00  0.00     0.080 A 
ATOM     24  F   UNL A   1      28.356  26.998  23.485  1.00  0.00    -0.205 F 
ATOM     25  C   UNL A   1      28.036  30.513  22.761  1.00  0.00     0.126 A 
ATOM     26  F   UNL A   1      27.136  31.495  22.901  1.00  0.00    -0.207 F 
ENDBRANCH  17  19
ENDBRANCH  12  17
ENDBRANCH   7   8
ENDBRANCH   6   7
ENDBRANCH   3   6
ENDBRANCH   1   2
BRANCH   1  27
ATOM     27  C   UNL A   1      35.103  32.251  28.271  1.00  0.00     0.042 C 
BRANCH  27  28
ATOM     28  C   UNL A   1      36.142  32.262  29.391  1.00  0.00     0.118 C 
BRANCH  28  29
ATOM     29  N   UNL A   1      35.955  31.183  30.355  1.00  0.00    -0.352 N 
ATOM     30  C   UNL A   1      36.745  30.102  30.656  1.00  0.00     0.251 C 
ATOM     31  H   UNL A   1      35.124  31.242  30.879  1.00  0.00     0.163 HD
ATOM     32  O   UNL A   1      36.297  29.222  31.393  1.00  0.00    -0.269 OA
BRANCH  30  33
ATOM     33  C   UNL A   1      38.105  29.968  30.091  1.00  0.00     0.039 A 
ATOM     34  C   UNL A   1      39.194  29.910  30.966  1.00  0.00     0.014 A 
ATOM     35  C   UNL A   1      38.319  29.919  28.711  1.00  0.00     0.014 A 
ATOM     36  C   UNL A   1      40.483  29.712  30.463  1.00  0.00     0.010 A 
ATOM     37  C   UNL A   1      39.593  29.650  28.214  1.00  0.00     0.010 A 
ATOM     38  C   UNL A   1      40.687  29.527  29.085  1.00  0.00    -0.014 A 
BRANCH  38  39
ATOM     39  C   UNL A   1      42.019  29.148  28.546  1.00  0.00     0.031 A 
ATOM     40  C   UNL A   1      42.309  27.730  28.136  1.00  0.00     0.074 A 
ATOM     41  C   UNL A   1      42.997  30.076  28.501  1.00  0.00     0.049 A 
ATOM     42  N   UNL A   1      43.435  27.203  27.730  1.00  0.00    -0.248 NA
ATOM     43  C   UNL A   1      41.192  26.776  28.211  1.00  0.00     0.031 C 
ATOM     44  C   UNL A   1      42.852  31.475  28.910  1.00  0.00     0.029 A 
ATOM     45  N   UNL A   1      44.310  29.983  28.109  1.00  0.00    -0.354 N 
ATOM     46  C   UNL A   1      43.170  25.857  27.511  1.00  0.00     0.074 A 
ATOM     47  C   UNL A   1      41.784  25.639  27.872  1.00  0.00     0.031 C 
ATOM     48  C   UNL A   1      44.021  32.111  28.734  1.00  0.00     0.029 A 
ATOM     49  C   UNL A   1      45.012  31.157  28.249  1.00  0.00     0.049 A 
ATOM     50  H   UNL A   1      44.710  29.153  27.761  1.00  0.00     0.167 HD
ATOM     51  C   UNL A   1      43.999  24.895  27.036  1.00  0.00     0.037 A 
ATOM     52  C   UNL A   1      46.314  31.433  28.032  1.00  0.00     0.037 A 
ATOM     53  C   UNL A   1      45.376  25.123  26.674  1.00  0.00     0.049 A 
ATOM     54  C   UNL A   1      47.222  30.339  27.538  1.00  0.00     0.074 A 
ATOM     55  C   UNL A   1      46.280  24.227  26.131  1.00  0.00     0.029 A 
ATOM     56  N   UNL A   1      46.051  26.326  26.827  1.00  0.00    -0.354 N 
ATOM     57  N   UNL A   1      46.935  29.088  27.270  1.00  0.00    -0.248 NA
ATOM     58  C   UNL A   1      48.630  30.696  27.316  1.00  0.00     0.031 C 
ATOM     59  C   UNL A   1      47.516  24.871  26.009  1.00  0.00     0.029 A 
ATOM     60  C   UNL A   1      47.368  26.186  26.420  1.00  0.00     0.049 A 
ATOM     61  H   UNL A   1      45.652  27.156  27.173  1.00  0.00     0.167 HD
ATOM     62  C   UNL A   1      48.122  28.513  26.829  1.00  0.00     0.074 A 
ATOM     63  C   UNL A   1      49.124  29.558  26.847  1.00  0.00     0.031 C 
ATOM     64  C   UNL A   1      48.361  27.233  26.446  1.00  0.00     0.037 A 
BRANCH  51  65
ATOM     65  C   UNL A   1      43.445  23.502  26.886  1.00  0.00     0.058 A 
ATOM     66  C   UNL A   1      43.285  22.649  27.989  1.00  0.00     0.135 A 
ATOM     67  C   UNL A   1      43.023  23.033  25.631  1.00  0.00     0.135 A 
ATOM     68  F   UNL A   1      43.682  23.040  29.211  1.00  0.00    -0.206 F 
ATOM     69  C   UNL A   1      42.751  21.371  27.850  1.00  0.00     0.059 A 
ATOM     70  C   UNL A   1      42.459  21.770  25.473  1.00  0.00     0.059 A 
ATOM     71  F   UNL A   1      43.151  23.807  24.542  1.00  0.00    -0.206 F 
ATOM     72  C   UNL A   1      42.340  20.940  26.587  1.00  0.00     0.060 A 
BRANCH  72  73
ATOM     73  S   UNL A   1      41.642  19.283  26.428  1.00  0.00     0.124 S 
ATOM     74  O   UNL A   1      41.638  18.834  27.817  1.00  0.00    -0.237 OA
ATOM     75  O   UNL A   1      40.331  19.552  25.846  1.00  0.00    -0.237 OA
ATOM     76  O   UNL A   1      42.586  18.598  25.551  1.00  0.00    -0.744 OA
ENDBRANCH  72  73
ENDBRANCH  51  65
BRANCH  52  77
ATOM     77  C   UNL A   1      46.834  32.804  28.282  1.00  0.00     0.058 A 
ATOM     78  C   UNL A   1      46.778  33.791  27.287  1.00  0.00     0.135 A 
ATOM     79  C   UNL A   1      47.384  33.160  29.524  1.00  0.00     0.135 A 
ATOM     80  F   UNL A   1      46.269  33.498  26.080  1.00  0.00    -0.206 F 
ATOM     81  C   UNL A   1      47.262  35.076  27.506  1.00  0.00     0.059 A 
ATOM     82  C   UNL A   1      47.848  34.447  29.777  1.00  0.00     0.059 A 
ATOM     83  F   UNL A   1      47.447  32.259  30.516  1.00  0.00    -0.206 F 
ATOM     84  C   UNL A   1      47.792  35.396  28.758  1.00  0.00     0.060 A 
BRANCH  84  85
ATOM     85  S   UNL A   1      48.372  37.082  29.048  1.00  0.00     0.124 S 
ATOM     86  O   UNL A   1      48.894  37.443  27.735  1.00  0.00    -0.237 OA
ATOM     87  O   UNL A   1      47.145  37.760  29.457  1.00  0.00    -0.237 OA
ATOM     88  O   UNL A   1      49.369  36.918  30.101  1.00  0.00    -0.744 OA
ENDBRANCH  84  85
ENDBRANCH  52  77
BRANCH  64  89
ATOM     89  C   UNL A   1      49.756  26.894  25.996  1.00  0.00     0.058 A 
ATOM     90  C   UNL A   1      50.169  27.085  24.668  1.00  0.00     0.135 A 
ATOM     91  C   UNL A   1      50.705  26.415  26.914  1.00  0.00     0.135 A 
ATOM     92  F   UNL A   1      49.300  27.532  23.747  1.00  0.00    -0.206 F 
ATOM     93  C   UNL A   1      51.467  26.791  24.261  1.00  0.00     0.059 A 
ATOM     94  C   UNL A   1      52.017  26.144  26.535  1.00  0.00     0.059 A 
ATOM     95  F   UNL A   1      50.366  26.222  28.199  1.00  0.00    -0.206 F 
ATOM     96  C   UNL A   1      52.385  26.323  25.203  1.00  0.00     0.060 A 
BRANCH  96  97
ATOM     97  S   UNL A   1      54.073  25.978  24.667  1.00  0.00     0.124 S 
ATOM     98  O   UNL A   1      54.846  26.852  25.544  1.00  0.00    -0.237 OA
ATOM     99  O   UNL A   1      54.197  24.547  24.930  1.00  0.00    -0.237 OA
ATOM    100  O   UNL A   1      54.067  26.352  23.255  1.00  0.00    -0.744 OA
ENDBRANCH  96  97
ENDBRANCH  64  89
ENDBRANCH  38  39
ENDBRANCH  30  33
ENDBRANCH  28  29
ENDBRANCH  27  28
ENDBRANCH   1  27
TORSDOF 18
ENDMDL
MODEL 3
REMARK VINA RESULT:     -11.7      3.409      8.914
REMARK SMILES CC(C)c1cc(OCC(=O)NCCCNC(=O)c2ccc(-c3c4nc(c(-c5c(F)cc(S(=O)(=O)[O-])cc5F)c5ccc([nH]5)c(-c5c(F)cc(S(=O)(=O)[O-])cc5F)c5nc(c(-c6c(F)cc(S(=O)(=O)[O-])cc6F)c6ccc3[nH]6)C=C5)C=C4)cc2)nc(Nc2ccc(F)cc2F)n1
REMARK SMILES IDX 12 1 11 2 9 3 10 4 8 6 7 7 6 8 4 9 5 10 95 11 85 12 84 13
REMARK SMILES IDX 2 14 1 15 3 16 86 17 87 19 88 20 93 21 89 22 92 23 94 24
REMARK SMILES IDX 90 25 91 26 13 27 14 28 15 29 16 30 17 32 18 33 19 34 83 35
REMARK SMILES IDX 20 36 82 37 21 38 22 39 23 40 76 41 24 42 81 43 75 44 77 45
REMARK SMILES IDX 25 46 80 47 74 48 73 49 26 51 60 52 39 53 59 54 40 55 43 56
REMARK SMILES IDX 58 57 78 58 41 59 42 60 57 62 79 63 44 64 27 65 28 66 37 67
REMARK SMILES IDX 29 68 30 69 36 70 38 71 31 72 32 73 33 74 34 75 35 76 61 77
REMARK SMILES IDX 62 78 71 79 63 80 64 81 70 82 72 83 65 84 66 85 67 86 68 87
REMARK SMILES IDX 69 88 45 89 46 90 55 91 47 92 48 93 54 94 56 95 49 96 50 97
REMARK SMILES IDX 51 98 52 99 53 100
REMARK H PARENT 11 5 86 18 15 31 77 50 43 61
REMARK Flexibility Score: inf
ROOT
ATOM      1  C   UNL A   1      34.258  24.297  24.591  1.00  0.00     0.117 C 
ENDROOT
BRANCH   1   2
ATOM      2  N   UNL A   1      34.336  24.726  23.206  1.00  0.00    -0.353 N 
ATOM      3  C   UNL A   1      33.336  25.203  22.413  1.00  0.00     0.258 C 
ATOM      4  O   UNL A   1      33.608  25.579  21.271  1.00  0.00    -0.271 OA
ATOM      5  H   UNL A   1      35.224  24.664  22.787  1.00  0.00     0.163 HD
BRANCH   3   6
ATOM      6  C   UNL A   1      31.904  25.282  22.956  1.00  0.00     0.331 C 
BRANCH   6   7
ATOM      7  O   UNL A   1      31.037  26.202  22.318  1.00  0.00    -0.467 OA
BRANCH   7   8
ATOM      8  C   UNL A   1      30.809  27.407  22.923  1.00  0.00     0.218 A 
ATOM      9  C   UNL A   1      29.985  29.600  23.113  1.00  0.00     0.052 A 
ATOM     10  C   UNL A   1      30.173  28.479  22.335  1.00  0.00     0.092 A 
ATOM     11  N   UNL A   1      30.409  29.624  24.387  1.00  0.00    -0.217 NA
ATOM     12  C   UNL A   1      31.041  28.552  24.888  1.00  0.00     0.230 A 
ATOM     13  N   UNL A   1      31.269  27.439  24.184  1.00  0.00    -0.177 NA
BRANCH   9  14
ATOM     14  C   UNL A   1      29.226  30.824  22.621  1.00  0.00     0.032 C 
ATOM     15  C   UNL A   1      28.018  30.432  21.759  1.00  0.00     0.014 C 
ATOM     16  C   UNL A   1      28.748  31.758  23.740  1.00  0.00     0.014 C 
ENDBRANCH   9  14
BRANCH  12  17
ATOM     17  N   UNL A   1      31.581  28.620  26.168  1.00  0.00    -0.322 N 
ATOM     18  H   UNL A   1      31.091  28.135  26.871  1.00  0.00     0.170 HD
BRANCH  17  19
ATOM     19  C   UNL A   1      32.738  29.292  26.578  1.00  0.00     0.077 A 
ATOM     20  C   UNL A   1      32.652  30.637  26.964  1.00  0.00     0.032 A 
ATOM     21  C   UNL A   1      33.978  28.641  26.722  1.00  0.00     0.149 A 
ATOM     22  C   UNL A   1      33.765  31.294  27.498  1.00  0.00     0.041 A 
ATOM     23  C   UNL A   1      35.094  29.294  27.233  1.00  0.00     0.080 A 
ATOM     24  F   UNL A   1      34.122  27.366  26.324  1.00  0.00    -0.205 F 
ATOM     25  C   UNL A   1      34.971  30.616  27.629  1.00  0.00     0.126 A 
ATOM     26  F   UNL A   1      36.028  31.247  28.158  1.00  0.00    -0.207 F 
ENDBRANCH  17  19
ENDBRANCH  12  17
ENDBRANCH   7   8
ENDBRANCH   6   7
ENDBRANCH   3   6
ENDBRANCH   1   2
BRANCH   1  27
ATOM     27  C   UNL A   1      35.277  23.217  24.937  1.00  0.00     0.042 C 
BRANCH  27  28
ATOM     28  C   UNL A   1      36.364  23.657  25.917  1.00  0.00     0.118 C 
BRANCH  28  29
ATOM     29  N   UNL A   1      37.439  22.681  26.054  1.00  0.00    -0.352 N 
ATOM     30  C   UNL A   1      38.760  22.843  26.387  1.00  0.00     0.251 C 
ATOM     31  H   UNL A   1      37.172  21.749  25.879  1.00  0.00     0.163 HD
ATOM     32  O   UNL A   1      39.527  21.885  26.273  1.00  0.00    -0.269 OA
BRANCH  30  33
ATOM     33  C   UNL A   1      39.277  24.148  26.854  1.00  0.00     0.039 A 
ATOM     34  C   UNL A   1      39.166  24.469  28.210  1.00  0.00     0.014 A 
ATOM     35  C   UNL A   1      39.849  25.063  25.967  1.00  0.00     0.014 A 
ATOM     36  C   UNL A   1      39.710  25.664  28.689  1.00  0.00     0.010 A 
ATOM     37  C   UNL A   1      40.453  26.220  26.455  1.00  0.00     0.010 A 
ATOM     38  C   UNL A   1      40.406  26.526  27.824  1.00  0.00    -0.014 A 
BRANCH  38  39
ATOM     39  C   UNL A   1      41.135  27.714  28.340  1.00  0.00     0.031 A 
ATOM     40  C   UNL A   1      40.388  28.880  28.928  1.00  0.00     0.074 A 
ATOM     41  C   UNL A   1      42.475  27.771  28.204  1.00  0.00     0.049 A 
ATOM     42  N   UNL A   1      40.851  30.031  29.344  1.00  0.00    -0.248 NA
ATOM     43  C   UNL A   1      38.929  28.743  29.045  1.00  0.00     0.031 C 
ATOM     44  C   UNL A   1      43.309  26.722  27.611  1.00  0.00     0.029 A 
ATOM     45  N   UNL A   1      43.373  28.757  28.535  1.00  0.00    -0.354 N 
ATOM     46  C   UNL A   1      39.745  30.759  29.762  1.00  0.00     0.074 A 
ATOM     47  C   UNL A   1      38.581  29.936  29.508  1.00  0.00     0.031 C 
ATOM     48  C   UNL A   1      44.594  27.112  27.635  1.00  0.00     0.029 A 
ATOM     49  C   UNL A   1      44.672  28.457  28.196  1.00  0.00     0.049 A 
ATOM     50  H   UNL A   1      43.111  29.598  28.974  1.00  0.00     0.167 HD
ATOM     51  C   UNL A   1      39.704  31.993  30.322  1.00  0.00     0.037 A 
ATOM     52  C   UNL A   1      45.799  29.188  28.304  1.00  0.00     0.037 A 
ATOM     53  C   UNL A   1      40.869  32.803  30.576  1.00  0.00     0.049 A 
ATOM     54  C   UNL A   1      45.722  30.569  28.897  1.00  0.00     0.074 A 
ATOM     55  C   UNL A   1      40.936  34.042  31.190  1.00  0.00     0.029 A 
ATOM     56  N   UNL A   1      42.167  32.465  30.221  1.00  0.00    -0.354 N 
ATOM     57  N   UNL A   1      44.675  31.213  29.352  1.00  0.00    -0.248 NA
ATOM     58  C   UNL A   1      46.981  31.321  28.993  1.00  0.00     0.031 C 
ATOM     59  C   UNL A   1      42.265  34.477  31.156  1.00  0.00     0.029 A 
ATOM     60  C   UNL A   1      43.037  33.484  30.574  1.00  0.00     0.049 A 
ATOM     61  H   UNL A   1      42.431  31.624  29.784  1.00  0.00     0.167 HD
ATOM     62  C   UNL A   1      45.150  32.439  29.806  1.00  0.00     0.074 A 
ATOM     63  C   UNL A   1      46.582  32.436  29.589  1.00  0.00     0.031 C 
ATOM     64  C   UNL A   1      44.462  33.474  30.350  1.00  0.00     0.037 A 
BRANCH  51  65
ATOM     65  C   UNL A   1      38.355  32.551  30.694  1.00  0.00     0.058 A 
ATOM     66  C   UNL A   1      37.775  32.306  31.948  1.00  0.00     0.135 A 
ATOM     67  C   UNL A   1      37.656  33.383  29.804  1.00  0.00     0.135 A 
ATOM     68  F   UNL A   1      38.392  31.508  32.835  1.00  0.00    -0.206 F 
ATOM     69  C   UNL A   1      36.539  32.842  32.297  1.00  0.00     0.059 A 
ATOM     70  C   UNL A   1      36.433  33.955  30.142  1.00  0.00     0.059 A 
ATOM     71  F   UNL A   1      38.164  33.654  28.591  1.00  0.00    -0.206 F 
ATOM     72  C   UNL A   1      35.876  33.667  31.387  1.00  0.00     0.060 A 
BRANCH  72  73
ATOM     73  S   UNL A   1      34.278  34.360  31.861  1.00  0.00     0.124 S 
ATOM     74  O   UNL A   1      33.625  34.503  30.562  1.00  0.00    -0.237 OA
ATOM     75  O   UNL A   1      33.734  33.323  32.731  1.00  0.00    -0.237 OA
ATOM     76  O   UNL A   1      34.631  35.611  32.525  1.00  0.00    -0.744 OA
ENDBRANCH  72  73
ENDBRANCH  51  65
BRANCH  52  77
ATOM     77  C   UNL A   1      47.096  28.627  27.837  1.00  0.00     0.058 A 
ATOM     78  C   UNL A   1      47.951  27.952  28.721  1.00  0.00     0.135 A 
ATOM     79  C   UNL A   1      47.500  28.741  26.498  1.00  0.00     0.135 A 
ATOM     80  F   UNL A   1      47.613  27.824  30.014  1.00  0.00    -0.206 F 
ATOM     81  C   UNL A   1      49.167  27.425  28.300  1.00  0.00     0.059 A 
ATOM     82  C   UNL A   1      48.698  28.196  26.046  1.00  0.00     0.059 A 
ATOM     83  F   UNL A   1      46.713  29.363  25.608  1.00  0.00    -0.206 F 
ATOM     84  C   UNL A   1      49.530  27.548  26.958  1.00  0.00     0.060 A 
BRANCH  84  85
ATOM     85  S   UNL A   1      51.087  26.815  26.411  1.00  0.00     0.124 S 
ATOM     86  O   UNL A   1      51.579  26.215  27.646  1.00  0.00    -0.237 OA
ATOM     87  O   UNL A   1      50.640  25.883  25.381  1.00  0.00    -0.237 OA
ATOM     88  O   UNL A   1      51.845  27.962  25.921  1.00  0.00    -0.744 OA
ENDBRANCH  84  85
ENDBRANCH  52  77
BRANCH  64  89
ATOM     89  C   UNL A   1      45.251  34.685  30.769  1.00  0.00     0.058 A 
ATOM     90  C   UNL A   1      45.452  35.771  29.902  1.00  0.00     0.135 A 
ATOM     91  C   UNL A   1      45.774  34.781  32.068  1.00  0.00     0.135 A 
ATOM     92  F   UNL A   1      44.981  35.729  28.645  1.00  0.00    -0.206 F 
ATOM     93  C   UNL A   1      46.163  36.899  30.301  1.00  0.00     0.059 A 
ATOM     94  C   UNL A   1      46.462  35.912  32.499  1.00  0.00     0.059 A 
ATOM     95  F   UNL A   1      45.605  33.775  32.942  1.00  0.00    -0.206 F 
ATOM     96  C   UNL A   1      46.662  36.961  31.603  1.00  0.00     0.060 A 
BRANCH  96  97
ATOM     97  S   UNL A   1      47.554  38.444  32.117  1.00  0.00     0.124 S 
ATOM     98  O   UNL A   1      47.203  39.382  31.056  1.00  0.00    -0.237 OA
ATOM     99  O   UNL A   1      46.969  38.720  33.426  1.00  0.00    -0.237 OA
ATOM    100  O   UNL A   1      48.949  38.012  32.139  1.00  0.00    -0.744 OA
ENDBRANCH  96  97
ENDBRANCH  64  89
ENDBRANCH  38  39
ENDBRANCH  30  33
ENDBRANCH  28  29
ENDBRANCH  27  28
ENDBRANCH   1  27
TORSDOF 18
ENDMDL
