MODEL 1
REMARK VINA RESULT:     -13.3      0.000      0.000
REMARK SMILES O=C(Cn1nc(C(=O)NCCCNC(=O)c2ccc(-c3c4nc(c(-c5c(F)cc(S(=O)(=O)[O-])cc5F)c5ccc([nH]5)c(-c5c(F)cc(S(=O)(=O)[O-])cc5F)c5nc(c(-c6c(F)cc(S(=O)(=O)[O-])cc6F)c6ccc3[nH]6)C=C5)C=C4)cc2)c2ccccc2c1=O)Nc1ccc2c(c1)C(=O)c1ccccc1C2=O
REMARK SMILES IDX 11 1 10 2 9 3 7 4 8 5 6 7 4 8 5 9 88 10 87 11 89 12 82 13
REMARK SMILES IDX 86 14 83 15 85 16 84 17 3 18 2 19 1 20 90 21 91 23 92 24
REMARK SMILES IDX 96 25 93 26 95 27 94 28 97 29 105 30 98 31 99 32 104 33
REMARK SMILES IDX 106 34 100 35 103 36 101 37 102 38 12 39 13 40 14 41 15 43
REMARK SMILES IDX 16 44 17 45 81 46 18 47 80 48 19 49 20 50 21 51 74 52 22 53
REMARK SMILES IDX 79 54 73 55 75 56 23 57 78 58 72 59 71 60 24 62 58 63 37 64
REMARK SMILES IDX 57 65 38 66 41 67 56 68 76 69 39 70 40 71 55 73 77 74 42 75
REMARK SMILES IDX 25 76 26 77 35 78 27 79 28 80 34 81 36 82 29 83 30 84 31 85
REMARK SMILES IDX 32 86 33 87 59 88 60 89 69 90 61 91 62 92 68 93 70 94 63 95
REMARK SMILES IDX 64 96 65 97 66 98 67 99 43 100 44 101 53 102 45 103 46 104
REMARK SMILES IDX 52 105 54 106 47 107 48 108 49 109 50 110 51 111
REMARK H PARENT 9 6 90 22 13 42 75 61 41 72
REMARK Flexibility Score: inf
ROOT
ATOM      1  C   UNL A   1      33.036  27.521  26.880  1.00  0.00     0.042 C 
ENDROOT
BRANCH   1   2
ATOM      2  C   UNL A   1      33.084  26.174  26.178  1.00  0.00     0.118 C 
BRANCH   2   3
ATOM      3  N   UNL A   1      34.391  25.554  26.207  1.00  0.00    -0.351 N 
ATOM      4  C   UNL A   1      34.945  24.559  25.434  1.00  0.00     0.272 C 
ATOM      5  O   UNL A   1      36.157  24.394  25.536  1.00  0.00    -0.267 OA
ATOM      6  H   UNL A   1      34.991  25.904  26.905  1.00  0.00     0.163 HD
BRANCH   4   7
ATOM      7  C   UNL A   1      34.106  23.695  24.463  1.00  0.00     0.156 A 
ATOM      8  N   UNL A   1      33.225  23.440  22.323  1.00  0.00    -0.219 N 
ATOM      9  N   UNL A   1      33.862  24.184  23.283  1.00  0.00    -0.163 NA
ATOM     10  C   UNL A   1      32.807  22.132  22.521  1.00  0.00     0.275 A 
ATOM     11  C   UNL A   1      33.003  21.581  23.878  1.00  0.00     0.051 A 
ATOM     12  O   UNL A   1      32.265  21.442  21.662  1.00  0.00    -0.267 OA
ATOM     13  C   UNL A   1      33.625  22.347  24.864  1.00  0.00     0.020 A 
ATOM     14  C   UNL A   1      32.519  20.295  24.172  1.00  0.00     0.014 A 
ATOM     15  C   UNL A   1      33.728  21.818  26.159  1.00  0.00     0.011 A 
ATOM     16  C   UNL A   1      32.647  19.773  25.458  1.00  0.00     0.001 A 
ATOM     17  C   UNL A   1      33.248  20.536  26.451  1.00  0.00     0.001 A 
BRANCH   8  18
ATOM     18  C   UNL A   1      33.050  24.084  21.013  1.00  0.00     0.248 C 
BRANCH  18  19
ATOM     19  C   UNL A   1      32.659  25.555  21.199  1.00  0.00     0.246 C 
ATOM     20  O   UNL A   1      33.425  26.470  20.902  1.00  0.00    -0.273 OA
ATOM     21  N   UNL A   1      31.422  25.727  21.816  1.00  0.00    -0.324 N 
ATOM     22  H   UNL A   1      30.716  25.073  21.610  1.00  0.00     0.169 HD
BRANCH  21  23
ATOM     23  C   UNL A   1      31.101  26.772  22.718  1.00  0.00     0.042 A 
ATOM     24  C   UNL A   1      32.151  27.505  23.301  1.00  0.00     0.027 A 
ATOM     25  C   UNL A   1      29.785  27.234  22.861  1.00  0.00     0.039 A 
ATOM     26  C   UNL A   1      31.896  28.717  23.967  1.00  0.00     0.015 A 
ATOM     27  C   UNL A   1      29.563  28.478  23.439  1.00  0.00     0.036 A 
ATOM     28  C   UNL A   1      30.596  29.219  23.989  1.00  0.00     0.034 A 
ATOM     29  C   UNL A   1      28.251  29.133  23.182  1.00  0.00     0.194 C 
ATOM     30  C   UNL A   1      30.321  30.616  24.414  1.00  0.00     0.194 C 
ATOM     31  O   UNL A   1      27.230  28.522  23.045  1.00  0.00    -0.289 OA
ATOM     32  C   UNL A   1      28.330  30.599  22.942  1.00  0.00     0.034 A 
ATOM     33  C   UNL A   1      29.320  31.333  23.578  1.00  0.00     0.034 A 
ATOM     34  O   UNL A   1      30.902  31.133  25.347  1.00  0.00    -0.289 OA
ATOM     35  C   UNL A   1      27.503  31.174  21.983  1.00  0.00     0.013 A 
ATOM     36  C   UNL A   1      29.465  32.691  23.293  1.00  0.00     0.013 A 
ATOM     37  C   UNL A   1      27.694  32.517  21.643  1.00  0.00     0.001 A 
ATOM     38  C   UNL A   1      28.665  33.275  22.303  1.00  0.00     0.001 A 
ENDBRANCH  21  23
ENDBRANCH  18  19
ENDBRANCH   8  18
ENDBRANCH   4   7
ENDBRANCH   2   3
ENDBRANCH   1   2
BRANCH   1  39
ATOM     39  C   UNL A   1      34.235  28.409  26.558  1.00  0.00     0.118 C 
BRANCH  39  40
ATOM     40  N   UNL A   1      34.139  29.724  27.183  1.00  0.00    -0.352 N 
ATOM     41  C   UNL A   1      34.972  30.361  28.067  1.00  0.00     0.251 C 
ATOM     42  H   UNL A   1      33.342  30.241  26.929  1.00  0.00     0.163 HD
ATOM     43  O   UNL A   1      34.568  31.336  28.689  1.00  0.00    -0.269 OA
BRANCH  41  44
ATOM     44  C   UNL A   1      36.348  29.904  28.289  1.00  0.00     0.039 A 
ATOM     45  C   UNL A   1      36.700  29.303  29.494  1.00  0.00     0.014 A 
ATOM     46  C   UNL A   1      37.275  30.009  27.244  1.00  0.00     0.014 A 
ATOM     47  C   UNL A   1      38.022  28.969  29.722  1.00  0.00     0.010 A 
ATOM     48  C   UNL A   1      38.590  29.594  27.443  1.00  0.00     0.010 A 
ATOM     49  C   UNL A   1      38.976  29.124  28.703  1.00  0.00    -0.014 A 
BRANCH  49  50
ATOM     50  C   UNL A   1      40.374  28.785  29.026  1.00  0.00     0.031 A 
ATOM     51  C   UNL A   1      40.932  27.462  28.605  1.00  0.00     0.074 A 
ATOM     52  C   UNL A   1      41.150  29.756  29.541  1.00  0.00     0.049 A 
ATOM     53  N   UNL A   1      42.179  27.080  28.548  1.00  0.00    -0.248 NA
ATOM     54  C   UNL A   1      39.967  26.433  28.184  1.00  0.00     0.031 C 
ATOM     55  C   UNL A   1      40.663  31.068  29.977  1.00  0.00     0.029 A 
ATOM     56  N   UNL A   1      42.505  29.826  29.707  1.00  0.00    -0.354 N 
ATOM     57  C   UNL A   1      42.150  25.767  28.098  1.00  0.00     0.074 A 
ATOM     58  C   UNL A   1      40.762  25.408  27.912  1.00  0.00     0.031 C 
ATOM     59  C   UNL A   1      41.712  31.848  30.267  1.00  0.00     0.029 A 
ATOM     60  C   UNL A   1      42.938  31.083  30.063  1.00  0.00     0.049 A 
ATOM     61  H   UNL A   1      43.108  29.058  29.585  1.00  0.00     0.167 HD
ATOM     62  C   UNL A   1      43.196  24.942  27.859  1.00  0.00     0.037 A 
ATOM     63  C   UNL A   1      44.188  31.569  30.169  1.00  0.00     0.037 A 
ATOM     64  C   UNL A   1      44.566  25.329  28.053  1.00  0.00     0.049 A 
ATOM     65  C   UNL A   1      45.332  30.655  29.853  1.00  0.00     0.074 A 
ATOM     66  C   UNL A   1      45.713  24.579  27.876  1.00  0.00     0.029 A 
ATOM     67  N   UNL A   1      44.970  26.591  28.473  1.00  0.00    -0.354 N 
ATOM     68  N   UNL A   1      45.294  29.416  29.421  1.00  0.00    -0.248 NA
ATOM     69  C   UNL A   1      46.684  31.191  30.044  1.00  0.00     0.031 C 
ATOM     70  C   UNL A   1      46.812  25.383  28.210  1.00  0.00     0.029 A 
ATOM     71  C   UNL A   1      46.348  26.640  28.574  1.00  0.00     0.049 A 
ATOM     72  H   UNL A   1      44.363  27.341  28.670  1.00  0.00     0.167 HD
ATOM     73  C   UNL A   1      46.615  29.007  29.322  1.00  0.00     0.074 A 
ATOM     74  C   UNL A   1      47.429  30.150  29.694  1.00  0.00     0.031 C 
ATOM     75  C   UNL A   1      47.113  27.793  28.978  1.00  0.00     0.037 A 
BRANCH  62  76
ATOM     76  C   UNL A   1      42.875  23.548  27.404  1.00  0.00     0.058 A 
ATOM     77  C   UNL A   1      42.624  22.516  28.322  1.00  0.00     0.135 A 
ATOM     78  C   UNL A   1      42.864  23.229  26.038  1.00  0.00     0.135 A 
ATOM     79  F   UNL A   1      42.652  22.762  29.641  1.00  0.00    -0.206 F 
ATOM     80  C   UNL A   1      42.406  21.207  27.900  1.00  0.00     0.059 A 
ATOM     81  C   UNL A   1      42.634  21.930  25.594  1.00  0.00     0.059 A 
ATOM     82  F   UNL A   1      43.111  24.178  25.121  1.00  0.00    -0.206 F 
ATOM     83  C   UNL A   1      42.428  20.922  26.534  1.00  0.00     0.060 A 
BRANCH  83  84
ATOM     84  S   UNL A   1      42.206  19.209  26.004  1.00  0.00     0.124 S 
ATOM     85  O   UNL A   1      43.071  19.159  24.829  1.00  0.00    -0.237 OA
ATOM     86  O   UNL A   1      42.673  18.458  27.166  1.00  0.00    -0.237 OA
ATOM     87  O   UNL A   1      40.774  19.120  25.736  1.00  0.00    -0.744 OA
ENDBRANCH  83  84
ENDBRANCH  62  76
BRANCH  63  88
ATOM     88  C   UNL A   1      44.374  32.993  30.543  1.00  0.00     0.058 A 
ATOM     89  C   UNL A   1      44.375  34.000  29.567  1.00  0.00     0.135 A 
ATOM     90  C   UNL A   1      44.412  33.385  31.891  1.00  0.00     0.135 A 
ATOM     91  F   UNL A   1      44.338  33.674  28.267  1.00  0.00    -0.206 F 
ATOM     92  C   UNL A   1      44.376  35.348  29.914  1.00  0.00     0.059 A 
ATOM     93  C   UNL A   1      44.396  34.726  32.261  1.00  0.00     0.059 A 
ATOM     94  F   UNL A   1      44.393  32.458  32.860  1.00  0.00    -0.206 F 
ATOM     95  C   UNL A   1      44.369  35.701  31.265  1.00  0.00     0.060 A 
BRANCH  95  96
ATOM     96  S   UNL A   1      44.213  37.445  31.714  1.00  0.00     0.124 S 
ATOM     97  O   UNL A   1      43.367  37.369  32.899  1.00  0.00    -0.237 OA
ATOM     98  O   UNL A   1      45.601  37.834  31.946  1.00  0.00    -0.237 OA
ATOM     99  O   UNL A   1      43.598  38.037  30.530  1.00  0.00    -0.744 OA
ENDBRANCH  95  96
ENDBRANCH  63  88
BRANCH  75 100
ATOM    100  C   UNL A   1      48.599  27.634  29.056  1.00  0.00     0.058 A 
ATOM    101  C   UNL A   1      49.197  27.088  30.202  1.00  0.00     0.135 A 
ATOM    102  C   UNL A   1      49.418  27.965  27.968  1.00  0.00     0.135 A 
ATOM    103  F   UNL A   1      48.446  26.762  31.265  1.00  0.00    -0.206 F 
ATOM    104  C   UNL A   1      50.568  26.883  30.270  1.00  0.00     0.059 A 
ATOM    105  C   UNL A   1      50.792  27.755  28.011  1.00  0.00     0.059 A 
ATOM    106  F   UNL A   1      48.885  28.482  26.851  1.00  0.00    -0.206 F 
ATOM    107  C   UNL A   1      51.358  27.220  29.170  1.00  0.00     0.060 A 
BRANCH 107 108
ATOM    108  S   UNL A   1      53.134  26.912  29.253  1.00  0.00     0.124 S 
ATOM    109  O   UNL A   1      53.334  26.051  28.092  1.00  0.00    -0.237 OA
ATOM    110  O   UNL A   1      53.693  28.256  29.150  1.00  0.00    -0.237 OA
ATOM    111  O   UNL A   1      53.303  26.268  30.551  1.00  0.00    -0.744 OA
ENDBRANCH 107 108
ENDBRANCH  75 100
ENDBRANCH  49  50
ENDBRANCH  41  44
ENDBRANCH  39  40
ENDBRANCH   1  39
TORSDOF 16
ENDMDL
MODEL 2
REMARK VINA RESULT:     -13.2      8.817     16.310
REMARK SMILES O=C(Cn1nc(C(=O)NCCCNC(=O)c2ccc(-c3c4nc(c(-c5c(F)cc(S(=O)(=O)[O-])cc5F)c5ccc([nH]5)c(-c5c(F)cc(S(=O)(=O)[O-])cc5F)c5nc(c(-c6c(F)cc(S(=O)(=O)[O-])cc6F)c6ccc3[nH]6)C=C5)C=C4)cc2)c2ccccc2c1=O)Nc1ccc2c(c1)C(=O)c1ccccc1C2=O
REMARK SMILES IDX 11 1 10 2 9 3 7 4 8 5 6 7 4 8 5 9 88 10 87 11 89 12 82 13
REMARK SMILES IDX 86 14 83 15 85 16 84 17 3 18 2 19 1 20 90 21 91 23 92 24
REMARK SMILES IDX 96 25 93 26 95 27 94 28 97 29 105 30 98 31 99 32 104 33
REMARK SMILES IDX 106 34 100 35 103 36 101 37 102 38 12 39 13 40 14 41 15 43
REMARK SMILES IDX 16 44 17 45 81 46 18 47 80 48 19 49 20 50 21 51 74 52 22 53
REMARK SMILES IDX 79 54 73 55 75 56 23 57 78 58 72 59 71 60 24 62 58 63 37 64
REMARK SMILES IDX 57 65 38 66 41 67 56 68 76 69 39 70 40 71 55 73 77 74 42 75
REMARK SMILES IDX 25 76 26 77 35 78 27 79 28 80 34 81 36 82 29 83 30 84 31 85
REMARK SMILES IDX 32 86 33 87 59 88 60 89 69 90 61 91 62 92 68 93 70 94 63 95
REMARK SMILES IDX 64 96 65 97 66 98 67 99 43 100 44 101 53 102 45 103 46 104
REMARK SMILES IDX 52 105 54 106 47 107 48 108 49 109 50 110 51 111
REMARK H PARENT 9 6 90 22 13 42 75 61 41 72
REMARK Flexibility Score: inf
ROOT
ATOM      1  C   UNL A   1      49.140  20.913  34.332  1.00  0.00     0.042 C 
ENDROOT
BRANCH   1   2
ATOM      2  C   UNL A   1      47.740  21.305  34.776  1.00  0.00     0.118 C 
BRANCH   2   3
ATOM      3  N   UNL A   1      46.771  20.240  34.639  1.00  0.00    -0.351 N 
ATOM      4  C   UNL A   1      45.950  19.631  35.560  1.00  0.00     0.272 C 
ATOM      5  O   UNL A   1      45.062  18.912  35.114  1.00  0.00    -0.267 OA
ATOM      6  H   UNL A   1      46.683  19.887  33.724  1.00  0.00     0.163 HD
BRANCH   4   7
ATOM      7  C   UNL A   1      46.109  19.844  37.084  1.00  0.00     0.156 A 
ATOM      8  N   UNL A   1      46.628  18.909  39.153  1.00  0.00    -0.219 N 
ATOM      9  N   UNL A   1      46.360  18.796  37.812  1.00  0.00    -0.163 NA
ATOM     10  C   UNL A   1      46.662  20.121  39.827  1.00  0.00     0.275 A 
ATOM     11  C   UNL A   1      46.302  21.318  39.038  1.00  0.00     0.051 A 
ATOM     12  O   UNL A   1      46.931  20.243  41.019  1.00  0.00    -0.267 OA
ATOM     13  C   UNL A   1      46.001  21.201  37.681  1.00  0.00     0.020 A 
ATOM     14  C   UNL A   1      46.227  22.565  39.681  1.00  0.00     0.014 A 
ATOM     15  C   UNL A   1      45.594  22.347  36.983  1.00  0.00     0.011 A 
ATOM     16  C   UNL A   1      45.841  23.700  38.970  1.00  0.00     0.001 A 
ATOM     17  C   UNL A   1      45.521  23.589  37.622  1.00  0.00     0.001 A 
BRANCH   8  18
ATOM     18  C   UNL A   1      46.947  17.660  39.859  1.00  0.00     0.248 C 
BRANCH  18  19
ATOM     19  C   UNL A   1      45.816  17.303  40.832  1.00  0.00     0.246 C 
ATOM     20  O   UNL A   1      46.039  17.030  42.010  1.00  0.00    -0.273 OA
ATOM     21  N   UNL A   1      44.564  17.228  40.225  1.00  0.00    -0.324 N 
ATOM     22  H   UNL A   1      44.376  17.857  39.492  1.00  0.00     0.169 HD
BRANCH  21  23
ATOM     23  C   UNL A   1      43.541  16.316  40.583  1.00  0.00     0.042 A 
ATOM     24  C   UNL A   1      43.005  15.481  39.586  1.00  0.00     0.027 A 
ATOM     25  C   UNL A   1      43.219  16.070  41.925  1.00  0.00     0.039 A 
ATOM     26  C   UNL A   1      42.205  14.375  39.930  1.00  0.00     0.015 A 
ATOM     27  C   UNL A   1      42.508  14.921  42.251  1.00  0.00     0.036 A 
ATOM     28  C   UNL A   1      42.002  14.078  41.276  1.00  0.00     0.034 A 
ATOM     29  C   UNL A   1      42.565  14.454  43.663  1.00  0.00     0.194 C 
ATOM     30  C   UNL A   1      41.422  12.775  41.694  1.00  0.00     0.194 C 
ATOM     31  O   UNL A   1      42.651  15.199  44.597  1.00  0.00    -0.289 OA
ATOM     32  C   UNL A   1      42.673  12.978  43.820  1.00  0.00     0.034 A 
ATOM     33  C   UNL A   1      42.079  12.155  42.877  1.00  0.00     0.034 A 
ATOM     34  O   UNL A   1      40.510  12.250  41.087  1.00  0.00    -0.289 OA
ATOM     35  C   UNL A   1      43.484  12.463  44.827  1.00  0.00     0.013 A 
ATOM     36  C   UNL A   1      42.249  10.773  42.959  1.00  0.00     0.013 A 
ATOM     37  C   UNL A   1      43.715  11.084  44.869  1.00  0.00     0.001 A 
ATOM     38  C   UNL A   1      43.092  10.241  43.943  1.00  0.00     0.001 A 
ENDBRANCH  21  23
ENDBRANCH  18  19
ENDBRANCH   8  18
ENDBRANCH   4   7
ENDBRANCH   2   3
ENDBRANCH   1   2
BRANCH   1  39
ATOM     39  C   UNL A   1      50.018  22.111  33.986  1.00  0.00     0.118 C 
BRANCH  39  40
ATOM     40  N   UNL A   1      50.466  22.836  35.171  1.00  0.00    -0.352 N 
ATOM     41  C   UNL A   1      50.262  24.135  35.560  1.00  0.00     0.251 C 
ATOM     42  H   UNL A   1      51.006  22.303  35.797  1.00  0.00     0.163 HD
ATOM     43  O   UNL A   1      50.959  24.622  36.442  1.00  0.00    -0.269 OA
BRANCH  41  44
ATOM     44  C   UNL A   1      49.220  24.965  34.945  1.00  0.00     0.039 A 
ATOM     45  C   UNL A   1      47.884  24.778  35.288  1.00  0.00     0.014 A 
ATOM     46  C   UNL A   1      49.599  25.995  34.075  1.00  0.00     0.014 A 
ATOM     47  C   UNL A   1      46.909  25.501  34.625  1.00  0.00     0.010 A 
ATOM     48  C   UNL A   1      48.621  26.782  33.470  1.00  0.00     0.010 A 
ATOM     49  C   UNL A   1      47.272  26.498  33.705  1.00  0.00    -0.014 A 
BRANCH  49  50
ATOM     50  C   UNL A   1      46.182  27.204  33.006  1.00  0.00     0.031 A 
ATOM     51  C   UNL A   1      45.562  26.591  31.790  1.00  0.00     0.074 A 
ATOM     52  C   UNL A   1      45.670  28.300  33.594  1.00  0.00     0.049 A 
ATOM     53  N   UNL A   1      44.442  26.902  31.198  1.00  0.00    -0.248 NA
ATOM     54  C   UNL A   1      46.289  25.478  31.158  1.00  0.00     0.031 C 
ATOM     55  C   UNL A   1      46.234  28.950  34.781  1.00  0.00     0.029 A 
ATOM     56  N   UNL A   1      44.529  29.006  33.333  1.00  0.00    -0.354 N 
ATOM     57  C   UNL A   1      44.333  26.034  30.120  1.00  0.00     0.074 A 
ATOM     58  C   UNL A   1      45.509  25.194  30.126  1.00  0.00     0.031 C 
ATOM     59  C   UNL A   1      45.386  29.897  35.205  1.00  0.00     0.029 A 
ATOM     60  C   UNL A   1      44.237  29.935  34.305  1.00  0.00     0.049 A 
ATOM     61  H   UNL A   1      43.973  28.864  32.532  1.00  0.00     0.167 HD
ATOM     62  C   UNL A   1      43.332  25.950  29.212  1.00  0.00     0.037 A 
ATOM     63  C   UNL A   1      43.143  30.700  34.470  1.00  0.00     0.037 A 
ATOM     64  C   UNL A   1      42.174  26.801  29.233  1.00  0.00     0.049 A 
ATOM     65  C   UNL A   1      42.024  30.558  33.483  1.00  0.00     0.074 A 
ATOM     66  C   UNL A   1      41.107  26.837  28.356  1.00  0.00     0.029 A 
ATOM     67  N   UNL A   1      41.937  27.775  30.197  1.00  0.00    -0.354 N 
ATOM     68  N   UNL A   1      41.929  29.729  32.469  1.00  0.00    -0.248 NA
ATOM     69  C   UNL A   1      40.874  31.453  33.647  1.00  0.00     0.031 C 
ATOM     70  C   UNL A   1      40.234  27.848  28.778  1.00  0.00     0.029 A 
ATOM     71  C   UNL A   1      40.748  28.427  29.931  1.00  0.00     0.049 A 
ATOM     72  H   UNL A   1      42.530  27.971  30.958  1.00  0.00     0.167 HD
ATOM     73  C   UNL A   1      40.724  30.024  31.850  1.00  0.00     0.074 A 
ATOM     74  C   UNL A   1      40.104  31.077  32.633  1.00  0.00     0.031 C 
ATOM     75  C   UNL A   1      40.186  29.491  30.724  1.00  0.00     0.037 A 
BRANCH  62  76
ATOM     76  C   UNL A   1      43.487  24.932  28.120  1.00  0.00     0.058 A 
ATOM     77  C   UNL A   1      43.014  23.619  28.268  1.00  0.00     0.135 A 
ATOM     78  C   UNL A   1      44.155  25.259  26.930  1.00  0.00     0.135 A 
ATOM     79  F   UNL A   1      42.394  23.247  29.399  1.00  0.00    -0.206 F 
ATOM     80  C   UNL A   1      43.230  22.655  27.287  1.00  0.00     0.059 A 
ATOM     81  C   UNL A   1      44.369  24.315  25.930  1.00  0.00     0.059 A 
ATOM     82  F   UNL A   1      44.637  26.498  26.745  1.00  0.00    -0.206 F 
ATOM     83  C   UNL A   1      43.921  23.010  26.128  1.00  0.00     0.060 A 
BRANCH  83  84
ATOM     84  S   UNL A   1      44.248  21.734  24.891  1.00  0.00     0.124 S 
ATOM     85  O   UNL A   1      44.025  22.473  23.651  1.00  0.00    -0.237 OA
ATOM     86  O   UNL A   1      45.634  21.373  25.171  1.00  0.00    -0.237 OA
ATOM     87  O   UNL A   1      43.260  20.705  25.197  1.00  0.00    -0.744 OA
ENDBRANCH  83  84
ENDBRANCH  62  76
BRANCH  63  88
ATOM     88  C   UNL A   1      43.071  31.607  35.642  1.00  0.00     0.058 A 
ATOM     89  C   UNL A   1      43.412  32.962  35.526  1.00  0.00     0.135 A 
ATOM     90  C   UNL A   1      42.526  31.169  36.860  1.00  0.00     0.135 A 
ATOM     91  F   UNL A   1      43.935  33.427  34.381  1.00  0.00    -0.206 F 
ATOM     92  C   UNL A   1      43.187  33.859  36.566  1.00  0.00     0.059 A 
ATOM     93  C   UNL A   1      42.277  32.051  37.907  1.00  0.00     0.059 A 
ATOM     94  F   UNL A   1      42.166  29.886  37.011  1.00  0.00    -0.206 F 
ATOM     95  C   UNL A   1      42.603  33.397  37.747  1.00  0.00     0.060 A 
BRANCH  95  96
ATOM     96  S   UNL A   1      42.169  34.589  39.035  1.00  0.00     0.124 S 
ATOM     97  O   UNL A   1      41.523  35.639  38.258  1.00  0.00    -0.237 OA
ATOM     98  O   UNL A   1      41.293  33.807  39.903  1.00  0.00    -0.237 OA
ATOM     99  O   UNL A   1      43.463  34.933  39.616  1.00  0.00    -0.744 OA
ENDBRANCH  95  96
ENDBRANCH  63  88
BRANCH  75 100
ATOM    100  C   UNL A   1      38.900  30.092  30.249  1.00  0.00     0.058 A 
ATOM    101  C   UNL A   1      38.890  31.345  29.618  1.00  0.00     0.135 A 
ATOM    102  C   UNL A   1      37.690  29.393  30.366  1.00  0.00     0.135 A 
ATOM    103  F   UNL A   1      40.028  32.045  29.490  1.00  0.00    -0.206 F 
ATOM    104  C   UNL A   1      37.715  31.892  29.123  1.00  0.00     0.059 A 
ATOM    105  C   UNL A   1      36.504  29.918  29.865  1.00  0.00     0.059 A 
ATOM    106  F   UNL A   1      37.658  28.189  30.957  1.00  0.00    -0.206 F 
ATOM    107  C   UNL A   1      36.527  31.172  29.251  1.00  0.00     0.060 A 
BRANCH 107 108
ATOM    108  S   UNL A   1      35.011  31.874  28.569  1.00  0.00     0.124 S 
ATOM    109  O   UNL A   1      35.540  32.781  27.556  1.00  0.00    -0.237 OA
ATOM    110  O   UNL A   1      34.316  30.694  28.063  1.00  0.00    -0.237 OA
ATOM    111  O   UNL A   1      34.387  32.513  29.723  1.00  0.00    -0.744 OA
ENDBRANCH 107 108
ENDBRANCH  75 100
ENDBRANCH  49  50
ENDBRANCH  41  44
ENDBRANCH  39  40
ENDBRANCH   1  39
TORSDOF 16
ENDMDL
MODEL 3
REMARK VINA RESULT:     -13.1      2.409      5.971
REMARK SMILES O=C(Cn1nc(C(=O)NCCCNC(=O)c2ccc(-c3c4nc(c(-c5c(F)cc(S(=O)(=O)[O-])cc5F)c5ccc([nH]5)c(-c5c(F)cc(S(=O)(=O)[O-])cc5F)c5nc(c(-c6c(F)cc(S(=O)(=O)[O-])cc6F)c6ccc3[nH]6)C=C5)C=C4)cc2)c2ccccc2c1=O)Nc1ccc2c(c1)C(=O)c1ccccc1C2=O
REMARK SMILES IDX 11 1 10 2 9 3 7 4 8 5 6 7 4 8 5 9 88 10 87 11 89 12 82 13
REMARK SMILES IDX 86 14 83 15 85 16 84 17 3 18 2 19 1 20 90 21 91 23 92 24
REMARK SMILES IDX 96 25 93 26 95 27 94 28 97 29 105 30 98 31 99 32 104 33
REMARK SMILES IDX 106 34 100 35 103 36 101 37 102 38 12 39 13 40 14 41 15 43
REMARK SMILES IDX 16 44 17 45 81 46 18 47 80 48 19 49 20 50 21 51 74 52 22 53
REMARK SMILES IDX 79 54 73 55 75 56 23 57 78 58 72 59 71 60 24 62 58 63 37 64
REMARK SMILES IDX 57 65 38 66 41 67 56 68 76 69 39 70 40 71 55 73 77 74 42 75
REMARK SMILES IDX 25 76 26 77 35 78 27 79 28 80 34 81 36 82 29 83 30 84 31 85
REMARK SMILES IDX 32 86 33 87 59 88 60 89 69 90 61 91 62 92 68 93 70 94 63 95
REMARK SMILES IDX 64 96 65 97 66 98 67 99 43 100 44 101 53 102 45 103 46 104
REMARK SMILES IDX 52 105 54 106 47 107 48 108 49 109 50 110 51 111
REMARK H PARENT 9 6 90 22 13 42 75 61 41 72
REMARK Flexibility Score: inf
ROOT
ATOM      1  C   UNL A   1      33.918  30.556  27.243  1.00  0.00     0.042 C 
ENDROOT
BRANCH   1   2
ATOM      2  C   UNL A   1      33.108  29.274  27.134  1.00  0.00     0.118 C 
BRANCH   2   3
ATOM      3  N   UNL A   1      33.884  28.136  26.693  1.00  0.00    -0.351 N 
ATOM      4  C   UNL A   1      33.570  27.089  25.856  1.00  0.00     0.272 C 
ATOM      5  O   UNL A   1      34.504  26.390  25.477  1.00  0.00    -0.267 OA
ATOM      6  H   UNL A   1      34.799  28.103  27.055  1.00  0.00     0.163 HD
BRANCH   4   7
ATOM      7  C   UNL A   1      32.124  26.802  25.388  1.00  0.00     0.156 A 
ATOM      8  N   UNL A   1      30.145  25.627  25.739  1.00  0.00    -0.219 N 
ATOM      9  N   UNL A   1      31.467  25.868  26.011  1.00  0.00    -0.163 NA
ATOM     10  C   UNL A   1      29.411  26.346  24.806  1.00  0.00     0.275 A 
ATOM     11  C   UNL A   1      30.156  27.359  24.029  1.00  0.00     0.051 A 
ATOM     12  O   UNL A   1      28.220  26.163  24.573  1.00  0.00    -0.267 OA
ATOM     13  C   UNL A   1      31.509  27.586  24.286  1.00  0.00     0.020 A 
ATOM     14  C   UNL A   1      29.496  28.059  23.006  1.00  0.00     0.014 A 
ATOM     15  C   UNL A   1      32.199  28.504  23.480  1.00  0.00     0.011 A 
ATOM     16  C   UNL A   1      30.189  28.983  22.226  1.00  0.00     0.001 A 
ATOM     17  C   UNL A   1      31.541  29.202  22.461  1.00  0.00     0.001 A 
BRANCH   8  18
ATOM     18  C   UNL A   1      29.497  24.580  26.543  1.00  0.00     0.248 C 
BRANCH  18  19
ATOM     19  C   UNL A   1      30.388  23.333  26.598  1.00  0.00     0.246 C 
ATOM     20  O   UNL A   1      30.863  22.924  27.656  1.00  0.00    -0.273 OA
ATOM     21  N   UNL A   1      30.671  22.796  25.343  1.00  0.00    -0.324 N 
ATOM     22  H   UNL A   1      29.964  22.843  24.660  1.00  0.00     0.169 HD
BRANCH  21  23
ATOM     23  C   UNL A   1      31.896  22.189  24.976  1.00  0.00     0.042 A 
ATOM     24  C   UNL A   1      33.034  22.436  25.766  1.00  0.00     0.027 A 
ATOM     25  C   UNL A   1      31.949  21.184  24.000  1.00  0.00     0.039 A 
ATOM     26  C   UNL A   1      34.191  21.649  25.623  1.00  0.00     0.015 A 
ATOM     27  C   UNL A   1      33.064  20.356  23.939  1.00  0.00     0.036 A 
ATOM     28  C   UNL A   1      34.177  20.576  24.734  1.00  0.00     0.034 A 
ATOM     29  C   UNL A   1      32.919  19.056  23.229  1.00  0.00     0.194 C 
ATOM     30  C   UNL A   1      35.248  19.547  24.757  1.00  0.00     0.194 C 
ATOM     31  O   UNL A   1      32.205  18.905  22.279  1.00  0.00    -0.289 OA
ATOM     32  C   UNL A   1      33.603  17.912  23.891  1.00  0.00     0.034 A 
ATOM     33  C   UNL A   1      34.767  18.146  24.606  1.00  0.00     0.034 A 
ATOM     34  O   UNL A   1      36.416  19.835  24.925  1.00  0.00    -0.289 OA
ATOM     35  C   UNL A   1      32.986  16.666  23.895  1.00  0.00     0.013 A 
ATOM     36  C   UNL A   1      35.369  17.103  25.308  1.00  0.00     0.013 A 
ATOM     37  C   UNL A   1      33.549  15.636  24.656  1.00  0.00     0.001 A 
ATOM     38  C   UNL A   1      34.741  15.851  25.353  1.00  0.00     0.001 A 
ENDBRANCH  21  23
ENDBRANCH  18  19
ENDBRANCH   8  18
ENDBRANCH   4   7
ENDBRANCH   2   3
ENDBRANCH   1   2
BRANCH   1  39
ATOM     39  C   UNL A   1      35.288  30.347  27.880  1.00  0.00     0.118 C 
BRANCH  39  40
ATOM     40  N   UNL A   1      35.330  30.790  29.270  1.00  0.00    -0.352 N 
ATOM     41  C   UNL A   1      36.265  30.582  30.252  1.00  0.00     0.251 C 
ATOM     42  H   UNL A   1      34.557  31.330  29.551  1.00  0.00     0.163 HD
ATOM     43  O   UNL A   1      35.974  30.795  31.422  1.00  0.00    -0.269 OA
BRANCH  41  44
ATOM     44  C   UNL A   1      37.616  30.107  29.935  1.00  0.00     0.039 A 
ATOM     45  C   UNL A   1      38.337  29.374  30.873  1.00  0.00     0.014 A 
ATOM     46  C   UNL A   1      38.132  30.334  28.652  1.00  0.00     0.014 A 
ATOM     47  C   UNL A   1      39.645  29.021  30.594  1.00  0.00     0.010 A 
ATOM     48  C   UNL A   1      39.420  29.904  28.341  1.00  0.00     0.010 A 
ATOM     49  C   UNL A   1      40.197  29.294  29.331  1.00  0.00    -0.014 A 
BRANCH  49  50
ATOM     50  C   UNL A   1      41.608  28.926  29.114  1.00  0.00     0.031 A 
ATOM     51  C   UNL A   1      41.946  27.565  28.592  1.00  0.00     0.074 A 
ATOM     52  C   UNL A   1      42.533  29.895  29.233  1.00  0.00     0.049 A 
ATOM     53  N   UNL A   1      43.071  27.139  28.086  1.00  0.00    -0.248 NA
ATOM     54  C   UNL A   1      40.882  26.548  28.636  1.00  0.00     0.031 C 
ATOM     55  C   UNL A   1      42.265  31.243  29.742  1.00  0.00     0.029 A 
ATOM     56  N   UNL A   1      43.848  29.929  28.863  1.00  0.00    -0.354 N 
ATOM     57  C   UNL A   1      42.857  25.806  27.761  1.00  0.00     0.074 A 
ATOM     58  C   UNL A   1      41.500  25.485  28.143  1.00  0.00     0.031 C 
ATOM     59  C   UNL A   1      43.354  32.003  29.561  1.00  0.00     0.029 A 
ATOM     60  C   UNL A   1      44.398  31.187  28.949  1.00  0.00     0.049 A 
ATOM     61  H   UNL A   1      44.350  29.136  28.565  1.00  0.00     0.167 HD
ATOM     62  C   UNL A   1      43.721  24.935  27.190  1.00  0.00     0.037 A 
ATOM     63  C   UNL A   1      45.599  31.636  28.539  1.00  0.00     0.037 A 
ATOM     64  C   UNL A   1      45.065  25.285  26.821  1.00  0.00     0.049 A 
ATOM     65  C   UNL A   1      46.524  30.669  27.864  1.00  0.00     0.074 A 
ATOM     66  C   UNL A   1      46.048  24.490  26.264  1.00  0.00     0.029 A 
ATOM     67  N   UNL A   1      45.614  26.554  26.977  1.00  0.00    -0.354 N 
ATOM     68  N   UNL A   1      46.308  29.411  27.556  1.00  0.00    -0.248 NA
ATOM     69  C   UNL A   1      47.851  31.168  27.491  1.00  0.00     0.031 C 
ATOM     70  C   UNL A   1      47.199  25.273  26.102  1.00  0.00     0.029 A 
ATOM     71  C   UNL A   1      46.925  26.561  26.540  1.00  0.00     0.049 A 
ATOM     72  H   UNL A   1      45.137  27.332  27.346  1.00  0.00     0.167 HD
ATOM     73  C   UNL A   1      47.485  28.953  26.984  1.00  0.00     0.074 A 
ATOM     74  C   UNL A   1      48.393  30.086  26.946  1.00  0.00     0.031 C 
ATOM     75  C   UNL A   1      47.800  27.707  26.549  1.00  0.00     0.037 A 
BRANCH  62  76
ATOM     76  C   UNL A   1      43.235  23.532  26.978  1.00  0.00     0.058 A 
ATOM     77  C   UNL A   1      43.109  22.629  28.046  1.00  0.00     0.135 A 
ATOM     78  C   UNL A   1      42.935  23.068  25.688  1.00  0.00     0.135 A 
ATOM     79  F   UNL A   1      43.412  23.013  29.296  1.00  0.00    -0.206 F 
ATOM     80  C   UNL A   1      42.735  21.304  27.836  1.00  0.00     0.059 A 
ATOM     81  C   UNL A   1      42.545  21.752  25.458  1.00  0.00     0.059 A 
ATOM     82  F   UNL A   1      43.051  23.888  24.632  1.00  0.00    -0.206 F 
ATOM     83  C   UNL A   1      42.469  20.872  26.536  1.00  0.00     0.060 A 
BRANCH  83  84
ATOM     84  S   UNL A   1      42.046  19.136  26.271  1.00  0.00     0.124 S 
ATOM     85  O   UNL A   1      42.287  18.577  27.598  1.00  0.00    -0.237 OA
ATOM     86  O   UNL A   1      40.647  19.213  25.861  1.00  0.00    -0.237 OA
ATOM     87  O   UNL A   1      42.980  18.714  25.232  1.00  0.00    -0.744 OA
ENDBRANCH  83  84
ENDBRANCH  62  76
BRANCH  63  88
ATOM     88  C   UNL A   1      45.931  33.070  28.726  1.00  0.00     0.058 A 
ATOM     89  C   UNL A   1      46.673  33.498  29.836  1.00  0.00     0.135 A 
ATOM     90  C   UNL A   1      45.636  34.014  27.730  1.00  0.00     0.135 A 
ATOM     91  F   UNL A   1      46.981  32.632  30.812  1.00  0.00    -0.206 F 
ATOM     92  C   UNL A   1      47.138  34.806  29.937  1.00  0.00     0.059 A 
ATOM     93  C   UNL A   1      46.105  35.322  27.802  1.00  0.00     0.059 A 
ATOM     94  F   UNL A   1      44.944  33.646  26.640  1.00  0.00    -0.206 F 
ATOM     95  C   UNL A   1      46.863  35.707  28.906  1.00  0.00     0.060 A 
BRANCH  95  96
ATOM     96  S   UNL A   1      47.599  37.357  28.964  1.00  0.00     0.124 S 
ATOM     97  O   UNL A   1      48.715  37.149  29.878  1.00  0.00    -0.237 OA
ATOM     98  O   UNL A   1      47.952  37.591  27.567  1.00  0.00    -0.237 OA
ATOM     99  O   UNL A   1      46.509  38.187  29.470  1.00  0.00    -0.744 OA
ENDBRANCH  95  96
ENDBRANCH  63  88
BRANCH  75 100
ATOM    100  C   UNL A   1      49.199  27.503  26.061  1.00  0.00     0.058 A 
ATOM    101  C   UNL A   1      50.245  27.287  26.971  1.00  0.00     0.135 A 
ATOM    102  C   UNL A   1      49.487  27.458  24.690  1.00  0.00     0.135 A 
ATOM    103  F   UNL A   1      50.010  27.326  28.292  1.00  0.00    -0.206 F 
ATOM    104  C   UNL A   1      51.540  27.042  26.535  1.00  0.00     0.059 A 
ATOM    105  C   UNL A   1      50.774  27.201  24.233  1.00  0.00     0.059 A 
ATOM    106  F   UNL A   1      48.514  27.652  23.788  1.00  0.00    -0.206 F 
ATOM    107  C   UNL A   1      51.795  27.001  25.164  1.00  0.00     0.060 A 
BRANCH 107 108
ATOM    108  S   UNL A   1      53.473  26.641  24.606  1.00  0.00     0.124 S 
ATOM    109  O   UNL A   1      53.368  25.226  24.263  1.00  0.00    -0.237 OA
ATOM    110  O   UNL A   1      53.635  27.556  23.481  1.00  0.00    -0.237 OA
ATOM    111  O   UNL A   1      54.289  26.947  25.777  1.00  0.00    -0.744 OA
ENDBRANCH 107 108
ENDBRANCH  75 100
ENDBRANCH  49  50
ENDBRANCH  41  44
ENDBRANCH  39  40
ENDBRANCH   1  39
TORSDOF 16
ENDMDL
