MODEL 1
REMARK VINA RESULT:     -13.1      0.000      0.000
REMARK SMILES CC1=Nc2nc(NC(=O)CCC(=O)NCCCNC(=O)c3ccc(-c4c5nc(c(-c6c(F)cc(S(=O)(=O)[O-])cc6F)c6ccc([nH]6)c(-c6c(F)cc(S(=O)(=O)[O-])cc6F)c6nc(c(-c7c(F)cc(S(=O)(=O)[O-])cc7F)c7ccc4[nH]7)C=C6)C=C5)cc3)nn2[C@@H](c2ccc(Cl)cc2)C1
REMARK SMILES IDX 15 1 14 2 12 3 13 4 11 6 10 7 8 8 7 9 9 11 6 12 1 13 2 14
REMARK SMILES IDX 3 15 97 16 4 17 89 18 5 19 88 20 87 21 90 22 91 23 96 24
REMARK SMILES IDX 92 25 95 26 93 27 94 28 16 29 17 30 18 31 19 32 20 34 21 35
REMARK SMILES IDX 22 36 86 37 23 38 85 39 24 40 25 41 26 42 79 43 27 44 84 45
REMARK SMILES IDX 78 46 80 47 28 48 83 49 77 50 76 51 29 53 63 54 42 55 62 56
REMARK SMILES IDX 43 57 46 58 61 59 81 60 44 61 45 62 60 64 82 65 47 66 30 67
REMARK SMILES IDX 31 68 40 69 32 70 33 71 39 72 41 73 34 74 35 75 36 76 37 77
REMARK SMILES IDX 38 78 64 79 65 80 74 81 66 82 67 83 73 84 75 85 68 86 69 87
REMARK SMILES IDX 70 88 71 89 72 90 48 91 49 92 58 93 50 94 51 95 57 96 59 97
REMARK SMILES IDX 52 98 53 99 54 100 55 101 56 102
REMARK H PARENT 14 5 7 10 18 33 80 52 46 63
REMARK Flexibility Score: inf
ROOT
ATOM      1  C   UNL A   1      37.669  23.400  25.868  1.00  0.00     0.117 C 
ENDROOT
BRANCH   1   2
ATOM      2  N   UNL A   1      36.690  23.647  24.818  1.00  0.00    -0.356 N 
ATOM      3  C   UNL A   1      35.373  23.300  24.767  1.00  0.00     0.220 C 
ATOM      4  O   UNL A   1      34.610  23.993  24.095  1.00  0.00    -0.275 OA
ATOM      5  H   UNL A   1      37.029  24.132  24.031  1.00  0.00     0.163 HD
BRANCH   3   6
ATOM      6  C   UNL A   1      34.860  22.078  25.486  1.00  0.00     0.110 C 
BRANCH   6   7
ATOM      7  C   UNL A   1      34.068  21.146  24.571  1.00  0.00     0.110 C 
BRANCH   7   8
ATOM      8  C   UNL A   1      32.939  20.467  25.312  1.00  0.00     0.227 C 
ATOM      9  N   UNL A   1      31.792  21.119  25.621  1.00  0.00    -0.293 N 
ATOM     10  H   UNL A   1      31.114  20.572  26.080  1.00  0.00     0.173 HD
ATOM     11  O   UNL A   1      33.008  19.252  25.538  1.00  0.00    -0.275 OA
BRANCH   9  12
ATOM     12  C   UNL A   1      31.433  22.413  25.393  1.00  0.00     0.250 A 
ATOM     13  C   UNL A   1      30.621  27.223  22.402  1.00  0.00     0.062 C 
ATOM     14  C   UNL A   1      30.530  26.114  23.404  1.00  0.00     0.021 C 
ATOM     15  N   UNL A   1      31.091  24.975  23.127  1.00  0.00    -0.221 NA
ATOM     16  C   UNL A   1      29.826  26.394  24.718  1.00  0.00     0.083 C 
ATOM     17  C   UNL A   1      31.113  24.067  24.127  1.00  0.00     0.250 A 
ATOM     18  C   UNL A   1      30.636  25.782  25.861  1.00  0.00     0.147 C 
ATOM     19  N   UNL A   1      31.268  22.764  24.084  1.00  0.00    -0.174 NA
ATOM     20  N   UNL A   1      31.074  24.449  25.447  1.00  0.00    -0.220 N 
ATOM     21  N   UNL A   1      31.288  23.406  26.272  1.00  0.00    -0.130 NA
BRANCH  18  22
ATOM     22  C   UNL A   1      31.744  26.741  26.282  1.00  0.00    -0.023 A 
ATOM     23  C   UNL A   1      33.077  26.623  25.868  1.00  0.00     0.007 A 
ATOM     24  C   UNL A   1      31.398  27.852  27.077  1.00  0.00     0.007 A 
ATOM     25  C   UNL A   1      34.051  27.522  26.315  1.00  0.00     0.021 A 
ATOM     26  C   UNL A   1      32.364  28.770  27.497  1.00  0.00     0.021 A 
ATOM     27  C   UNL A   1      33.693  28.587  27.135  1.00  0.00     0.041 A 
ATOM     28  Cl  UNL A   1      34.897  29.677  27.705  1.00  0.00    -0.084 Cl
ENDBRANCH  18  22
ENDBRANCH   9  12
ENDBRANCH   7   8
ENDBRANCH   6   7
ENDBRANCH   3   6
ENDBRANCH   1   2
BRANCH   1  29
ATOM     29  C   UNL A   1      38.446  22.086  25.753  1.00  0.00     0.042 C 
BRANCH  29  30
ATOM     30  C   UNL A   1      39.676  22.032  26.642  1.00  0.00     0.118 C 
BRANCH  30  31
ATOM     31  N   UNL A   1      40.950  22.015  25.923  1.00  0.00    -0.352 N 
ATOM     32  C   UNL A   1      41.875  23.038  25.788  1.00  0.00     0.251 C 
ATOM     33  H   UNL A   1      41.179  21.168  25.477  1.00  0.00     0.163 HD
ATOM     34  O   UNL A   1      42.770  22.937  24.948  1.00  0.00    -0.269 OA
BRANCH  32  35
ATOM     35  C   UNL A   1      41.789  24.249  26.643  1.00  0.00     0.039 A 
ATOM     36  C   UNL A   1      42.384  24.302  27.913  1.00  0.00     0.014 A 
ATOM     37  C   UNL A   1      41.081  25.352  26.181  1.00  0.00     0.014 A 
ATOM     38  C   UNL A   1      42.294  25.479  28.666  1.00  0.00     0.010 A 
ATOM     39  C   UNL A   1      41.144  26.551  26.830  1.00  0.00     0.010 A 
ATOM     40  C   UNL A   1      41.671  26.601  28.108  1.00  0.00    -0.014 A 
BRANCH  40  41
ATOM     41  C   UNL A   1      41.638  27.913  28.732  1.00  0.00     0.031 A 
ATOM     42  C   UNL A   1      42.740  28.805  28.351  1.00  0.00     0.074 A 
ATOM     43  C   UNL A   1      40.574  28.362  29.431  1.00  0.00     0.049 A 
ATOM     44  N   UNL A   1      43.732  29.115  29.114  1.00  0.00    -0.248 NA
ATOM     45  C   UNL A   1      42.866  29.281  26.970  1.00  0.00     0.031 C 
ATOM     46  C   UNL A   1      39.397  27.598  29.854  1.00  0.00     0.029 A 
ATOM     47  N   UNL A   1      40.296  29.622  29.879  1.00  0.00    -0.354 N 
ATOM     48  C   UNL A   1      44.454  30.060  28.411  1.00  0.00     0.074 A 
ATOM     49  C   UNL A   1      44.026  29.941  27.040  1.00  0.00     0.031 C 
ATOM     50  C   UNL A   1      38.478  28.435  30.385  1.00  0.00     0.029 A 
ATOM     51  C   UNL A   1      39.008  29.782  30.374  1.00  0.00     0.049 A 
ATOM     52  H   UNL A   1      40.952  30.355  29.854  1.00  0.00     0.167 HD
ATOM     53  C   UNL A   1      45.111  31.044  29.084  1.00  0.00     0.037 A 
ATOM     54  C   UNL A   1      38.431  30.852  30.977  1.00  0.00     0.037 A 
ATOM     55  C   UNL A   1      45.217  30.729  30.496  1.00  0.00     0.049 A 
ATOM     56  C   UNL A   1      39.550  31.567  31.632  1.00  0.00     0.074 A 
ATOM     57  C   UNL A   1      45.744  29.672  31.218  1.00  0.00     0.029 A 
ATOM     58  N   UNL A   1      44.367  31.378  31.362  1.00  0.00    -0.354 N 
ATOM     59  N   UNL A   1      40.200  31.066  32.646  1.00  0.00    -0.248 NA
ATOM     60  C   UNL A   1      40.259  32.583  30.871  1.00  0.00     0.031 C 
ATOM     61  C   UNL A   1      44.844  29.469  32.307  1.00  0.00     0.029 A 
ATOM     62  C   UNL A   1      43.855  30.451  32.238  1.00  0.00     0.049 A 
ATOM     63  H   UNL A   1      44.162  32.340  31.356  1.00  0.00     0.167 HD
ATOM     64  C   UNL A   1      41.531  31.339  32.368  1.00  0.00     0.074 A 
ATOM     65  C   UNL A   1      41.497  32.361  31.323  1.00  0.00     0.031 C 
ATOM     66  C   UNL A   1      42.529  30.523  32.817  1.00  0.00     0.037 A 
BRANCH  53  67
ATOM     67  C   UNL A   1      45.305  32.443  28.552  1.00  0.00     0.058 A 
ATOM     68  C   UNL A   1      46.615  32.940  28.406  1.00  0.00     0.135 A 
ATOM     69  C   UNL A   1      44.271  33.399  28.429  1.00  0.00     0.135 A 
ATOM     70  F   UNL A   1      47.674  32.123  28.517  1.00  0.00    -0.206 F 
ATOM     71  C   UNL A   1      46.880  34.297  28.225  1.00  0.00     0.059 A 
ATOM     72  C   UNL A   1      44.512  34.746  28.188  1.00  0.00     0.059 A 
ATOM     73  F   UNL A   1      42.984  33.104  28.637  1.00  0.00    -0.206 F 
ATOM     74  C   UNL A   1      45.820  35.192  28.130  1.00  0.00     0.060 A 
BRANCH  74  75
ATOM     75  S   UNL A   1      46.152  36.956  28.000  1.00  0.00     0.124 S 
ATOM     76  O   UNL A   1      45.686  37.233  26.640  1.00  0.00    -0.237 OA
ATOM     77  O   UNL A   1      45.322  37.495  29.078  1.00  0.00    -0.237 OA
ATOM     78  O   UNL A   1      47.584  37.048  28.210  1.00  0.00    -0.744 OA
ENDBRANCH  74  75
ENDBRANCH  53  67
BRANCH  54  79
ATOM     79  C   UNL A   1      37.204  31.543  30.480  1.00  0.00     0.058 A 
ATOM     80  C   UNL A   1      36.181  31.946  31.359  1.00  0.00     0.135 A 
ATOM     81  C   UNL A   1      37.088  32.002  29.153  1.00  0.00     0.135 A 
ATOM     82  F   UNL A   1      36.215  31.565  32.644  1.00  0.00    -0.206 F 
ATOM     83  C   UNL A   1      35.128  32.781  30.957  1.00  0.00     0.059 A 
ATOM     84  C   UNL A   1      36.049  32.833  28.728  1.00  0.00     0.059 A 
ATOM     85  F   UNL A   1      38.024  31.703  28.241  1.00  0.00    -0.206 F 
ATOM     86  C   UNL A   1      35.078  33.231  29.639  1.00  0.00     0.060 A 
BRANCH  86  87
ATOM     87  S   UNL A   1      33.780  34.386  29.131  1.00  0.00     0.124 S 
ATOM     88  O   UNL A   1      33.100  34.651  30.394  1.00  0.00    -0.237 OA
ATOM     89  O   UNL A   1      34.553  35.491  28.575  1.00  0.00    -0.237 OA
ATOM     90  O   UNL A   1      33.006  33.613  28.161  1.00  0.00    -0.744 OA
ENDBRANCH  86  87
ENDBRANCH  54  79
BRANCH  66  91
ATOM     91  C   UNL A   1      42.172  29.470  33.841  1.00  0.00     0.058 A 
ATOM     92  C   UNL A   1      41.822  28.145  33.523  1.00  0.00     0.135 A 
ATOM     93  C   UNL A   1      42.340  29.768  35.200  1.00  0.00     0.135 A 
ATOM     94  F   UNL A   1      41.728  27.749  32.251  1.00  0.00    -0.206 F 
ATOM     95  C   UNL A   1      41.627  27.168  34.503  1.00  0.00     0.059 A 
ATOM     96  C   UNL A   1      42.175  28.804  36.196  1.00  0.00     0.059 A 
ATOM     97  F   UNL A   1      42.724  30.999  35.572  1.00  0.00    -0.206 F 
ATOM     98  C   UNL A   1      41.812  27.506  35.840  1.00  0.00     0.060 A 
BRANCH  98  99
ATOM     99  S   UNL A   1      41.663  26.219  37.099  1.00  0.00     0.124 S 
ATOM    100  O   UNL A   1      41.729  24.999  36.301  1.00  0.00    -0.237 OA
ATOM    101  O   UNL A   1      42.817  26.475  37.957  1.00  0.00    -0.237 OA
ATOM    102  O   UNL A   1      40.367  26.491  37.715  1.00  0.00    -0.744 OA
ENDBRANCH  98  99
ENDBRANCH  66  91
ENDBRANCH  40  41
ENDBRANCH  32  35
ENDBRANCH  30  31
ENDBRANCH  29  30
ENDBRANCH   1  29
TORSDOF 17
ENDMDL
MODEL 2
REMARK VINA RESULT:     -12.8      4.852     11.352
REMARK SMILES CC1=Nc2nc(NC(=O)CCC(=O)NCCCNC(=O)c3ccc(-c4c5nc(c(-c6c(F)cc(S(=O)(=O)[O-])cc6F)c6ccc([nH]6)c(-c6c(F)cc(S(=O)(=O)[O-])cc6F)c6nc(c(-c7c(F)cc(S(=O)(=O)[O-])cc7F)c7ccc4[nH]7)C=C6)C=C5)cc3)nn2[C@@H](c2ccc(Cl)cc2)C1
REMARK SMILES IDX 15 1 14 2 12 3 13 4 11 6 10 7 8 8 7 9 9 11 6 12 1 13 2 14
REMARK SMILES IDX 3 15 97 16 4 17 89 18 5 19 88 20 87 21 90 22 91 23 96 24
REMARK SMILES IDX 92 25 95 26 93 27 94 28 16 29 17 30 18 31 19 32 20 34 21 35
REMARK SMILES IDX 22 36 86 37 23 38 85 39 24 40 25 41 26 42 79 43 27 44 84 45
REMARK SMILES IDX 78 46 80 47 28 48 83 49 77 50 76 51 29 53 63 54 42 55 62 56
REMARK SMILES IDX 43 57 46 58 61 59 81 60 44 61 45 62 60 64 82 65 47 66 30 67
REMARK SMILES IDX 31 68 40 69 32 70 33 71 39 72 41 73 34 74 35 75 36 76 37 77
REMARK SMILES IDX 38 78 64 79 65 80 74 81 66 82 67 83 73 84 75 85 68 86 69 87
REMARK SMILES IDX 70 88 71 89 72 90 48 91 49 92 58 93 50 94 51 95 57 96 59 97
REMARK SMILES IDX 52 98 53 99 54 100 55 101 56 102
REMARK H PARENT 14 5 7 10 18 33 80 52 46 63
REMARK Flexibility Score: inf
ROOT
ATOM      1  C   UNL A   1      34.791  34.430  28.158  1.00  0.00     0.117 C 
ENDROOT
BRANCH   1   2
ATOM      2  N   UNL A   1      33.420  34.911  28.271  1.00  0.00    -0.356 N 
ATOM      3  C   UNL A   1      32.915  35.901  29.060  1.00  0.00     0.220 C 
ATOM      4  O   UNL A   1      31.909  36.498  28.680  1.00  0.00    -0.275 OA
ATOM      5  H   UNL A   1      32.765  34.455  27.695  1.00  0.00     0.163 HD
BRANCH   3   6
ATOM      6  C   UNL A   1      33.548  36.239  30.386  1.00  0.00     0.110 C 
BRANCH   6   7
ATOM      7  C   UNL A   1      32.871  35.532  31.559  1.00  0.00     0.110 C 
BRANCH   7   8
ATOM      8  C   UNL A   1      33.134  36.247  32.865  1.00  0.00     0.227 C 
ATOM      9  N   UNL A   1      34.197  35.939  33.647  1.00  0.00    -0.293 N 
ATOM     10  H   UNL A   1      34.286  36.486  34.461  1.00  0.00     0.173 HD
ATOM     11  O   UNL A   1      32.436  37.221  33.172  1.00  0.00    -0.275 OA
BRANCH   9  12
ATOM     12  C   UNL A   1      35.160  34.989  33.481  1.00  0.00     0.250 A 
ATOM     13  C   UNL A   1      38.651  30.695  34.934  1.00  0.00     0.062 C 
ATOM     14  C   UNL A   1      37.771  31.650  34.189  1.00  0.00     0.021 C 
ATOM     15  N   UNL A   1      36.960  32.408  34.865  1.00  0.00    -0.221 NA
ATOM     16  C   UNL A   1      37.907  31.718  32.680  1.00  0.00     0.083 C 
ATOM     17  C   UNL A   1      36.308  33.356  34.156  1.00  0.00     0.250 A 
ATOM     18  C   UNL A   1      37.880  33.182  32.240  1.00  0.00     0.147 C 
ATOM     19  N   UNL A   1      35.210  34.017  34.439  1.00  0.00    -0.174 NA
ATOM     20  N   UNL A   1      36.824  33.864  32.988  1.00  0.00    -0.220 N 
ATOM     21  N   UNL A   1      36.109  34.917  32.546  1.00  0.00    -0.130 NA
BRANCH  18  22
ATOM     22  C   UNL A   1      39.274  33.787  32.366  1.00  0.00    -0.023 A 
ATOM     23  C   UNL A   1      39.789  34.320  33.554  1.00  0.00     0.007 A 
ATOM     24  C   UNL A   1      40.122  33.745  31.241  1.00  0.00     0.007 A 
ATOM     25  C   UNL A   1      41.068  34.887  33.594  1.00  0.00     0.021 A 
ATOM     26  C   UNL A   1      41.413  34.279  31.288  1.00  0.00     0.021 A 
ATOM     27  C   UNL A   1      41.871  34.873  32.458  1.00  0.00     0.041 A 
ATOM     28  Cl  UNL A   1      43.434  35.592  32.501  1.00  0.00    -0.084 Cl
ENDBRANCH  18  22
ENDBRANCH   9  12
ENDBRANCH   7   8
ENDBRANCH   6   7
ENDBRANCH   3   6
ENDBRANCH   1   2
BRANCH   1  29
ATOM     29  C   UNL A   1      35.436  33.958  29.463  1.00  0.00     0.042 C 
BRANCH  29  30
ATOM     30  C   UNL A   1      34.921  32.612  29.941  1.00  0.00     0.118 C 
BRANCH  30  31
ATOM     31  N   UNL A   1      34.363  31.762  28.890  1.00  0.00    -0.352 N 
ATOM     32  C   UNL A   1      35.034  30.914  28.023  1.00  0.00     0.251 C 
ATOM     33  H   UNL A   1      33.385  31.797  28.784  1.00  0.00     0.163 HD
ATOM     34  O   UNL A   1      34.443  30.463  27.041  1.00  0.00    -0.269 OA
BRANCH  32  35
ATOM     35  C   UNL A   1      36.452  30.554  28.269  1.00  0.00     0.039 A 
ATOM     36  C   UNL A   1      37.359  31.461  28.838  1.00  0.00     0.014 A 
ATOM     37  C   UNL A   1      36.899  29.289  27.905  1.00  0.00     0.014 A 
ATOM     38  C   UNL A   1      38.679  31.058  29.071  1.00  0.00     0.010 A 
ATOM     39  C   UNL A   1      38.128  28.838  28.293  1.00  0.00     0.010 A 
ATOM     40  C   UNL A   1      39.051  29.737  28.797  1.00  0.00    -0.014 A 
BRANCH  40  41
ATOM     41  C   UNL A   1      40.346  29.166  29.124  1.00  0.00     0.031 A 
ATOM     42  C   UNL A   1      40.586  28.968  30.559  1.00  0.00     0.074 A 
ATOM     43  C   UNL A   1      41.176  28.655  28.191  1.00  0.00     0.049 A 
ATOM     44  N   UNL A   1      41.378  29.687  31.278  1.00  0.00    -0.248 NA
ATOM     45  C   UNL A   1      39.783  28.005  31.320  1.00  0.00     0.031 C 
ATOM     46  C   UNL A   1      41.047  28.749  26.734  1.00  0.00     0.029 A 
ATOM     47  N   UNL A   1      42.300  27.896  28.348  1.00  0.00    -0.354 N 
ATOM     48  C   UNL A   1      41.396  29.083  32.520  1.00  0.00     0.074 A 
ATOM     49  C   UNL A   1      40.239  28.225  32.557  1.00  0.00     0.031 C 
ATOM     50  C   UNL A   1      41.980  27.971  26.143  1.00  0.00     0.029 A 
ATOM     51  C   UNL A   1      42.792  27.352  27.168  1.00  0.00     0.049 A 
ATOM     52  H   UNL A   1      42.727  27.747  29.222  1.00  0.00     0.167 HD
ATOM     53  C   UNL A   1      42.528  29.127  33.275  1.00  0.00     0.037 A 
ATOM     54  C   UNL A   1      43.925  26.639  26.942  1.00  0.00     0.037 A 
ATOM     55  C   UNL A   1      43.454  30.122  32.768  1.00  0.00     0.049 A 
ATOM     56  C   UNL A   1      44.878  27.101  27.976  1.00  0.00     0.074 A 
ATOM     57  C   UNL A   1      43.379  31.482  32.526  1.00  0.00     0.029 A 
ATOM     58  N   UNL A   1      44.538  29.679  32.045  1.00  0.00    -0.354 N 
ATOM     59  N   UNL A   1      45.374  28.308  27.979  1.00  0.00    -0.248 NA
ATOM     60  C   UNL A   1      44.893  26.412  29.257  1.00  0.00     0.031 C 
ATOM     61  C   UNL A   1      44.120  31.695  31.324  1.00  0.00     0.029 A 
ATOM     62  C   UNL A   1      44.667  30.473  30.932  1.00  0.00     0.049 A 
ATOM     63  H   UNL A   1      45.121  28.923  32.285  1.00  0.00     0.167 HD
ATOM     64  C   UNL A   1      45.317  28.698  29.308  1.00  0.00     0.074 A 
ATOM     65  C   UNL A   1      45.113  27.459  30.058  1.00  0.00     0.031 C 
ATOM     66  C   UNL A   1      45.173  30.011  29.655  1.00  0.00     0.037 A 
BRANCH  53  67
ATOM     67  C   UNL A   1      42.961  28.024  34.209  1.00  0.00     0.058 A 
ATOM     68  C   UNL A   1      43.155  28.323  35.572  1.00  0.00     0.135 A 
ATOM     69  C   UNL A   1      43.441  26.763  33.786  1.00  0.00     0.135 A 
ATOM     70  F   UNL A   1      42.750  29.498  36.079  1.00  0.00    -0.206 F 
ATOM     71  C   UNL A   1      43.840  27.465  36.433  1.00  0.00     0.059 A 
ATOM     72  C   UNL A   1      44.072  25.869  34.642  1.00  0.00     0.059 A 
ATOM     73  F   UNL A   1      43.419  26.372  32.508  1.00  0.00    -0.206 F 
ATOM     74  C   UNL A   1      44.305  26.246  35.952  1.00  0.00     0.060 A 
BRANCH  74  75
ATOM     75  S   UNL A   1      45.279  25.179  37.024  1.00  0.00     0.124 S 
ATOM     76  O   UNL A   1      44.951  25.726  38.343  1.00  0.00    -0.237 OA
ATOM     77  O   UNL A   1      44.716  23.862  36.725  1.00  0.00    -0.237 OA
ATOM     78  O   UNL A   1      46.640  25.393  36.571  1.00  0.00    -0.744 OA
ENDBRANCH  74  75
ENDBRANCH  53  67
BRANCH  54  79
ATOM     79  C   UNL A   1      43.955  25.261  26.365  1.00  0.00     0.058 A 
ATOM     80  C   UNL A   1      44.788  24.940  25.276  1.00  0.00     0.135 A 
ATOM     81  C   UNL A   1      43.315  24.173  26.989  1.00  0.00     0.135 A 
ATOM     82  F   UNL A   1      45.447  25.912  24.628  1.00  0.00    -0.206 F 
ATOM     83  C   UNL A   1      45.000  23.619  24.854  1.00  0.00     0.059 A 
ATOM     84  C   UNL A   1      43.508  22.850  26.587  1.00  0.00     0.059 A 
ATOM     85  F   UNL A   1      42.525  24.364  28.055  1.00  0.00    -0.206 F 
ATOM     86  C   UNL A   1      44.364  22.577  25.527  1.00  0.00     0.060 A 
BRANCH  86  87
ATOM     87  S   UNL A   1      44.703  20.863  25.056  1.00  0.00     0.124 S 
ATOM     88  O   UNL A   1      43.657  20.141  25.771  1.00  0.00    -0.237 OA
ATOM     89  O   UNL A   1      44.572  20.910  23.605  1.00  0.00    -0.237 OA
ATOM     90  O   UNL A   1      46.060  20.642  25.555  1.00  0.00    -0.744 OA
ENDBRANCH  86  87
ENDBRANCH  54  79
BRANCH  66  91
ATOM     91  C   UNL A   1      45.342  31.049  28.569  1.00  0.00     0.058 A 
ATOM     92  C   UNL A   1      44.278  31.604  27.834  1.00  0.00     0.135 A 
ATOM     93  C   UNL A   1      46.607  31.617  28.372  1.00  0.00     0.135 A 
ATOM     94  F   UNL A   1      43.024  31.185  28.024  1.00  0.00    -0.206 F 
ATOM     95  C   UNL A   1      44.462  32.655  26.932  1.00  0.00     0.059 A 
ATOM     96  C   UNL A   1      46.812  32.684  27.496  1.00  0.00     0.059 A 
ATOM     97  F   UNL A   1      47.658  31.172  29.079  1.00  0.00    -0.206 F 
ATOM     98  C   UNL A   1      45.735  33.194  26.774  1.00  0.00     0.060 A 
BRANCH  98  99
ATOM     99  S   UNL A   1      45.954  34.621  25.687  1.00  0.00     0.124 S 
ATOM    100  O   UNL A   1      45.469  35.718  26.519  1.00  0.00    -0.237 OA
ATOM    101  O   UNL A   1      47.392  34.611  25.431  1.00  0.00    -0.237 OA
ATOM    102  O   UNL A   1      45.122  34.301  24.530  1.00  0.00    -0.744 OA
ENDBRANCH  98  99
ENDBRANCH  66  91
ENDBRANCH  40  41
ENDBRANCH  32  35
ENDBRANCH  30  31
ENDBRANCH  29  30
ENDBRANCH   1  29
TORSDOF 17
ENDMDL
MODEL 3
REMARK VINA RESULT:     -12.7      3.147      9.151
REMARK SMILES CC1=Nc2nc(NC(=O)CCC(=O)NCCCNC(=O)c3ccc(-c4c5nc(c(-c6c(F)cc(S(=O)(=O)[O-])cc6F)c6ccc([nH]6)c(-c6c(F)cc(S(=O)(=O)[O-])cc6F)c6nc(c(-c7c(F)cc(S(=O)(=O)[O-])cc7F)c7ccc4[nH]7)C=C6)C=C5)cc3)nn2[C@@H](c2ccc(Cl)cc2)C1
REMARK SMILES IDX 15 1 14 2 12 3 13 4 11 6 10 7 8 8 7 9 9 11 6 12 1 13 2 14
REMARK SMILES IDX 3 15 97 16 4 17 89 18 5 19 88 20 87 21 90 22 91 23 96 24
REMARK SMILES IDX 92 25 95 26 93 27 94 28 16 29 17 30 18 31 19 32 20 34 21 35
REMARK SMILES IDX 22 36 86 37 23 38 85 39 24 40 25 41 26 42 79 43 27 44 84 45
REMARK SMILES IDX 78 46 80 47 28 48 83 49 77 50 76 51 29 53 63 54 42 55 62 56
REMARK SMILES IDX 43 57 46 58 61 59 81 60 44 61 45 62 60 64 82 65 47 66 30 67
REMARK SMILES IDX 31 68 40 69 32 70 33 71 39 72 41 73 34 74 35 75 36 76 37 77
REMARK SMILES IDX 38 78 64 79 65 80 74 81 66 82 67 83 73 84 75 85 68 86 69 87
REMARK SMILES IDX 70 88 71 89 72 90 48 91 49 92 58 93 50 94 51 95 57 96 59 97
REMARK SMILES IDX 52 98 53 99 54 100 55 101 56 102
REMARK H PARENT 14 5 7 10 18 33 80 52 46 63
REMARK Flexibility Score: inf
ROOT
ATOM      1  C   UNL A   1      33.163  30.625  26.924  1.00  0.00     0.117 C 
ENDROOT
BRANCH   1   2
ATOM      2  N   UNL A   1      32.240  29.505  27.058  1.00  0.00    -0.356 N 
ATOM      3  C   UNL A   1      31.739  28.680  26.097  1.00  0.00     0.220 C 
ATOM      4  O   UNL A   1      31.411  27.538  26.417  1.00  0.00    -0.275 OA
ATOM      5  H   UNL A   1      31.934  29.320  27.975  1.00  0.00     0.163 HD
BRANCH   3   6
ATOM      6  C   UNL A   1      31.555  29.158  24.678  1.00  0.00     0.110 C 
BRANCH   6   7
ATOM      7  C   UNL A   1      30.439  28.415  23.947  1.00  0.00     0.110 C 
BRANCH   7   8
ATOM      8  C   UNL A   1      30.612  28.488  22.448  1.00  0.00     0.227 C 
ATOM      9  N   UNL A   1      31.090  27.443  21.731  1.00  0.00    -0.293 N 
ATOM     10  H   UNL A   1      31.135  27.592  20.758  1.00  0.00     0.173 HD
ATOM     11  O   UNL A   1      30.194  29.481  21.839  1.00  0.00    -0.275 OA
BRANCH   9  12
ATOM     12  C   UNL A   1      31.517  26.218  22.148  1.00  0.00     0.250 A 
ATOM     13  C   UNL A   1      31.648  21.476  25.347  1.00  0.00     0.062 C 
ATOM     14  C   UNL A   1      31.762  22.467  24.230  1.00  0.00     0.021 C 
ATOM     15  N   UNL A   1      31.105  23.584  24.318  1.00  0.00    -0.221 NA
ATOM     16  C   UNL A   1      32.682  22.134  23.071  1.00  0.00     0.083 C 
ATOM     17  C   UNL A   1      31.368  24.502  23.362  1.00  0.00     0.250 A 
ATOM     18  C   UNL A   1      33.481  23.380  22.691  1.00  0.00     0.147 C 
ATOM     19  N   UNL A   1      30.661  25.534  22.964  1.00  0.00    -0.174 NA
ATOM     20  N   UNL A   1      32.571  24.526  22.698  1.00  0.00    -0.220 N 
ATOM     21  N   UNL A   1      32.690  25.622  21.925  1.00  0.00    -0.130 NA
BRANCH  18  22
ATOM     22  C   UNL A   1      34.706  23.504  23.592  1.00  0.00    -0.023 A 
ATOM     23  C   UNL A   1      35.951  22.937  23.297  1.00  0.00     0.007 A 
ATOM     24  C   UNL A   1      34.600  24.293  24.754  1.00  0.00     0.007 A 
ATOM     25  C   UNL A   1      37.028  23.065  24.181  1.00  0.00     0.021 A 
ATOM     26  C   UNL A   1      35.683  24.451  25.623  1.00  0.00     0.021 A 
ATOM     27  C   UNL A   1      36.887  23.813  25.346  1.00  0.00     0.041 A 
ATOM     28  Cl  UNL A   1      38.204  23.949  26.445  1.00  0.00    -0.084 Cl
ENDBRANCH  18  22
ENDBRANCH   9  12
ENDBRANCH   7   8
ENDBRANCH   6   7
ENDBRANCH   3   6
ENDBRANCH   1   2
BRANCH   1  29
ATOM     29  C   UNL A   1      34.536  30.432  27.572  1.00  0.00     0.042 C 
BRANCH  29  30
ATOM     30  C   UNL A   1      35.243  31.738  27.891  1.00  0.00     0.118 C 
BRANCH  30  31
ATOM     31  N   UNL A   1      34.910  32.312  29.195  1.00  0.00    -0.352 N 
ATOM     32  C   UNL A   1      35.406  31.962  30.441  1.00  0.00     0.251 C 
ATOM     33  H   UNL A   1      34.247  33.040  29.186  1.00  0.00     0.163 HD
ATOM     34  O   UNL A   1      34.839  32.373  31.454  1.00  0.00    -0.269 OA
BRANCH  32  35
ATOM     35  C   UNL A   1      36.606  31.097  30.558  1.00  0.00     0.039 A 
ATOM     36  C   UNL A   1      36.507  29.700  30.643  1.00  0.00     0.014 A 
ATOM     37  C   UNL A   1      37.862  31.690  30.606  1.00  0.00     0.014 A 
ATOM     38  C   UNL A   1      37.674  28.931  30.726  1.00  0.00     0.010 A 
ATOM     39  C   UNL A   1      38.999  30.940  30.506  1.00  0.00     0.010 A 
ATOM     40  C   UNL A   1      38.919  29.567  30.652  1.00  0.00    -0.014 A 
BRANCH  40  41
ATOM     41  C   UNL A   1      40.191  28.869  30.587  1.00  0.00     0.031 A 
ATOM     42  C   UNL A   1      40.859  28.685  31.882  1.00  0.00     0.074 A 
ATOM     43  C   UNL A   1      40.626  28.245  29.472  1.00  0.00     0.049 A 
ATOM     44  N   UNL A   1      41.904  29.335  32.269  1.00  0.00    -0.248 NA
ATOM     45  C   UNL A   1      40.256  27.837  32.915  1.00  0.00     0.031 C 
ATOM     46  C   UNL A   1      40.046  28.313  28.128  1.00  0.00     0.029 A 
ATOM     47  N   UNL A   1      41.665  27.374  29.312  1.00  0.00    -0.354 N 
ATOM     48  C   UNL A   1      42.263  28.767  33.476  1.00  0.00     0.074 A 
ATOM     49  C   UNL A   1      41.103  28.040  33.928  1.00  0.00     0.031 C 
ATOM     50  C   UNL A   1      40.663  27.422  27.321  1.00  0.00     0.029 A 
ATOM     51  C   UNL A   1      41.700  26.747  28.072  1.00  0.00     0.049 A 
ATOM     52  H   UNL A   1      42.334  27.204  30.014  1.00  0.00     0.167 HD
ATOM     53  C   UNL A   1      43.576  28.709  33.830  1.00  0.00     0.037 A 
ATOM     54  C   UNL A   1      42.628  25.910  27.543  1.00  0.00     0.037 A 
ATOM     55  C   UNL A   1      44.379  29.584  32.996  1.00  0.00     0.049 A 
ATOM     56  C   UNL A   1      43.901  26.295  28.193  1.00  0.00     0.074 A 
ATOM     57  C   UNL A   1      44.358  30.937  32.707  1.00  0.00     0.029 A 
ATOM     58  N   UNL A   1      45.128  29.006  31.996  1.00  0.00    -0.354 N 
ATOM     59  N   UNL A   1      44.482  27.441  27.966  1.00  0.00    -0.248 NA
ATOM     60  C   UNL A   1      44.262  25.644  29.442  1.00  0.00     0.031 C 
ATOM     61  C   UNL A   1      44.691  31.035  31.323  1.00  0.00     0.029 A 
ATOM     62  C   UNL A   1      44.966  29.751  30.853  1.00  0.00     0.049 A 
ATOM     63  H   UNL A   1      45.683  28.199  32.085  1.00  0.00     0.167 HD
ATOM     64  C   UNL A   1      44.892  27.871  29.218  1.00  0.00     0.074 A 
ATOM     65  C   UNL A   1      44.825  26.683  30.068  1.00  0.00     0.031 C 
ATOM     66  C   UNL A   1      44.990  29.201  29.512  1.00  0.00     0.037 A 
BRANCH  53  67
ATOM     67  C   UNL A   1      44.180  27.592  34.644  1.00  0.00     0.058 A 
ATOM     68  C   UNL A   1      44.912  27.914  35.804  1.00  0.00     0.135 A 
ATOM     69  C   UNL A   1      44.296  26.254  34.201  1.00  0.00     0.135 A 
ATOM     70  F   UNL A   1      44.885  29.159  36.306  1.00  0.00    -0.206 F 
ATOM     71  C   UNL A   1      45.752  26.996  36.434  1.00  0.00     0.059 A 
ATOM     72  C   UNL A   1      45.080  25.308  34.850  1.00  0.00     0.059 A 
ATOM     73  F   UNL A   1      43.742  25.818  33.065  1.00  0.00    -0.206 F 
ATOM     74  C   UNL A   1      45.837  25.700  35.940  1.00  0.00     0.060 A 
BRANCH  74  75
ATOM     75  S   UNL A   1      46.994  24.538  36.680  1.00  0.00     0.124 S 
ATOM     76  O   UNL A   1      47.592  23.933  35.488  1.00  0.00    -0.237 OA
ATOM     77  O   UNL A   1      47.866  25.432  37.443  1.00  0.00    -0.237 OA
ATOM     78  O   UNL A   1      46.145  23.670  37.472  1.00  0.00    -0.744 OA
ENDBRANCH  74  75
ENDBRANCH  53  67
BRANCH  54  79
ATOM     79  C   UNL A   1      42.343  24.522  27.071  1.00  0.00     0.058 A 
ATOM     80  C   UNL A   1      43.097  23.927  26.043  1.00  0.00     0.135 A 
ATOM     81  C   UNL A   1      41.449  23.669  27.748  1.00  0.00     0.135 A 
ATOM     82  F   UNL A   1      43.982  24.661  25.351  1.00  0.00    -0.206 F 
ATOM     83  C   UNL A   1      42.999  22.563  25.728  1.00  0.00     0.059 A 
ATOM     84  C   UNL A   1      41.331  22.309  27.452  1.00  0.00     0.059 A 
ATOM     85  F   UNL A   1      40.705  24.125  28.765  1.00  0.00    -0.206 F 
ATOM     86  C   UNL A   1      42.120  21.758  26.450  1.00  0.00     0.060 A 
BRANCH  86  87
ATOM     87  S   UNL A   1      42.053  19.979  26.121  1.00  0.00     0.124 S 
ATOM     88  O   UNL A   1      42.396  19.418  27.423  1.00  0.00    -0.237 OA
ATOM     89  O   UNL A   1      40.672  19.799  25.689  1.00  0.00    -0.237 OA
ATOM     90  O   UNL A   1      43.064  19.793  25.081  1.00  0.00    -0.744 OA
ENDBRANCH  86  87
ENDBRANCH  54  79
BRANCH  66  91
ATOM     91  C   UNL A   1      44.898  30.185  28.368  1.00  0.00     0.058 A 
ATOM     92  C   UNL A   1      43.694  30.742  27.899  1.00  0.00     0.135 A 
ATOM     93  C   UNL A   1      46.083  30.701  27.827  1.00  0.00     0.135 A 
ATOM     94  F   UNL A   1      42.521  30.374  28.422  1.00  0.00    -0.206 F 
ATOM     95  C   UNL A   1      43.663  31.746  26.928  1.00  0.00     0.059 A 
ATOM     96  C   UNL A   1      46.080  31.721  26.874  1.00  0.00     0.059 A 
ATOM     97  F   UNL A   1      47.269  30.253  28.266  1.00  0.00    -0.206 F 
ATOM     98  C   UNL A   1      44.865  32.235  26.425  1.00  0.00     0.060 A 
BRANCH  98  99
ATOM     99  S   UNL A   1      44.829  33.605  25.247  1.00  0.00     0.124 S 
ATOM    100  O   UNL A   1      44.400  32.944  24.019  1.00  0.00    -0.237 OA
ATOM    101  O   UNL A   1      43.859  34.517  25.847  1.00  0.00    -0.237 OA
ATOM    102  O   UNL A   1      46.207  34.089  25.245  1.00  0.00    -0.744 OA
ENDBRANCH  98  99
ENDBRANCH  66  91
ENDBRANCH  40  41
ENDBRANCH  32  35
ENDBRANCH  30  31
ENDBRANCH  29  30
ENDBRANCH   1  29
TORSDOF 17
ENDMDL
