MODEL 1
REMARK VINA RESULT:     -11.1      0.000      0.000
REMARK SMILES C[C@H]1Cc2cc(C(=O)[C@H](Br)CC(=O)NCCCNC(=O)c3ccc(-c4c5nc(c(-c6c(F)cc(S(=O)(=O)[O-])cc6F)c6ccc([nH]6)c(-c6c(F)cc(S(=O)(=O)[O-])cc6F)c6nc(c(-c7c(F)cc(S(=O)(=O)[O-])cc7F)c7ccc4[nH]7)C=C6)C=C5)cc3)ccc2O1
REMARK SMILES IDX 16 1 15 2 14 3 12 4 13 5 11 7 9 8 10 9 7 10 8 11 6 12 1 13
REMARK SMILES IDX 2 14 3 15 90 16 4 17 89 18 5 19 88 20 87 21 17 22 18 23
REMARK SMILES IDX 19 24 20 26 21 27 22 28 86 29 23 30 85 31 24 32 25 33 26 34
REMARK SMILES IDX 79 35 27 36 84 37 78 38 80 39 28 40 83 41 77 42 76 43 29 45
REMARK SMILES IDX 63 46 42 47 62 48 43 49 46 50 61 51 81 52 44 53 45 54 60 56
REMARK SMILES IDX 82 57 47 58 30 59 31 60 40 61 32 62 33 63 39 64 41 65 34 66
REMARK SMILES IDX 35 67 36 68 37 69 38 70 64 71 65 72 74 73 66 74 67 75 73 76
REMARK SMILES IDX 75 77 68 78 69 79 70 80 71 81 72 82 48 83 49 84 58 85 50 86
REMARK SMILES IDX 51 87 57 88 59 89 52 90 53 91 54 92 55 93 56 94
REMARK H PARENT 14 6 18 25 80 44 46 55
REMARK Flexibility Score: inf
ROOT
ATOM      1  C   UNL A   1      35.471  33.734  28.628  1.00  0.00     0.042 C 
ENDROOT
BRANCH   1   2
ATOM      2  C   UNL A   1      34.035  34.121  28.298  1.00  0.00     0.117 C 
BRANCH   2   3
ATOM      3  N   UNL A   1      33.851  35.560  28.395  1.00  0.00    -0.356 N 
ATOM      4  C   UNL A   1      33.310  36.301  29.398  1.00  0.00     0.221 C 
ATOM      5  O   UNL A   1      33.061  37.489  29.187  1.00  0.00    -0.275 OA
ATOM      6  H   UNL A   1      34.166  36.076  27.617  1.00  0.00     0.163 HD
BRANCH   4   7
ATOM      7  C   UNL A   1      33.029  35.683  30.744  1.00  0.00     0.123 C 
BRANCH   7   8
ATOM      8  C   UNL A   1      34.288  35.639  31.602  1.00  0.00     0.138 C 
ATOM      9  Br  UNL A   1      34.003  36.618  33.279  1.00  0.00    -0.080 Br
BRANCH   8  10
ATOM     10  C   UNL A   1      34.604  34.220  32.043  1.00  0.00     0.176 C 
ATOM     11  O   UNL A   1      33.776  33.309  31.972  1.00  0.00    -0.293 OA
BRANCH  10  12
ATOM     12  C   UNL A   1      35.922  33.920  32.666  1.00  0.00     0.019 A 
ATOM     13  C   UNL A   1      41.736  33.138  32.815  1.00  0.00     0.053 C 
ATOM     14  C   UNL A   1      40.510  33.965  33.163  1.00  0.00     0.174 C 
ATOM     15  C   UNL A   1      39.649  34.276  31.928  1.00  0.00     0.084 C 
ATOM     16  O   UNL A   1      39.714  33.235  34.134  1.00  0.00    -0.490 OA
ATOM     17  C   UNL A   1      38.307  34.045  32.500  1.00  0.00    -0.001 A 
ATOM     18  C   UNL A   1      38.421  33.425  33.731  1.00  0.00     0.123 A 
ATOM     19  C   UNL A   1      37.066  34.305  31.949  1.00  0.00     0.019 A 
ATOM     20  C   UNL A   1      37.314  33.028  34.453  1.00  0.00     0.047 A 
ATOM     21  C   UNL A   1      36.047  33.280  33.915  1.00  0.00     0.015 A 
ENDBRANCH  10  12
ENDBRANCH   8  10
ENDBRANCH   7   8
ENDBRANCH   4   7
ENDBRANCH   2   3
ENDBRANCH   1   2
BRANCH   1  22
ATOM     22  C   UNL A   1      35.700  32.229  28.645  1.00  0.00     0.118 C 
BRANCH  22  23
ATOM     23  N   UNL A   1      35.539  31.657  29.975  1.00  0.00    -0.352 N 
ATOM     24  C   UNL A   1      36.372  30.824  30.685  1.00  0.00     0.251 C 
ATOM     25  H   UNL A   1      34.706  31.905  30.437  1.00  0.00     0.163 HD
ATOM     26  O   UNL A   1      35.956  30.290  31.711  1.00  0.00    -0.269 OA
BRANCH  24  27
ATOM     27  C   UNL A   1      37.745  30.548  30.208  1.00  0.00     0.039 A 
ATOM     28  C   UNL A   1      37.998  30.284  28.862  1.00  0.00     0.014 A 
ATOM     29  C   UNL A   1      38.802  30.560  31.123  1.00  0.00     0.014 A 
ATOM     30  C   UNL A   1      39.258  29.851  28.464  1.00  0.00     0.010 A 
ATOM     31  C   UNL A   1      40.094  30.225  30.701  1.00  0.00     0.010 A 
ATOM     32  C   UNL A   1      40.324  29.819  29.378  1.00  0.00    -0.014 A 
BRANCH  32  33
ATOM     33  C   UNL A   1      41.665  29.367  28.921  1.00  0.00     0.031 A 
ATOM     34  C   UNL A   1      42.851  30.293  28.967  1.00  0.00     0.074 A 
ATOM     35  C   UNL A   1      41.823  28.096  28.504  1.00  0.00     0.049 A 
ATOM     36  N   UNL A   1      44.092  30.061  28.618  1.00  0.00    -0.248 NA
ATOM     37  C   UNL A   1      42.615  31.659  29.457  1.00  0.00     0.031 C 
ATOM     38  C   UNL A   1      40.751  27.101  28.416  1.00  0.00     0.029 A 
ATOM     39  N   UNL A   1      42.942  27.412  28.103  1.00  0.00    -0.354 N 
ATOM     40  C   UNL A   1      44.777  31.253  28.820  1.00  0.00     0.074 A 
ATOM     41  C   UNL A   1      43.807  32.217  29.298  1.00  0.00     0.031 C 
ATOM     42  C   UNL A   1      41.273  25.923  28.046  1.00  0.00     0.029 A 
ATOM     43  C   UNL A   1      42.702  26.092  27.805  1.00  0.00     0.049 A 
ATOM     44  H   UNL A   1      43.832  27.827  28.036  1.00  0.00     0.167 HD
ATOM     45  C   UNL A   1      46.092  31.519  28.634  1.00  0.00     0.037 A 
ATOM     46  C   UNL A   1      43.532  25.124  27.370  1.00  0.00     0.037 A 
ATOM     47  C   UNL A   1      47.058  30.548  28.184  1.00  0.00     0.049 A 
ATOM     48  C   UNL A   1      44.980  25.443  27.153  1.00  0.00     0.074 A 
ATOM     49  C   UNL A   1      48.420  30.710  28.002  1.00  0.00     0.029 A 
ATOM     50  N   UNL A   1      46.763  29.235  27.843  1.00  0.00    -0.354 N 
ATOM     51  N   UNL A   1      45.610  26.575  27.356  1.00  0.00    -0.248 NA
ATOM     52  C   UNL A   1      45.828  24.362  26.635  1.00  0.00     0.031 C 
ATOM     53  C   UNL A   1      48.942  29.508  27.512  1.00  0.00     0.029 A 
ATOM     54  C   UNL A   1      47.914  28.583  27.428  1.00  0.00     0.049 A 
ATOM     55  H   UNL A   1      45.869  28.827  27.889  1.00  0.00     0.167 HD
ATOM     56  C   UNL A   1      46.930  26.346  26.991  1.00  0.00     0.074 A 
ATOM     57  C   UNL A   1      47.012  24.959  26.574  1.00  0.00     0.031 C 
ATOM     58  C   UNL A   1      47.977  27.207  26.998  1.00  0.00     0.037 A 
BRANCH  45  59
ATOM     59  C   UNL A   1      46.559  32.926  28.893  1.00  0.00     0.058 A 
ATOM     60  C   UNL A   1      46.568  33.903  27.884  1.00  0.00     0.135 A 
ATOM     61  C   UNL A   1      46.993  33.306  30.174  1.00  0.00     0.135 A 
ATOM     62  F   UNL A   1      46.176  33.591  26.638  1.00  0.00    -0.206 F 
ATOM     63  C   UNL A   1      47.028  35.194  28.126  1.00  0.00     0.059 A 
ATOM     64  C   UNL A   1      47.434  34.599  30.443  1.00  0.00     0.059 A 
ATOM     65  F   UNL A   1      47.003  32.413  31.175  1.00  0.00    -0.206 F 
ATOM     66  C   UNL A   1      47.465  35.531  29.408  1.00  0.00     0.060 A 
BRANCH  66  67
ATOM     67  S   UNL A   1      48.085  37.202  29.698  1.00  0.00     0.124 S 
ATOM     68  O   UNL A   1      46.874  37.888  30.139  1.00  0.00    -0.237 OA
ATOM     69  O   UNL A   1      49.099  36.985  30.726  1.00  0.00    -0.237 OA
ATOM     70  O   UNL A   1      48.596  37.607  28.393  1.00  0.00    -0.744 OA
ENDBRANCH  66  67
ENDBRANCH  45  59
BRANCH  46  71
ATOM     71  C   UNL A   1      42.984  23.765  27.129  1.00  0.00     0.058 A 
ATOM     72  C   UNL A   1      42.786  23.291  25.825  1.00  0.00     0.135 A 
ATOM     73  C   UNL A   1      42.749  22.880  28.194  1.00  0.00     0.135 A 
ATOM     74  F   UNL A   1      42.989  24.103  24.778  1.00  0.00    -0.206 F 
ATOM     75  C   UNL A   1      42.399  21.977  25.582  1.00  0.00     0.059 A 
ATOM     76  C   UNL A   1      42.384  21.556  27.975  1.00  0.00     0.059 A 
ATOM     77  F   UNL A   1      42.939  23.285  29.459  1.00  0.00    -0.206 F 
ATOM     78  C   UNL A   1      42.218  21.112  26.664  1.00  0.00     0.060 A 
BRANCH  78  79
ATOM     79  S   UNL A   1      41.843  19.376  26.331  1.00  0.00     0.124 S 
ATOM     80  O   UNL A   1      42.608  19.139  25.112  1.00  0.00    -0.237 OA
ATOM     81  O   UNL A   1      42.343  18.721  27.536  1.00  0.00    -0.237 OA
ATOM     82  O   UNL A   1      40.392  19.369  26.179  1.00  0.00    -0.744 OA
ENDBRANCH  78  79
ENDBRANCH  46  71
BRANCH  58  83
ATOM     83  C   UNL A   1      49.306  26.681  26.532  1.00  0.00     0.058 A 
ATOM     84  C   UNL A   1      49.734  26.850  25.207  1.00  0.00     0.135 A 
ATOM     85  C   UNL A   1      50.182  26.056  27.433  1.00  0.00     0.135 A 
ATOM     86  F   UNL A   1      48.929  27.435  24.305  1.00  0.00    -0.206 F 
ATOM     87  C   UNL A   1      50.983  26.406  24.786  1.00  0.00     0.059 A 
ATOM     88  C   UNL A   1      51.445  25.623  27.039  1.00  0.00     0.059 A 
ATOM     89  F   UNL A   1      49.822  25.876  28.713  1.00  0.00    -0.206 F 
ATOM     90  C   UNL A   1      51.833  25.795  25.711  1.00  0.00     0.060 A 
BRANCH  90  91
ATOM     91  S   UNL A   1      53.466  25.260  25.160  1.00  0.00     0.124 S 
ATOM     92  O   UNL A   1      54.336  25.958  26.101  1.00  0.00    -0.237 OA
ATOM     93  O   UNL A   1      53.392  23.812  25.322  1.00  0.00    -0.237 OA
ATOM     94  O   UNL A   1      53.531  25.728  23.779  1.00  0.00    -0.744 OA
ENDBRANCH  90  91
ENDBRANCH  58  83
ENDBRANCH  32  33
ENDBRANCH  24  27
ENDBRANCH  22  23
ENDBRANCH   1  22
TORSDOF 16
ENDMDL
MODEL 2
REMARK VINA RESULT:     -11.0      5.222     12.321
REMARK SMILES C[C@H]1Cc2cc(C(=O)[C@H](Br)CC(=O)NCCCNC(=O)c3ccc(-c4c5nc(c(-c6c(F)cc(S(=O)(=O)[O-])cc6F)c6ccc([nH]6)c(-c6c(F)cc(S(=O)(=O)[O-])cc6F)c6nc(c(-c7c(F)cc(S(=O)(=O)[O-])cc7F)c7ccc4[nH]7)C=C6)C=C5)cc3)ccc2O1
REMARK SMILES IDX 16 1 15 2 14 3 12 4 13 5 11 7 9 8 10 9 7 10 8 11 6 12 1 13
REMARK SMILES IDX 2 14 3 15 90 16 4 17 89 18 5 19 88 20 87 21 17 22 18 23
REMARK SMILES IDX 19 24 20 26 21 27 22 28 86 29 23 30 85 31 24 32 25 33 26 34
REMARK SMILES IDX 79 35 27 36 84 37 78 38 80 39 28 40 83 41 77 42 76 43 29 45
REMARK SMILES IDX 63 46 42 47 62 48 43 49 46 50 61 51 81 52 44 53 45 54 60 56
REMARK SMILES IDX 82 57 47 58 30 59 31 60 40 61 32 62 33 63 39 64 41 65 34 66
REMARK SMILES IDX 35 67 36 68 37 69 38 70 64 71 65 72 74 73 66 74 67 75 73 76
REMARK SMILES IDX 75 77 68 78 69 79 70 80 71 81 72 82 48 83 49 84 58 85 50 86
REMARK SMILES IDX 51 87 57 88 59 89 52 90 53 91 54 92 55 93 56 94
REMARK H PARENT 14 6 18 25 80 44 46 55
REMARK Flexibility Score: inf
ROOT
ATOM      1  C   UNL A   1      40.702  20.879  27.098  1.00  0.00     0.042 C 
ENDROOT
BRANCH   1   2
ATOM      2  C   UNL A   1      40.782  19.607  26.262  1.00  0.00     0.117 C 
BRANCH   2   3
ATOM      3  N   UNL A   1      41.911  18.788  26.674  1.00  0.00    -0.356 N 
ATOM      4  C   UNL A   1      43.116  18.604  26.072  1.00  0.00     0.221 C 
ATOM      5  O   UNL A   1      43.850  17.704  26.482  1.00  0.00    -0.275 OA
ATOM      6  H   UNL A   1      41.783  18.291  27.515  1.00  0.00     0.163 HD
BRANCH   4   7
ATOM      7  C   UNL A   1      43.548  19.491  24.932  1.00  0.00     0.123 C 
BRANCH   7   8
ATOM      8  C   UNL A   1      44.618  20.479  25.380  1.00  0.00     0.138 C 
ATOM      9  Br  UNL A   1      46.388  19.890  24.769  1.00  0.00    -0.080 Br
BRANCH   8  10
ATOM     10  C   UNL A   1      44.424  21.835  24.722  1.00  0.00     0.176 C 
ATOM     11  O   UNL A   1      44.166  21.953  23.522  1.00  0.00    -0.293 OA
BRANCH  10  12
ATOM     12  C   UNL A   1      44.636  23.075  25.518  1.00  0.00     0.019 A 
ATOM     13  C   UNL A   1      44.798  28.856  26.509  1.00  0.00     0.053 C 
ATOM     14  C   UNL A   1      44.143  27.502  26.723  1.00  0.00     0.174 C 
ATOM     15  C   UNL A   1      43.814  26.800  25.397  1.00  0.00     0.084 C 
ATOM     16  O   UNL A   1      45.040  26.667  27.503  1.00  0.00    -0.490 OA
ATOM     17  C   UNL A   1      44.240  25.426  25.735  1.00  0.00    -0.001 A 
ATOM     18  C   UNL A   1      44.954  25.434  26.918  1.00  0.00     0.123 A 
ATOM     19  C   UNL A   1      44.066  24.256  25.018  1.00  0.00     0.019 A 
ATOM     20  C   UNL A   1      45.533  24.289  27.428  1.00  0.00     0.047 A 
ATOM     21  C   UNL A   1      45.371  23.093  26.721  1.00  0.00     0.015 A 
ENDBRANCH  10  12
ENDBRANCH   8  10
ENDBRANCH   7   8
ENDBRANCH   4   7
ENDBRANCH   2   3
ENDBRANCH   1   2
BRANCH   1  22
ATOM     22  C   UNL A   1      40.814  22.151  26.268  1.00  0.00     0.118 C 
BRANCH  22  23
ATOM     23  N   UNL A   1      39.524  22.597  25.757  1.00  0.00    -0.352 N 
ATOM     24  C   UNL A   1      38.761  23.684  26.113  1.00  0.00     0.251 C 
ATOM     25  H   UNL A   1      39.140  22.032  25.048  1.00  0.00     0.163 HD
ATOM     26  O   UNL A   1      37.606  23.768  25.702  1.00  0.00    -0.269 OA
BRANCH  24  27
ATOM     27  C   UNL A   1      39.311  24.731  27.003  1.00  0.00     0.039 A 
ATOM     28  C   UNL A   1      38.991  24.759  28.360  1.00  0.00     0.014 A 
ATOM     29  C   UNL A   1      40.169  25.698  26.472  1.00  0.00     0.014 A 
ATOM     30  C   UNL A   1      39.368  25.847  29.139  1.00  0.00     0.010 A 
ATOM     31  C   UNL A   1      40.636  26.738  27.284  1.00  0.00     0.010 A 
ATOM     32  C   UNL A   1      40.198  26.850  28.612  1.00  0.00    -0.014 A 
BRANCH  32  33
ATOM     33  C   UNL A   1      40.600  27.994  29.473  1.00  0.00     0.031 A 
ATOM     34  C   UNL A   1      39.684  29.172  29.673  1.00  0.00     0.074 A 
ATOM     35  C   UNL A   1      41.783  27.948  30.117  1.00  0.00     0.049 A 
ATOM     36  N   UNL A   1      39.870  30.247  30.397  1.00  0.00    -0.248 NA
ATOM     37  C   UNL A   1      38.397  29.146  28.962  1.00  0.00     0.031 C 
ATOM     38  C   UNL A   1      42.758  26.859  30.008  1.00  0.00     0.029 A 
ATOM     39  N   UNL A   1      42.357  28.817  31.009  1.00  0.00    -0.354 N 
ATOM     40  C   UNL A   1      38.741  31.036  30.209  1.00  0.00     0.074 A 
ATOM     41  C   UNL A   1      37.885  30.327  29.281  1.00  0.00     0.031 C 
ATOM     42  C   UNL A   1      43.778  27.097  30.843  1.00  0.00     0.029 A 
ATOM     43  C   UNL A   1      43.566  28.384  31.498  1.00  0.00     0.049 A 
ATOM     44  H   UNL A   1      41.942  29.670  31.274  1.00  0.00     0.167 HD
ATOM     45  C   UNL A   1      38.441  32.235  30.764  1.00  0.00     0.037 A 
ATOM     46  C   UNL A   1      44.421  28.960  32.365  1.00  0.00     0.037 A 
ATOM     47  C   UNL A   1      39.286  32.923  31.708  1.00  0.00     0.049 A 
ATOM     48  C   UNL A   1      44.080  30.295  32.954  1.00  0.00     0.074 A 
ATOM     49  C   UNL A   1      39.051  34.123  32.357  1.00  0.00     0.029 A 
ATOM     50  N   UNL A   1      40.527  32.473  32.137  1.00  0.00    -0.354 N 
ATOM     51  N   UNL A   1      43.004  31.022  32.769  1.00  0.00    -0.248 NA
ATOM     52  C   UNL A   1      45.070  30.895  33.856  1.00  0.00     0.031 C 
ATOM     53  C   UNL A   1      40.169  34.420  33.145  1.00  0.00     0.029 A 
ATOM     54  C   UNL A   1      41.082  33.385  33.023  1.00  0.00     0.049 A 
ATOM     55  H   UNL A   1      40.951  31.632  31.855  1.00  0.00     0.167 HD
ATOM     56  C   UNL A   1      43.185  32.168  33.531  1.00  0.00     0.074 A 
ATOM     57  C   UNL A   1      44.466  32.028  34.196  1.00  0.00     0.031 C 
ATOM     58  C   UNL A   1      42.367  33.241  33.664  1.00  0.00     0.037 A 
BRANCH  45  59
ATOM     59  C   UNL A   1      37.154  32.892  30.343  1.00  0.00     0.058 A 
ATOM     60  C   UNL A   1      37.057  33.645  29.162  1.00  0.00     0.135 A 
ATOM     61  C   UNL A   1      35.998  32.756  31.128  1.00  0.00     0.135 A 
ATOM     62  F   UNL A   1      38.136  33.818  28.380  1.00  0.00    -0.206 F 
ATOM     63  C   UNL A   1      35.871  34.272  28.794  1.00  0.00     0.059 A 
ATOM     64  C   UNL A   1      34.794  33.355  30.766  1.00  0.00     0.059 A 
ATOM     65  F   UNL A   1      36.033  32.046  32.265  1.00  0.00    -0.206 F 
ATOM     66  C   UNL A   1      34.745  34.127  29.607  1.00  0.00     0.060 A 
BRANCH  66  67
ATOM     67  S   UNL A   1      33.221  34.970  29.131  1.00  0.00     0.124 S 
ATOM     68  O   UNL A   1      32.520  35.045  30.410  1.00  0.00    -0.237 OA
ATOM     69  O   UNL A   1      33.716  36.239  28.607  1.00  0.00    -0.237 OA
ATOM     70  O   UNL A   1      32.630  34.073  28.143  1.00  0.00    -0.744 OA
ENDBRANCH  66  67
ENDBRANCH  45  59
BRANCH  46  71
ATOM     71  C   UNL A   1      45.675  28.245  32.716  1.00  0.00     0.058 A 
ATOM     72  C   UNL A   1      45.709  27.333  33.779  1.00  0.00     0.135 A 
ATOM     73  C   UNL A   1      46.831  28.382  31.930  1.00  0.00     0.135 A 
ATOM     74  F   UNL A   1      44.632  27.175  34.562  1.00  0.00    -0.206 F 
ATOM     75  C   UNL A   1      46.837  26.561  34.037  1.00  0.00     0.059 A 
ATOM     76  C   UNL A   1      47.962  27.606  32.154  1.00  0.00     0.059 A 
ATOM     77  F   UNL A   1      46.840  29.233  30.892  1.00  0.00    -0.206 F 
ATOM     78  C   UNL A   1      47.953  26.692  33.206  1.00  0.00     0.060 A 
BRANCH  78  79
ATOM     79  S   UNL A   1      49.361  25.592  33.471  1.00  0.00     0.124 S 
ATOM     80  O   UNL A   1      49.789  25.328  32.103  1.00  0.00    -0.237 OA
ATOM     81  O   UNL A   1      50.253  26.428  34.269  1.00  0.00    -0.237 OA
ATOM     82  O   UNL A   1      48.775  24.460  34.181  1.00  0.00    -0.744 OA
ENDBRANCH  78  79
ENDBRANCH  46  71
BRANCH  58  83
ATOM     83  C   UNL A   1      42.830  34.356  34.557  1.00  0.00     0.058 A 
ATOM     84  C   UNL A   1      43.454  35.499  34.034  1.00  0.00     0.135 A 
ATOM     85  C   UNL A   1      42.596  34.309  35.940  1.00  0.00     0.135 A 
ATOM     86  F   UNL A   1      43.708  35.589  32.718  1.00  0.00    -0.206 F 
ATOM     87  C   UNL A   1      43.842  36.554  34.854  1.00  0.00     0.059 A 
ATOM     88  C   UNL A   1      42.956  35.362  36.776  1.00  0.00     0.059 A 
ATOM     89  F   UNL A   1      41.997  33.241  36.489  1.00  0.00    -0.206 F 
ATOM     90  C   UNL A   1      43.586  36.477  36.224  1.00  0.00     0.060 A 
BRANCH  90  91
ATOM     91  S   UNL A   1      44.057  37.870  37.270  1.00  0.00     0.124 S 
ATOM     92  O   UNL A   1      45.329  37.409  37.817  1.00  0.00    -0.237 OA
ATOM     93  O   UNL A   1      44.140  38.967  36.312  1.00  0.00    -0.237 OA
ATOM     94  O   UNL A   1      42.960  37.963  38.228  1.00  0.00    -0.744 OA
ENDBRANCH  90  91
ENDBRANCH  58  83
ENDBRANCH  32  33
ENDBRANCH  24  27
ENDBRANCH  22  23
ENDBRANCH   1  22
TORSDOF 16
ENDMDL
MODEL 3
REMARK VINA RESULT:     -10.9      4.621      6.800
REMARK SMILES C[C@H]1Cc2cc(C(=O)[C@H](Br)CC(=O)NCCCNC(=O)c3ccc(-c4c5nc(c(-c6c(F)cc(S(=O)(=O)[O-])cc6F)c6ccc([nH]6)c(-c6c(F)cc(S(=O)(=O)[O-])cc6F)c6nc(c(-c7c(F)cc(S(=O)(=O)[O-])cc7F)c7ccc4[nH]7)C=C6)C=C5)cc3)ccc2O1
REMARK SMILES IDX 16 1 15 2 14 3 12 4 13 5 11 7 9 8 10 9 7 10 8 11 6 12 1 13
REMARK SMILES IDX 2 14 3 15 90 16 4 17 89 18 5 19 88 20 87 21 17 22 18 23
REMARK SMILES IDX 19 24 20 26 21 27 22 28 86 29 23 30 85 31 24 32 25 33 26 34
REMARK SMILES IDX 79 35 27 36 84 37 78 38 80 39 28 40 83 41 77 42 76 43 29 45
REMARK SMILES IDX 63 46 42 47 62 48 43 49 46 50 61 51 81 52 44 53 45 54 60 56
REMARK SMILES IDX 82 57 47 58 30 59 31 60 40 61 32 62 33 63 39 64 41 65 34 66
REMARK SMILES IDX 35 67 36 68 37 69 38 70 64 71 65 72 74 73 66 74 67 75 73 76
REMARK SMILES IDX 75 77 68 78 69 79 70 80 71 81 72 82 48 83 49 84 58 85 50 86
REMARK SMILES IDX 51 87 57 88 59 89 52 90 53 91 54 92 55 93 56 94
REMARK H PARENT 14 6 18 25 80 44 46 55
REMARK Flexibility Score: inf
ROOT
ATOM      1  C   UNL A   1      34.015  28.247  25.946  1.00  0.00     0.042 C 
ENDROOT
BRANCH   1   2
ATOM      2  C   UNL A   1      33.561  29.317  24.959  1.00  0.00     0.117 C 
BRANCH   2   3
ATOM      3  N   UNL A   1      34.029  29.012  23.616  1.00  0.00    -0.356 N 
ATOM      4  C   UNL A   1      33.422  28.309  22.624  1.00  0.00     0.221 C 
ATOM      5  O   UNL A   1      34.083  27.992  21.634  1.00  0.00    -0.275 OA
ATOM      6  H   UNL A   1      34.920  29.368  23.392  1.00  0.00     0.163 HD
BRANCH   4   7
ATOM      7  C   UNL A   1      31.965  27.933  22.729  1.00  0.00     0.123 C 
BRANCH   7   8
ATOM      8  C   UNL A   1      31.771  26.746  23.665  1.00  0.00     0.138 C 
ATOM      9  Br  UNL A   1      29.868  26.282  23.790  1.00  0.00    -0.080 Br
BRANCH   8  10
ATOM     10  C   UNL A   1      32.429  25.494  23.110  1.00  0.00     0.176 C 
ATOM     11  O   UNL A   1      32.110  25.011  22.022  1.00  0.00    -0.293 OA
BRANCH  10  12
ATOM     12  C   UNL A   1      33.431  24.764  23.934  1.00  0.00     0.019 A 
ATOM     13  C   UNL A   1      37.757  20.940  24.984  1.00  0.00     0.053 C 
ATOM     14  C   UNL A   1      37.272  22.374  24.843  1.00  0.00     0.174 C 
ATOM     15  C   UNL A   1      36.557  22.617  23.505  1.00  0.00     0.084 C 
ATOM     16  O   UNL A   1      36.364  22.668  25.937  1.00  0.00    -0.490 OA
ATOM     17  C   UNL A   1      35.420  23.433  23.980  1.00  0.00    -0.001 A 
ATOM     18  C   UNL A   1      35.354  23.388  25.360  1.00  0.00     0.123 A 
ATOM     19  C   UNL A   1      34.469  24.117  23.246  1.00  0.00     0.019 A 
ATOM     20  C   UNL A   1      34.340  24.007  26.062  1.00  0.00     0.047 A 
ATOM     21  C   UNL A   1      33.365  24.706  25.340  1.00  0.00     0.015 A 
ENDBRANCH  10  12
ENDBRANCH   8  10
ENDBRANCH   7   8
ENDBRANCH   4   7
ENDBRANCH   2   3
ENDBRANCH   1   2
BRANCH   1  22
ATOM     22  C   UNL A   1      33.538  28.502  27.369  1.00  0.00     0.118 C 
BRANCH  22  23
ATOM     23  N   UNL A   1      33.512  29.920  27.702  1.00  0.00    -0.352 N 
ATOM     24  C   UNL A   1      34.480  30.711  28.275  1.00  0.00     0.251 C 
ATOM     25  H   UNL A   1      32.671  30.383  27.483  1.00  0.00     0.163 HD
ATOM     26  O   UNL A   1      34.185  31.840  28.659  1.00  0.00    -0.269 OA
BRANCH  24  27
ATOM     27  C   UNL A   1      35.858  30.202  28.453  1.00  0.00     0.039 A 
ATOM     28  C   UNL A   1      36.260  29.624  29.658  1.00  0.00     0.014 A 
ATOM     29  C   UNL A   1      36.765  30.297  27.393  1.00  0.00     0.014 A 
ATOM     30  C   UNL A   1      37.600  29.319  29.868  1.00  0.00     0.010 A 
ATOM     31  C   UNL A   1      38.092  29.891  27.572  1.00  0.00     0.010 A 
ATOM     32  C   UNL A   1      38.533  29.445  28.827  1.00  0.00    -0.014 A 
BRANCH  32  33
ATOM     33  C   UNL A   1      39.957  29.095  29.076  1.00  0.00     0.031 A 
ATOM     34  C   UNL A   1      40.874  30.047  29.798  1.00  0.00     0.074 A 
ATOM     35  C   UNL A   1      40.415  27.889  28.687  1.00  0.00     0.049 A 
ATOM     36  N   UNL A   1      42.138  29.898  30.107  1.00  0.00    -0.248 NA
ATOM     37  C   UNL A   1      40.304  31.335  30.217  1.00  0.00     0.031 C 
ATOM     38  C   UNL A   1      39.624  26.877  27.982  1.00  0.00     0.029 A 
ATOM     39  N   UNL A   1      41.640  27.294  28.851  1.00  0.00    -0.354 N 
ATOM     40  C   UNL A   1      42.521  31.079  30.732  1.00  0.00     0.074 A 
ATOM     41  C   UNL A   1      41.361  31.946  30.734  1.00  0.00     0.031 C 
ATOM     42  C   UNL A   1      40.363  25.770  27.826  1.00  0.00     0.029 A 
ATOM     43  C   UNL A   1      41.700  26.013  28.358  1.00  0.00     0.049 A 
ATOM     44  H   UNL A   1      42.404  27.744  29.281  1.00  0.00     0.167 HD
ATOM     45  C   UNL A   1      43.724  31.408  31.262  1.00  0.00     0.037 A 
ATOM     46  C   UNL A   1      42.718  25.132  28.322  1.00  0.00     0.037 A 
ATOM     47  C   UNL A   1      44.866  30.530  31.281  1.00  0.00     0.049 A 
ATOM     48  C   UNL A   1      44.046  25.521  28.898  1.00  0.00     0.074 A 
ATOM     49  C   UNL A   1      46.116  30.757  31.830  1.00  0.00     0.029 A 
ATOM     50  N   UNL A   1      44.899  29.259  30.725  1.00  0.00    -0.354 N 
ATOM     51  N   UNL A   1      44.386  26.640  29.490  1.00  0.00    -0.248 NA
ATOM     52  C   UNL A   1      45.131  24.539  28.789  1.00  0.00     0.031 C 
ATOM     53  C   UNL A   1      46.918  29.640  31.569  1.00  0.00     0.029 A 
ATOM     54  C   UNL A   1      46.156  28.699  30.896  1.00  0.00     0.049 A 
ATOM     55  H   UNL A   1      44.142  28.819  30.275  1.00  0.00     0.167 HD
ATOM     56  C   UNL A   1      45.726  26.500  29.827  1.00  0.00     0.074 A 
ATOM     57  C   UNL A   1      46.128  25.177  29.389  1.00  0.00     0.031 C 
ATOM     58  C   UNL A   1      46.548  27.387  30.438  1.00  0.00     0.037 A 
BRANCH  45  59
ATOM     59  C   UNL A   1      43.871  32.788  31.845  1.00  0.00     0.058 A 
ATOM     60  C   UNL A   1      43.641  33.047  33.206  1.00  0.00     0.135 A 
ATOM     61  C   UNL A   1      44.260  33.865  31.031  1.00  0.00     0.135 A 
ATOM     62  F   UNL A   1      43.255  32.057  34.027  1.00  0.00    -0.206 F 
ATOM     63  C   UNL A   1      43.753  34.331  33.731  1.00  0.00     0.059 A 
ATOM     64  C   UNL A   1      44.401  35.153  31.540  1.00  0.00     0.059 A 
ATOM     65  F   UNL A   1      44.495  33.673  29.724  1.00  0.00    -0.206 F 
ATOM     66  C   UNL A   1      44.127  35.380  32.888  1.00  0.00     0.060 A 
BRANCH  66  67
ATOM     67  S   UNL A   1      44.239  37.045  33.578  1.00  0.00     0.124 S 
ATOM     68  O   UNL A   1      44.937  37.754  32.509  1.00  0.00    -0.237 OA
ATOM     69  O   UNL A   1      42.836  37.402  33.763  1.00  0.00    -0.237 OA
ATOM     70  O   UNL A   1      45.003  36.854  34.806  1.00  0.00    -0.744 OA
ENDBRANCH  66  67
ENDBRANCH  45  59
BRANCH  46  71
ATOM     71  C   UNL A   1      42.487  23.794  27.718  1.00  0.00     0.058 A 
ATOM     72  C   UNL A   1      42.573  23.607  26.332  1.00  0.00     0.135 A 
ATOM     73  C   UNL A   1      42.283  22.662  28.524  1.00  0.00     0.135 A 
ATOM     74  F   UNL A   1      42.759  24.660  25.523  1.00  0.00    -0.206 F 
ATOM     75  C   UNL A   1      42.490  22.339  25.765  1.00  0.00     0.059 A 
ATOM     76  C   UNL A   1      42.220  21.383  27.982  1.00  0.00     0.059 A 
ATOM     77  F   UNL A   1      42.209  22.791  29.858  1.00  0.00    -0.206 F 
ATOM     78  C   UNL A   1      42.332  21.232  26.601  1.00  0.00     0.060 A 
BRANCH  78  79
ATOM     79  S   UNL A   1      42.356  19.582  25.864  1.00  0.00     0.124 S 
ATOM     80  O   UNL A   1      40.989  19.458  25.375  1.00  0.00    -0.237 OA
ATOM     81  O   UNL A   1      43.390  19.721  24.843  1.00  0.00    -0.237 OA
ATOM     82  O   UNL A   1      42.708  18.718  26.987  1.00  0.00    -0.744 OA
ENDBRANCH  78  79
ENDBRANCH  46  71
BRANCH  58  83
ATOM     83  C   UNL A   1      47.972  26.965  30.667  1.00  0.00     0.058 A 
ATOM     84  C   UNL A   1      48.992  27.320  29.771  1.00  0.00     0.135 A 
ATOM     85  C   UNL A   1      48.329  26.250  31.820  1.00  0.00     0.135 A 
ATOM     86  F   UNL A   1      48.701  27.997  28.648  1.00  0.00    -0.206 F 
ATOM     87  C   UNL A   1      50.318  26.970  30.005  1.00  0.00     0.059 A 
ATOM     88  C   UNL A   1      49.652  25.908  32.086  1.00  0.00     0.059 A 
ATOM     89  F   UNL A   1      47.391  25.891  32.712  1.00  0.00    -0.206 F 
ATOM     90  C   UNL A   1      50.638  26.266  31.167  1.00  0.00     0.060 A 
BRANCH  90  91
ATOM     91  S   UNL A   1      52.367  25.854  31.478  1.00  0.00     0.124 S 
ATOM     92  O   UNL A   1      52.260  24.481  31.961  1.00  0.00    -0.237 OA
ATOM     93  O   UNL A   1      52.970  26.015  30.159  1.00  0.00    -0.237 OA
ATOM     94  O   UNL A   1      52.779  26.839  32.473  1.00  0.00    -0.744 OA
ENDBRANCH  90  91
ENDBRANCH  58  83
ENDBRANCH  32  33
ENDBRANCH  24  27
ENDBRANCH  22  23
ENDBRANCH   1  22
TORSDOF 16
ENDMDL
