MODEL 1
REMARK VINA RESULT:     -12.4      0.000      0.000
REMARK SMILES O=C(NCCCNC(=O)c1ccc(-c2c3nc(c(-c4c(F)cc(S(=O)(=O)[O-])cc4F)c4ccc([nH]4)c(-c4c(F)cc(S(=O)(=O)[O-])cc4F)c4nc(c(-c5c(F)cc(S(=O)(=O)[O-])cc5F)c5ccc2[nH]5)C=C4)C=C3)cc1)C1=Cc2cc(Cl)c(Cl)c(Cl)c2O[C@@H]1C(F)(F)F
REMARK SMILES IDX 6 1 5 2 4 3 3 4 1 5 2 6 76 8 77 9 88 10 78 11 87 12 79 13
REMARK SMILES IDX 86 14 80 15 84 16 81 17 82 18 85 19 83 20 89 21 90 22 91 23
REMARK SMILES IDX 92 24 7 25 8 26 9 28 10 29 11 30 75 31 12 32 74 33 13 34
REMARK SMILES IDX 14 35 15 36 68 37 16 38 73 39 67 40 69 41 17 42 72 43 66 44
REMARK SMILES IDX 65 45 18 47 52 48 31 49 51 50 32 51 35 52 50 53 70 54 33 55
REMARK SMILES IDX 34 56 49 58 71 59 36 60 19 61 20 62 29 63 21 64 22 65 28 66
REMARK SMILES IDX 30 67 23 68 24 69 25 70 26 71 27 72 53 73 54 74 63 75 55 76
REMARK SMILES IDX 56 77 62 78 64 79 57 80 58 81 59 82 60 83 61 84 37 85 38 86
REMARK SMILES IDX 47 87 39 88 40 89 46 90 48 91 41 92 42 93 43 94 44 95 45 96
REMARK H PARENT 3 7 7 27 69 46 35 57
REMARK Flexibility Score: inf
ROOT
ATOM      1  C   UNL A   1      33.448  28.572  27.196  1.00  0.00     0.118 C 
ENDROOT
BRANCH   1   2
ATOM      2  C   UNL A   1      32.062  27.940  27.229  1.00  0.00     0.042 C 
BRANCH   2   3
ATOM      3  C   UNL A   1      31.967  26.710  26.335  1.00  0.00     0.118 C 
BRANCH   3   4
ATOM      4  N   UNL A   1      31.614  25.487  27.064  1.00  0.00    -0.352 N 
ATOM      5  O   UNL A   1      31.810  23.306  27.668  1.00  0.00    -0.270 OA
ATOM      6  C   UNL A   1      31.996  24.185  26.840  1.00  0.00     0.251 C 
ATOM      7  H   UNL A   1      31.011  25.618  27.830  1.00  0.00     0.163 HD
BRANCH   6   8
ATOM      8  C   UNL A   1      32.707  23.910  25.579  1.00  0.00     0.067 C 
ATOM      9  C   UNL A   1      34.005  24.237  25.537  1.00  0.00     0.025 C 
ATOM     10  C   UNL A   1      32.072  22.941  24.636  1.00  0.00     0.314 C 
ATOM     11  C   UNL A   1      34.859  23.176  24.991  1.00  0.00     0.020 A 
ATOM     12  O   UNL A   1      32.935  21.815  24.345  1.00  0.00    -0.474 OA
ATOM     13  C   UNL A   1      36.217  23.232  25.311  1.00  0.00     0.034 A 
ATOM     14  C   UNL A   1      34.285  21.956  24.582  1.00  0.00     0.148 A 
ATOM     15  C   UNL A   1      36.973  22.058  25.356  1.00  0.00     0.062 A 
ATOM     16  C   UNL A   1      35.058  20.780  24.598  1.00  0.00     0.103 A 
ATOM     17  Cl  UNL A   1      38.587  22.200  25.960  1.00  0.00    -0.083 Cl
ATOM     18  C   UNL A   1      36.396  20.823  25.025  1.00  0.00     0.082 A 
ATOM     19  Cl  UNL A   1      34.273  19.266  24.246  1.00  0.00    -0.079 Cl
ATOM     20  Cl  UNL A   1      37.302  19.356  25.230  1.00  0.00    -0.081 Cl
BRANCH  10  21
ATOM     21  C   UNL A   1      31.616  23.625  23.338  1.00  0.00     0.429 C 
ATOM     22  F   UNL A   1      30.309  23.367  23.086  1.00  0.00    -0.167 F 
ATOM     23  F   UNL A   1      31.742  24.971  23.399  1.00  0.00    -0.167 F 
ATOM     24  F   UNL A   1      32.321  23.201  22.262  1.00  0.00    -0.167 F 
ENDBRANCH  10  21
ENDBRANCH   6   8
ENDBRANCH   3   4
ENDBRANCH   2   3
ENDBRANCH   1   2
BRANCH   1  25
ATOM     25  N   UNL A   1      33.478  29.950  27.680  1.00  0.00    -0.352 N 
ATOM     26  C   UNL A   1      34.502  30.680  28.253  1.00  0.00     0.251 C 
ATOM     27  H   UNL A   1      32.629  30.438  27.582  1.00  0.00     0.163 HD
ATOM     28  O   UNL A   1      34.283  31.809  28.659  1.00  0.00    -0.269 OA
BRANCH  26  29
ATOM     29  C   UNL A   1      35.850  30.079  28.408  1.00  0.00     0.039 A 
ATOM     30  C   UNL A   1      36.739  30.108  27.328  1.00  0.00     0.014 A 
ATOM     31  C   UNL A   1      36.247  29.518  29.618  1.00  0.00     0.014 A 
ATOM     32  C   UNL A   1      38.058  29.674  27.504  1.00  0.00     0.010 A 
ATOM     33  C   UNL A   1      37.585  29.207  29.826  1.00  0.00     0.010 A 
ATOM     34  C   UNL A   1      38.510  29.278  28.772  1.00  0.00    -0.014 A 
BRANCH  34  35
ATOM     35  C   UNL A   1      39.928  28.917  29.044  1.00  0.00     0.031 A 
ATOM     36  C   UNL A   1      40.868  29.961  29.593  1.00  0.00     0.074 A 
ATOM     37  C   UNL A   1      40.401  27.705  28.689  1.00  0.00     0.049 A 
ATOM     38  N   UNL A   1      42.170  29.931  29.700  1.00  0.00    -0.248 NA
ATOM     39  C   UNL A   1      40.263  31.233  30.024  1.00  0.00     0.031 C 
ATOM     40  C   UNL A   1      39.613  26.623  28.092  1.00  0.00     0.029 A 
ATOM     41  N   UNL A   1      41.670  27.184  28.760  1.00  0.00    -0.354 N 
ATOM     42  C   UNL A   1      42.541  31.190  30.158  1.00  0.00     0.074 A 
ATOM     43  C   UNL A   1      41.332  31.978  30.254  1.00  0.00     0.031 C 
ATOM     44  C   UNL A   1      40.409  25.562  27.876  1.00  0.00     0.029 A 
ATOM     45  C   UNL A   1      41.771  25.900  28.273  1.00  0.00     0.049 A 
ATOM     46  H   UNL A   1      42.437  27.682  29.125  1.00  0.00     0.167 HD
ATOM     47  C   UNL A   1      43.772  31.643  30.497  1.00  0.00     0.037 A 
ATOM     48  C   UNL A   1      42.842  25.092  28.150  1.00  0.00     0.037 A 
ATOM     49  C   UNL A   1      44.956  30.828  30.477  1.00  0.00     0.049 A 
ATOM     50  C   UNL A   1      44.189  25.593  28.592  1.00  0.00     0.074 A 
ATOM     51  C   UNL A   1      46.237  31.159  30.881  1.00  0.00     0.029 A 
ATOM     52  N   UNL A   1      45.000  29.511  30.045  1.00  0.00    -0.354 N 
ATOM     53  N   UNL A   1      44.515  26.774  29.063  1.00  0.00    -0.248 NA
ATOM     54  C   UNL A   1      45.317  24.655  28.490  1.00  0.00     0.031 C 
ATOM     55  C   UNL A   1      47.060  30.048  30.672  1.00  0.00     0.029 A 
ATOM     56  C   UNL A   1      46.286  29.014  30.171  1.00  0.00     0.049 A 
ATOM     57  H   UNL A   1      44.230  29.003  29.701  1.00  0.00     0.167 HD
ATOM     58  C   UNL A   1      45.876  26.712  29.338  1.00  0.00     0.074 A 
ATOM     59  C   UNL A   1      46.312  25.375  28.989  1.00  0.00     0.031 C 
ATOM     60  C   UNL A   1      46.693  27.674  29.833  1.00  0.00     0.037 A 
BRANCH  47  61
ATOM     61  C   UNL A   1      43.890  33.076  30.939  1.00  0.00     0.058 A 
ATOM     62  C   UNL A   1      44.046  34.124  30.017  1.00  0.00     0.135 A 
ATOM     63  C   UNL A   1      43.833  33.410  32.303  1.00  0.00     0.135 A 
ATOM     64  F   UNL A   1      44.123  33.861  28.703  1.00  0.00    -0.206 F 
ATOM     65  C   UNL A   1      44.184  35.444  30.431  1.00  0.00     0.059 A 
ATOM     66  C   UNL A   1      43.937  34.728  32.738  1.00  0.00     0.059 A 
ATOM     67  F   UNL A   1      43.683  32.449  33.228  1.00  0.00    -0.206 F 
ATOM     68  C   UNL A   1      44.131  35.736  31.794  1.00  0.00     0.060 A 
BRANCH  68  69
ATOM     69  S   UNL A   1      44.317  37.454  32.315  1.00  0.00     0.124 S 
ATOM     70  O   UNL A   1      45.698  37.466  32.785  1.00  0.00    -0.237 OA
ATOM     71  O   UNL A   1      44.063  38.187  31.079  1.00  0.00    -0.237 OA
ATOM     72  O   UNL A   1      43.300  37.607  33.351  1.00  0.00    -0.744 OA
ENDBRANCH  68  69
ENDBRANCH  47  61
BRANCH  48  73
ATOM     73  C   UNL A   1      42.677  23.714  27.615  1.00  0.00     0.058 A 
ATOM     74  C   UNL A   1      42.455  22.632  28.479  1.00  0.00     0.135 A 
ATOM     75  C   UNL A   1      42.721  23.449  26.237  1.00  0.00     0.135 A 
ATOM     76  F   UNL A   1      42.411  22.833  29.805  1.00  0.00    -0.206 F 
ATOM     77  C   UNL A   1      42.297  21.334  28.002  1.00  0.00     0.059 A 
ATOM     78  C   UNL A   1      42.542  22.164  25.733  1.00  0.00     0.059 A 
ATOM     79  F   UNL A   1      42.913  24.452  25.366  1.00  0.00    -0.206 F 
ATOM     80  C   UNL A   1      42.340  21.111  26.625  1.00  0.00     0.060 A 
BRANCH  80  81
ATOM     81  S   UNL A   1      42.083  19.432  26.010  1.00  0.00     0.124 S 
ATOM     82  O   UNL A   1      42.892  19.436  24.798  1.00  0.00    -0.237 OA
ATOM     83  O   UNL A   1      42.589  18.620  27.112  1.00  0.00    -0.237 OA
ATOM     84  O   UNL A   1      40.638  19.368  25.808  1.00  0.00    -0.744 OA
ENDBRANCH  80  81
ENDBRANCH  48  73
BRANCH  60  85
ATOM     85  C   UNL A   1      48.130  27.309  30.065  1.00  0.00     0.058 A 
ATOM     86  C   UNL A   1      49.116  27.555  29.099  1.00  0.00     0.135 A 
ATOM     87  C   UNL A   1      48.534  26.771  31.298  1.00  0.00     0.135 A 
ATOM     88  F   UNL A   1      48.780  28.063  27.903  1.00  0.00    -0.206 F 
ATOM     89  C   UNL A   1      50.455  27.267  29.342  1.00  0.00     0.059 A 
ATOM     90  C   UNL A   1      49.870  26.497  31.571  1.00  0.00     0.059 A 
ATOM     91  F   UNL A   1      47.627  26.527  32.259  1.00  0.00    -0.206 F 
ATOM     92  C   UNL A   1      50.823  26.741  30.582  1.00  0.00     0.060 A 
BRANCH  92  93
ATOM     93  S   UNL A   1      52.569  26.417  30.903  1.00  0.00     0.124 S 
ATOM     94  O   UNL A   1      53.082  26.213  29.552  1.00  0.00    -0.237 OA
ATOM     95  O   UNL A   1      52.998  27.643  31.567  1.00  0.00    -0.237 OA
ATOM     96  O   UNL A   1      52.543  25.229  31.751  1.00  0.00    -0.744 OA
ENDBRANCH  92  93
ENDBRANCH  60  85
ENDBRANCH  34  35
ENDBRANCH  26  29
ENDBRANCH   1  25
TORSDOF 14
ENDMDL
MODEL 2
REMARK VINA RESULT:     -12.4      4.143      6.699
REMARK SMILES O=C(NCCCNC(=O)c1ccc(-c2c3nc(c(-c4c(F)cc(S(=O)(=O)[O-])cc4F)c4ccc([nH]4)c(-c4c(F)cc(S(=O)(=O)[O-])cc4F)c4nc(c(-c5c(F)cc(S(=O)(=O)[O-])cc5F)c5ccc2[nH]5)C=C4)C=C3)cc1)C1=Cc2cc(Cl)c(Cl)c(Cl)c2O[C@@H]1C(F)(F)F
REMARK SMILES IDX 6 1 5 2 4 3 3 4 1 5 2 6 76 8 77 9 88 10 78 11 87 12 79 13
REMARK SMILES IDX 86 14 80 15 84 16 81 17 82 18 85 19 83 20 89 21 90 22 91 23
REMARK SMILES IDX 92 24 7 25 8 26 9 28 10 29 11 30 75 31 12 32 74 33 13 34
REMARK SMILES IDX 14 35 15 36 68 37 16 38 73 39 67 40 69 41 17 42 72 43 66 44
REMARK SMILES IDX 65 45 18 47 52 48 31 49 51 50 32 51 35 52 50 53 70 54 33 55
REMARK SMILES IDX 34 56 49 58 71 59 36 60 19 61 20 62 29 63 21 64 22 65 28 66
REMARK SMILES IDX 30 67 23 68 24 69 25 70 26 71 27 72 53 73 54 74 63 75 55 76
REMARK SMILES IDX 56 77 62 78 64 79 57 80 58 81 59 82 60 83 61 84 37 85 38 86
REMARK SMILES IDX 47 87 39 88 40 89 46 90 48 91 41 92 42 93 43 94 44 95 45 96
REMARK H PARENT 3 7 7 27 69 46 35 57
REMARK Flexibility Score: inf
ROOT
ATOM      1  C   UNL A   1      34.310  32.400  27.966  1.00  0.00     0.118 C 
ENDROOT
BRANCH   1   2
ATOM      2  C   UNL A   1      34.184  32.963  29.376  1.00  0.00     0.042 C 
BRANCH   2   3
ATOM      3  C   UNL A   1      34.726  34.383  29.481  1.00  0.00     0.118 C 
BRANCH   3   4
ATOM      4  N   UNL A   1      36.160  34.480  29.195  1.00  0.00    -0.352 N 
ATOM      5  O   UNL A   1      38.363  33.989  29.457  1.00  0.00    -0.270 OA
ATOM      6  C   UNL A   1      37.238  34.046  29.931  1.00  0.00     0.251 C 
ATOM      7  H   UNL A   1      36.387  34.924  28.347  1.00  0.00     0.163 HD
BRANCH   6   8
ATOM      8  C   UNL A   1      36.962  33.586  31.304  1.00  0.00     0.067 C 
ATOM      9  C   UNL A   1      37.052  32.268  31.525  1.00  0.00     0.025 C 
ATOM     10  C   UNL A   1      37.023  34.608  32.391  1.00  0.00     0.314 C 
ATOM     11  C   UNL A   1      37.826  31.927  32.723  1.00  0.00     0.020 A 
ATOM     12  O   UNL A   1      37.991  34.265  33.411  1.00  0.00    -0.474 OA
ATOM     13  C   UNL A   1      38.345  30.632  32.791  1.00  0.00     0.034 A 
ATOM     14  C   UNL A   1      38.395  32.951  33.505  1.00  0.00     0.148 A 
ATOM     15  C   UNL A   1      39.506  30.382  33.526  1.00  0.00     0.062 A 
ATOM     16  C   UNL A   1      39.546  32.689  34.270  1.00  0.00     0.103 A 
ATOM     17  Cl  UNL A   1      40.186  28.798  33.385  1.00  0.00    -0.083 Cl
ATOM     18  C   UNL A   1      40.128  31.410  34.250  1.00  0.00     0.082 A 
ATOM     19  Cl  UNL A   1      40.318  34.016  35.092  1.00  0.00    -0.079 Cl
ATOM     20  Cl  UNL A   1      41.651  31.123  35.035  1.00  0.00    -0.081 Cl
BRANCH  10  21
ATOM     21  C   UNL A   1      35.641  34.858  33.016  1.00  0.00     0.429 C 
ATOM     22  F   UNL A   1      34.795  33.832  32.750  1.00  0.00    -0.167 F 
ATOM     23  F   UNL A   1      35.703  34.972  34.363  1.00  0.00    -0.167 F 
ATOM     24  F   UNL A   1      35.062  35.986  32.541  1.00  0.00    -0.167 F 
ENDBRANCH  10  21
ENDBRANCH   6   8
ENDBRANCH   3   4
ENDBRANCH   2   3
ENDBRANCH   1   2
BRANCH   1  25
ATOM     25  N   UNL A   1      33.767  31.051  27.820  1.00  0.00    -0.352 N 
ATOM     26  C   UNL A   1      34.386  29.818  27.908  1.00  0.00     0.251 C 
ATOM     27  H   UNL A   1      32.803  31.016  27.627  1.00  0.00     0.163 HD
ATOM     28  O   UNL A   1      33.747  28.807  27.673  1.00  0.00    -0.269 OA
BRANCH  26  29
ATOM     29  C   UNL A   1      35.826  29.730  28.251  1.00  0.00     0.039 A 
ATOM     30  C   UNL A   1      36.200  29.324  29.536  1.00  0.00     0.014 A 
ATOM     31  C   UNL A   1      36.805  30.016  27.302  1.00  0.00     0.014 A 
ATOM     32  C   UNL A   1      37.551  29.100  29.827  1.00  0.00     0.010 A 
ATOM     33  C   UNL A   1      38.128  29.674  27.554  1.00  0.00     0.010 A 
ATOM     34  C   UNL A   1      38.521  29.213  28.820  1.00  0.00    -0.014 A 
BRANCH  34  35
ATOM     35  C   UNL A   1      39.954  28.876  29.041  1.00  0.00     0.031 A 
ATOM     36  C   UNL A   1      40.897  29.940  29.543  1.00  0.00     0.074 A 
ATOM     37  C   UNL A   1      40.432  27.668  28.680  1.00  0.00     0.049 A 
ATOM     38  N   UNL A   1      42.203  29.932  29.600  1.00  0.00    -0.248 NA
ATOM     39  C   UNL A   1      40.289  31.207  29.983  1.00  0.00     0.031 C 
ATOM     40  C   UNL A   1      39.639  26.568  28.124  1.00  0.00     0.029 A 
ATOM     41  N   UNL A   1      41.710  27.167  28.707  1.00  0.00    -0.354 N 
ATOM     42  C   UNL A   1      42.571  31.201  30.031  1.00  0.00     0.074 A 
ATOM     43  C   UNL A   1      41.354  31.972  30.165  1.00  0.00     0.031 C 
ATOM     44  C   UNL A   1      40.442  25.517  27.889  1.00  0.00     0.029 A 
ATOM     45  C   UNL A   1      41.814  25.880  28.230  1.00  0.00     0.049 A 
ATOM     46  H   UNL A   1      42.483  27.681  29.038  1.00  0.00     0.167 HD
ATOM     47  C   UNL A   1      43.807  31.677  30.318  1.00  0.00     0.037 A 
ATOM     48  C   UNL A   1      42.891  25.087  28.074  1.00  0.00     0.037 A 
ATOM     49  C   UNL A   1      45.002  30.880  30.260  1.00  0.00     0.049 A 
ATOM     50  C   UNL A   1      44.247  25.614  28.459  1.00  0.00     0.074 A 
ATOM     51  C   UNL A   1      46.292  31.235  30.612  1.00  0.00     0.029 A 
ATOM     52  N   UNL A   1      45.051  29.558  29.841  1.00  0.00    -0.354 N 
ATOM     53  N   UNL A   1      44.571  26.804  28.905  1.00  0.00    -0.248 NA
ATOM     54  C   UNL A   1      45.384  24.692  28.323  1.00  0.00     0.031 C 
ATOM     55  C   UNL A   1      47.124  30.134  30.383  1.00  0.00     0.029 A 
ATOM     56  C   UNL A   1      46.348  29.083  29.922  1.00  0.00     0.049 A 
ATOM     57  H   UNL A   1      44.276  29.035  29.531  1.00  0.00     0.167 HD
ATOM     58  C   UNL A   1      45.943  26.766  29.128  1.00  0.00     0.074 A 
ATOM     59  C   UNL A   1      46.386  25.432  28.777  1.00  0.00     0.031 C 
ATOM     60  C   UNL A   1      46.763  27.746  29.583  1.00  0.00     0.037 A 
BRANCH  47  61
ATOM     61  C   UNL A   1      43.919  33.116  30.741  1.00  0.00     0.058 A 
ATOM     62  C   UNL A   1      44.094  34.150  29.807  1.00  0.00     0.135 A 
ATOM     63  C   UNL A   1      43.837  33.470  32.098  1.00  0.00     0.135 A 
ATOM     64  F   UNL A   1      44.196  33.867  28.498  1.00  0.00    -0.206 F 
ATOM     65  C   UNL A   1      44.227  35.475  30.203  1.00  0.00     0.059 A 
ATOM     66  C   UNL A   1      43.935  34.794  32.515  1.00  0.00     0.059 A 
ATOM     67  F   UNL A   1      43.668  32.524  33.035  1.00  0.00    -0.206 F 
ATOM     68  C   UNL A   1      44.149  35.788  31.560  1.00  0.00     0.060 A 
BRANCH  68  69
ATOM     69  S   UNL A   1      44.328  37.513  32.059  1.00  0.00     0.124 S 
ATOM     70  O   UNL A   1      43.865  38.210  30.864  1.00  0.00    -0.237 OA
ATOM     71  O   UNL A   1      43.449  37.597  33.221  1.00  0.00    -0.237 OA
ATOM     72  O   UNL A   1      45.754  37.637  32.347  1.00  0.00    -0.744 OA
ENDBRANCH  68  69
ENDBRANCH  47  61
BRANCH  48  73
ATOM     73  C   UNL A   1      42.728  23.701  27.559  1.00  0.00     0.058 A 
ATOM     74  C   UNL A   1      42.537  22.628  28.442  1.00  0.00     0.135 A 
ATOM     75  C   UNL A   1      42.742  23.420  26.184  1.00  0.00     0.135 A 
ATOM     76  F   UNL A   1      42.523  22.844  29.766  1.00  0.00    -0.206 F 
ATOM     77  C   UNL A   1      42.381  21.323  27.983  1.00  0.00     0.059 A 
ATOM     78  C   UNL A   1      42.565  22.128  25.700  1.00  0.00     0.059 A 
ATOM     79  F   UNL A   1      42.903  24.415  25.297  1.00  0.00    -0.206 F 
ATOM     80  C   UNL A   1      42.395  21.083  26.609  1.00  0.00     0.060 A 
BRANCH  80  81
ATOM     81  S   UNL A   1      42.140  19.394  26.021  1.00  0.00     0.124 S 
ATOM     82  O   UNL A   1      42.991  19.364  24.837  1.00  0.00    -0.237 OA
ATOM     83  O   UNL A   1      42.598  18.600  27.156  1.00  0.00    -0.237 OA
ATOM     84  O   UNL A   1      40.703  19.342  25.769  1.00  0.00    -0.744 OA
ENDBRANCH  80  81
ENDBRANCH  48  73
BRANCH  60  85
ATOM     85  C   UNL A   1      48.213  27.405  29.763  1.00  0.00     0.058 A 
ATOM     86  C   UNL A   1      49.163  27.686  28.770  1.00  0.00     0.135 A 
ATOM     87  C   UNL A   1      48.666  26.856  30.974  1.00  0.00     0.135 A 
ATOM     88  F   UNL A   1      48.779  28.205  27.594  1.00  0.00    -0.206 F 
ATOM     89  C   UNL A   1      50.514  27.420  28.966  1.00  0.00     0.059 A 
ATOM     90  C   UNL A   1      50.015  26.604  31.200  1.00  0.00     0.059 A 
ATOM     91  F   UNL A   1      47.796  26.580  31.959  1.00  0.00    -0.206 F 
ATOM     92  C   UNL A   1      50.931  26.882  30.186  1.00  0.00     0.060 A 
BRANCH  92  93
ATOM     93  S   UNL A   1      52.693  26.587  30.446  1.00  0.00     0.124 S 
ATOM     94  O   UNL A   1      52.668  25.474  31.388  1.00  0.00    -0.237 OA
ATOM     95  O   UNL A   1      53.159  26.269  29.100  1.00  0.00    -0.237 OA
ATOM     96  O   UNL A   1      53.173  27.856  30.984  1.00  0.00    -0.744 OA
ENDBRANCH  92  93
ENDBRANCH  60  85
ENDBRANCH  34  35
ENDBRANCH  26  29
ENDBRANCH   1  25
TORSDOF 14
ENDMDL
MODEL 3
REMARK VINA RESULT:     -12.0      5.078     10.394
REMARK SMILES O=C(NCCCNC(=O)c1ccc(-c2c3nc(c(-c4c(F)cc(S(=O)(=O)[O-])cc4F)c4ccc([nH]4)c(-c4c(F)cc(S(=O)(=O)[O-])cc4F)c4nc(c(-c5c(F)cc(S(=O)(=O)[O-])cc5F)c5ccc2[nH]5)C=C4)C=C3)cc1)C1=Cc2cc(Cl)c(Cl)c(Cl)c2O[C@@H]1C(F)(F)F
REMARK SMILES IDX 6 1 5 2 4 3 3 4 1 5 2 6 76 8 77 9 88 10 78 11 87 12 79 13
REMARK SMILES IDX 86 14 80 15 84 16 81 17 82 18 85 19 83 20 89 21 90 22 91 23
REMARK SMILES IDX 92 24 7 25 8 26 9 28 10 29 11 30 75 31 12 32 74 33 13 34
REMARK SMILES IDX 14 35 15 36 68 37 16 38 73 39 67 40 69 41 17 42 72 43 66 44
REMARK SMILES IDX 65 45 18 47 52 48 31 49 51 50 32 51 35 52 50 53 70 54 33 55
REMARK SMILES IDX 34 56 49 58 71 59 36 60 19 61 20 62 29 63 21 64 22 65 28 66
REMARK SMILES IDX 30 67 23 68 24 69 25 70 26 71 27 72 53 73 54 74 63 75 55 76
REMARK SMILES IDX 56 77 62 78 64 79 57 80 58 81 59 82 60 83 61 84 37 85 38 86
REMARK SMILES IDX 47 87 39 88 40 89 46 90 48 91 41 92 42 93 43 94 44 95 45 96
REMARK H PARENT 3 7 7 27 69 46 35 57
REMARK Flexibility Score: inf
ROOT
ATOM      1  C   UNL A   1      39.849  23.105  26.935  1.00  0.00     0.118 C 
ENDROOT
BRANCH   1   2
ATOM      2  C   UNL A   1      38.559  23.461  26.205  1.00  0.00     0.042 C 
BRANCH   2   3
ATOM      3  C   UNL A   1      37.871  22.235  25.618  1.00  0.00     0.118 C 
BRANCH   3   4
ATOM      4  N   UNL A   1      37.415  22.429  24.238  1.00  0.00    -0.352 N 
ATOM      5  O   UNL A   1      36.095  23.270  22.591  1.00  0.00    -0.270 OA
ATOM      6  C   UNL A   1      36.237  22.957  23.763  1.00  0.00     0.251 C 
ATOM      7  H   UNL A   1      38.050  22.137  23.545  1.00  0.00     0.163 HD
BRANCH   6   8
ATOM      8  C   UNL A   1      35.171  23.194  24.753  1.00  0.00     0.067 C 
ATOM      9  C   UNL A   1      35.157  24.395  25.346  1.00  0.00     0.025 C 
ATOM     10  C   UNL A   1      33.986  22.285  24.709  1.00  0.00     0.314 C 
ATOM     11  C   UNL A   1      33.831  25.021  25.370  1.00  0.00     0.020 A 
ATOM     12  O   UNL A   1      32.749  23.008  24.506  1.00  0.00    -0.474 OA
ATOM     13  C   UNL A   1      33.791  26.405  25.547  1.00  0.00     0.034 A 
ATOM     14  C   UNL A   1      32.732  24.356  24.793  1.00  0.00     0.148 A 
ATOM     15  C   UNL A   1      32.723  27.144  25.032  1.00  0.00     0.062 A 
ATOM     16  C   UNL A   1      31.643  25.101  24.303  1.00  0.00     0.103 A 
ATOM     17  Cl  UNL A   1      32.861  28.866  25.118  1.00  0.00    -0.083 Cl
ATOM     18  C   UNL A   1      31.656  26.503  24.386  1.00  0.00     0.082 A 
ATOM     19  Cl  UNL A   1      30.379  24.260  23.449  1.00  0.00    -0.079 Cl
ATOM     20  Cl  UNL A   1      30.413  27.442  23.618  1.00  0.00    -0.081 Cl
BRANCH  10  21
ATOM     21  C   UNL A   1      33.900  21.402  25.964  1.00  0.00     0.429 C 
ATOM     22  F   UNL A   1      32.818  21.727  26.714  1.00  0.00    -0.167 F 
ATOM     23  F   UNL A   1      33.781  20.090  25.658  1.00  0.00    -0.167 F 
ATOM     24  F   UNL A   1      34.990  21.534  26.758  1.00  0.00    -0.167 F 
ENDBRANCH  10  21
ENDBRANCH   6   8
ENDBRANCH   3   4
ENDBRANCH   2   3
ENDBRANCH   1   2
BRANCH   1  25
ATOM     25  N   UNL A   1      41.059  23.488  26.212  1.00  0.00    -0.352 N 
ATOM     26  C   UNL A   1      41.815  24.643  26.272  1.00  0.00     0.251 C 
ATOM     27  H   UNL A   1      41.389  22.811  25.577  1.00  0.00     0.163 HD
ATOM     28  O   UNL A   1      42.759  24.785  25.513  1.00  0.00    -0.269 OA
BRANCH  26  29
ATOM     29  C   UNL A   1      41.458  25.719  27.229  1.00  0.00     0.039 A 
ATOM     30  C   UNL A   1      40.571  25.438  28.274  1.00  0.00     0.014 A 
ATOM     31  C   UNL A   1      42.016  26.989  27.117  1.00  0.00     0.014 A 
ATOM     32  C   UNL A   1      40.337  26.400  29.263  1.00  0.00     0.010 A 
ATOM     33  C   UNL A   1      41.882  27.894  28.162  1.00  0.00     0.010 A 
ATOM     34  C   UNL A   1      41.039  27.615  29.249  1.00  0.00    -0.014 A 
BRANCH  34  35
ATOM     35  C   UNL A   1      40.918  28.626  30.334  1.00  0.00     0.031 A 
ATOM     36  C   UNL A   1      41.811  28.526  31.546  1.00  0.00     0.074 A 
ATOM     37  C   UNL A   1      39.938  29.552  30.294  1.00  0.00     0.049 A 
ATOM     38  N   UNL A   1      41.733  29.157  32.688  1.00  0.00    -0.248 NA
ATOM     39  C   UNL A   1      42.901  27.539  31.482  1.00  0.00     0.031 C 
ATOM     40  C   UNL A   1      38.967  29.720  29.209  1.00  0.00     0.029 A 
ATOM     41  N   UNL A   1      39.580  30.516  31.204  1.00  0.00    -0.354 N 
ATOM     42  C   UNL A   1      42.726  28.608  33.492  1.00  0.00     0.074 A 
ATOM     43  C   UNL A   1      43.355  27.554  32.726  1.00  0.00     0.031 C 
ATOM     44  C   UNL A   1      38.145  30.740  29.505  1.00  0.00     0.029 A 
ATOM     45  C   UNL A   1      38.495  31.269  30.818  1.00  0.00     0.049 A 
ATOM     46  H   UNL A   1      40.056  30.657  32.055  1.00  0.00     0.167 HD
ATOM     47  C   UNL A   1      43.101  28.965  34.743  1.00  0.00     0.037 A 
ATOM     48  C   UNL A   1      37.849  32.266  31.455  1.00  0.00     0.037 A 
ATOM     49  C   UNL A   1      42.526  30.067  35.465  1.00  0.00     0.049 A 
ATOM     50  C   UNL A   1      38.324  32.690  32.817  1.00  0.00     0.074 A 
ATOM     51  C   UNL A   1      42.889  30.571  36.701  1.00  0.00     0.029 A 
ATOM     52  N   UNL A   1      41.477  30.850  35.006  1.00  0.00    -0.354 N 
ATOM     53  N   UNL A   1      39.292  32.187  33.546  1.00  0.00    -0.248 NA
ATOM     54  C   UNL A   1      37.622  33.818  33.447  1.00  0.00     0.031 C 
ATOM     55  C   UNL A   1      42.043  31.644  36.999  1.00  0.00     0.029 A 
ATOM     56  C   UNL A   1      41.177  31.832  35.934  1.00  0.00     0.049 A 
ATOM     57  H   UNL A   1      41.014  30.726  34.145  1.00  0.00     0.167 HD
ATOM     58  C   UNL A   1      39.334  32.952  34.705  1.00  0.00     0.074 A 
ATOM     59  C   UNL A   1      38.299  33.958  34.578  1.00  0.00     0.031 C 
ATOM     60  C   UNL A   1      40.154  32.834  35.779  1.00  0.00     0.037 A 
BRANCH  47  61
ATOM     61  C   UNL A   1      44.200  28.171  35.395  1.00  0.00     0.058 A 
ATOM     62  C   UNL A   1      43.926  27.055  36.203  1.00  0.00     0.135 A 
ATOM     63  C   UNL A   1      45.547  28.519  35.199  1.00  0.00     0.135 A 
ATOM     64  F   UNL A   1      42.657  26.687  36.438  1.00  0.00    -0.206 F 
ATOM     65  C   UNL A   1      44.942  26.341  36.828  1.00  0.00     0.059 A 
ATOM     66  C   UNL A   1      46.582  27.799  35.788  1.00  0.00     0.059 A 
ATOM     67  F   UNL A   1      45.868  29.575  34.434  1.00  0.00    -0.206 F 
ATOM     68  C   UNL A   1      46.267  26.723  36.617  1.00  0.00     0.060 A 
BRANCH  68  69
ATOM     69  S   UNL A   1      47.574  25.788  37.439  1.00  0.00     0.124 S 
ATOM     70  O   UNL A   1      47.164  24.415  37.166  1.00  0.00    -0.237 OA
ATOM     71  O   UNL A   1      48.773  26.242  36.739  1.00  0.00    -0.237 OA
ATOM     72  O   UNL A   1      47.469  26.210  38.832  1.00  0.00    -0.744 OA
ENDBRANCH  68  69
ENDBRANCH  47  61
BRANCH  48  73
ATOM     73  C   UNL A   1      36.705  32.952  30.796  1.00  0.00     0.058 A 
ATOM     74  C   UNL A   1      35.386  32.684  31.192  1.00  0.00     0.135 A 
ATOM     75  C   UNL A   1      36.902  33.897  29.777  1.00  0.00     0.135 A 
ATOM     76  F   UNL A   1      35.146  31.784  32.158  1.00  0.00    -0.206 F 
ATOM     77  C   UNL A   1      34.300  33.315  30.592  1.00  0.00     0.059 A 
ATOM     78  C   UNL A   1      35.834  34.559  29.178  1.00  0.00     0.059 A 
ATOM     79  F   UNL A   1      38.145  34.203  29.375  1.00  0.00    -0.206 F 
ATOM     80  C   UNL A   1      34.535  34.254  29.585  1.00  0.00     0.060 A 
BRANCH  80  81
ATOM     81  S   UNL A   1      33.123  35.105  28.848  1.00  0.00     0.124 S 
ATOM     82  O   UNL A   1      32.290  35.359  30.017  1.00  0.00    -0.237 OA
ATOM     83  O   UNL A   1      33.751  36.277  28.245  1.00  0.00    -0.237 OA
ATOM     84  O   UNL A   1      32.602  34.126  27.899  1.00  0.00    -0.744 OA
ENDBRANCH  80  81
ENDBRANCH  48  73
BRANCH  60  85
ATOM     85  C   UNL A   1      39.994  33.836  36.884  1.00  0.00     0.058 A 
ATOM     86  C   UNL A   1      40.683  35.058  36.874  1.00  0.00     0.135 A 
ATOM     87  C   UNL A   1      39.086  33.600  37.928  1.00  0.00     0.135 A 
ATOM     88  F   UNL A   1      41.566  35.328  35.900  1.00  0.00    -0.206 F 
ATOM     89  C   UNL A   1      40.488  36.007  37.871  1.00  0.00     0.059 A 
ATOM     90  C   UNL A   1      38.857  34.544  38.924  1.00  0.00     0.059 A 
ATOM     91  F   UNL A   1      38.394  32.449  37.976  1.00  0.00    -0.206 F 
ATOM     92  C   UNL A   1      39.570  35.743  38.891  1.00  0.00     0.060 A 
BRANCH  92  93
ATOM     93  S   UNL A   1      39.289  37.003  40.152  1.00  0.00     0.124 S 
ATOM     94  O   UNL A   1      38.469  36.276  41.115  1.00  0.00    -0.237 OA
ATOM     95  O   UNL A   1      40.646  37.320  40.585  1.00  0.00    -0.237 OA
ATOM     96  O   UNL A   1      38.607  38.067  39.422  1.00  0.00    -0.744 OA
ENDBRANCH  92  93
ENDBRANCH  60  85
ENDBRANCH  34  35
ENDBRANCH  26  29
ENDBRANCH   1  25
TORSDOF 14
ENDMDL
