MODEL 1
REMARK VINA RESULT:     -10.7      0.000      0.000
REMARK SMILES C=CC[N@@H+](CC(=O)NCCCNC(=O)c1ccc(-c2c3nc(c(-c4c(F)cc(S(=O)(=O)[O-])cc4F)c4ccc([nH]4)c(-c4c(F)cc(S(=O)(=O)[O-])cc4F)c4nc(c(-c5c(F)cc(S(=O)(=O)[O-])cc5F)c5ccc2[nH]5)C=C4)C=C3)cc1)[C@@H]1CC[N@@H+](C(C)C)C1
REMARK SMILES IDX 10 1 9 2 8 3 6 4 7 5 5 7 4 8 3 10 2 11 1 12 81 13 82 14
REMARK SMILES IDX 88 15 83 16 84 17 85 19 86 20 87 21 11 22 12 23 13 24 14 26
REMARK SMILES IDX 15 27 16 28 80 29 17 30 79 31 18 32 19 33 20 34 73 35 21 36
REMARK SMILES IDX 78 37 72 38 74 39 22 40 77 41 71 42 70 43 23 45 57 46 36 47
REMARK SMILES IDX 56 48 37 49 40 50 55 51 75 52 38 53 39 54 54 56 76 57 41 58
REMARK SMILES IDX 24 59 25 60 34 61 26 62 27 63 33 64 35 65 28 66 29 67 30 68
REMARK SMILES IDX 31 69 32 70 58 71 59 72 68 73 60 74 61 75 67 76 69 77 62 78
REMARK SMILES IDX 63 79 64 80 65 81 66 82 42 83 43 84 52 85 44 86 45 87 51 88
REMARK SMILES IDX 53 89 46 90 47 91 48 92 49 93 50 94
REMARK H PARENT 8 6 4 9 84 18 12 25 74 44 40 55
REMARK Flexibility Score: inf
ROOT
ATOM      1  C   UNL A   1      40.931  21.454  27.841  1.00  0.00     0.042 C 
ENDROOT
BRANCH   1   2
ATOM      2  C   UNL A   1      40.727  20.973  26.404  1.00  0.00     0.118 C 
BRANCH   2   3
ATOM      3  N   UNL A   1      41.153  19.594  26.263  1.00  0.00    -0.351 N 
ATOM      4  C   UNL A   1      42.369  19.051  25.979  1.00  0.00     0.275 C 
ATOM      5  O   UNL A   1      42.382  17.830  25.793  1.00  0.00    -0.269 OA
ATOM      6  H   UNL A   1      40.436  18.933  26.396  1.00  0.00     0.163 HD
BRANCH   4   7
ATOM      7  C   UNL A   1      43.666  19.881  25.983  1.00  0.00     0.364 C 
BRANCH   7   8
ATOM      8  N   UNL A   1      44.049  20.551  24.712  1.00  0.00    -0.317 N 
ATOM      9  H   UNL A   1      43.241  20.468  24.095  1.00  0.00     0.349 HD
BRANCH   8  10
ATOM     10  C   UNL A   1      45.167  19.841  24.082  1.00  0.00     0.291 C 
BRANCH  10  11
ATOM     11  C   UNL A   1      46.382  19.498  24.891  1.00  0.00     0.025 C 
ATOM     12  C   UNL A   1      46.429  18.489  25.776  1.00  0.00     0.010 C 
ENDBRANCH  10  11
ENDBRANCH   8  10
BRANCH   8  13
ATOM     13  C   UNL A   1      44.168  22.028  24.746  1.00  0.00     0.246 C 
ATOM     14  C   UNL A   1      45.013  22.733  23.670  1.00  0.00     0.132 C 
ATOM     15  C   UNL A   1      44.860  22.498  26.060  1.00  0.00     0.328 C 
ATOM     16  C   UNL A   1      46.269  23.236  24.352  1.00  0.00     0.269 C 
ATOM     17  N   UNL A   1      45.933  23.445  25.751  1.00  0.00    -0.328 N 
ATOM     18  H   UNL A   1      46.745  23.249  26.337  1.00  0.00     0.348 HD
BRANCH  17  19
ATOM     19  C   UNL A   1      45.719  24.835  26.166  1.00  0.00     0.177 C 
ATOM     20  C   UNL A   1      44.754  25.648  25.301  1.00  0.00     0.075 C 
ATOM     21  C   UNL A   1      45.286  24.881  27.639  1.00  0.00     0.075 C 
ENDBRANCH  17  19
ENDBRANCH   8  13
ENDBRANCH   7   8
ENDBRANCH   4   7
ENDBRANCH   2   3
ENDBRANCH   1   2
BRANCH   1  22
ATOM     22  C   UNL A   1      41.675  22.775  27.955  1.00  0.00     0.118 C 
BRANCH  22  23
ATOM     23  N   UNL A   1      41.666  23.521  26.711  1.00  0.00    -0.352 N 
ATOM     24  C   UNL A   1      41.323  24.826  26.457  1.00  0.00     0.251 C 
ATOM     25  H   UNL A   1      41.952  23.009  25.920  1.00  0.00     0.163 HD
ATOM     26  O   UNL A   1      41.175  25.176  25.286  1.00  0.00    -0.269 OA
BRANCH  24  27
ATOM     27  C   UNL A   1      41.110  25.807  27.551  1.00  0.00     0.039 A 
ATOM     28  C   UNL A   1      42.073  26.802  27.754  1.00  0.00     0.014 A 
ATOM     29  C   UNL A   1      40.019  25.728  28.420  1.00  0.00     0.014 A 
ATOM     30  C   UNL A   1      41.922  27.727  28.792  1.00  0.00     0.010 A 
ATOM     31  C   UNL A   1      39.816  26.711  29.388  1.00  0.00     0.010 A 
ATOM     32  C   UNL A   1      40.779  27.706  29.605  1.00  0.00    -0.014 A 
BRANCH  32  33
ATOM     33  C   UNL A   1      40.598  28.683  30.714  1.00  0.00     0.031 A 
ATOM     34  C   UNL A   1      41.456  28.589  31.950  1.00  0.00     0.074 A 
ATOM     35  C   UNL A   1      39.639  29.625  30.633  1.00  0.00     0.049 A 
ATOM     36  N   UNL A   1      41.417  29.310  33.042  1.00  0.00    -0.248 NA
ATOM     37  C   UNL A   1      42.473  27.526  31.975  1.00  0.00     0.031 C 
ATOM     38  C   UNL A   1      38.711  29.794  29.512  1.00  0.00     0.029 A 
ATOM     39  N   UNL A   1      39.280  30.617  31.511  1.00  0.00    -0.354 N 
ATOM     40  C   UNL A   1      42.385  28.776  33.886  1.00  0.00     0.074 A 
ATOM     41  C   UNL A   1      42.954  27.634  33.205  1.00  0.00     0.031 C 
ATOM     42  C   UNL A   1      37.913  30.847  29.756  1.00  0.00     0.029 A 
ATOM     43  C   UNL A   1      38.245  31.404  31.064  1.00  0.00     0.049 A 
ATOM     44  H   UNL A   1      39.722  30.752  32.381  1.00  0.00     0.167 HD
ATOM     45  C   UNL A   1      42.784  29.210  35.107  1.00  0.00     0.037 A 
ATOM     46  C   UNL A   1      37.632  32.456  31.641  1.00  0.00     0.037 A 
ATOM     47  C   UNL A   1      42.241  30.368  35.766  1.00  0.00     0.049 A 
ATOM     48  C   UNL A   1      38.099  32.930  32.990  1.00  0.00     0.074 A 
ATOM     49  C   UNL A   1      42.617  30.926  36.976  1.00  0.00     0.029 A 
ATOM     50  N   UNL A   1      41.206  31.148  35.271  1.00  0.00    -0.354 N 
ATOM     51  N   UNL A   1      39.052  32.445  33.749  1.00  0.00    -0.248 NA
ATOM     52  C   UNL A   1      37.411  34.098  33.559  1.00  0.00     0.031 C 
ATOM     53  C   UNL A   1      41.785  32.022  37.229  1.00  0.00     0.029 A 
ATOM     54  C   UNL A   1      40.919  32.173  36.158  1.00  0.00     0.049 A 
ATOM     55  H   UNL A   1      40.744  30.996  34.416  1.00  0.00     0.167 HD
ATOM     56  C   UNL A   1      39.096  33.263  34.873  1.00  0.00     0.074 A 
ATOM     57  C   UNL A   1      38.080  34.279  34.690  1.00  0.00     0.031 C 
ATOM     58  C   UNL A   1      39.906  33.180  35.958  1.00  0.00     0.037 A 
BRANCH  45  59
ATOM     59  C   UNL A   1      43.866  28.426  35.801  1.00  0.00     0.058 A 
ATOM     60  C   UNL A   1      45.227  28.695  35.584  1.00  0.00     0.135 A 
ATOM     61  C   UNL A   1      43.538  27.396  36.698  1.00  0.00     0.135 A 
ATOM     62  F   UNL A   1      45.597  29.659  34.726  1.00  0.00    -0.206 F 
ATOM     63  C   UNL A   1      46.225  27.943  36.196  1.00  0.00     0.059 A 
ATOM     64  C   UNL A   1      44.520  26.650  37.344  1.00  0.00     0.059 A 
ATOM     65  F   UNL A   1      42.254  27.097  36.945  1.00  0.00    -0.206 F 
ATOM     66  C   UNL A   1      45.861  26.918  37.069  1.00  0.00     0.060 A 
BRANCH  66  67
ATOM     67  S   UNL A   1      47.164  25.934  37.839  1.00  0.00     0.124 S 
ATOM     68  O   UNL A   1      48.176  26.953  38.108  1.00  0.00    -0.237 OA
ATOM     69  O   UNL A   1      46.490  25.390  39.018  1.00  0.00    -0.237 OA
ATOM     70  O   UNL A   1      47.510  24.961  36.815  1.00  0.00    -0.744 OA
ENDBRANCH  66  67
ENDBRANCH  45  59
BRANCH  46  71
ATOM     71  C   UNL A   1      36.535  33.155  30.922  1.00  0.00     0.058 A 
ATOM     72  C   UNL A   1      35.202  33.016  31.337  1.00  0.00     0.135 A 
ATOM     73  C   UNL A   1      36.796  34.002  29.834  1.00  0.00     0.135 A 
ATOM     74  F   UNL A   1      34.901  32.212  32.369  1.00  0.00    -0.206 F 
ATOM     75  C   UNL A   1      34.165  33.687  30.697  1.00  0.00     0.059 A 
ATOM     76  C   UNL A   1      35.779  34.702  29.192  1.00  0.00     0.059 A 
ATOM     77  F   UNL A   1      38.057  34.182  29.410  1.00  0.00    -0.206 F 
ATOM     78  C   UNL A   1      34.466  34.532  29.628  1.00  0.00     0.060 A 
BRANCH  78  79
ATOM     79  S   UNL A   1      33.121  35.454  28.849  1.00  0.00     0.124 S 
ATOM     80  O   UNL A   1      32.388  35.943  30.010  1.00  0.00    -0.237 OA
ATOM     81  O   UNL A   1      33.845  36.461  28.079  1.00  0.00    -0.237 OA
ATOM     82  O   UNL A   1      32.439  34.439  28.051  1.00  0.00    -0.744 OA
ENDBRANCH  78  79
ENDBRANCH  46  71
BRANCH  58  83
ATOM     83  C   UNL A   1      39.749  34.233  37.019  1.00  0.00     0.058 A 
ATOM     84  C   UNL A   1      39.067  33.975  38.218  1.00  0.00     0.135 A 
ATOM     85  C   UNL A   1      40.335  35.499  36.855  1.00  0.00     0.135 A 
ATOM     86  F   UNL A   1      38.484  32.784  38.421  1.00  0.00    -0.206 F 
ATOM     87  C   UNL A   1      38.950  34.945  39.208  1.00  0.00     0.059 A 
ATOM     88  C   UNL A   1      40.252  36.475  37.843  1.00  0.00     0.059 A 
ATOM     89  F   UNL A   1      41.008  35.792  35.732  1.00  0.00    -0.206 F 
ATOM     90  C   UNL A   1      39.547  36.192  39.012  1.00  0.00     0.060 A 
BRANCH  90  91
ATOM     91  S   UNL A   1      39.418  37.430  40.319  1.00  0.00     0.124 S 
ATOM     92  O   UNL A   1      40.819  37.624  40.680  1.00  0.00    -0.237 OA
ATOM     93  O   UNL A   1      38.780  38.548  39.630  1.00  0.00    -0.237 OA
ATOM     94  O   UNL A   1      38.593  36.773  41.329  1.00  0.00    -0.744 OA
ENDBRANCH  90  91
ENDBRANCH  58  83
ENDBRANCH  32  33
ENDBRANCH  24  27
ENDBRANCH  22  23
ENDBRANCH   1  22
TORSDOF 18
ENDMDL
MODEL 2
REMARK VINA RESULT:     -10.5      3.398      5.473
REMARK SMILES C=CC[N@@H+](CC(=O)NCCCNC(=O)c1ccc(-c2c3nc(c(-c4c(F)cc(S(=O)(=O)[O-])cc4F)c4ccc([nH]4)c(-c4c(F)cc(S(=O)(=O)[O-])cc4F)c4nc(c(-c5c(F)cc(S(=O)(=O)[O-])cc5F)c5ccc2[nH]5)C=C4)C=C3)cc1)[C@@H]1CC[N@@H+](C(C)C)C1
REMARK SMILES IDX 10 1 9 2 8 3 6 4 7 5 5 7 4 8 3 10 2 11 1 12 81 13 82 14
REMARK SMILES IDX 88 15 83 16 84 17 85 19 86 20 87 21 11 22 12 23 13 24 14 26
REMARK SMILES IDX 15 27 16 28 80 29 17 30 79 31 18 32 19 33 20 34 73 35 21 36
REMARK SMILES IDX 78 37 72 38 74 39 22 40 77 41 71 42 70 43 23 45 57 46 36 47
REMARK SMILES IDX 56 48 37 49 40 50 55 51 75 52 38 53 39 54 54 56 76 57 41 58
REMARK SMILES IDX 24 59 25 60 34 61 26 62 27 63 33 64 35 65 28 66 29 67 30 68
REMARK SMILES IDX 31 69 32 70 58 71 59 72 68 73 60 74 61 75 67 76 69 77 62 78
REMARK SMILES IDX 63 79 64 80 65 81 66 82 42 83 43 84 52 85 44 86 45 87 51 88
REMARK SMILES IDX 53 89 46 90 47 91 48 92 49 93 50 94
REMARK H PARENT 8 6 4 9 84 18 12 25 74 44 40 55
REMARK Flexibility Score: inf
ROOT
ATOM      1  C   UNL A   1      38.001  23.679  26.193  1.00  0.00     0.042 C 
ENDROOT
BRANCH   1   2
ATOM      2  C   UNL A   1      37.690  22.549  25.211  1.00  0.00     0.118 C 
BRANCH   2   3
ATOM      3  N   UNL A   1      36.929  23.048  24.083  1.00  0.00    -0.351 N 
ATOM      4  C   UNL A   1      35.587  23.162  23.881  1.00  0.00     0.275 C 
ATOM      5  O   UNL A   1      35.242  23.508  22.745  1.00  0.00    -0.269 OA
ATOM      6  H   UNL A   1      37.479  23.361  23.329  1.00  0.00     0.163 HD
BRANCH   4   7
ATOM      7  C   UNL A   1      34.561  22.971  25.013  1.00  0.00     0.364 C 
BRANCH   7   8
ATOM      8  N   UNL A   1      33.395  22.091  24.733  1.00  0.00    -0.317 N 
ATOM      9  H   UNL A   1      32.860  22.557  23.999  1.00  0.00     0.349 HD
BRANCH   8  10
ATOM     10  C   UNL A   1      32.537  21.997  25.919  1.00  0.00     0.291 C 
BRANCH  10  11
ATOM     11  C   UNL A   1      31.091  22.379  25.824  1.00  0.00     0.025 C 
ATOM     12  C   UNL A   1      30.439  23.075  26.768  1.00  0.00     0.010 C 
ENDBRANCH  10  11
ENDBRANCH   8  10
BRANCH   8  13
ATOM     13  C   UNL A   1      33.676  20.810  24.043  1.00  0.00     0.246 C 
ATOM     14  C   UNL A   1      32.498  19.897  23.658  1.00  0.00     0.132 C 
ATOM     15  C   UNL A   1      34.533  19.872  24.943  1.00  0.00     0.328 C 
ATOM     16  C   UNL A   1      32.550  18.696  24.582  1.00  0.00     0.269 C 
ATOM     17  N   UNL A   1      33.937  18.535  24.986  1.00  0.00    -0.328 N 
ATOM     18  H   UNL A   1      33.983  18.168  25.937  1.00  0.00     0.348 HD
BRANCH  17  19
ATOM     19  C   UNL A   1      34.686  17.463  24.323  1.00  0.00     0.177 C 
ATOM     20  C   UNL A   1      35.106  16.292  25.214  1.00  0.00     0.075 C 
ATOM     21  C   UNL A   1      33.902  16.954  23.103  1.00  0.00     0.075 C 
ENDBRANCH  17  19
ENDBRANCH   8  13
ENDBRANCH   7   8
ENDBRANCH   4   7
ENDBRANCH   2   3
ENDBRANCH   1   2
BRANCH   1  22
ATOM     22  C   UNL A   1      39.352  23.552  26.880  1.00  0.00     0.118 C 
BRANCH  22  23
ATOM     23  N   UNL A   1      40.431  24.091  26.074  1.00  0.00    -0.352 N 
ATOM     24  C   UNL A   1      41.073  25.304  26.141  1.00  0.00     0.251 C 
ATOM     25  H   UNL A   1      40.755  23.492  25.363  1.00  0.00     0.163 HD
ATOM     26  O   UNL A   1      41.805  25.631  25.207  1.00  0.00    -0.269 OA
BRANCH  24  27
ATOM     27  C   UNL A   1      40.891  26.224  27.292  1.00  0.00     0.039 A 
ATOM     28  C   UNL A   1      41.659  27.392  27.341  1.00  0.00     0.014 A 
ATOM     29  C   UNL A   1      40.031  25.929  28.352  1.00  0.00     0.014 A 
ATOM     30  C   UNL A   1      41.537  28.271  28.424  1.00  0.00     0.010 A 
ATOM     31  C   UNL A   1      39.833  26.852  29.378  1.00  0.00     0.010 A 
ATOM     32  C   UNL A   1      40.603  28.022  29.442  1.00  0.00    -0.014 A 
BRANCH  32  33
ATOM     33  C   UNL A   1      40.456  28.944  30.601  1.00  0.00     0.031 A 
ATOM     34  C   UNL A   1      41.341  28.783  31.811  1.00  0.00     0.074 A 
ATOM     35  C   UNL A   1      39.504  29.896  30.588  1.00  0.00     0.049 A 
ATOM     36  N   UNL A   1      41.333  29.450  32.938  1.00  0.00    -0.248 NA
ATOM     37  C   UNL A   1      42.349  27.712  31.761  1.00  0.00     0.031 C 
ATOM     38  C   UNL A   1      38.553  30.127  29.497  1.00  0.00     0.029 A 
ATOM     39  N   UNL A   1      39.173  30.847  31.521  1.00  0.00    -0.354 N 
ATOM     40  C   UNL A   1      42.315  28.868  33.732  1.00  0.00     0.074 A 
ATOM     41  C   UNL A   1      42.858  27.756  32.983  1.00  0.00     0.031 C 
ATOM     42  C   UNL A   1      37.770  31.173  29.811  1.00  0.00     0.029 A 
ATOM     43  C   UNL A   1      38.136  31.663  31.137  1.00  0.00     0.049 A 
ATOM     44  H   UNL A   1      39.637  30.936  32.386  1.00  0.00     0.167 HD
ATOM     45  C   UNL A   1      42.745  29.238  34.963  1.00  0.00     0.037 A 
ATOM     46  C   UNL A   1      37.546  32.690  31.778  1.00  0.00     0.037 A 
ATOM     47  C   UNL A   1      42.227  30.367  35.691  1.00  0.00     0.049 A 
ATOM     48  C   UNL A   1      38.046  33.094  33.138  1.00  0.00     0.074 A 
ATOM     49  C   UNL A   1      42.634  30.862  36.917  1.00  0.00     0.029 A 
ATOM     50  N   UNL A   1      41.188  31.178  35.258  1.00  0.00    -0.354 N 
ATOM     51  N   UNL A   1      39.012  32.565  33.851  1.00  0.00    -0.248 NA
ATOM     52  C   UNL A   1      37.382  34.237  33.779  1.00  0.00     0.031 C 
ATOM     53  C   UNL A   1      41.819  31.951  37.242  1.00  0.00     0.029 A 
ATOM     54  C   UNL A   1      40.930  32.161  36.200  1.00  0.00     0.049 A 
ATOM     55  H   UNL A   1      40.706  31.072  34.407  1.00  0.00     0.167 HD
ATOM     56  C   UNL A   1      39.088  33.326  35.012  1.00  0.00     0.074 A 
ATOM     57  C   UNL A   1      38.078  34.358  34.901  1.00  0.00     0.031 C 
ATOM     58  C   UNL A   1      39.922  33.185  36.072  1.00  0.00     0.037 A 
BRANCH  45  59
ATOM     59  C   UNL A   1      43.835  28.413  35.593  1.00  0.00     0.058 A 
ATOM     60  C   UNL A   1      43.546  27.351  36.465  1.00  0.00     0.135 A 
ATOM     61  C   UNL A   1      45.186  28.684  35.317  1.00  0.00     0.135 A 
ATOM     62  F   UNL A   1      42.274  27.058  36.776  1.00  0.00    -0.206 F 
ATOM     63  C   UNL A   1      44.557  26.616  37.077  1.00  0.00     0.059 A 
ATOM     64  C   UNL A   1      46.212  27.941  35.894  1.00  0.00     0.059 A 
ATOM     65  F   UNL A   1      45.519  29.685  34.488  1.00  0.00    -0.206 F 
ATOM     66  C   UNL A   1      45.887  26.923  36.790  1.00  0.00     0.060 A 
BRANCH  66  67
ATOM     67  S   UNL A   1      47.190  25.977  37.607  1.00  0.00     0.124 S 
ATOM     68  O   UNL A   1      48.248  26.979  37.717  1.00  0.00    -0.237 OA
ATOM     69  O   UNL A   1      46.554  25.591  38.866  1.00  0.00    -0.237 OA
ATOM     70  O   UNL A   1      47.453  24.886  36.681  1.00  0.00    -0.744 OA
ENDBRANCH  66  67
ENDBRANCH  45  59
BRANCH  46  71
ATOM     71  C   UNL A   1      36.438  33.432  31.119  1.00  0.00     0.058 A 
ATOM     72  C   UNL A   1      36.684  34.245  30.003  1.00  0.00     0.135 A 
ATOM     73  C   UNL A   1      35.113  33.315  31.565  1.00  0.00     0.135 A 
ATOM     74  F   UNL A   1      37.936  34.393  29.544  1.00  0.00    -0.206 F 
ATOM     75  C   UNL A   1      35.656  34.922  29.354  1.00  0.00     0.059 A 
ATOM     76  C   UNL A   1      34.065  33.964  30.919  1.00  0.00     0.059 A 
ATOM     77  F   UNL A   1      34.824  32.535  32.618  1.00  0.00    -0.206 F 
ATOM     78  C   UNL A   1      34.348  34.770  29.817  1.00  0.00     0.060 A 
BRANCH  78  79
ATOM     79  S   UNL A   1      33.013  35.596  28.924  1.00  0.00     0.124 S 
ATOM     80  O   UNL A   1      32.226  36.151  30.019  1.00  0.00    -0.237 OA
ATOM     81  O   UNL A   1      33.742  36.562  28.107  1.00  0.00    -0.237 OA
ATOM     82  O   UNL A   1      32.384  34.508  28.181  1.00  0.00    -0.744 OA
ENDBRANCH  78  79
ENDBRANCH  46  71
BRANCH  58  83
ATOM     83  C   UNL A   1      39.798  34.185  37.186  1.00  0.00     0.058 A 
ATOM     84  C   UNL A   1      39.003  33.936  38.316  1.00  0.00     0.135 A 
ATOM     85  C   UNL A   1      40.526  35.385  37.147  1.00  0.00     0.135 A 
ATOM     86  F   UNL A   1      38.283  32.807  38.400  1.00  0.00    -0.206 F 
ATOM     87  C   UNL A   1      38.916  34.854  39.357  1.00  0.00     0.059 A 
ATOM     88  C   UNL A   1      40.473  36.306  38.189  1.00  0.00     0.059 A 
ATOM     89  F   UNL A   1      41.310  35.667  36.094  1.00  0.00    -0.206 F 
ATOM     90  C   UNL A   1      39.655  36.036  39.286  1.00  0.00     0.060 A 
BRANCH  90  91
ATOM     91  S   UNL A   1      39.560  37.203  40.659  1.00  0.00     0.124 S 
ATOM     92  O   UNL A   1      38.891  38.340  40.033  1.00  0.00    -0.237 OA
ATOM     93  O   UNL A   1      38.772  36.467  41.643  1.00  0.00    -0.237 OA
ATOM     94  O   UNL A   1      40.958  37.419  41.020  1.00  0.00    -0.744 OA
ENDBRANCH  90  91
ENDBRANCH  58  83
ENDBRANCH  32  33
ENDBRANCH  24  27
ENDBRANCH  22  23
ENDBRANCH   1  22
TORSDOF 18
ENDMDL
MODEL 3
REMARK VINA RESULT:     -10.5      3.375      5.135
REMARK SMILES C=CC[N@@H+](CC(=O)NCCCNC(=O)c1ccc(-c2c3nc(c(-c4c(F)cc(S(=O)(=O)[O-])cc4F)c4ccc([nH]4)c(-c4c(F)cc(S(=O)(=O)[O-])cc4F)c4nc(c(-c5c(F)cc(S(=O)(=O)[O-])cc5F)c5ccc2[nH]5)C=C4)C=C3)cc1)[C@@H]1CC[N@@H+](C(C)C)C1
REMARK SMILES IDX 10 1 9 2 8 3 6 4 7 5 5 7 4 8 3 10 2 11 1 12 81 13 82 14
REMARK SMILES IDX 88 15 83 16 84 17 85 19 86 20 87 21 11 22 12 23 13 24 14 26
REMARK SMILES IDX 15 27 16 28 80 29 17 30 79 31 18 32 19 33 20 34 73 35 21 36
REMARK SMILES IDX 78 37 72 38 74 39 22 40 77 41 71 42 70 43 23 45 57 46 36 47
REMARK SMILES IDX 56 48 37 49 40 50 55 51 75 52 38 53 39 54 54 56 76 57 41 58
REMARK SMILES IDX 24 59 25 60 34 61 26 62 27 63 33 64 35 65 28 66 29 67 30 68
REMARK SMILES IDX 31 69 32 70 58 71 59 72 68 73 60 74 61 75 67 76 69 77 62 78
REMARK SMILES IDX 63 79 64 80 65 81 66 82 42 83 43 84 52 85 44 86 45 87 51 88
REMARK SMILES IDX 53 89 46 90 47 91 48 92 49 93 50 94
REMARK H PARENT 8 6 4 9 84 18 12 25 74 44 40 55
REMARK Flexibility Score: inf
ROOT
ATOM      1  C   UNL A   1      40.145  21.592  26.710  1.00  0.00     0.042 C 
ENDROOT
BRANCH   1   2
ATOM      2  C   UNL A   1      38.930  21.456  25.792  1.00  0.00     0.118 C 
BRANCH   2   3
ATOM      3  N   UNL A   1      37.914  22.428  26.144  1.00  0.00    -0.351 N 
ATOM      4  C   UNL A   1      36.689  22.686  25.606  1.00  0.00     0.275 C 
ATOM      5  O   UNL A   1      36.106  23.681  26.051  1.00  0.00    -0.269 OA
ATOM      6  H   UNL A   1      38.150  23.004  26.907  1.00  0.00     0.163 HD
BRANCH   4   7
ATOM      7  C   UNL A   1      36.022  21.750  24.582  1.00  0.00     0.364 C 
BRANCH   7   8
ATOM      8  N   UNL A   1      34.568  21.487  24.747  1.00  0.00    -0.317 N 
ATOM      9  H   UNL A   1      34.308  21.895  25.645  1.00  0.00     0.349 HD
BRANCH   8  10
ATOM     10  C   UNL A   1      34.322  20.043  24.825  1.00  0.00     0.291 C 
BRANCH  10  11
ATOM     11  C   UNL A   1      32.923  19.536  25.008  1.00  0.00     0.025 C 
ATOM     12  C   UNL A   1      32.605  18.234  25.083  1.00  0.00     0.010 C 
ENDBRANCH  10  11
ENDBRANCH   8  10
BRANCH   8  13
ATOM     13  C   UNL A   1      33.648  22.245  23.867  1.00  0.00     0.246 C 
ATOM     14  C   UNL A   1      34.239  23.107  22.736  1.00  0.00     0.132 C 
ATOM     15  C   UNL A   1      32.839  23.295  24.684  1.00  0.00     0.328 C 
ATOM     16  C   UNL A   1      34.052  24.556  23.139  1.00  0.00     0.269 C 
ATOM     17  N   UNL A   1      32.899  24.601  24.024  1.00  0.00    -0.328 N 
ATOM     18  H   UNL A   1      33.024  25.334  24.723  1.00  0.00     0.348 HD
BRANCH  17  19
ATOM     19  C   UNL A   1      31.650  25.095  23.437  1.00  0.00     0.177 C 
ATOM     20  C   UNL A   1      31.770  25.731  22.051  1.00  0.00     0.075 C 
ATOM     21  C   UNL A   1      30.598  23.975  23.423  1.00  0.00     0.075 C 
ENDBRANCH  17  19
ENDBRANCH   8  13
ENDBRANCH   7   8
ENDBRANCH   4   7
ENDBRANCH   2   3
ENDBRANCH   1   2
BRANCH   1  22
ATOM     22  C   UNL A   1      40.451  23.020  27.131  1.00  0.00     0.118 C 
BRANCH  22  23
ATOM     23  N   UNL A   1      41.222  23.735  26.131  1.00  0.00    -0.352 N 
ATOM     24  C   UNL A   1      41.546  25.067  26.042  1.00  0.00     0.251 C 
ATOM     25  H   UNL A   1      41.567  23.177  25.398  1.00  0.00     0.163 HD
ATOM     26  O   UNL A   1      42.017  25.485  24.984  1.00  0.00    -0.269 OA
BRANCH  24  27
ATOM     27  C   UNL A   1      41.326  26.005  27.171  1.00  0.00     0.039 A 
ATOM     28  C   UNL A   1      42.181  27.104  27.303  1.00  0.00     0.014 A 
ATOM     29  C   UNL A   1      40.342  25.788  28.138  1.00  0.00     0.014 A 
ATOM     30  C   UNL A   1      42.024  27.996  28.370  1.00  0.00     0.010 A 
ATOM     31  C   UNL A   1      40.119  26.730  29.142  1.00  0.00     0.010 A 
ATOM     32  C   UNL A   1      40.975  27.831  29.287  1.00  0.00    -0.014 A 
BRANCH  32  33
ATOM     33  C   UNL A   1      40.790  28.768  30.429  1.00  0.00     0.031 A 
ATOM     34  C   UNL A   1      41.665  28.652  31.651  1.00  0.00     0.074 A 
ATOM     35  C   UNL A   1      39.811  29.692  30.390  1.00  0.00     0.049 A 
ATOM     36  N   UNL A   1      41.626  29.338  32.766  1.00  0.00    -0.248 NA
ATOM     37  C   UNL A   1      42.703  27.610  31.630  1.00  0.00     0.031 C 
ATOM     38  C   UNL A   1      38.866  29.878  29.286  1.00  0.00     0.029 A 
ATOM     39  N   UNL A   1      39.443  30.649  31.304  1.00  0.00    -0.354 N 
ATOM     40  C   UNL A   1      42.615  28.798  33.580  1.00  0.00     0.074 A 
ATOM     41  C   UNL A   1      43.198  27.689  32.856  1.00  0.00     0.031 C 
ATOM     42  C   UNL A   1      38.050  30.906  29.574  1.00  0.00     0.029 A 
ATOM     43  C   UNL A   1      38.388  31.429  30.894  1.00  0.00     0.049 A 
ATOM     44  H   UNL A   1      39.894  30.765  32.171  1.00  0.00     0.167 HD
ATOM     45  C   UNL A   1      43.021  29.200  34.810  1.00  0.00     0.037 A 
ATOM     46  C   UNL A   1      37.762  32.449  31.512  1.00  0.00     0.037 A 
ATOM     47  C   UNL A   1      42.463  30.326  35.512  1.00  0.00     0.049 A 
ATOM     48  C   UNL A   1      38.236  32.890  32.870  1.00  0.00     0.074 A 
ATOM     49  C   UNL A   1      42.844  30.853  36.734  1.00  0.00     0.029 A 
ATOM     50  N   UNL A   1      41.407  31.100  35.054  1.00  0.00    -0.354 N 
ATOM     51  N   UNL A   1      39.208  32.400  33.601  1.00  0.00    -0.248 NA
ATOM     52  C   UNL A   1      37.533  34.025  33.484  1.00  0.00     0.031 C 
ATOM     53  C   UNL A   1      41.994  31.923  37.032  1.00  0.00     0.029 A 
ATOM     54  C   UNL A   1      41.112  32.091  35.977  1.00  0.00     0.049 A 
ATOM     55  H   UNL A   1      40.937  30.966  34.200  1.00  0.00     0.167 HD
ATOM     56  C   UNL A   1      39.251  33.183  34.750  1.00  0.00     0.074 A 
ATOM     57  C   UNL A   1      38.213  34.184  34.611  1.00  0.00     0.031 C 
ATOM     58  C   UNL A   1      40.077  33.083  35.821  1.00  0.00     0.037 A 
BRANCH  45  59
ATOM     59  C   UNL A   1      44.127  28.417  35.464  1.00  0.00     0.058 A 
ATOM     60  C   UNL A   1      43.859  27.357  36.345  1.00  0.00     0.135 A 
ATOM     61  C   UNL A   1      45.472  28.726  35.204  1.00  0.00     0.135 A 
ATOM     62  F   UNL A   1      42.591  27.027  36.642  1.00  0.00    -0.206 F 
ATOM     63  C   UNL A   1      44.883  26.661  36.980  1.00  0.00     0.059 A 
ATOM     64  C   UNL A   1      46.513  28.023  35.805  1.00  0.00     0.059 A 
ATOM     65  F   UNL A   1      45.787  29.728  34.368  1.00  0.00    -0.206 F 
ATOM     66  C   UNL A   1      46.207  27.006  36.709  1.00  0.00     0.060 A 
BRANCH  66  67
ATOM     67  S   UNL A   1      47.526  26.111  37.555  1.00  0.00     0.124 S 
ATOM     68  O   UNL A   1      46.841  24.879  37.938  1.00  0.00    -0.237 OA
ATOM     69  O   UNL A   1      48.533  25.969  36.503  1.00  0.00    -0.237 OA
ATOM     70  O   UNL A   1      47.891  26.994  38.651  1.00  0.00    -0.744 OA
ENDBRANCH  66  67
ENDBRANCH  45  59
BRANCH  46  71
ATOM     71  C   UNL A   1      36.641  33.148  30.829  1.00  0.00     0.058 A 
ATOM     72  C   UNL A   1      35.312  32.913  31.208  1.00  0.00     0.135 A 
ATOM     73  C   UNL A   1      36.876  34.089  29.814  1.00  0.00     0.135 A 
ATOM     74  F   UNL A   1      35.036  32.018  32.169  1.00  0.00    -0.206 F 
ATOM     75  C   UNL A   1      34.252  33.581  30.602  1.00  0.00     0.059 A 
ATOM     76  C   UNL A   1      35.835  34.787  29.209  1.00  0.00     0.059 A 
ATOM     77  F   UNL A   1      38.132  34.362  29.428  1.00  0.00    -0.206 F 
ATOM     78  C   UNL A   1      34.526  34.521  29.607  1.00  0.00     0.060 A 
BRANCH  78  79
ATOM     79  S   UNL A   1      33.148  35.434  28.877  1.00  0.00     0.124 S 
ATOM     80  O   UNL A   1      32.459  34.384  28.136  1.00  0.00    -0.237 OA
ATOM     81  O   UNL A   1      32.457  35.943  30.058  1.00  0.00    -0.237 OA
ATOM     82  O   UNL A   1      33.813  36.449  28.065  1.00  0.00    -0.744 OA
ENDBRANCH  78  79
ENDBRANCH  46  71
BRANCH  58  83
ATOM     83  C   UNL A   1      39.912  34.099  36.917  1.00  0.00     0.058 A 
ATOM     84  C   UNL A   1      40.590  35.327  36.891  1.00  0.00     0.135 A 
ATOM     85  C   UNL A   1      39.025  33.860  37.978  1.00  0.00     0.135 A 
ATOM     86  F   UNL A   1      41.454  35.602  35.901  1.00  0.00    -0.206 F 
ATOM     87  C   UNL A   1      40.411  36.275  37.893  1.00  0.00     0.059 A 
ATOM     88  C   UNL A   1      38.811  34.804  38.978  1.00  0.00     0.059 A 
ATOM     89  F   UNL A   1      38.344  32.705  38.044  1.00  0.00    -0.206 F 
ATOM     90  C   UNL A   1      39.518  36.005  38.932  1.00  0.00     0.060 A 
BRANCH  90  91
ATOM     91  S   UNL A   1      39.269  37.257  40.208  1.00  0.00     0.124 S 
ATOM     92  O   UNL A   1      38.419  38.219  39.515  1.00  0.00    -0.237 OA
ATOM     93  O   UNL A   1      38.624  36.494  41.274  1.00  0.00    -0.237 OA
ATOM     94  O   UNL A   1      40.623  37.714  40.505  1.00  0.00    -0.744 OA
ENDBRANCH  90  91
ENDBRANCH  58  83
ENDBRANCH  32  33
ENDBRANCH  24  27
ENDBRANCH  22  23
ENDBRANCH   1  22
TORSDOF 18
ENDMDL
