MODEL 1
REMARK VINA RESULT:     -10.6      0.000      0.000
REMARK SMILES O=C(CCC[NH2+][C@H]1CCOC2(CCOCC2)C1)NCCCNC(=O)c1ccc(-c2c3nc(c(-c4c(F)cc(S(=O)(=O)[O-])cc4F)c4ccc([nH]4)c(-c4c(F)cc(S(=O)(=O)[O-])cc4F)c4nc(c(-c5c(F)cc(S(=O)(=O)[O-])cc5F)c5ccc2[nH]5)C=C4)C=C3)cc1
REMARK SMILES IDX 19 1 18 2 1 3 2 4 3 6 4 7 5 8 6 9 7 12 8 13 17 14 9 15 11 16
REMARK SMILES IDX 10 17 12 18 16 19 13 20 15 21 14 22 20 23 21 24 22 25 23 26
REMARK SMILES IDX 24 28 25 29 26 30 90 31 27 32 89 33 28 34 29 35 30 36 83 37
REMARK SMILES IDX 31 38 88 39 82 40 84 41 32 42 87 43 81 44 80 45 33 47 67 48
REMARK SMILES IDX 46 49 66 50 47 51 50 52 65 53 85 54 48 55 49 56 64 58 86 59
REMARK SMILES IDX 51 60 34 61 35 62 44 63 36 64 37 65 43 66 45 67 38 68 39 69
REMARK SMILES IDX 40 70 41 71 42 72 68 73 69 74 78 75 70 76 71 77 77 78 79 79
REMARK SMILES IDX 72 80 73 81 74 82 75 83 76 84 52 85 53 86 62 87 54 88 55 89
REMARK SMILES IDX 61 90 63 91 56 92 57 93 58 94 59 95 60 96
REMARK H PARENT 18 5 6 10 6 11 22 27 84 46 50 57
REMARK Flexibility Score: inf
ROOT
ATOM      1  C   UNL A   1      34.709  35.119  28.315  1.00  0.00     0.117 C 
ENDROOT
BRANCH   1   2
ATOM      2  N   UNL A   1      34.224  35.548  29.615  1.00  0.00    -0.356 N 
ATOM      3  O   UNL A   1      32.226  36.390  28.848  1.00  0.00    -0.275 OA
ATOM      4  C   UNL A   1      32.988  36.138  29.775  1.00  0.00     0.220 C 
ATOM      5  H   UNL A   1      34.796  35.414  30.406  1.00  0.00     0.163 HD
BRANCH   4   6
ATOM      6  C   UNL A   1      32.613  36.438  31.213  1.00  0.00     0.106 C 
BRANCH   6   7
ATOM      7  C   UNL A   1      33.258  35.469  32.211  1.00  0.00     0.071 C 
BRANCH   7   8
ATOM      8  C   UNL A   1      34.225  36.103  33.222  1.00  0.00     0.261 C 
BRANCH   8   9
ATOM      9  N   UNL A   1      34.820  35.107  34.103  1.00  0.00    -0.344 N 
ATOM     10  H   UNL A   1      34.060  34.551  34.496  1.00  0.00     0.346 HD
ATOM     11  H   UNL A   1      35.359  35.648  34.780  1.00  0.00     0.346 HD
BRANCH   9  12
ATOM     12  C   UNL A   1      35.792  34.169  33.511  1.00  0.00     0.187 C 
ATOM     13  C   UNL A   1      36.935  34.818  32.720  1.00  0.00     0.093 C 
ATOM     14  C   UNL A   1      36.358  33.299  34.650  1.00  0.00     0.100 C 
ATOM     15  C   UNL A   1      37.999  33.805  32.341  1.00  0.00     0.167 C 
ATOM     16  C   UNL A   1      37.491  32.359  34.203  1.00  0.00     0.078 C 
ATOM     17  O   UNL A   1      38.477  33.134  33.500  1.00  0.00    -0.374 OA
ATOM     18  C   UNL A   1      37.006  31.158  33.371  1.00  0.00     0.064 C 
ATOM     19  C   UNL A   1      38.185  31.777  35.450  1.00  0.00     0.064 C 
ATOM     20  C   UNL A   1      38.179  30.231  33.054  1.00  0.00     0.163 C 
ATOM     21  C   UNL A   1      39.321  30.852  35.033  1.00  0.00     0.163 C 
ATOM     22  O   UNL A   1      38.805  29.778  34.252  1.00  0.00    -0.381 OA
ENDBRANCH   9  12
ENDBRANCH   8   9
ENDBRANCH   7   8
ENDBRANCH   6   7
ENDBRANCH   4   6
ENDBRANCH   1   2
BRANCH   1  23
ATOM     23  C   UNL A   1      35.415  33.768  28.354  1.00  0.00     0.042 C 
BRANCH  23  24
ATOM     24  C   UNL A   1      34.773  32.723  29.264  1.00  0.00     0.118 C 
BRANCH  24  25
ATOM     25  N   UNL A   1      34.073  31.666  28.546  1.00  0.00    -0.352 N 
ATOM     26  C   UNL A   1      34.517  30.448  28.078  1.00  0.00     0.251 C 
ATOM     27  H   UNL A   1      33.125  31.854  28.365  1.00  0.00     0.163 HD
ATOM     28  O   UNL A   1      33.741  29.762  27.414  1.00  0.00    -0.269 OA
BRANCH  26  29
ATOM     29  C   UNL A   1      35.900  29.957  28.327  1.00  0.00     0.039 A 
ATOM     30  C   UNL A   1      36.859  30.063  27.312  1.00  0.00     0.014 A 
ATOM     31  C   UNL A   1      36.262  29.356  29.531  1.00  0.00     0.014 A 
ATOM     32  C   UNL A   1      38.177  29.640  27.538  1.00  0.00     0.010 A 
ATOM     33  C   UNL A   1      37.580  28.972  29.777  1.00  0.00     0.010 A 
ATOM     34  C   UNL A   1      38.555  29.122  28.787  1.00  0.00    -0.014 A 
BRANCH  34  35
ATOM     35  C   UNL A   1      39.971  28.822  29.119  1.00  0.00     0.031 A 
ATOM     36  C   UNL A   1      40.878  29.878  29.687  1.00  0.00     0.074 A 
ATOM     37  C   UNL A   1      40.468  27.618  28.775  1.00  0.00     0.049 A 
ATOM     38  N   UNL A   1      42.155  29.804  29.967  1.00  0.00    -0.248 NA
ATOM     39  C   UNL A   1      40.281  31.197  29.947  1.00  0.00     0.031 C 
ATOM     40  C   UNL A   1      39.706  26.547  28.130  1.00  0.00     0.029 A 
ATOM     41  N   UNL A   1      41.734  27.102  28.890  1.00  0.00    -0.354 N 
ATOM     42  C   UNL A   1      42.518  31.063  30.433  1.00  0.00     0.074 A 
ATOM     43  C   UNL A   1      41.336  31.895  30.350  1.00  0.00     0.031 C 
ATOM     44  C   UNL A   1      40.517  25.501  27.909  1.00  0.00     0.029 A 
ATOM     45  C   UNL A   1      41.858  25.832  28.379  1.00  0.00     0.049 A 
ATOM     46  H   UNL A   1      42.481  27.595  29.299  1.00  0.00     0.167 HD
ATOM     47  C   UNL A   1      43.720  31.475  30.906  1.00  0.00     0.037 A 
ATOM     48  C   UNL A   1      42.931  25.023  28.298  1.00  0.00     0.037 A 
ATOM     49  C   UNL A   1      44.886  30.628  30.996  1.00  0.00     0.049 A 
ATOM     50  C   UNL A   1      44.245  25.489  28.860  1.00  0.00     0.074 A 
ATOM     51  C   UNL A   1      46.124  30.922  31.543  1.00  0.00     0.029 A 
ATOM     52  N   UNL A   1      44.962  29.326  30.521  1.00  0.00    -0.354 N 
ATOM     53  N   UNL A   1      44.545  26.647  29.397  1.00  0.00    -0.248 NA
ATOM     54  C   UNL A   1      45.361  24.533  28.822  1.00  0.00     0.031 C 
ATOM     55  C   UNL A   1      46.959  29.814  31.363  1.00  0.00     0.029 A 
ATOM     56  C   UNL A   1      46.229  28.812  30.745  1.00  0.00     0.049 A 
ATOM     57  H   UNL A   1      44.223  28.839  30.089  1.00  0.00     0.167 HD
ATOM     58  C   UNL A   1      45.877  26.551  29.786  1.00  0.00     0.074 A 
ATOM     59  C   UNL A   1      46.319  25.217  29.432  1.00  0.00     0.031 C 
ATOM     60  C   UNL A   1      46.659  27.483  30.385  1.00  0.00     0.037 A 
BRANCH  47  61
ATOM     61  C   UNL A   1      43.840  32.898  31.385  1.00  0.00     0.058 A 
ATOM     62  C   UNL A   1      44.115  33.951  30.496  1.00  0.00     0.135 A 
ATOM     63  C   UNL A   1      43.616  33.226  32.733  1.00  0.00     0.135 A 
ATOM     64  F   UNL A   1      44.342  33.696  29.197  1.00  0.00    -0.206 F 
ATOM     65  C   UNL A   1      44.187  35.271  30.929  1.00  0.00     0.059 A 
ATOM     66  C   UNL A   1      43.657  34.544  33.183  1.00  0.00     0.059 A 
ATOM     67  F   UNL A   1      43.344  32.262  33.626  1.00  0.00    -0.206 F 
ATOM     68  C   UNL A   1      43.955  35.559  32.274  1.00  0.00     0.060 A 
BRANCH  68  69
ATOM     69  S   UNL A   1      44.029  37.281  32.816  1.00  0.00     0.124 S 
ATOM     70  O   UNL A   1      43.849  37.992  31.552  1.00  0.00    -0.237 OA
ATOM     71  O   UNL A   1      42.908  37.363  33.750  1.00  0.00    -0.237 OA
ATOM     72  O   UNL A   1      45.350  37.394  33.417  1.00  0.00    -0.744 OA
ENDBRANCH  68  69
ENDBRANCH  47  61
BRANCH  48  73
ATOM     73  C   UNL A   1      42.786  23.669  27.704  1.00  0.00     0.058 A 
ATOM     74  C   UNL A   1      43.047  23.452  26.344  1.00  0.00     0.135 A 
ATOM     75  C   UNL A   1      42.427  22.562  28.487  1.00  0.00     0.135 A 
ATOM     76  F   UNL A   1      43.393  24.482  25.556  1.00  0.00    -0.206 F 
ATOM     77  C   UNL A   1      42.946  22.188  25.775  1.00  0.00     0.059 A 
ATOM     78  C   UNL A   1      42.339  21.282  27.946  1.00  0.00     0.059 A 
ATOM     79  F   UNL A   1      42.188  22.715  29.800  1.00  0.00    -0.206 F 
ATOM     80  C   UNL A   1      42.595  21.108  26.586  1.00  0.00     0.060 A 
BRANCH  80  81
ATOM     81  S   UNL A   1      42.524  19.461  25.849  1.00  0.00     0.124 S 
ATOM     82  O   UNL A   1      43.362  19.630  24.668  1.00  0.00    -0.237 OA
ATOM     83  O   UNL A   1      43.079  18.626  26.911  1.00  0.00    -0.237 OA
ATOM     84  O   UNL A   1      41.100  19.269  25.593  1.00  0.00    -0.744 OA
ENDBRANCH  80  81
ENDBRANCH  48  73
BRANCH  60  85
ATOM     85  C   UNL A   1      48.069  27.082  30.720  1.00  0.00     0.058 A 
ATOM     86  C   UNL A   1      48.391  26.468  31.941  1.00  0.00     0.135 A 
ATOM     87  C   UNL A   1      49.106  27.282  29.793  1.00  0.00     0.135 A 
ATOM     88  F   UNL A   1      47.439  26.262  32.865  1.00  0.00    -0.206 F 
ATOM     89  C   UNL A   1      49.695  26.089  32.241  1.00  0.00     0.059 A 
ATOM     90  C   UNL A   1      50.413  26.887  30.063  1.00  0.00     0.059 A 
ATOM     91  F   UNL A   1      48.851  27.856  28.607  1.00  0.00    -0.206 F 
ATOM     92  C   UNL A   1      50.700  26.303  31.296  1.00  0.00     0.060 A 
BRANCH  92  93
ATOM     93  S   UNL A   1      52.384  25.783  31.688  1.00  0.00     0.124 S 
ATOM     94  O   UNL A   1      52.720  26.681  32.789  1.00  0.00    -0.237 OA
ATOM     95  O   UNL A   1      52.203  24.380  32.047  1.00  0.00    -0.237 OA
ATOM     96  O   UNL A   1      53.110  26.016  30.443  1.00  0.00    -0.744 OA
ENDBRANCH  92  93
ENDBRANCH  60  85
ENDBRANCH  34  35
ENDBRANCH  26  29
ENDBRANCH  24  25
ENDBRANCH  23  24
ENDBRANCH   1  23
TORSDOF 17
ENDMDL
MODEL 2
REMARK VINA RESULT:     -10.4      4.212      7.014
REMARK SMILES O=C(CCC[NH2+][C@H]1CCOC2(CCOCC2)C1)NCCCNC(=O)c1ccc(-c2c3nc(c(-c4c(F)cc(S(=O)(=O)[O-])cc4F)c4ccc([nH]4)c(-c4c(F)cc(S(=O)(=O)[O-])cc4F)c4nc(c(-c5c(F)cc(S(=O)(=O)[O-])cc5F)c5ccc2[nH]5)C=C4)C=C3)cc1
REMARK SMILES IDX 19 1 18 2 1 3 2 4 3 6 4 7 5 8 6 9 7 12 8 13 17 14 9 15 11 16
REMARK SMILES IDX 10 17 12 18 16 19 13 20 15 21 14 22 20 23 21 24 22 25 23 26
REMARK SMILES IDX 24 28 25 29 26 30 90 31 27 32 89 33 28 34 29 35 30 36 83 37
REMARK SMILES IDX 31 38 88 39 82 40 84 41 32 42 87 43 81 44 80 45 33 47 67 48
REMARK SMILES IDX 46 49 66 50 47 51 50 52 65 53 85 54 48 55 49 56 64 58 86 59
REMARK SMILES IDX 51 60 34 61 35 62 44 63 36 64 37 65 43 66 45 67 38 68 39 69
REMARK SMILES IDX 40 70 41 71 42 72 68 73 69 74 78 75 70 76 71 77 77 78 79 79
REMARK SMILES IDX 72 80 73 81 74 82 75 83 76 84 52 85 53 86 62 87 54 88 55 89
REMARK SMILES IDX 61 90 63 91 56 92 57 93 58 94 59 95 60 96
REMARK H PARENT 18 5 6 10 6 11 22 27 84 46 50 57
REMARK Flexibility Score: inf
ROOT
ATOM      1  C   UNL A   1      34.293  31.220  27.787  1.00  0.00     0.117 C 
ENDROOT
BRANCH   1   2
ATOM      2  N   UNL A   1      34.429  30.213  26.749  1.00  0.00    -0.356 N 
ATOM      3  O   UNL A   1      32.173  29.872  26.462  1.00  0.00    -0.275 OA
ATOM      4  C   UNL A   1      33.334  29.631  26.147  1.00  0.00     0.220 C 
ATOM      5  H   UNL A   1      35.332  29.938  26.466  1.00  0.00     0.163 HD
BRANCH   4   6
ATOM      6  C   UNL A   1      33.667  28.668  25.024  1.00  0.00     0.106 C 
BRANCH   6   7
ATOM      7  C   UNL A   1      32.711  27.472  24.963  1.00  0.00     0.071 C 
BRANCH   7   8
ATOM      8  C   UNL A   1      31.870  27.359  23.684  1.00  0.00     0.261 C 
BRANCH   8   9
ATOM      9  N   UNL A   1      30.452  27.195  23.977  1.00  0.00    -0.344 N 
ATOM     10  H   UNL A   1      30.322  27.382  24.972  1.00  0.00     0.346 HD
ATOM     11  H   UNL A   1      30.233  26.244  23.680  1.00  0.00     0.346 HD
BRANCH   9  12
ATOM     12  C   UNL A   1      29.502  28.048  23.240  1.00  0.00     0.187 C 
ATOM     13  C   UNL A   1      28.019  27.766  23.508  1.00  0.00     0.093 C 
ATOM     14  C   UNL A   1      29.835  29.516  23.572  1.00  0.00     0.100 C 
ATOM     15  C   UNL A   1      27.127  28.826  22.888  1.00  0.00     0.167 C 
ATOM     16  C   UNL A   1      28.836  30.524  22.979  1.00  0.00     0.078 C 
ATOM     17  O   UNL A   1      27.507  30.119  23.343  1.00  0.00    -0.374 OA
ATOM     18  C   UNL A   1      28.980  30.715  21.458  1.00  0.00     0.064 C 
ATOM     19  C   UNL A   1      29.074  31.906  23.618  1.00  0.00     0.064 C 
ATOM     20  C   UNL A   1      28.019  31.799  20.971  1.00  0.00     0.163 C 
ATOM     21  C   UNL A   1      28.086  32.920  23.056  1.00  0.00     0.163 C 
ATOM     22  O   UNL A   1      28.262  33.031  21.645  1.00  0.00    -0.381 OA
ENDBRANCH   9  12
ENDBRANCH   8   9
ENDBRANCH   7   8
ENDBRANCH   6   7
ENDBRANCH   4   6
ENDBRANCH   1   2
BRANCH   1  23
ATOM     23  C   UNL A   1      35.452  32.211  27.817  1.00  0.00     0.042 C 
BRANCH  23  24
ATOM     24  C   UNL A   1      36.094  32.420  29.187  1.00  0.00     0.118 C 
BRANCH  24  25
ATOM     25  N   UNL A   1      35.802  31.362  30.144  1.00  0.00    -0.352 N 
ATOM     26  C   UNL A   1      36.567  30.298  30.573  1.00  0.00     0.251 C 
ATOM     27  H   UNL A   1      34.908  31.416  30.552  1.00  0.00     0.163 HD
ATOM     28  O   UNL A   1      36.051  29.480  31.334  1.00  0.00    -0.269 OA
BRANCH  26  29
ATOM     29  C   UNL A   1      37.972  30.098  30.125  1.00  0.00     0.039 A 
ATOM     30  C   UNL A   1      39.009  30.163  31.064  1.00  0.00     0.014 A 
ATOM     31  C   UNL A   1      38.293  29.884  28.786  1.00  0.00     0.014 A 
ATOM     32  C   UNL A   1      40.336  29.941  30.670  1.00  0.00     0.010 A 
ATOM     33  C   UNL A   1      39.606  29.620  28.393  1.00  0.00     0.010 A 
ATOM     34  C   UNL A   1      40.640  29.634  29.334  1.00  0.00    -0.014 A 
BRANCH  34  35
ATOM     35  C   UNL A   1      42.004  29.228  28.911  1.00  0.00     0.031 A 
ATOM     36  C   UNL A   1      43.107  30.238  28.762  1.00  0.00     0.074 A 
ATOM     37  C   UNL A   1      42.202  27.950  28.532  1.00  0.00     0.049 A 
ATOM     38  N   UNL A   1      44.333  30.063  28.337  1.00  0.00    -0.248 NA
ATOM     39  C   UNL A   1      42.784  31.631  29.107  1.00  0.00     0.031 C 
ATOM     40  C   UNL A   1      41.180  26.902  28.542  1.00  0.00     0.029 A 
ATOM     41  N   UNL A   1      43.317  27.322  28.036  1.00  0.00    -0.354 N 
ATOM     42  C   UNL A   1      44.928  31.319  28.359  1.00  0.00     0.074 A 
ATOM     43  C   UNL A   1      43.912  32.255  28.793  1.00  0.00     0.031 C 
ATOM     44  C   UNL A   1      41.714  25.761  28.079  1.00  0.00     0.029 A 
ATOM     45  C   UNL A   1      43.108  26.000  27.722  1.00  0.00     0.049 A 
ATOM     46  H   UNL A   1      44.182  27.776  27.918  1.00  0.00     0.167 HD
ATOM     47  C   UNL A   1      46.210  31.653  28.066  1.00  0.00     0.037 A 
ATOM     48  C   UNL A   1      43.946  25.082  27.204  1.00  0.00     0.037 A 
ATOM     49  C   UNL A   1      47.216  30.706  27.649  1.00  0.00     0.049 A 
ATOM     50  C   UNL A   1      45.371  25.466  26.920  1.00  0.00     0.074 A 
ATOM     51  C   UNL A   1      48.563  30.926  27.415  1.00  0.00     0.029 A 
ATOM     52  N   UNL A   1      46.985  29.361  27.395  1.00  0.00    -0.354 N 
ATOM     53  N   UNL A   1      45.948  26.636  27.049  1.00  0.00    -0.248 NA
ATOM     54  C   UNL A   1      46.262  24.403  26.437  1.00  0.00     0.031 C 
ATOM     55  C   UNL A   1      49.138  29.726  26.982  1.00  0.00     0.029 A 
ATOM     56  C   UNL A   1      48.159  28.745  26.989  1.00  0.00     0.049 A 
ATOM     57  H   UNL A   1      46.115  28.910  27.489  1.00  0.00     0.167 HD
ATOM     58  C   UNL A   1      47.277  26.446  26.689  1.00  0.00     0.074 A 
ATOM     59  C   UNL A   1      47.420  25.045  26.348  1.00  0.00     0.031 C 
ATOM     60  C   UNL A   1      48.288  27.349  26.649  1.00  0.00     0.037 A 
BRANCH  47  61
ATOM     61  C   UNL A   1      46.612  33.098  28.203  1.00  0.00     0.058 A 
ATOM     62  C   UNL A   1      46.501  33.997  27.129  1.00  0.00     0.135 A 
ATOM     63  C   UNL A   1      47.053  33.609  29.436  1.00  0.00     0.135 A 
ATOM     64  F   UNL A   1      46.090  33.563  25.926  1.00  0.00    -0.206 F 
ATOM     65  C   UNL A   1      46.834  35.340  27.263  1.00  0.00     0.059 A 
ATOM     66  C   UNL A   1      47.366  34.957  29.600  1.00  0.00     0.059 A 
ATOM     67  F   UNL A   1      47.173  32.799  30.499  1.00  0.00    -0.206 F 
ATOM     68  C   UNL A   1      47.265  35.813  28.504  1.00  0.00     0.060 A 
BRANCH  68  69
ATOM     69  S   UNL A   1      47.671  37.565  28.669  1.00  0.00     0.124 S 
ATOM     70  O   UNL A   1      46.345  38.177  28.627  1.00  0.00    -0.237 OA
ATOM     71  O   UNL A   1      48.343  37.609  29.967  1.00  0.00    -0.237 OA
ATOM     72  O   UNL A   1      48.522  37.830  27.518  1.00  0.00    -0.744 OA
ENDBRANCH  68  69
ENDBRANCH  47  61
BRANCH  48  73
ATOM     73  C   UNL A   1      43.463  23.696  26.974  1.00  0.00     0.058 A 
ATOM     74  C   UNL A   1      43.296  22.808  28.046  1.00  0.00     0.135 A 
ATOM     75  C   UNL A   1      43.122  23.245  25.690  1.00  0.00     0.135 A 
ATOM     76  F   UNL A   1      43.610  23.196  29.291  1.00  0.00    -0.206 F 
ATOM     77  C   UNL A   1      42.817  21.518  27.855  1.00  0.00     0.059 A 
ATOM     78  C   UNL A   1      42.621  21.964  25.475  1.00  0.00     0.059 A 
ATOM     79  F   UNL A   1      43.244  24.065  24.634  1.00  0.00    -0.206 F 
ATOM     80  C   UNL A   1      42.479  21.106  26.565  1.00  0.00     0.060 A 
BRANCH  80  81
ATOM     81  S   UNL A   1      41.803  19.447  26.336  1.00  0.00     0.124 S 
ATOM     82  O   UNL A   1      42.228  18.784  27.563  1.00  0.00    -0.237 OA
ATOM     83  O   UNL A   1      40.372  19.713  26.218  1.00  0.00    -0.237 OA
ATOM     84  O   UNL A   1      42.450  18.987  25.111  1.00  0.00    -0.744 OA
ENDBRANCH  80  81
ENDBRANCH  48  73
BRANCH  60  85
ATOM     85  C   UNL A   1      49.645  26.844  26.246  1.00  0.00     0.058 A 
ATOM     86  C   UNL A   1      50.083  26.889  24.913  1.00  0.00     0.135 A 
ATOM     87  C   UNL A   1      50.534  26.342  27.212  1.00  0.00     0.135 A 
ATOM     88  F   UNL A   1      49.269  27.351  23.950  1.00  0.00    -0.206 F 
ATOM     89  C   UNL A   1      51.344  26.430  24.547  1.00  0.00     0.059 A 
ATOM     90  C   UNL A   1      51.810  25.903  26.871  1.00  0.00     0.059 A 
ATOM     91  F   UNL A   1      50.169  26.286  28.502  1.00  0.00    -0.206 F 
ATOM     92  C   UNL A   1      52.201  25.939  25.534  1.00  0.00     0.060 A 
BRANCH  92  93
ATOM     93  S   UNL A   1      53.846  25.370  25.049  1.00  0.00     0.124 S 
ATOM     94  O   UNL A   1      53.606  23.951  24.806  1.00  0.00    -0.237 OA
ATOM     95  O   UNL A   1      54.119  26.179  23.865  1.00  0.00    -0.237 OA
ATOM     96  O   UNL A   1      54.669  25.679  26.215  1.00  0.00    -0.744 OA
ENDBRANCH  92  93
ENDBRANCH  60  85
ENDBRANCH  34  35
ENDBRANCH  26  29
ENDBRANCH  24  25
ENDBRANCH  23  24
ENDBRANCH   1  23
TORSDOF 17
ENDMDL
MODEL 3
REMARK VINA RESULT:     -10.4      0.845      8.407
REMARK SMILES O=C(CCC[NH2+][C@H]1CCOC2(CCOCC2)C1)NCCCNC(=O)c1ccc(-c2c3nc(c(-c4c(F)cc(S(=O)(=O)[O-])cc4F)c4ccc([nH]4)c(-c4c(F)cc(S(=O)(=O)[O-])cc4F)c4nc(c(-c5c(F)cc(S(=O)(=O)[O-])cc5F)c5ccc2[nH]5)C=C4)C=C3)cc1
REMARK SMILES IDX 19 1 18 2 1 3 2 4 3 6 4 7 5 8 6 9 7 12 8 13 17 14 9 15 11 16
REMARK SMILES IDX 10 17 12 18 16 19 13 20 15 21 14 22 20 23 21 24 22 25 23 26
REMARK SMILES IDX 24 28 25 29 26 30 90 31 27 32 89 33 28 34 29 35 30 36 83 37
REMARK SMILES IDX 31 38 88 39 82 40 84 41 32 42 87 43 81 44 80 45 33 47 67 48
REMARK SMILES IDX 46 49 66 50 47 51 50 52 65 53 85 54 48 55 49 56 64 58 86 59
REMARK SMILES IDX 51 60 34 61 35 62 44 63 36 64 37 65 43 66 45 67 38 68 39 69
REMARK SMILES IDX 40 70 41 71 42 72 68 73 69 74 78 75 70 76 71 77 77 78 79 79
REMARK SMILES IDX 72 80 73 81 74 82 75 83 76 84 52 85 53 86 62 87 54 88 55 89
REMARK SMILES IDX 61 90 63 91 56 92 57 93 58 94 59 95 60 96
REMARK H PARENT 18 5 6 10 6 11 22 27 84 46 50 57
REMARK Flexibility Score: inf
ROOT
ATOM      1  C   UNL A   1      34.612  34.883  28.220  1.00  0.00     0.117 C 
ENDROOT
BRANCH   1   2
ATOM      2  N   UNL A   1      34.290  35.426  29.528  1.00  0.00    -0.356 N 
ATOM      3  O   UNL A   1      32.310  36.405  28.889  1.00  0.00    -0.275 OA
ATOM      4  C   UNL A   1      33.131  36.135  29.760  1.00  0.00     0.220 C 
ATOM      5  H   UNL A   1      34.919  35.283  30.272  1.00  0.00     0.163 HD
BRANCH   4   6
ATOM      6  C   UNL A   1      32.920  36.547  31.204  1.00  0.00     0.106 C 
BRANCH   6   7
ATOM      7  C   UNL A   1      33.319  35.452  32.199  1.00  0.00     0.071 C 
BRANCH   7   8
ATOM      8  C   UNL A   1      34.377  35.852  33.238  1.00  0.00     0.261 C 
BRANCH   8   9
ATOM      9  N   UNL A   1      34.520  34.847  34.283  1.00  0.00    -0.344 N 
ATOM     10  H   UNL A   1      33.849  34.104  34.088  1.00  0.00     0.346 HD
ATOM     11  H   UNL A   1      34.366  35.355  35.155  1.00  0.00     0.346 HD
BRANCH   9  12
ATOM     12  C   UNL A   1      35.844  34.217  34.442  1.00  0.00     0.187 C 
ATOM     13  C   UNL A   1      36.239  33.872  35.884  1.00  0.00     0.093 C 
ATOM     14  C   UNL A   1      35.868  32.950  33.565  1.00  0.00     0.100 C 
ATOM     15  C   UNL A   1      37.502  33.032  35.931  1.00  0.00     0.167 C 
ATOM     16  C   UNL A   1      37.144  32.108  33.733  1.00  0.00     0.078 C 
ATOM     17  O   UNL A   1      37.348  31.864  35.134  1.00  0.00    -0.374 OA
ATOM     18  C   UNL A   1      38.387  32.730  33.072  1.00  0.00     0.064 C 
ATOM     19  C   UNL A   1      36.933  30.734  33.066  1.00  0.00     0.064 C 
ATOM     20  C   UNL A   1      39.581  31.785  33.205  1.00  0.00     0.163 C 
ATOM     21  C   UNL A   1      38.180  29.875  33.231  1.00  0.00     0.163 C 
ATOM     22  O   UNL A   1      39.293  30.519  32.615  1.00  0.00    -0.381 OA
ENDBRANCH   9  12
ENDBRANCH   8   9
ENDBRANCH   7   8
ENDBRANCH   6   7
ENDBRANCH   4   6
ENDBRANCH   1   2
BRANCH   1  23
ATOM     23  C   UNL A   1      35.533  33.669  28.284  1.00  0.00     0.042 C 
BRANCH  23  24
ATOM     24  C   UNL A   1      35.124  32.594  29.288  1.00  0.00     0.118 C 
BRANCH  24  25
ATOM     25  N   UNL A   1      34.384  31.487  28.699  1.00  0.00    -0.352 N 
ATOM     26  C   UNL A   1      34.812  30.264  28.230  1.00  0.00     0.251 C 
ATOM     27  H   UNL A   1      33.414  31.639  28.623  1.00  0.00     0.163 HD
ATOM     28  O   UNL A   1      33.988  29.527  27.688  1.00  0.00    -0.269 OA
BRANCH  26  29
ATOM     29  C   UNL A   1      36.230  29.826  28.333  1.00  0.00     0.039 A 
ATOM     30  C   UNL A   1      37.068  29.937  27.216  1.00  0.00     0.014 A 
ATOM     31  C   UNL A   1      36.745  29.269  29.502  1.00  0.00     0.014 A 
ATOM     32  C   UNL A   1      38.417  29.564  27.302  1.00  0.00     0.010 A 
ATOM     33  C   UNL A   1      38.096  28.935  29.608  1.00  0.00     0.010 A 
ATOM     34  C   UNL A   1      38.948  29.091  28.512  1.00  0.00    -0.014 A 
BRANCH  34  35
ATOM     35  C   UNL A   1      40.403  28.847  28.690  1.00  0.00     0.031 A 
ATOM     36  C   UNL A   1      41.011  27.507  28.385  1.00  0.00     0.074 A 
ATOM     37  C   UNL A   1      41.148  29.814  29.260  1.00  0.00     0.049 A 
ATOM     38  N   UNL A   1      42.247  27.106  28.551  1.00  0.00    -0.248 NA
ATOM     39  C   UNL A   1      40.110  26.474  27.853  1.00  0.00     0.031 C 
ATOM     40  C   UNL A   1      40.646  31.122  29.686  1.00  0.00     0.029 A 
ATOM     41  N   UNL A   1      42.475  29.839  29.607  1.00  0.00    -0.354 N 
ATOM     42  C   UNL A   1      42.274  25.776  28.148  1.00  0.00     0.074 A 
ATOM     43  C   UNL A   1      40.919  25.424  27.777  1.00  0.00     0.031 C 
ATOM     44  C   UNL A   1      41.651  31.823  30.233  1.00  0.00     0.029 A 
ATOM     45  C   UNL A   1      42.862  31.009  30.214  1.00  0.00     0.049 A 
ATOM     46  H   UNL A   1      43.090  29.090  29.437  1.00  0.00     0.167 HD
ATOM     47  C   UNL A   1      43.337  24.936  28.075  1.00  0.00     0.037 A 
ATOM     48  C   UNL A   1      44.059  31.388  30.702  1.00  0.00     0.037 A 
ATOM     49  C   UNL A   1      44.684  25.306  28.434  1.00  0.00     0.049 A 
ATOM     50  C   UNL A   1      45.230  30.453  30.579  1.00  0.00     0.074 A 
ATOM     51  C   UNL A   1      45.845  24.560  28.312  1.00  0.00     0.029 A 
ATOM     52  N   UNL A   1      45.053  26.521  28.995  1.00  0.00    -0.354 N 
ATOM     53  N   UNL A   1      45.262  29.235  30.095  1.00  0.00    -0.248 NA
ATOM     54  C   UNL A   1      46.530  30.950  31.049  1.00  0.00     0.031 C 
ATOM     55  C   UNL A   1      46.907  25.307  28.834  1.00  0.00     0.029 A 
ATOM     56  C   UNL A   1      46.417  26.538  29.240  1.00  0.00     0.049 A 
ATOM     57  H   UNL A   1      44.436  27.264  29.188  1.00  0.00     0.167 HD
ATOM     58  C   UNL A   1      46.589  28.828  30.178  1.00  0.00     0.074 A 
ATOM     59  C   UNL A   1      47.329  29.936  30.748  1.00  0.00     0.031 C 
ATOM     60  C   UNL A   1      47.143  27.646  29.811  1.00  0.00     0.037 A 
BRANCH  47  61
ATOM     61  C   UNL A   1      43.098  23.537  27.569  1.00  0.00     0.058 A 
ATOM     62  C   UNL A   1      42.670  22.509  28.425  1.00  0.00     0.135 A 
ATOM     63  C   UNL A   1      43.234  23.232  26.203  1.00  0.00     0.135 A 
ATOM     64  F   UNL A   1      42.526  22.742  29.740  1.00  0.00    -0.206 F 
ATOM     65  C   UNL A   1      42.411  21.227  27.953  1.00  0.00     0.059 A 
ATOM     66  C   UNL A   1      42.953  21.962  25.705  1.00  0.00     0.059 A 
ATOM     67  F   UNL A   1      43.634  24.176  25.337  1.00  0.00    -0.206 F 
ATOM     68  C   UNL A   1      42.554  20.962  26.591  1.00  0.00     0.060 A 
BRANCH  68  69
ATOM     69  S   UNL A   1      42.190  19.298  25.989  1.00  0.00     0.124 S 
ATOM     70  O   UNL A   1      40.742  19.366  25.799  1.00  0.00    -0.237 OA
ATOM     71  O   UNL A   1      42.982  19.229  24.762  1.00  0.00    -0.237 OA
ATOM     72  O   UNL A   1      42.642  18.436  27.072  1.00  0.00    -0.744 OA
ENDBRANCH  68  69
ENDBRANCH  47  61
BRANCH  48  73
ATOM     73  C   UNL A   1      44.213  32.737  31.304  1.00  0.00     0.058 A 
ATOM     74  C   UNL A   1      44.060  32.927  32.684  1.00  0.00     0.135 A 
ATOM     75  C   UNL A   1      44.556  33.851  30.523  1.00  0.00     0.135 A 
ATOM     76  F   UNL A   1      43.731  31.890  33.470  1.00  0.00    -0.206 F 
ATOM     77  C   UNL A   1      44.229  34.175  33.271  1.00  0.00     0.059 A 
ATOM     78  C   UNL A   1      44.752  35.107  31.090  1.00  0.00     0.059 A 
ATOM     79  F   UNL A   1      44.735  33.716  29.199  1.00  0.00    -0.206 F 
ATOM     80  C   UNL A   1      44.578  35.260  32.465  1.00  0.00     0.060 A 
BRANCH  80  81
ATOM     81  S   UNL A   1      44.853  36.865  33.246  1.00  0.00     0.124 S 
ATOM     82  O   UNL A   1      44.453  37.781  32.185  1.00  0.00    -0.237 OA
ATOM     83  O   UNL A   1      43.964  36.799  34.403  1.00  0.00    -0.237 OA
ATOM     84  O   UNL A   1      46.279  36.845  33.561  1.00  0.00    -0.744 OA
ENDBRANCH  80  81
ENDBRANCH  48  73
BRANCH  60  85
ATOM     85  C   UNL A   1      48.628  27.499  29.991  1.00  0.00     0.058 A 
ATOM     86  C   UNL A   1      49.179  26.976  31.172  1.00  0.00     0.135 A 
ATOM     87  C   UNL A   1      49.510  27.850  28.955  1.00  0.00     0.135 A 
ATOM     88  F   UNL A   1      48.382  26.632  32.195  1.00  0.00    -0.206 F 
ATOM     89  C   UNL A   1      50.554  26.831  31.329  1.00  0.00     0.059 A 
ATOM     90  C   UNL A   1      50.886  27.689  29.082  1.00  0.00     0.059 A 
ATOM     91  F   UNL A   1      49.034  28.347  27.803  1.00  0.00    -0.206 F 
ATOM     92  C   UNL A   1      51.400  27.190  30.278  1.00  0.00     0.060 A 
BRANCH  92  93
ATOM     93  S   UNL A   1      53.181  26.973  30.486  1.00  0.00     0.124 S 
ATOM     94  O   UNL A   1      53.574  28.270  31.027  1.00  0.00    -0.237 OA
ATOM     95  O   UNL A   1      53.252  25.850  31.415  1.00  0.00    -0.237 OA
ATOM     96  O   UNL A   1      53.648  26.689  29.132  1.00  0.00    -0.744 OA
ENDBRANCH  92  93
ENDBRANCH  60  85
ENDBRANCH  34  35
ENDBRANCH  26  29
ENDBRANCH  24  25
ENDBRANCH  23  24
ENDBRANCH   1  23
TORSDOF 17
ENDMDL
