MODEL 1
REMARK VINA RESULT:     -13.4      0.000      0.000
REMARK SMILES Cc1ccc(C(=O)NCCCNC(=O)c2ccc(-c3c4nc(c(-c5c(F)cc(S(=O)(=O)[O-])cc5F)c5ccc([nH]5)c(-c5c(F)cc(S(=O)(=O)[O-])cc5F)c5nc(c(-c6c(F)cc(S(=O)(=O)[O-])cc6F)c6ccc3[nH]6)C=C5)C=C4)cc2)c2c1N[C@H](c1ccccc1F)[C@H]1CC=C[C@@H]21
REMARK SMILES IDX 11 1 10 2 9 3 8 4 6 5 7 6 5 8 1 9 2 10 3 11 82 12 4 13 81 14
REMARK SMILES IDX 83 15 96 16 84 17 92 19 95 20 93 21 94 22 85 23 86 24 90 25
REMARK SMILES IDX 87 26 89 27 91 28 88 29 12 30 13 31 14 33 15 34 16 35 80 36
REMARK SMILES IDX 17 37 79 38 18 39 19 40 20 41 73 42 21 43 78 44 72 45 74 46
REMARK SMILES IDX 22 47 77 48 71 49 70 50 23 52 57 53 36 54 56 55 37 56 40 57
REMARK SMILES IDX 55 58 75 59 38 60 39 61 54 63 76 64 41 65 24 66 25 67 34 68
REMARK SMILES IDX 26 69 27 70 33 71 35 72 28 73 29 74 30 75 31 76 32 77 58 78
REMARK SMILES IDX 59 79 68 80 60 81 61 82 67 83 69 84 62 85 63 86 64 87 65 88
REMARK SMILES IDX 66 89 42 90 43 91 52 92 44 93 45 94 51 95 53 96 46 97 47 98
REMARK SMILES IDX 48 99 49 100 50 101
REMARK H PARENT 8 7 83 18 12 32 74 51 40 62
REMARK Flexibility Score: inf
ROOT
ATOM      1  C   UNL A   1      38.243  24.388  26.476  1.00  0.00     0.118 C 
ENDROOT
BRANCH   1   2
ATOM      2  C   UNL A   1      37.319  23.518  25.623  1.00  0.00     0.042 C 
BRANCH   2   3
ATOM      3  C   UNL A   1      35.922  24.122  25.464  1.00  0.00     0.118 C 
BRANCH   3   4
ATOM      4  N   UNL A   1      35.450  23.941  24.104  1.00  0.00    -0.352 N 
ATOM      5  C   UNL A   1      34.217  23.833  23.515  1.00  0.00     0.251 C 
ATOM      6  O   UNL A   1      34.255  23.482  22.336  1.00  0.00    -0.269 OA
ATOM      7  H   UNL A   1      36.186  23.881  23.454  1.00  0.00     0.163 HD
BRANCH   5   8
ATOM      8  C   UNL A   1      32.912  24.146  24.199  1.00  0.00     0.045 A 
ATOM      9  C   UNL A   1      29.263  24.962  26.397  1.00  0.00     0.046 C 
ATOM     10  C   UNL A   1      30.509  24.707  25.589  1.00  0.00    -0.028 A 
ATOM     11  C   UNL A   1      31.096  23.447  25.669  1.00  0.00     0.006 A 
ATOM     12  C   UNL A   1      31.050  25.667  24.712  1.00  0.00     0.042 A 
ATOM     13  C   UNL A   1      32.256  23.166  24.955  1.00  0.00     0.014 A 
ATOM     14  C   UNL A   1      32.276  25.415  24.046  1.00  0.00    -0.005 A 
ATOM     15  N   UNL A   1      30.376  26.861  24.537  1.00  0.00    -0.377 N 
ATOM     16  C   UNL A   1      32.814  26.477  23.104  1.00  0.00     0.050 C 
ATOM     17  C   UNL A   1      30.989  28.036  23.950  1.00  0.00     0.117 C 
ATOM     18  H   UNL A   1      29.437  26.916  24.825  1.00  0.00     0.161 HD
ATOM     19  C   UNL A   1      31.847  27.629  22.745  1.00  0.00     0.031 C 
ATOM     20  C   UNL A   1      34.023  27.238  23.586  1.00  0.00    -0.023 C 
ATOM     21  C   UNL A   1      32.789  28.771  22.318  1.00  0.00     0.034 C 
ATOM     22  C   UNL A   1      34.017  28.498  23.131  1.00  0.00    -0.030 C 
BRANCH  17  23
ATOM     23  C   UNL A   1      29.863  29.039  23.724  1.00  0.00     0.010 A 
ATOM     24  C   UNL A   1      28.760  28.628  22.944  1.00  0.00     0.009 A 
ATOM     25  C   UNL A   1      29.895  30.374  24.139  1.00  0.00     0.128 A 
ATOM     26  C   UNL A   1      27.752  29.525  22.582  1.00  0.00     0.001 A 
ATOM     27  C   UNL A   1      28.890  31.273  23.780  1.00  0.00     0.039 A 
ATOM     28  F   UNL A   1      30.899  30.851  24.884  1.00  0.00    -0.207 F 
ATOM     29  C   UNL A   1      27.821  30.852  22.995  1.00  0.00     0.003 A 
ENDBRANCH  17  23
ENDBRANCH   5   8
ENDBRANCH   3   4
ENDBRANCH   2   3
ENDBRANCH   1   2
BRANCH   1  30
ATOM     30  N   UNL A   1      39.642  24.144  26.156  1.00  0.00    -0.352 N 
ATOM     31  C   UNL A   1      40.745  24.880  26.512  1.00  0.00     0.251 C 
ATOM     32  H   UNL A   1      39.822  23.344  25.611  1.00  0.00     0.163 HD
ATOM     33  O   UNL A   1      41.807  24.725  25.921  1.00  0.00    -0.269 OA
BRANCH  31  34
ATOM     34  C   UNL A   1      40.637  25.854  27.616  1.00  0.00     0.039 A 
ATOM     35  C   UNL A   1      39.664  25.669  28.600  1.00  0.00     0.014 A 
ATOM     36  C   UNL A   1      41.487  26.963  27.654  1.00  0.00     0.014 A 
ATOM     37  C   UNL A   1      39.569  26.582  29.651  1.00  0.00     0.010 A 
ATOM     38  C   UNL A   1      41.428  27.841  28.730  1.00  0.00     0.010 A 
ATOM     39  C   UNL A   1      40.459  27.666  29.728  1.00  0.00    -0.014 A 
BRANCH  39  40
ATOM     40  C   UNL A   1      40.355  28.665  30.818  1.00  0.00     0.031 A 
ATOM     41  C   UNL A   1      41.263  28.552  32.011  1.00  0.00     0.074 A 
ATOM     42  C   UNL A   1      39.431  29.641  30.747  1.00  0.00     0.049 A 
ATOM     43  N   UNL A   1      41.316  29.302  33.080  1.00  0.00    -0.248 NA
ATOM     44  C   UNL A   1      42.229  27.440  32.008  1.00  0.00     0.031 C 
ATOM     45  C   UNL A   1      38.485  29.829  29.646  1.00  0.00     0.029 A 
ATOM     46  N   UNL A   1      39.135  30.656  31.620  1.00  0.00    -0.354 N 
ATOM     47  C   UNL A   1      42.324  28.761  33.869  1.00  0.00     0.074 A 
ATOM     48  C   UNL A   1      42.808  27.580  33.190  1.00  0.00     0.031 C 
ATOM     49  C   UNL A   1      37.729  30.911  29.899  1.00  0.00     0.029 A 
ATOM     50  C   UNL A   1      38.118  31.475  31.189  1.00  0.00     0.049 A 
ATOM     51  H   UNL A   1      39.606  30.787  32.474  1.00  0.00     0.167 HD
ATOM     52  C   UNL A   1      42.824  29.227  35.037  1.00  0.00     0.037 A 
ATOM     53  C   UNL A   1      37.565  32.557  31.771  1.00  0.00     0.037 A 
ATOM     54  C   UNL A   1      42.336  30.405  35.703  1.00  0.00     0.049 A 
ATOM     55  C   UNL A   1      38.099  33.023  33.099  1.00  0.00     0.074 A 
ATOM     56  C   UNL A   1      42.785  30.976  36.879  1.00  0.00     0.029 A 
ATOM     57  N   UNL A   1      41.287  31.193  35.250  1.00  0.00    -0.354 N 
ATOM     58  N   UNL A   1      39.083  32.528  33.812  1.00  0.00    -0.248 NA
ATOM     59  C   UNL A   1      37.449  34.194  33.704  1.00  0.00     0.031 C 
ATOM     60  C   UNL A   1      41.980  32.085  37.160  1.00  0.00     0.029 A 
ATOM     61  C   UNL A   1      41.059  32.232  36.134  1.00  0.00     0.049 A 
ATOM     62  H   UNL A   1      40.778  31.034  34.422  1.00  0.00     0.167 HD
ATOM     63  C   UNL A   1      39.188  33.340  34.936  1.00  0.00     0.074 A 
ATOM     64  C   UNL A   1      38.173  34.366  34.803  1.00  0.00     0.031 C 
ATOM     65  C   UNL A   1      40.046  33.247  35.981  1.00  0.00     0.037 A 
BRANCH  52  66
ATOM     66  C   UNL A   1      43.965  28.470  35.655  1.00  0.00     0.058 A 
ATOM     67  C   UNL A   1      43.739  27.436  36.579  1.00  0.00     0.135 A 
ATOM     68  C   UNL A   1      45.295  28.753  35.302  1.00  0.00     0.135 A 
ATOM     69  F   UNL A   1      42.488  27.137  36.966  1.00  0.00    -0.206 F 
ATOM     70  C   UNL A   1      44.790  26.728  37.150  1.00  0.00     0.059 A 
ATOM     71  C   UNL A   1      46.361  28.038  35.841  1.00  0.00     0.059 A 
ATOM     72  F   UNL A   1      45.568  29.733  34.426  1.00  0.00    -0.206 F 
ATOM     73  C   UNL A   1      46.099  27.035  36.773  1.00  0.00     0.060 A 
BRANCH  73  74
ATOM     74  S   UNL A   1      47.446  26.097  37.521  1.00  0.00     0.124 S 
ATOM     75  O   UNL A   1      46.970  25.942  38.891  1.00  0.00    -0.237 OA
ATOM     76  O   UNL A   1      47.463  24.881  36.715  1.00  0.00    -0.237 OA
ATOM     77  O   UNL A   1      48.603  26.971  37.356  1.00  0.00    -0.744 OA
ENDBRANCH  73  74
ENDBRANCH  52  66
BRANCH  53  78
ATOM     78  C   UNL A   1      36.478  33.297  31.079  1.00  0.00     0.058 A 
ATOM     79  C   UNL A   1      36.753  34.091  29.955  1.00  0.00     0.135 A 
ATOM     80  C   UNL A   1      35.142  33.206  31.502  1.00  0.00     0.135 A 
ATOM     81  F   UNL A   1      38.015  34.214  29.517  1.00  0.00    -0.206 F 
ATOM     82  C   UNL A   1      35.748  34.772  29.279  1.00  0.00     0.059 A 
ATOM     83  C   UNL A   1      34.115  33.861  30.828  1.00  0.00     0.059 A 
ATOM     84  F   UNL A   1      34.823  32.450  32.564  1.00  0.00    -0.206 F 
ATOM     85  C   UNL A   1      34.429  34.646  29.720  1.00  0.00     0.060 A 
BRANCH  85  86
ATOM     86  S   UNL A   1      33.128  35.490  28.794  1.00  0.00     0.124 S 
ATOM     87  O   UNL A   1      33.897  36.440  28.001  1.00  0.00    -0.237 OA
ATOM     88  O   UNL A   1      32.517  34.387  28.057  1.00  0.00    -0.237 OA
ATOM     89  O   UNL A   1      32.293  36.072  29.841  1.00  0.00    -0.744 OA
ENDBRANCH  85  86
ENDBRANCH  53  78
BRANCH  65  90
ATOM     90  C   UNL A   1      39.942  34.285  37.064  1.00  0.00     0.058 A 
ATOM     91  C   UNL A   1      40.573  35.531  36.947  1.00  0.00     0.135 A 
ATOM     92  C   UNL A   1      39.126  34.063  38.187  1.00  0.00     0.135 A 
ATOM     93  F   UNL A   1      41.370  35.789  35.897  1.00  0.00    -0.206 F 
ATOM     94  C   UNL A   1      40.406  36.522  37.908  1.00  0.00     0.059 A 
ATOM     95  C   UNL A   1      38.923  35.049  39.146  1.00  0.00     0.059 A 
ATOM     96  F   UNL A   1      38.492  32.889  38.341  1.00  0.00    -0.206 F 
ATOM     97  C   UNL A   1      39.570  36.275  39.000  1.00  0.00     0.060 A 
BRANCH  97  98
ATOM     98  S   UNL A   1      39.315  37.594  40.204  1.00  0.00     0.124 S 
ATOM     99  O   UNL A   1      40.622  38.243  40.214  1.00  0.00    -0.237 OA
ATOM    100  O   UNL A   1      38.231  38.362  39.599  1.00  0.00    -0.237 OA
ATOM    101  O   UNL A   1      38.961  36.877  41.426  1.00  0.00    -0.744 OA
ENDBRANCH  97  98
ENDBRANCH  65  90
ENDBRANCH  39  40
ENDBRANCH  31  34
ENDBRANCH   1  30
TORSDOF 14
ENDMDL
MODEL 2
REMARK VINA RESULT:     -13.3      6.735     12.192
REMARK SMILES Cc1ccc(C(=O)NCCCNC(=O)c2ccc(-c3c4nc(c(-c5c(F)cc(S(=O)(=O)[O-])cc5F)c5ccc([nH]5)c(-c5c(F)cc(S(=O)(=O)[O-])cc5F)c5nc(c(-c6c(F)cc(S(=O)(=O)[O-])cc6F)c6ccc3[nH]6)C=C5)C=C4)cc2)c2c1N[C@H](c1ccccc1F)[C@H]1CC=C[C@@H]21
REMARK SMILES IDX 11 1 10 2 9 3 8 4 6 5 7 6 5 8 1 9 2 10 3 11 82 12 4 13 81 14
REMARK SMILES IDX 83 15 96 16 84 17 92 19 95 20 93 21 94 22 85 23 86 24 90 25
REMARK SMILES IDX 87 26 89 27 91 28 88 29 12 30 13 31 14 33 15 34 16 35 80 36
REMARK SMILES IDX 17 37 79 38 18 39 19 40 20 41 73 42 21 43 78 44 72 45 74 46
REMARK SMILES IDX 22 47 77 48 71 49 70 50 23 52 57 53 36 54 56 55 37 56 40 57
REMARK SMILES IDX 55 58 75 59 38 60 39 61 54 63 76 64 41 65 24 66 25 67 34 68
REMARK SMILES IDX 26 69 27 70 33 71 35 72 28 73 29 74 30 75 31 76 32 77 58 78
REMARK SMILES IDX 59 79 68 80 60 81 61 82 67 83 69 84 62 85 63 86 64 87 65 88
REMARK SMILES IDX 66 89 42 90 43 91 52 92 44 93 45 94 51 95 53 96 46 97 47 98
REMARK SMILES IDX 48 99 49 100 50 101
REMARK H PARENT 8 7 83 18 12 32 74 51 40 62
REMARK Flexibility Score: inf
ROOT
ATOM      1  C   UNL A   1      35.326  29.307  27.535  1.00  0.00     0.118 C 
ENDROOT
BRANCH   1   2
ATOM      2  C   UNL A   1      33.910  29.053  27.019  1.00  0.00     0.042 C 
BRANCH   2   3
ATOM      3  C   UNL A   1      33.788  27.730  26.261  1.00  0.00     0.118 C 
BRANCH   3   4
ATOM      4  N   UNL A   1      32.561  27.050  26.634  1.00  0.00    -0.352 N 
ATOM      5  C   UNL A   1      31.726  26.154  26.019  1.00  0.00     0.251 C 
ATOM      6  O   UNL A   1      30.664  25.971  26.613  1.00  0.00    -0.269 OA
ATOM      7  H   UNL A   1      32.259  27.287  27.541  1.00  0.00     0.163 HD
BRANCH   5   8
ATOM      8  C   UNL A   1      32.055  25.410  24.751  1.00  0.00     0.045 A 
ATOM      9  C   UNL A   1      33.154  23.473  21.030  1.00  0.00     0.046 C 
ATOM     10  C   UNL A   1      32.750  24.096  22.340  1.00  0.00    -0.028 A 
ATOM     11  C   UNL A   1      32.219  25.383  22.319  1.00  0.00     0.006 A 
ATOM     12  C   UNL A   1      32.824  23.400  23.563  1.00  0.00     0.042 A 
ATOM     13  C   UNL A   1      31.846  26.009  23.503  1.00  0.00     0.014 A 
ATOM     14  C   UNL A   1      32.523  24.061  24.780  1.00  0.00    -0.005 A 
ATOM     15  N   UNL A   1      33.219  22.075  23.549  1.00  0.00    -0.377 N 
ATOM     16  C   UNL A   1      32.608  23.265  26.070  1.00  0.00     0.050 C 
ATOM     17  C   UNL A   1      33.659  21.369  24.737  1.00  0.00     0.117 C 
ATOM     18  H   UNL A   1      33.201  21.589  22.694  1.00  0.00     0.161 HD
ATOM     19  C   UNL A   1      32.757  21.733  25.923  1.00  0.00     0.031 C 
ATOM     20  C   UNL A   1      33.768  23.595  26.974  1.00  0.00    -0.023 C 
ATOM     21  C   UNL A   1      33.391  21.302  27.259  1.00  0.00     0.034 C 
ATOM     22  C   UNL A   1      34.183  22.513  27.647  1.00  0.00    -0.030 C 
BRANCH  17  23
ATOM     23  C   UNL A   1      33.773  19.901  24.344  1.00  0.00     0.010 A 
ATOM     24  C   UNL A   1      32.634  19.276  23.790  1.00  0.00     0.009 A 
ATOM     25  C   UNL A   1      34.889  19.096  24.596  1.00  0.00     0.128 A 
ATOM     26  C   UNL A   1      32.614  17.904  23.526  1.00  0.00     0.001 A 
ATOM     27  C   UNL A   1      34.873  17.726  24.333  1.00  0.00     0.039 A 
ATOM     28  F   UNL A   1      36.013  19.603  25.116  1.00  0.00    -0.207 F 
ATOM     29  C   UNL A   1      33.734  17.126  23.806  1.00  0.00     0.003 A 
ENDBRANCH  17  23
ENDBRANCH   5   8
ENDBRANCH   3   4
ENDBRANCH   2   3
ENDBRANCH   1   2
BRANCH   1  30
ATOM     30  N   UNL A   1      35.312  30.140  28.729  1.00  0.00    -0.352 N 
ATOM     31  C   UNL A   1      36.296  30.304  29.673  1.00  0.00     0.251 C 
ATOM     32  H   UNL A   1      34.487  30.655  28.881  1.00  0.00     0.163 HD
ATOM     33  O   UNL A   1      36.027  30.790  30.765  1.00  0.00    -0.269 OA
BRANCH  31  34
ATOM     34  C   UNL A   1      37.677  29.893  29.354  1.00  0.00     0.039 A 
ATOM     35  C   UNL A   1      38.526  29.484  30.384  1.00  0.00     0.014 A 
ATOM     36  C   UNL A   1      38.132  29.942  28.033  1.00  0.00     0.014 A 
ATOM     37  C   UNL A   1      39.828  29.084  30.082  1.00  0.00     0.010 A 
ATOM     38  C   UNL A   1      39.411  29.490  27.726  1.00  0.00     0.010 A 
ATOM     39  C   UNL A   1      40.273  29.073  28.750  1.00  0.00    -0.014 A 
BRANCH  39  40
ATOM     40  C   UNL A   1      41.662  28.682  28.411  1.00  0.00     0.031 A 
ATOM     41  C   UNL A   1      42.747  29.721  28.434  1.00  0.00     0.074 A 
ATOM     42  C   UNL A   1      41.933  27.412  28.056  1.00  0.00     0.049 A 
ATOM     43  N   UNL A   1      44.016  29.595  28.145  1.00  0.00    -0.248 NA
ATOM     44  C   UNL A   1      42.351  31.087  28.816  1.00  0.00     0.031 C 
ATOM     45  C   UNL A   1      40.951  26.329  27.979  1.00  0.00     0.029 A 
ATOM     46  N   UNL A   1      43.114  26.819  27.692  1.00  0.00    -0.354 N 
ATOM     47  C   UNL A   1      44.569  30.857  28.322  1.00  0.00     0.074 A 
ATOM     48  C   UNL A   1      43.487  31.750  28.673  1.00  0.00     0.031 C 
ATOM     49  C   UNL A   1      41.576  25.196  27.615  1.00  0.00     0.029 A 
ATOM     50  C   UNL A   1      42.994  25.479  27.406  1.00  0.00     0.049 A 
ATOM     51  H   UNL A   1      43.968  27.306  27.639  1.00  0.00     0.167 HD
ATOM     52  C   UNL A   1      45.867  31.230  28.233  1.00  0.00     0.037 A 
ATOM     53  C   UNL A   1      43.924  24.584  27.022  1.00  0.00     0.037 A 
ATOM     54  C   UNL A   1      46.935  30.332  27.885  1.00  0.00     0.049 A 
ATOM     55  C   UNL A   1      45.353  25.035  26.873  1.00  0.00     0.074 A 
ATOM     56  C   UNL A   1      48.288  30.602  27.787  1.00  0.00     0.029 A 
ATOM     57  N   UNL A   1      46.771  28.989  27.577  1.00  0.00    -0.354 N 
ATOM     58  N   UNL A   1      45.869  26.222  27.087  1.00  0.00    -0.248 NA
ATOM     59  C   UNL A   1      46.327  24.027  26.430  1.00  0.00     0.031 C 
ATOM     60  C   UNL A   1      48.937  29.432  27.378  1.00  0.00     0.029 A 
ATOM     61  C   UNL A   1      47.995  28.421  27.267  1.00  0.00     0.049 A 
ATOM     62  H   UNL A   1      45.911  28.510  27.577  1.00  0.00     0.167 HD
ATOM     63  C   UNL A   1      47.230  26.099  26.830  1.00  0.00     0.074 A 
ATOM     64  C   UNL A   1      47.459  24.719  26.454  1.00  0.00     0.031 C 
ATOM     65  C   UNL A   1      48.202  27.042  26.899  1.00  0.00     0.037 A 
BRANCH  52  66
ATOM     66  C   UNL A   1      46.199  32.664  28.534  1.00  0.00     0.058 A 
ATOM     67  C   UNL A   1      46.198  33.640  27.523  1.00  0.00     0.135 A 
ATOM     68  C   UNL A   1      46.491  33.078  29.843  1.00  0.00     0.135 A 
ATOM     69  F   UNL A   1      45.944  33.295  26.250  1.00  0.00    -0.206 F 
ATOM     70  C   UNL A   1      46.499  34.969  27.795  1.00  0.00     0.059 A 
ATOM     71  C   UNL A   1      46.768  34.409  30.143  1.00  0.00     0.059 A 
ATOM     72  F   UNL A   1      46.509  32.187  30.847  1.00  0.00    -0.206 F 
ATOM     73  C   UNL A   1      46.781  35.346  29.109  1.00  0.00     0.060 A 
BRANCH  73  74
ATOM     74  S   UNL A   1      47.160  37.078  29.441  1.00  0.00     0.124 S 
ATOM     75  O   UNL A   1      47.914  37.446  28.246  1.00  0.00    -0.237 OA
ATOM     76  O   UNL A   1      45.832  37.670  29.559  1.00  0.00    -0.237 OA
ATOM     77  O   UNL A   1      47.934  37.027  30.677  1.00  0.00    -0.744 OA
ENDBRANCH  73  74
ENDBRANCH  52  66
BRANCH  53  78
ATOM     78  C   UNL A   1      43.541  23.166  26.797  1.00  0.00     0.058 A 
ATOM     79  C   UNL A   1      43.201  22.336  27.876  1.00  0.00     0.135 A 
ATOM     80  C   UNL A   1      43.476  22.617  25.506  1.00  0.00     0.135 A 
ATOM     81  F   UNL A   1      43.254  22.812  29.129  1.00  0.00    -0.206 F 
ATOM     82  C   UNL A   1      42.816  21.013  27.687  1.00  0.00     0.059 A 
ATOM     83  C   UNL A   1      43.072  21.303  25.289  1.00  0.00     0.059 A 
ATOM     84  F   UNL A   1      43.778  23.373  24.439  1.00  0.00    -0.206 F 
ATOM     85  C   UNL A   1      42.749  20.507  26.387  1.00  0.00     0.060 A 
BRANCH  85  86
ATOM     86  S   UNL A   1      42.190  18.805  26.154  1.00  0.00     0.124 S 
ATOM     87  O   UNL A   1      42.406  18.239  27.480  1.00  0.00    -0.237 OA
ATOM     88  O   UNL A   1      40.797  18.995  25.760  1.00  0.00    -0.237 OA
ATOM     89  O   UNL A   1      43.068  18.303  25.102  1.00  0.00    -0.744 OA
ENDBRANCH  85  86
ENDBRANCH  53  78
BRANCH  65  90
ATOM     90  C   UNL A   1      49.609  26.620  26.578  1.00  0.00     0.058 A 
ATOM     91  C   UNL A   1      50.438  26.037  27.546  1.00  0.00     0.135 A 
ATOM     92  C   UNL A   1      50.097  26.715  25.264  1.00  0.00     0.135 A 
ATOM     93  F   UNL A   1      50.021  25.931  28.818  1.00  0.00    -0.206 F 
ATOM     94  C   UNL A   1      51.708  25.568  27.227  1.00  0.00     0.059 A 
ATOM     95  C   UNL A   1      51.353  26.228  24.916  1.00  0.00     0.059 A 
ATOM     96  F   UNL A   1      49.338  27.257  24.297  1.00  0.00    -0.206 F 
ATOM     97  C   UNL A   1      52.152  25.659  25.905  1.00  0.00     0.060 A 
BRANCH  97  98
ATOM     98  S   UNL A   1      53.777  24.988  25.497  1.00  0.00     0.124 S 
ATOM     99  O   UNL A   1      54.138  25.780  24.326  1.00  0.00    -0.237 OA
ATOM    100  O   UNL A   1      54.541  25.265  26.709  1.00  0.00    -0.237 OA
ATOM    101  O   UNL A   1      53.509  23.575  25.241  1.00  0.00    -0.744 OA
ENDBRANCH  97  98
ENDBRANCH  65  90
ENDBRANCH  39  40
ENDBRANCH  31  34
ENDBRANCH   1  30
TORSDOF 14
ENDMDL
MODEL 3
REMARK VINA RESULT:     -13.3      4.903     10.512
REMARK SMILES Cc1ccc(C(=O)NCCCNC(=O)c2ccc(-c3c4nc(c(-c5c(F)cc(S(=O)(=O)[O-])cc5F)c5ccc([nH]5)c(-c5c(F)cc(S(=O)(=O)[O-])cc5F)c5nc(c(-c6c(F)cc(S(=O)(=O)[O-])cc6F)c6ccc3[nH]6)C=C5)C=C4)cc2)c2c1N[C@H](c1ccccc1F)[C@H]1CC=C[C@@H]21
REMARK SMILES IDX 11 1 10 2 9 3 8 4 6 5 7 6 5 8 1 9 2 10 3 11 82 12 4 13 81 14
REMARK SMILES IDX 83 15 96 16 84 17 92 19 95 20 93 21 94 22 85 23 86 24 90 25
REMARK SMILES IDX 87 26 89 27 91 28 88 29 12 30 13 31 14 33 15 34 16 35 80 36
REMARK SMILES IDX 17 37 79 38 18 39 19 40 20 41 73 42 21 43 78 44 72 45 74 46
REMARK SMILES IDX 22 47 77 48 71 49 70 50 23 52 57 53 36 54 56 55 37 56 40 57
REMARK SMILES IDX 55 58 75 59 38 60 39 61 54 63 76 64 41 65 24 66 25 67 34 68
REMARK SMILES IDX 26 69 27 70 33 71 35 72 28 73 29 74 30 75 31 76 32 77 58 78
REMARK SMILES IDX 59 79 68 80 60 81 61 82 67 83 69 84 62 85 63 86 64 87 65 88
REMARK SMILES IDX 66 89 42 90 43 91 52 92 44 93 45 94 51 95 53 96 46 97 47 98
REMARK SMILES IDX 48 99 49 100 50 101
REMARK H PARENT 8 7 83 18 12 32 74 51 40 62
REMARK Flexibility Score: inf
ROOT
ATOM      1  C   UNL A   1      33.899  28.199  26.995  1.00  0.00     0.118 C 
ENDROOT
BRANCH   1   2
ATOM      2  C   UNL A   1      33.672  27.939  25.506  1.00  0.00     0.042 C 
BRANCH   2   3
ATOM      3  C   UNL A   1      32.473  28.709  24.949  1.00  0.00     0.118 C 
BRANCH   3   4
ATOM      4  N   UNL A   1      31.254  27.947  25.144  1.00  0.00    -0.352 N 
ATOM      5  C   UNL A   1      30.651  26.903  24.492  1.00  0.00     0.251 C 
ATOM      6  O   UNL A   1      29.502  26.674  24.870  1.00  0.00    -0.269 OA
ATOM      7  H   UNL A   1      30.741  28.250  25.928  1.00  0.00     0.163 HD
BRANCH   5   8
ATOM      8  C   UNL A   1      31.312  26.061  23.432  1.00  0.00     0.045 A 
ATOM      9  C   UNL A   1      33.373  23.844  20.327  1.00  0.00     0.046 C 
ATOM     10  C   UNL A   1      32.632  24.565  21.422  1.00  0.00    -0.028 A 
ATOM     11  C   UNL A   1      32.096  25.818  21.136  1.00  0.00     0.006 A 
ATOM     12  C   UNL A   1      32.405  23.989  22.688  1.00  0.00     0.042 A 
ATOM     13  C   UNL A   1      31.416  26.532  22.117  1.00  0.00     0.014 A 
ATOM     14  C   UNL A   1      31.786  24.744  23.715  1.00  0.00    -0.005 A 
ATOM     15  N   UNL A   1      32.820  22.689  22.908  1.00  0.00    -0.377 N 
ATOM     16  C   UNL A   1      31.556  24.077  25.058  1.00  0.00     0.050 C 
ATOM     17  C   UNL A   1      32.956  22.118  24.234  1.00  0.00     0.117 C 
ATOM     18  H   UNL A   1      33.033  22.126  22.131  1.00  0.00     0.161 HD
ATOM     19  C   UNL A   1      31.772  22.546  25.110  1.00  0.00     0.031 C 
ATOM     20  C   UNL A   1      32.437  24.544  26.189  1.00  0.00    -0.023 C 
ATOM     21  C   UNL A   1      32.051  22.271  26.600  1.00  0.00     0.034 C 
ATOM     22  C   UNL A   1      32.689  23.549  27.051  1.00  0.00    -0.030 C 
BRANCH  17  23
ATOM     23  C   UNL A   1      33.201  20.627  24.035  1.00  0.00     0.010 A 
ATOM     24  C   UNL A   1      32.304  19.917  23.207  1.00  0.00     0.009 A 
ATOM     25  C   UNL A   1      34.183  19.887  24.702  1.00  0.00     0.128 A 
ATOM     26  C   UNL A   1      32.380  18.528  23.077  1.00  0.00     0.001 A 
ATOM     27  C   UNL A   1      34.262  18.500  24.575  1.00  0.00     0.039 A 
ATOM     28  F   UNL A   1      35.077  20.476  25.504  1.00  0.00    -0.207 F 
ATOM     29  C   UNL A   1      33.356  17.817  23.769  1.00  0.00     0.003 A 
ENDBRANCH  17  23
ENDBRANCH   5   8
ENDBRANCH   3   4
ENDBRANCH   2   3
ENDBRANCH   1   2
BRANCH   1  30
ATOM     30  N   UNL A   1      33.693  29.603  27.324  1.00  0.00    -0.352 N 
ATOM     31  C   UNL A   1      34.493  30.437  28.065  1.00  0.00     0.251 C 
ATOM     32  H   UNL A   1      32.870  30.009  26.968  1.00  0.00     0.163 HD
ATOM     33  O   UNL A   1      34.045  31.489  28.507  1.00  0.00    -0.269 OA
BRANCH  31  34
ATOM     34  C   UNL A   1      35.896  30.055  28.317  1.00  0.00     0.039 A 
ATOM     35  C   UNL A   1      36.265  29.596  29.583  1.00  0.00     0.014 A 
ATOM     36  C   UNL A   1      36.847  30.181  27.300  1.00  0.00     0.014 A 
ATOM     37  C   UNL A   1      37.589  29.222  29.819  1.00  0.00     0.010 A 
ATOM     38  C   UNL A   1      38.153  29.757  27.520  1.00  0.00     0.010 A 
ATOM     39  C   UNL A   1      38.537  29.289  28.784  1.00  0.00    -0.014 A 
BRANCH  39  40
ATOM     40  C   UNL A   1      39.954  28.928  29.022  1.00  0.00     0.031 A 
ATOM     41  C   UNL A   1      40.881  29.941  29.633  1.00  0.00     0.074 A 
ATOM     42  C   UNL A   1      40.406  27.713  28.661  1.00  0.00     0.049 A 
ATOM     43  N   UNL A   1      42.157  29.838  29.898  1.00  0.00    -0.248 NA
ATOM     44  C   UNL A   1      40.300  31.250  29.977  1.00  0.00     0.031 C 
ATOM     45  C   UNL A   1      39.598  26.662  28.040  1.00  0.00     0.029 A 
ATOM     46  N   UNL A   1      41.655  27.157  28.763  1.00  0.00    -0.354 N 
ATOM     47  C   UNL A   1      42.527  31.059  30.448  1.00  0.00     0.074 A 
ATOM     48  C   UNL A   1      41.360  31.911  30.415  1.00  0.00     0.031 C 
ATOM     49  C   UNL A   1      40.367  25.579  27.838  1.00  0.00     0.029 A 
ATOM     50  C   UNL A   1      41.727  25.869  28.289  1.00  0.00     0.049 A 
ATOM     51  H   UNL A   1      42.429  27.636  29.139  1.00  0.00     0.167 HD
ATOM     52  C   UNL A   1      43.722  31.423  30.967  1.00  0.00     0.037 A 
ATOM     53  C   UNL A   1      42.771  25.020  28.229  1.00  0.00     0.037 A 
ATOM     54  C   UNL A   1      44.876  30.564  30.997  1.00  0.00     0.049 A 
ATOM     55  C   UNL A   1      44.107  25.468  28.758  1.00  0.00     0.074 A 
ATOM     56  C   UNL A   1      46.130  30.828  31.518  1.00  0.00     0.029 A 
ATOM     57  N   UNL A   1      44.918  29.276  30.484  1.00  0.00    -0.354 N 
ATOM     58  N   UNL A   1      44.431  26.610  29.317  1.00  0.00    -0.248 NA
ATOM     59  C   UNL A   1      45.220  24.514  28.650  1.00  0.00     0.031 C 
ATOM     60  C   UNL A   1      46.943  29.714  31.282  1.00  0.00     0.029 A 
ATOM     61  C   UNL A   1      46.181  28.738  30.656  1.00  0.00     0.049 A 
ATOM     62  H   UNL A   1      44.160  28.813  30.059  1.00  0.00     0.167 HD
ATOM     63  C   UNL A   1      45.777  26.504  29.650  1.00  0.00     0.074 A 
ATOM     64  C   UNL A   1      46.204  25.182  29.239  1.00  0.00     0.031 C 
ATOM     65  C   UNL A   1      46.586  27.417  30.243  1.00  0.00     0.037 A 
BRANCH  52  66
ATOM     66  C   UNL A   1      43.833  32.801  31.556  1.00  0.00     0.058 A 
ATOM     67  C   UNL A   1      44.080  33.922  30.746  1.00  0.00     0.135 A 
ATOM     68  C   UNL A   1      43.660  33.013  32.933  1.00  0.00     0.135 A 
ATOM     69  F   UNL A   1      44.271  33.774  29.426  1.00  0.00    -0.206 F 
ATOM     70  C   UNL A   1      44.177  35.200  31.284  1.00  0.00     0.059 A 
ATOM     71  C   UNL A   1      43.727  34.288  33.489  1.00  0.00     0.059 A 
ATOM     72  F   UNL A   1      43.425  31.977  33.753  1.00  0.00    -0.206 F 
ATOM     73  C   UNL A   1      43.997  35.374  32.657  1.00  0.00     0.060 A 
BRANCH  73  74
ATOM     74  S   UNL A   1      44.119  37.043  33.332  1.00  0.00     0.124 S 
ATOM     75  O   UNL A   1      42.779  37.237  33.876  1.00  0.00    -0.237 OA
ATOM     76  O   UNL A   1      45.188  36.902  34.316  1.00  0.00    -0.237 OA
ATOM     77  O   UNL A   1      44.446  37.858  32.168  1.00  0.00    -0.744 OA
ENDBRANCH  73  74
ENDBRANCH  52  66
BRANCH  53  78
ATOM     78  C   UNL A   1      42.581  23.648  27.687  1.00  0.00     0.058 A 
ATOM     79  C   UNL A   1      42.633  23.410  26.306  1.00  0.00     0.135 A 
ATOM     80  C   UNL A   1      42.377  22.546  28.532  1.00  0.00     0.135 A 
ATOM     81  F   UNL A   1      42.820  24.432  25.457  1.00  0.00    -0.206 F 
ATOM     82  C   UNL A   1      42.482  22.132  25.779  1.00  0.00     0.059 A 
ATOM     83  C   UNL A   1      42.246  21.254  28.030  1.00  0.00     0.059 A 
ATOM     84  F   UNL A   1      42.333  22.718  29.862  1.00  0.00    -0.206 F 
ATOM     85  C   UNL A   1      42.295  21.058  26.651  1.00  0.00     0.060 A 
BRANCH  85  86
ATOM     86  S   UNL A   1      42.162  19.397  25.955  1.00  0.00     0.124 S 
ATOM     87  O   UNL A   1      42.704  18.580  27.033  1.00  0.00    -0.237 OA
ATOM     88  O   UNL A   1      40.725  19.279  25.725  1.00  0.00    -0.237 OA
ATOM     89  O   UNL A   1      42.978  19.472  24.747  1.00  0.00    -0.744 OA
ENDBRANCH  85  86
ENDBRANCH  53  78
BRANCH  65  90
ATOM     90  C   UNL A   1      48.013  27.022  30.500  1.00  0.00     0.058 A 
ATOM     91  C   UNL A   1      49.021  27.263  29.555  1.00  0.00     0.135 A 
ATOM     92  C   UNL A   1      48.390  26.485  31.742  1.00  0.00     0.135 A 
ATOM     93  F   UNL A   1      48.711  27.768  28.350  1.00  0.00    -0.206 F 
ATOM     94  C   UNL A   1      50.355  26.978  29.828  1.00  0.00     0.059 A 
ATOM     95  C   UNL A   1      49.721  26.217  32.046  1.00  0.00     0.059 A 
ATOM     96  F   UNL A   1      47.465  26.245  32.685  1.00  0.00    -0.206 F 
ATOM     97  C   UNL A   1      50.696  26.464  31.081  1.00  0.00     0.060 A 
BRANCH  97  98
ATOM     98  S   UNL A   1      52.438  26.159  31.440  1.00  0.00     0.124 S 
ATOM     99  O   UNL A   1      52.406  24.779  31.912  1.00  0.00    -0.237 OA
ATOM    100  O   UNL A   1      53.064  26.369  30.138  1.00  0.00    -0.237 OA
ATOM    101  O   UNL A   1      52.758  27.161  32.453  1.00  0.00    -0.744 OA
ENDBRANCH  97  98
ENDBRANCH  65  90
ENDBRANCH  39  40
ENDBRANCH  31  34
ENDBRANCH   1  30
TORSDOF 14
ENDMDL
