MODEL 1
REMARK VINA RESULT:     -11.8      0.000      0.000
REMARK SMILES O=C(NCCCNC(=O)[C@H]1CC[C@@H]2CCCC[C@@H]2N1C(=O)Cc1ccn[nH]1)c1ccc(-c2c3nc(c(-c4c(F)cc(S(=O)(=O)[O-])cc4F)c4ccc([nH]4)c(-c4c(F)cc(S(=O)(=O)[O-])cc4F)c4nc(c(-c5c(F)cc(S(=O)(=O)[O-])cc5F)c5ccc2[nH]5)C=C4)C=C3)cc1
REMARK SMILES IDX 5 1 4 2 3 3 1 4 2 5 28 7 29 8 93 9 30 10 92 11 31 12 32 13
REMARK SMILES IDX 33 14 86 15 34 16 91 17 85 18 87 19 35 20 90 21 84 22 83 23
REMARK SMILES IDX 36 25 70 26 49 27 69 28 50 29 53 30 68 31 88 32 51 33 52 34
REMARK SMILES IDX 67 36 89 37 54 38 37 39 38 40 47 41 39 42 40 43 46 44 48 45
REMARK SMILES IDX 41 46 42 47 43 48 44 49 45 50 71 51 72 52 81 53 73 54 74 55
REMARK SMILES IDX 80 56 82 57 75 58 76 59 77 60 78 61 79 62 55 63 56 64 65 65
REMARK SMILES IDX 57 66 58 67 64 68 66 69 59 70 60 71 61 72 62 73 63 74 6 75
REMARK SMILES IDX 7 76 8 77 9 79 10 80 11 81 19 82 12 83 18 84 13 85 17 86
REMARK SMILES IDX 14 87 16 88 15 89 20 90 21 91 22 92 23 93 24 94 27 95 25 96
REMARK SMILES IDX 26 97
REMARK H PARENT 3 6 87 24 53 35 7 78 27 98
REMARK Flexibility Score: inf
ROOT
ATOM      1  C   UNL A   1      32.398  27.813  27.526  1.00  0.00     0.042 C 
ENDROOT
BRANCH   1   2
ATOM      2  C   UNL A   1      33.619  28.687  27.278  1.00  0.00     0.118 C 
BRANCH   2   3
ATOM      3  N   UNL A   1      33.536  30.055  27.763  1.00  0.00    -0.352 N 
ATOM      4  O   UNL A   1      34.462  31.898  28.745  1.00  0.00    -0.269 OA
ATOM      5  C   UNL A   1      34.591  30.763  28.314  1.00  0.00     0.251 C 
ATOM      6  H   UNL A   1      32.666  30.511  27.694  1.00  0.00     0.163 HD
BRANCH   5   7
ATOM      7  C   UNL A   1      35.888  30.052  28.400  1.00  0.00     0.039 A 
ATOM      8  C   UNL A   1      36.297  29.535  29.631  1.00  0.00     0.014 A 
ATOM      9  C   UNL A   1      36.766  30.100  27.314  1.00  0.00     0.014 A 
ATOM     10  C   UNL A   1      37.637  29.209  29.819  1.00  0.00     0.010 A 
ATOM     11  C   UNL A   1      38.096  29.704  27.491  1.00  0.00     0.010 A 
ATOM     12  C   UNL A   1      38.556  29.306  28.758  1.00  0.00    -0.014 A 
BRANCH  12  13
ATOM     13  C   UNL A   1      39.989  28.988  29.001  1.00  0.00     0.031 A 
ATOM     14  C   UNL A   1      40.566  27.642  28.637  1.00  0.00     0.074 A 
ATOM     15  C   UNL A   1      40.789  29.943  29.512  1.00  0.00     0.049 A 
ATOM     16  N   UNL A   1      41.798  27.213  28.761  1.00  0.00    -0.248 NA
ATOM     17  C   UNL A   1      39.646  26.648  28.064  1.00  0.00     0.031 C 
ATOM     18  C   UNL A   1      40.351  31.284  29.909  1.00  0.00     0.029 A 
ATOM     19  N   UNL A   1      42.136  29.942  29.770  1.00  0.00    -0.354 N 
ATOM     20  C   UNL A   1      41.803  25.905  28.291  1.00  0.00     0.074 A 
ATOM     21  C   UNL A   1      40.442  25.597  27.903  1.00  0.00     0.031 C 
ATOM     22  C   UNL A   1      41.413  31.984  30.334  1.00  0.00     0.029 A 
ATOM     23  C   UNL A   1      42.596  31.132  30.284  1.00  0.00     0.049 A 
ATOM     24  H   UNL A   1      42.718  29.165  29.605  1.00  0.00     0.167 HD
ATOM     25  C   UNL A   1      42.844  25.044  28.182  1.00  0.00     0.037 A 
ATOM     26  C   UNL A   1      43.829  31.495  30.685  1.00  0.00     0.037 A 
ATOM     27  C   UNL A   1      44.203  25.356  28.555  1.00  0.00     0.049 A 
ATOM     28  C   UNL A   1      44.962  30.514  30.568  1.00  0.00     0.074 A 
ATOM     29  C   UNL A   1      45.328  24.553  28.460  1.00  0.00     0.029 A 
ATOM     30  N   UNL A   1      44.624  26.563  29.091  1.00  0.00    -0.354 N 
ATOM     31  N   UNL A   1      44.945  29.288  30.105  1.00  0.00    -0.248 NA
ATOM     32  C   UNL A   1      46.280  30.969  31.028  1.00  0.00     0.031 C 
ATOM     33  C   UNL A   1      46.421  25.262  28.970  1.00  0.00     0.029 A 
ATOM     34  C   UNL A   1      45.987  26.522  29.344  1.00  0.00     0.049 A 
ATOM     35  H   UNL A   1      44.041  27.338  29.265  1.00  0.00     0.167 HD
ATOM     36  C   UNL A   1      46.252  28.827  30.212  1.00  0.00     0.074 A 
ATOM     37  C   UNL A   1      47.037  29.915  30.757  1.00  0.00     0.031 C 
ATOM     38  C   UNL A   1      46.755  27.609  29.894  1.00  0.00     0.037 A 
BRANCH  25  39
ATOM     39  C   UNL A   1      42.573  23.669  27.634  1.00  0.00     0.058 A 
ATOM     40  C   UNL A   1      42.592  23.412  26.254  1.00  0.00     0.135 A 
ATOM     41  C   UNL A   1      42.379  22.579  28.498  1.00  0.00     0.135 A 
ATOM     42  F   UNL A   1      42.761  24.419  25.381  1.00  0.00    -0.206 F 
ATOM     43  C   UNL A   1      42.421  22.126  25.750  1.00  0.00     0.059 A 
ATOM     44  C   UNL A   1      42.226  21.281  28.017  1.00  0.00     0.059 A 
ATOM     45  F   UNL A   1      42.353  22.768  29.827  1.00  0.00    -0.206 F 
ATOM     46  C   UNL A   1      42.242  21.065  26.640  1.00  0.00     0.060 A 
BRANCH  46  47
ATOM     47  S   UNL A   1      42.052  19.399  25.970  1.00  0.00     0.124 S 
ATOM     48  O   UNL A   1      40.611  19.341  25.742  1.00  0.00    -0.237 OA
ATOM     49  O   UNL A   1      42.880  19.447  24.769  1.00  0.00    -0.237 OA
ATOM     50  O   UNL A   1      42.552  18.542  27.040  1.00  0.00    -0.744 OA
ENDBRANCH  46  47
ENDBRANCH  25  39
BRANCH  26  51
ATOM     51  C   UNL A   1      44.049  32.849  31.255  1.00  0.00     0.058 A 
ATOM     52  C   UNL A   1      44.354  33.942  30.433  1.00  0.00     0.135 A 
ATOM     53  C   UNL A   1      43.957  33.070  32.638  1.00  0.00     0.135 A 
ATOM     54  F   UNL A   1      44.458  33.776  29.106  1.00  0.00    -0.206 F 
ATOM     55  C   UNL A   1      44.583  35.207  30.964  1.00  0.00     0.059 A 
ATOM     56  C   UNL A   1      44.155  34.331  33.189  1.00  0.00     0.059 A 
ATOM     57  F   UNL A   1      43.651  32.057  33.463  1.00  0.00    -0.206 F 
ATOM     58  C   UNL A   1      44.483  35.390  32.345  1.00  0.00     0.060 A 
BRANCH  58  59
ATOM     59  S   UNL A   1      44.751  37.039  33.028  1.00  0.00     0.124 S 
ATOM     60  O   UNL A   1      43.389  37.557  33.084  1.00  0.00    -0.237 OA
ATOM     61  O   UNL A   1      45.378  36.746  34.313  1.00  0.00    -0.237 OA
ATOM     62  O   UNL A   1      45.627  37.668  32.043  1.00  0.00    -0.744 OA
ENDBRANCH  58  59
ENDBRANCH  26  51
BRANCH  38  63
ATOM     63  C   UNL A   1      48.226  27.401  30.119  1.00  0.00     0.058 A 
ATOM     64  C   UNL A   1      49.171  27.713  29.129  1.00  0.00     0.135 A 
ATOM     65  C   UNL A   1      48.698  26.891  31.339  1.00  0.00     0.135 A 
ATOM     66  F   UNL A   1      48.771  28.197  27.943  1.00  0.00    -0.206 F 
ATOM     67  C   UNL A   1      50.530  27.492  29.327  1.00  0.00     0.059 A 
ATOM     68  C   UNL A   1      50.055  26.684  31.567  1.00  0.00     0.059 A 
ATOM     69  F   UNL A   1      47.838  26.586  32.324  1.00  0.00    -0.206 F 
ATOM     70  C   UNL A   1      50.962  26.971  30.547  1.00  0.00     0.060 A 
BRANCH  70  71
ATOM     71  S   UNL A   1      52.728  26.688  30.795  1.00  0.00     0.124 S 
ATOM     72  O   UNL A   1      52.717  25.539  31.696  1.00  0.00    -0.237 OA
ATOM     73  O   UNL A   1      53.200  26.424  29.439  1.00  0.00    -0.237 OA
ATOM     74  O   UNL A   1      53.194  27.941  31.380  1.00  0.00    -0.744 OA
ENDBRANCH  70  71
ENDBRANCH  38  63
ENDBRANCH  12  13
ENDBRANCH   5   7
ENDBRANCH   2   3
ENDBRANCH   1   2
BRANCH   1  75
ATOM     75  C   UNL A   1      31.749  27.266  26.263  1.00  0.00     0.117 C 
BRANCH  75  76
ATOM     76  N   UNL A   1      31.200  25.928  26.418  1.00  0.00    -0.354 N 
ATOM     77  C   UNL A   1      31.805  24.712  26.382  1.00  0.00     0.242 C 
ATOM     78  H   UNL A   1      30.228  25.898  26.573  1.00  0.00     0.163 HD
ATOM     79  O   UNL A   1      31.115  23.726  26.672  1.00  0.00    -0.273 OA
BRANCH  77  80
ATOM     80  C   UNL A   1      33.235  24.482  25.881  1.00  0.00     0.174 C 
ATOM     81  C   UNL A   1      33.789  23.561  26.982  1.00  0.00     0.036 C 
ATOM     82  N   UNL A   1      33.297  24.036  24.485  1.00  0.00    -0.327 N 
ATOM     83  C   UNL A   1      34.825  22.565  26.553  1.00  0.00     0.008 C 
ATOM     84  C   UNL A   1      34.130  22.846  24.126  1.00  0.00     0.089 C 
ATOM     85  C   UNL A   1      34.367  21.857  25.284  1.00  0.00     0.012 C 
ATOM     86  C   UNL A   1      35.457  23.224  23.402  1.00  0.00     0.025 C 
ATOM     87  C   UNL A   1      35.366  20.776  24.870  1.00  0.00     0.006 C 
ATOM     88  C   UNL A   1      36.770  22.754  24.047  1.00  0.00     0.002 C 
ATOM     89  C   UNL A   1      36.760  21.338  24.631  1.00  0.00     0.000 C 
BRANCH  82  90
ATOM     90  C   UNL A   1      32.695  24.782  23.438  1.00  0.00     0.229 C 
ATOM     91  O   UNL A   1      31.802  24.267  22.754  1.00  0.00    -0.274 OA
BRANCH  90  92
ATOM     92  C   UNL A   1      33.223  26.189  23.055  1.00  0.00     0.155 C 
BRANCH  92  93
ATOM     93  C   UNL A   1      32.255  27.288  22.670  1.00  0.00     0.044 A 
ATOM     94  C   UNL A   1      32.309  28.664  22.845  1.00  0.00     0.045 A 
ATOM     95  N   UNL A   1      30.944  27.063  22.312  1.00  0.00    -0.282 N 
ATOM     96  C   UNL A   1      31.031  29.151  22.497  1.00  0.00     0.135 A 
ATOM     97  N   UNL A   1      30.218  28.171  22.113  1.00  0.00    -0.184 NA
ATOM     98  H   UNL A   1      30.570  26.158  22.211  1.00  0.00     0.190 HD
ENDBRANCH  92  93
ENDBRANCH  90  92
ENDBRANCH  82  90
ENDBRANCH  77  80
ENDBRANCH  75  76
ENDBRANCH   1  75
TORSDOF 16
ENDMDL
MODEL 2
REMARK VINA RESULT:     -11.6      0.547      8.131
REMARK SMILES O=C(NCCCNC(=O)[C@H]1CC[C@@H]2CCCC[C@@H]2N1C(=O)Cc1ccn[nH]1)c1ccc(-c2c3nc(c(-c4c(F)cc(S(=O)(=O)[O-])cc4F)c4ccc([nH]4)c(-c4c(F)cc(S(=O)(=O)[O-])cc4F)c4nc(c(-c5c(F)cc(S(=O)(=O)[O-])cc5F)c5ccc2[nH]5)C=C4)C=C3)cc1
REMARK SMILES IDX 5 1 4 2 3 3 1 4 2 5 28 7 29 8 93 9 30 10 92 11 31 12 32 13
REMARK SMILES IDX 33 14 86 15 34 16 91 17 85 18 87 19 35 20 90 21 84 22 83 23
REMARK SMILES IDX 36 25 70 26 49 27 69 28 50 29 53 30 68 31 88 32 51 33 52 34
REMARK SMILES IDX 67 36 89 37 54 38 37 39 38 40 47 41 39 42 40 43 46 44 48 45
REMARK SMILES IDX 41 46 42 47 43 48 44 49 45 50 71 51 72 52 81 53 73 54 74 55
REMARK SMILES IDX 80 56 82 57 75 58 76 59 77 60 78 61 79 62 55 63 56 64 65 65
REMARK SMILES IDX 57 66 58 67 64 68 66 69 59 70 60 71 61 72 62 73 63 74 6 75
REMARK SMILES IDX 7 76 8 77 9 79 10 80 11 81 19 82 12 83 18 84 13 85 17 86
REMARK SMILES IDX 14 87 16 88 15 89 20 90 21 91 22 92 23 93 24 94 27 95 25 96
REMARK SMILES IDX 26 97
REMARK H PARENT 3 6 87 24 53 35 7 78 27 98
REMARK Flexibility Score: inf
ROOT
ATOM      1  C   UNL A   1      32.412  27.740  27.473  1.00  0.00     0.042 C 
ENDROOT
BRANCH   1   2
ATOM      2  C   UNL A   1      33.588  28.665  27.197  1.00  0.00     0.118 C 
BRANCH   2   3
ATOM      3  N   UNL A   1      33.467  30.023  27.701  1.00  0.00    -0.352 N 
ATOM      4  O   UNL A   1      34.336  31.871  28.725  1.00  0.00    -0.269 OA
ATOM      5  C   UNL A   1      34.497  30.746  28.279  1.00  0.00     0.251 C 
ATOM      6  H   UNL A   1      32.588  30.461  27.624  1.00  0.00     0.163 HD
BRANCH   5   7
ATOM      7  C   UNL A   1      35.809  30.063  28.374  1.00  0.00     0.039 A 
ATOM      8  C   UNL A   1      36.217  29.549  29.607  1.00  0.00     0.014 A 
ATOM      9  C   UNL A   1      36.696  30.135  27.298  1.00  0.00     0.014 A 
ATOM     10  C   UNL A   1      37.561  29.251  29.807  1.00  0.00     0.010 A 
ATOM     11  C   UNL A   1      38.033  29.766  27.486  1.00  0.00     0.010 A 
ATOM     12  C   UNL A   1      38.488  29.373  28.756  1.00  0.00    -0.014 A 
BRANCH  12  13
ATOM     13  C   UNL A   1      39.925  29.084  29.012  1.00  0.00     0.031 A 
ATOM     14  C   UNL A   1      40.827  30.104  29.663  1.00  0.00     0.074 A 
ATOM     15  C   UNL A   1      40.409  27.867  28.696  1.00  0.00     0.049 A 
ATOM     16  N   UNL A   1      42.095  30.001  29.977  1.00  0.00    -0.248 NA
ATOM     17  C   UNL A   1      40.234  31.406  30.003  1.00  0.00     0.031 C 
ATOM     18  C   UNL A   1      39.641  26.795  28.059  1.00  0.00     0.029 A 
ATOM     19  N   UNL A   1      41.654  27.321  28.880  1.00  0.00    -0.354 N 
ATOM     20  C   UNL A   1      42.454  31.220  30.542  1.00  0.00     0.074 A 
ATOM     21  C   UNL A   1      41.275  32.060  30.504  1.00  0.00     0.031 C 
ATOM     22  C   UNL A   1      40.422  25.713  27.930  1.00  0.00     0.029 A 
ATOM     23  C   UNL A   1      41.755  26.026  28.432  1.00  0.00     0.049 A 
ATOM     24  H   UNL A   1      42.403  27.810  29.293  1.00  0.00     0.167 HD
ATOM     25  C   UNL A   1      43.651  31.600  31.055  1.00  0.00     0.037 A 
ATOM     26  C   UNL A   1      42.807  25.184  28.412  1.00  0.00     0.037 A 
ATOM     27  C   UNL A   1      44.821  30.756  31.107  1.00  0.00     0.049 A 
ATOM     28  C   UNL A   1      44.125  25.638  28.972  1.00  0.00     0.074 A 
ATOM     29  C   UNL A   1      46.071  31.049  31.628  1.00  0.00     0.029 A 
ATOM     30  N   UNL A   1      44.888  29.459  30.624  1.00  0.00    -0.354 N 
ATOM     31  N   UNL A   1      44.436  26.789  29.517  1.00  0.00    -0.248 NA
ATOM     32  C   UNL A   1      45.234  24.676  28.915  1.00  0.00     0.031 C 
ATOM     33  C   UNL A   1      46.902  29.942  31.428  1.00  0.00     0.029 A 
ATOM     34  C   UNL A   1      46.161  28.943  30.821  1.00  0.00     0.049 A 
ATOM     35  H   UNL A   1      44.142  28.973  30.203  1.00  0.00     0.167 HD
ATOM     36  C   UNL A   1      45.776  26.687  29.874  1.00  0.00     0.074 A 
ATOM     37  C   UNL A   1      46.206  25.353  29.509  1.00  0.00     0.031 C 
ATOM     38  C   UNL A   1      46.579  27.618  30.446  1.00  0.00     0.037 A 
BRANCH  25  39
ATOM     39  C   UNL A   1      43.772  32.991  31.613  1.00  0.00     0.058 A 
ATOM     40  C   UNL A   1      44.251  34.056  30.834  1.00  0.00     0.135 A 
ATOM     41  C   UNL A   1      43.324  33.283  32.912  1.00  0.00     0.135 A 
ATOM     42  F   UNL A   1      44.704  33.832  29.589  1.00  0.00    -0.206 F 
ATOM     43  C   UNL A   1      44.287  35.359  31.323  1.00  0.00     0.059 A 
ATOM     44  C   UNL A   1      43.334  34.582  33.416  1.00  0.00     0.059 A 
ATOM     45  F   UNL A   1      42.856  32.303  33.701  1.00  0.00    -0.206 F 
ATOM     46  C   UNL A   1      43.824  35.612  32.615  1.00  0.00     0.060 A 
BRANCH  46  47
ATOM     47  S   UNL A   1      43.851  37.313  33.223  1.00  0.00     0.124 S 
ATOM     48  O   UNL A   1      43.735  38.068  31.979  1.00  0.00    -0.237 OA
ATOM     49  O   UNL A   1      42.684  37.352  34.098  1.00  0.00    -0.237 OA
ATOM     50  O   UNL A   1      45.142  37.412  33.899  1.00  0.00    -0.744 OA
ENDBRANCH  46  47
ENDBRANCH  25  39
BRANCH  26  51
ATOM     51  C   UNL A   1      42.656  23.831  27.819  1.00  0.00     0.058 A 
ATOM     52  C   UNL A   1      42.708  23.635  26.432  1.00  0.00     0.135 A 
ATOM     53  C   UNL A   1      42.457  22.707  28.635  1.00  0.00     0.135 A 
ATOM     54  F   UNL A   1      42.890  24.682  25.613  1.00  0.00    -0.206 F 
ATOM     55  C   UNL A   1      42.545  22.373  25.871  1.00  0.00     0.059 A 
ATOM     56  C   UNL A   1      42.320  21.432  28.099  1.00  0.00     0.059 A 
ATOM     57  F   UNL A   1      42.418  22.842  29.971  1.00  0.00    -0.206 F 
ATOM     58  C   UNL A   1      42.349  21.278  26.715  1.00  0.00     0.060 A 
BRANCH  58  59
ATOM     59  S   UNL A   1      42.169  19.636  25.985  1.00  0.00     0.124 S 
ATOM     60  O   UNL A   1      43.061  19.728  24.836  1.00  0.00    -0.237 OA
ATOM     61  O   UNL A   1      42.609  18.763  27.069  1.00  0.00    -0.237 OA
ATOM     62  O   UNL A   1      40.744  19.566  25.675  1.00  0.00    -0.744 OA
ENDBRANCH  58  59
ENDBRANCH  26  51
BRANCH  38  63
ATOM     63  C   UNL A   1      48.001  27.213  30.720  1.00  0.00     0.058 A 
ATOM     64  C   UNL A   1      49.043  27.563  29.848  1.00  0.00     0.135 A 
ATOM     65  C   UNL A   1      48.325  26.475  31.869  1.00  0.00     0.135 A 
ATOM     66  F   UNL A   1      48.785  28.264  28.733  1.00  0.00    -0.206 F 
ATOM     67  C   UNL A   1      50.354  27.164  30.087  1.00  0.00     0.059 A 
ATOM     68  C   UNL A   1      49.633  26.085  32.140  1.00  0.00     0.059 A 
ATOM     69  F   UNL A   1      47.367  26.124  32.742  1.00  0.00    -0.206 F 
ATOM     70  C   UNL A   1      50.639  26.419  31.232  1.00  0.00     0.060 A 
BRANCH  70  71
ATOM     71  S   UNL A   1      52.343  25.905  31.534  1.00  0.00     0.124 S 
ATOM     72  O   UNL A   1      52.792  26.920  32.481  1.00  0.00    -0.237 OA
ATOM     73  O   UNL A   1      52.176  24.561  32.079  1.00  0.00    -0.237 OA
ATOM     74  O   UNL A   1      52.955  25.965  30.210  1.00  0.00    -0.744 OA
ENDBRANCH  70  71
ENDBRANCH  38  63
ENDBRANCH  12  13
ENDBRANCH   5   7
ENDBRANCH   2   3
ENDBRANCH   1   2
BRANCH   1  75
ATOM     75  C   UNL A   1      31.734  27.194  26.224  1.00  0.00     0.117 C 
BRANCH  75  76
ATOM     76  N   UNL A   1      31.201  25.850  26.387  1.00  0.00    -0.354 N 
ATOM     77  C   UNL A   1      31.816  24.640  26.339  1.00  0.00     0.242 C 
ATOM     78  H   UNL A   1      30.232  25.811  26.559  1.00  0.00     0.163 HD
ATOM     79  O   UNL A   1      31.140  23.648  26.639  1.00  0.00    -0.273 OA
BRANCH  77  80
ATOM     80  C   UNL A   1      33.239  24.424  25.811  1.00  0.00     0.174 C 
ATOM     81  C   UNL A   1      33.850  23.585  26.947  1.00  0.00     0.036 C 
ATOM     82  N   UNL A   1      33.279  23.901  24.442  1.00  0.00    -0.327 N 
ATOM     83  C   UNL A   1      34.905  22.597  26.546  1.00  0.00     0.008 C 
ATOM     84  C   UNL A   1      34.138  22.717  24.127  1.00  0.00     0.089 C 
ATOM     85  C   UNL A   1      34.436  21.804  25.332  1.00  0.00     0.012 C 
ATOM     86  C   UNL A   1      35.433  23.093  23.346  1.00  0.00     0.025 C 
ATOM     87  C   UNL A   1      35.457  20.731  24.953  1.00  0.00     0.006 C 
ATOM     88  C   UNL A   1      36.777  22.699  23.980  1.00  0.00     0.002 C 
ATOM     89  C   UNL A   1      36.826  21.320  24.643  1.00  0.00     0.000 C 
BRANCH  82  90
ATOM     90  C   UNL A   1      32.627  24.568  23.371  1.00  0.00     0.229 C 
ATOM     91  O   UNL A   1      31.602  24.080  22.878  1.00  0.00    -0.274 OA
BRANCH  90  92
ATOM     92  C   UNL A   1      33.245  25.835  22.725  1.00  0.00     0.155 C 
BRANCH  92  93
ATOM     93  C   UNL A   1      32.401  27.074  22.517  1.00  0.00     0.044 A 
ATOM     94  C   UNL A   1      32.487  28.348  23.063  1.00  0.00     0.045 A 
ATOM     95  N   UNL A   1      31.156  27.063  21.929  1.00  0.00    -0.282 N 
ATOM     96  C   UNL A   1      31.304  29.016  22.681  1.00  0.00     0.135 A 
ATOM     97  N   UNL A   1      30.521  28.242  21.934  1.00  0.00    -0.184 NA
ATOM     98  H   UNL A   1      30.763  26.250  21.534  1.00  0.00     0.190 HD
ENDBRANCH  92  93
ENDBRANCH  90  92
ENDBRANCH  82  90
ENDBRANCH  77  80
ENDBRANCH  75  76
ENDBRANCH   1  75
TORSDOF 16
ENDMDL
MODEL 3
REMARK VINA RESULT:     -11.4      3.459      8.347
REMARK SMILES O=C(NCCCNC(=O)[C@H]1CC[C@@H]2CCCC[C@@H]2N1C(=O)Cc1ccn[nH]1)c1ccc(-c2c3nc(c(-c4c(F)cc(S(=O)(=O)[O-])cc4F)c4ccc([nH]4)c(-c4c(F)cc(S(=O)(=O)[O-])cc4F)c4nc(c(-c5c(F)cc(S(=O)(=O)[O-])cc5F)c5ccc2[nH]5)C=C4)C=C3)cc1
REMARK SMILES IDX 5 1 4 2 3 3 1 4 2 5 28 7 29 8 93 9 30 10 92 11 31 12 32 13
REMARK SMILES IDX 33 14 86 15 34 16 91 17 85 18 87 19 35 20 90 21 84 22 83 23
REMARK SMILES IDX 36 25 70 26 49 27 69 28 50 29 53 30 68 31 88 32 51 33 52 34
REMARK SMILES IDX 67 36 89 37 54 38 37 39 38 40 47 41 39 42 40 43 46 44 48 45
REMARK SMILES IDX 41 46 42 47 43 48 44 49 45 50 71 51 72 52 81 53 73 54 74 55
REMARK SMILES IDX 80 56 82 57 75 58 76 59 77 60 78 61 79 62 55 63 56 64 65 65
REMARK SMILES IDX 57 66 58 67 64 68 66 69 59 70 60 71 61 72 62 73 63 74 6 75
REMARK SMILES IDX 7 76 8 77 9 79 10 80 11 81 19 82 12 83 18 84 13 85 17 86
REMARK SMILES IDX 14 87 16 88 15 89 20 90 21 91 22 92 23 93 24 94 27 95 25 96
REMARK SMILES IDX 26 97
REMARK H PARENT 3 6 87 24 53 35 7 78 27 98
REMARK Flexibility Score: inf
ROOT
ATOM      1  C   UNL A   1      38.265  21.211  25.714  1.00  0.00     0.042 C 
ENDROOT
BRANCH   1   2
ATOM      2  C   UNL A   1      39.712  21.115  26.174  1.00  0.00     0.118 C 
BRANCH   2   3
ATOM      3  N   UNL A   1      40.331  19.804  26.070  1.00  0.00    -0.352 N 
ATOM      4  O   UNL A   1      42.167  18.444  26.059  1.00  0.00    -0.269 OA
ATOM      5  C   UNL A   1      41.688  19.558  26.195  1.00  0.00     0.251 C 
ATOM      6  H   UNL A   1      39.742  19.033  25.898  1.00  0.00     0.163 HD
BRANCH   5   7
ATOM      7  C   UNL A   1      42.549  20.735  26.460  1.00  0.00     0.039 A 
ATOM      8  C   UNL A   1      42.691  21.189  27.773  1.00  0.00     0.014 A 
ATOM      9  C   UNL A   1      43.022  21.491  25.385  1.00  0.00     0.014 A 
ATOM     10  C   UNL A   1      43.168  22.476  27.999  1.00  0.00     0.010 A 
ATOM     11  C   UNL A   1      43.567  22.757  25.625  1.00  0.00     0.010 A 
ATOM     12  C   UNL A   1      43.595  23.283  26.928  1.00  0.00    -0.014 A 
BRANCH  12  13
ATOM     13  C   UNL A   1      44.064  24.668  27.198  1.00  0.00     0.031 A 
ATOM     14  C   UNL A   1      45.509  25.059  27.008  1.00  0.00     0.074 A 
ATOM     15  C   UNL A   1      43.163  25.598  27.572  1.00  0.00     0.049 A 
ATOM     16  N   UNL A   1      46.075  26.228  27.176  1.00  0.00    -0.248 NA
ATOM     17  C   UNL A   1      46.440  24.004  26.578  1.00  0.00     0.031 C 
ATOM     18  C   UNL A   1      41.737  25.346  27.795  1.00  0.00     0.029 A 
ATOM     19  N   UNL A   1      43.307  26.940  27.818  1.00  0.00    -0.354 N 
ATOM     20  C   UNL A   1      47.423  26.053  26.882  1.00  0.00     0.074 A 
ATOM     21  C   UNL A   1      47.597  24.655  26.549  1.00  0.00     0.031 C 
ATOM     22  C   UNL A   1      41.133  26.499  28.116  1.00  0.00     0.029 A 
ATOM     23  C   UNL A   1      42.132  27.561  28.167  1.00  0.00     0.049 A 
ATOM     24  H   UNL A   1      44.168  27.412  27.750  1.00  0.00     0.167 HD
ATOM     25  C   UNL A   1      48.419  26.973  26.878  1.00  0.00     0.037 A 
ATOM     26  C   UNL A   1      41.884  28.840  28.507  1.00  0.00     0.037 A 
ATOM     27  C   UNL A   1      48.241  28.370  27.195  1.00  0.00     0.049 A 
ATOM     28  C   UNL A   1      43.011  29.834  28.510  1.00  0.00     0.074 A 
ATOM     29  C   UNL A   1      49.190  29.379  27.196  1.00  0.00     0.029 A 
ATOM     30  N   UNL A   1      47.041  28.955  27.564  1.00  0.00    -0.354 N 
ATOM     31  N   UNL A   1      44.273  29.648  28.211  1.00  0.00    -0.248 NA
ATOM     32  C   UNL A   1      42.676  31.212  28.895  1.00  0.00     0.031 C 
ATOM     33  C   UNL A   1      48.570  30.567  27.599  1.00  0.00     0.029 A 
ATOM     34  C   UNL A   1      47.226  30.307  27.809  1.00  0.00     0.049 A 
ATOM     35  H   UNL A   1      46.181  28.481  27.641  1.00  0.00     0.167 HD
ATOM     36  C   UNL A   1      44.883  30.888  28.366  1.00  0.00     0.074 A 
ATOM     37  C   UNL A   1      43.846  31.820  28.757  1.00  0.00     0.031 C 
ATOM     38  C   UNL A   1      46.187  31.222  28.206  1.00  0.00     0.037 A 
BRANCH  25  39
ATOM     39  C   UNL A   1      49.805  26.513  26.516  1.00  0.00     0.058 A 
ATOM     40  C   UNL A   1      50.646  25.903  27.460  1.00  0.00     0.135 A 
ATOM     41  C   UNL A   1      50.267  26.603  25.192  1.00  0.00     0.135 A 
ATOM     42  F   UNL A   1      50.262  25.803  28.743  1.00  0.00    -0.206 F 
ATOM     43  C   UNL A   1      51.897  25.405  27.106  1.00  0.00     0.059 A 
ATOM     44  C   UNL A   1      51.506  26.094  24.812  1.00  0.00     0.059 A 
ATOM     45  F   UNL A   1      49.502  27.176  24.249  1.00  0.00    -0.206 F 
ATOM     46  C   UNL A   1      52.317  25.503  25.778  1.00  0.00     0.060 A 
BRANCH  46  47
ATOM     47  S   UNL A   1      53.931  24.825  25.332  1.00  0.00     0.124 S 
ATOM     48  O   UNL A   1      54.707  25.105  26.537  1.00  0.00    -0.237 OA
ATOM     49  O   UNL A   1      53.624  23.419  25.091  1.00  0.00    -0.237 OA
ATOM     50  O   UNL A   1      54.308  25.594  24.150  1.00  0.00    -0.744 OA
ENDBRANCH  46  47
ENDBRANCH  25  39
BRANCH  26  51
ATOM     51  C   UNL A   1      40.508  29.247  28.893  1.00  0.00     0.058 A 
ATOM     52  C   UNL A   1      39.518  29.468  27.926  1.00  0.00     0.135 A 
ATOM     53  C   UNL A   1      40.162  29.421  30.242  1.00  0.00     0.135 A 
ATOM     54  F   UNL A   1      39.805  29.319  26.624  1.00  0.00    -0.206 F 
ATOM     55  C   UNL A   1      38.235  29.870  28.281  1.00  0.00     0.059 A 
ATOM     56  C   UNL A   1      38.879  29.796  30.623  1.00  0.00     0.059 A 
ATOM     57  F   UNL A   1      41.073  29.205  31.204  1.00  0.00    -0.206 F 
ATOM     58  C   UNL A   1      37.927  30.034  29.634  1.00  0.00     0.060 A 
BRANCH  58  59
ATOM     59  S   UNL A   1      36.252  30.527  30.093  1.00  0.00     0.124 S 
ATOM     60  O   UNL A   1      36.432  31.946  30.375  1.00  0.00    -0.237 OA
ATOM     61  O   UNL A   1      35.491  30.205  28.890  1.00  0.00    -0.237 OA
ATOM     62  O   UNL A   1      35.963  29.684  31.250  1.00  0.00    -0.744 OA
ENDBRANCH  58  59
ENDBRANCH  26  51
BRANCH  38  63
ATOM     63  C   UNL A   1      46.555  32.660  28.444  1.00  0.00     0.058 A 
ATOM     64  C   UNL A   1      46.483  33.615  27.418  1.00  0.00     0.135 A 
ATOM     65  C   UNL A   1      46.978  33.090  29.712  1.00  0.00     0.135 A 
ATOM     66  F   UNL A   1      46.091  33.254  26.185  1.00  0.00    -0.206 F 
ATOM     67  C   UNL A   1      46.852  34.939  27.630  1.00  0.00     0.059 A 
ATOM     68  C   UNL A   1      47.329  34.415  29.953  1.00  0.00     0.059 A 
ATOM     69  F   UNL A   1      47.054  32.220  30.731  1.00  0.00    -0.206 F 
ATOM     70  C   UNL A   1      47.280  35.328  28.900  1.00  0.00     0.060 A 
BRANCH  70  71
ATOM     71  S   UNL A   1      47.757  37.049  29.167  1.00  0.00     0.124 S 
ATOM     72  O   UNL A   1      48.795  36.911  30.184  1.00  0.00    -0.237 OA
ATOM     73  O   UNL A   1      48.217  37.459  27.844  1.00  0.00    -0.237 OA
ATOM     74  O   UNL A   1      46.518  37.678  29.615  1.00  0.00    -0.744 OA
ENDBRANCH  70  71
ENDBRANCH  38  63
ENDBRANCH  12  13
ENDBRANCH   5   7
ENDBRANCH   2   3
ENDBRANCH   1   2
BRANCH   1  75
ATOM     75  C   UNL A   1      37.802  22.623  25.384  1.00  0.00     0.117 C 
BRANCH  75  76
ATOM     76  N   UNL A   1      37.143  22.738  24.092  1.00  0.00    -0.354 N 
ATOM     77  C   UNL A   1      35.906  23.194  23.766  1.00  0.00     0.242 C 
ATOM     78  H   UNL A   1      37.683  22.433  23.327  1.00  0.00     0.163 HD
ATOM     79  O   UNL A   1      35.640  23.299  22.561  1.00  0.00    -0.273 OA
BRANCH  77  80
ATOM     80  C   UNL A   1      34.792  23.452  24.787  1.00  0.00     0.174 C 
ATOM     81  C   UNL A   1      34.474  24.931  24.509  1.00  0.00     0.036 C 
ATOM     82  N   UNL A   1      33.705  22.469  24.722  1.00  0.00    -0.327 N 
ATOM     83  C   UNL A   1      33.055  25.358  24.739  1.00  0.00     0.008 C 
ATOM     84  C   UNL A   1      32.286  22.938  24.666  1.00  0.00     0.089 C 
ATOM     85  C   UNL A   1      32.103  24.357  24.094  1.00  0.00     0.012 C 
ATOM     86  C   UNL A   1      31.526  22.750  26.013  1.00  0.00     0.025 C 
ATOM     87  C   UNL A   1      30.651  24.812  24.240  1.00  0.00     0.006 C 
ATOM     88  C   UNL A   1      30.913  24.004  26.657  1.00  0.00     0.002 C 
ATOM     89  C   UNL A   1      30.246  24.992  25.697  1.00  0.00     0.000 C 
BRANCH  82  90
ATOM     90  C   UNL A   1      33.953  21.076  24.848  1.00  0.00     0.229 C 
ATOM     91  O   UNL A   1      34.964  20.685  25.445  1.00  0.00    -0.274 OA
BRANCH  90  92
ATOM     92  C   UNL A   1      33.044  20.037  24.141  1.00  0.00     0.155 C 
BRANCH  92  93
ATOM     93  C   UNL A   1      33.297  18.555  24.323  1.00  0.00     0.044 A 
ATOM     94  C   UNL A   1      33.284  17.502  23.418  1.00  0.00     0.045 A 
ATOM     95  N   UNL A   1      33.302  17.924  25.547  1.00  0.00    -0.282 N 
ATOM     96  C   UNL A   1      33.362  16.324  24.191  1.00  0.00     0.135 A 
ATOM     97  N   UNL A   1      33.435  16.592  25.492  1.00  0.00    -0.184 NA
ATOM     98  H   UNL A   1      33.216  18.413  26.398  1.00  0.00     0.190 HD
ENDBRANCH  92  93
ENDBRANCH  90  92
ENDBRANCH  82  90
ENDBRANCH  77  80
ENDBRANCH  75  76
ENDBRANCH   1  75
TORSDOF 16
ENDMDL
