MODEL 1
REMARK VINA RESULT:     -10.7      0.000      0.000
REMARK SMILES O=C(COc1ncc(C(F)(F)F)cc1Cl)NCCCNC(=O)c1ccc(-c2c3nc(c(-c4c(F)cc(S(=O)(=O)[O-])cc4F)c4ccc([nH]4)c(-c4c(F)cc(S(=O)(=O)[O-])cc4F)c4nc(c(-c5c(F)cc(S(=O)(=O)[O-])cc5F)c5ccc2[nH]5)C=C4)C=C3)cc1
REMARK SMILES IDX 18 1 17 2 16 3 1 4 2 5 3 7 4 8 5 9 6 10 14 11 7 12 13 13
REMARK SMILES IDX 15 14 8 15 9 16 10 17 11 18 12 19 19 20 20 21 21 22 22 24
REMARK SMILES IDX 23 25 24 26 88 27 25 28 87 29 26 30 27 31 28 32 81 33 29 34
REMARK SMILES IDX 86 35 80 36 82 37 30 38 85 39 79 40 78 41 31 43 65 44 44 45
REMARK SMILES IDX 64 46 45 47 48 48 63 49 83 50 46 51 47 52 62 54 84 55 49 56
REMARK SMILES IDX 32 57 33 58 42 59 34 60 35 61 41 62 43 63 36 64 37 65 38 66
REMARK SMILES IDX 39 67 40 68 66 69 67 70 76 71 68 72 69 73 75 74 77 75 70 76
REMARK SMILES IDX 71 77 72 78 73 79 74 80 50 81 51 82 60 83 52 84 53 85 59 86
REMARK SMILES IDX 61 87 54 88 55 89 56 90 57 91 58 92
REMARK H PARENT 16 6 20 23 82 42 48 53
REMARK Flexibility Score: inf
ROOT
ATOM      1  C   UNL A   1      33.382  33.340  28.011  1.00  0.00     0.042 C 
ENDROOT
BRANCH   1   2
ATOM      2  C   UNL A   1      33.917  34.756  28.053  1.00  0.00     0.117 C 
BRANCH   2   3
ATOM      3  N   UNL A   1      34.186  35.247  29.386  1.00  0.00    -0.353 N 
ATOM      4  O   UNL A   1      32.236  36.441  29.693  1.00  0.00    -0.271 OA
ATOM      5  C   UNL A   1      33.231  35.890  30.150  1.00  0.00     0.258 C 
ATOM      6  H   UNL A   1      35.085  35.117  29.765  1.00  0.00     0.163 HD
BRANCH   5   7
ATOM      7  C   UNL A   1      33.504  35.799  31.654  1.00  0.00     0.331 C 
BRANCH   7   8
ATOM      8  O   UNL A   1      33.294  34.456  32.095  1.00  0.00    -0.467 OA
BRANCH   8   9
ATOM      9  C   UNL A   1      34.441  33.759  32.352  1.00  0.00     0.233 A 
ATOM     10  N   UNL A   1      34.674  32.781  31.444  1.00  0.00    -0.220 NA
ATOM     11  C   UNL A   1      35.166  33.867  33.541  1.00  0.00     0.103 A 
ATOM     12  C   UNL A   1      35.629  31.868  31.737  1.00  0.00     0.128 A 
ATOM     13  C   UNL A   1      36.146  32.911  33.807  1.00  0.00     0.041 A 
ATOM     14  Cl  UNL A   1      34.917  35.052  34.755  1.00  0.00    -0.078 Cl
ATOM     15  C   UNL A   1      36.372  31.869  32.907  1.00  0.00     0.076 A 
BRANCH  15  16
ATOM     16  C   UNL A   1      37.356  30.780  33.187  1.00  0.00     0.417 C 
ATOM     17  F   UNL A   1      37.811  30.801  34.469  1.00  0.00    -0.166 F 
ATOM     18  F   UNL A   1      36.832  29.541  32.993  1.00  0.00    -0.166 F 
ATOM     19  F   UNL A   1      38.466  30.843  32.399  1.00  0.00    -0.166 F 
ENDBRANCH  15  16
ENDBRANCH   8   9
ENDBRANCH   7   8
ENDBRANCH   5   7
ENDBRANCH   2   3
ENDBRANCH   1   2
BRANCH   1  20
ATOM     20  C   UNL A   1      34.443  32.259  28.162  1.00  0.00     0.118 C 
BRANCH  20  21
ATOM     21  N   UNL A   1      33.971  30.910  27.865  1.00  0.00    -0.352 N 
ATOM     22  C   UNL A   1      34.659  29.716  27.863  1.00  0.00     0.251 C 
ATOM     23  H   UNL A   1      33.017  30.843  27.631  1.00  0.00     0.163 HD
ATOM     24  O   UNL A   1      34.102  28.685  27.507  1.00  0.00    -0.269 OA
BRANCH  22  25
ATOM     25  C   UNL A   1      36.088  29.698  28.244  1.00  0.00     0.039 A 
ATOM     26  C   UNL A   1      36.443  29.269  29.525  1.00  0.00     0.014 A 
ATOM     27  C   UNL A   1      37.076  30.035  27.317  1.00  0.00     0.014 A 
ATOM     28  C   UNL A   1      37.790  29.060  29.836  1.00  0.00     0.010 A 
ATOM     29  C   UNL A   1      38.405  29.742  27.596  1.00  0.00     0.010 A 
ATOM     30  C   UNL A   1      38.776  29.233  28.851  1.00  0.00    -0.014 A 
BRANCH  30  31
ATOM     31  C   UNL A   1      40.198  28.866  29.083  1.00  0.00     0.031 A 
ATOM     32  C   UNL A   1      41.168  29.909  29.565  1.00  0.00     0.074 A 
ATOM     33  C   UNL A   1      40.639  27.637  28.744  1.00  0.00     0.049 A 
ATOM     34  N   UNL A   1      42.472  29.851  29.646  1.00  0.00    -0.248 NA
ATOM     35  C   UNL A   1      40.596  31.202  29.974  1.00  0.00     0.031 C 
ATOM     36  C   UNL A   1      39.808  26.550  28.220  1.00  0.00     0.029 A 
ATOM     37  N   UNL A   1      41.904  27.101  28.767  1.00  0.00    -0.354 N 
ATOM     38  C   UNL A   1      42.879  31.107  30.078  1.00  0.00     0.074 A 
ATOM     39  C   UNL A   1      41.688  31.918  30.206  1.00  0.00     0.031 C 
ATOM     40  C   UNL A   1      40.581  25.477  27.984  1.00  0.00     0.029 A 
ATOM     41  C   UNL A   1      41.967  25.812  28.293  1.00  0.00     0.049 A 
ATOM     42  H   UNL A   1      42.691  27.596  29.091  1.00  0.00     0.167 HD
ATOM     43  C   UNL A   1      44.131  31.540  30.358  1.00  0.00     0.037 A 
ATOM     44  C   UNL A   1      43.024  24.995  28.111  1.00  0.00     0.037 A 
ATOM     45  C   UNL A   1      45.307  30.716  30.275  1.00  0.00     0.049 A 
ATOM     46  C   UNL A   1      44.402  25.489  28.458  1.00  0.00     0.074 A 
ATOM     47  C   UNL A   1      46.612  31.044  30.596  1.00  0.00     0.029 A 
ATOM     48  N   UNL A   1      45.318  29.396  29.849  1.00  0.00    -0.354 N 
ATOM     49  N   UNL A   1      44.765  26.668  28.903  1.00  0.00    -0.248 NA
ATOM     50  C   UNL A   1      45.515  24.546  28.277  1.00  0.00     0.031 C 
ATOM     51  C   UNL A   1      47.418  29.930  30.341  1.00  0.00     0.029 A 
ATOM     52  C   UNL A   1      46.609  28.897  29.895  1.00  0.00     0.049 A 
ATOM     53  H   UNL A   1      44.527  28.889  29.557  1.00  0.00     0.167 HD
ATOM     54  C   UNL A   1      46.141  26.598  29.087  1.00  0.00     0.074 A 
ATOM     55  C   UNL A   1      46.547  25.261  28.704  1.00  0.00     0.031 C 
ATOM     56  C   UNL A   1      46.991  27.554  29.535  1.00  0.00     0.037 A 
BRANCH  43  57
ATOM     57  C   UNL A   1      44.289  32.971  30.790  1.00  0.00     0.058 A 
ATOM     58  C   UNL A   1      44.287  33.334  32.146  1.00  0.00     0.135 A 
ATOM     59  C   UNL A   1      44.468  33.988  29.839  1.00  0.00     0.135 A 
ATOM     60  F   UNL A   1      44.104  32.401  33.095  1.00  0.00    -0.206 F 
ATOM     61  C   UNL A   1      44.422  34.659  32.544  1.00  0.00     0.059 A 
ATOM     62  C   UNL A   1      44.631  35.318  30.216  1.00  0.00     0.059 A 
ATOM     63  F   UNL A   1      44.477  33.696  28.530  1.00  0.00    -0.206 F 
ATOM     64  C   UNL A   1      44.590  35.646  31.571  1.00  0.00     0.060 A 
BRANCH  64  65
ATOM     65  S   UNL A   1      44.759  37.363  32.100  1.00  0.00     0.124 S 
ATOM     66  O   UNL A   1      43.362  37.764  32.233  1.00  0.00    -0.237 OA
ATOM     67  O   UNL A   1      45.502  37.234  33.351  1.00  0.00    -0.237 OA
ATOM     68  O   UNL A   1      45.490  37.986  31.002  1.00  0.00    -0.744 OA
ENDBRANCH  64  65
ENDBRANCH  43  57
BRANCH  44  69
ATOM     69  C   UNL A   1      42.818  23.617  27.593  1.00  0.00     0.058 A 
ATOM     70  C   UNL A   1      42.864  23.356  26.216  1.00  0.00     0.135 A 
ATOM     71  C   UNL A   1      42.592  22.535  28.458  1.00  0.00     0.135 A 
ATOM     72  F   UNL A   1      43.071  24.360  25.350  1.00  0.00    -0.206 F 
ATOM     73  C   UNL A   1      42.677  22.074  25.710  1.00  0.00     0.059 A 
ATOM     74  C   UNL A   1      42.425  21.239  27.977  1.00  0.00     0.059 A 
ATOM     75  F   UNL A   1      42.556  22.730  29.784  1.00  0.00    -0.206 F 
ATOM     76  C   UNL A   1      42.460  21.021  26.600  1.00  0.00     0.060 A 
BRANCH  76  77
ATOM     77  S   UNL A   1      42.272  19.351  25.937  1.00  0.00     0.124 S 
ATOM     78  O   UNL A   1      43.120  19.408  24.752  1.00  0.00    -0.237 OA
ATOM     79  O   UNL A   1      42.762  18.525  27.035  1.00  0.00    -0.237 OA
ATOM     80  O   UNL A   1      40.837  19.253  25.682  1.00  0.00    -0.744 OA
ENDBRANCH  76  77
ENDBRANCH  44  69
BRANCH  56  81
ATOM     81  C   UNL A   1      48.437  27.186  29.690  1.00  0.00     0.058 A 
ATOM     82  C   UNL A   1      49.385  27.491  28.702  1.00  0.00     0.135 A 
ATOM     83  C   UNL A   1      48.892  26.601  30.883  1.00  0.00     0.135 A 
ATOM     84  F   UNL A   1      48.998  28.043  27.542  1.00  0.00    -0.206 F 
ATOM     85  C   UNL A   1      50.737  27.225  28.890  1.00  0.00     0.059 A 
ATOM     86  C   UNL A   1      50.242  26.345  31.101  1.00  0.00     0.059 A 
ATOM     87  F   UNL A   1      48.023  26.298  31.861  1.00  0.00    -0.206 F 
ATOM     88  C   UNL A   1      51.157  26.659  30.096  1.00  0.00     0.060 A 
BRANCH  88  89
ATOM     89  S   UNL A   1      52.922  26.383  30.358  1.00  0.00     0.124 S 
ATOM     90  O   UNL A   1      53.377  27.719  30.729  1.00  0.00    -0.237 OA
ATOM     91  O   UNL A   1      52.929  25.392  31.430  1.00  0.00    -0.237 OA
ATOM     92  O   UNL A   1      53.386  25.898  29.062  1.00  0.00    -0.744 OA
ENDBRANCH  88  89
ENDBRANCH  56  81
ENDBRANCH  30  31
ENDBRANCH  22  25
ENDBRANCH  20  21
ENDBRANCH   1  20
TORSDOF 16
ENDMDL
MODEL 2
REMARK VINA RESULT:     -10.6      1.167      2.015
REMARK SMILES O=C(COc1ncc(C(F)(F)F)cc1Cl)NCCCNC(=O)c1ccc(-c2c3nc(c(-c4c(F)cc(S(=O)(=O)[O-])cc4F)c4ccc([nH]4)c(-c4c(F)cc(S(=O)(=O)[O-])cc4F)c4nc(c(-c5c(F)cc(S(=O)(=O)[O-])cc5F)c5ccc2[nH]5)C=C4)C=C3)cc1
REMARK SMILES IDX 18 1 17 2 16 3 1 4 2 5 3 7 4 8 5 9 6 10 14 11 7 12 13 13
REMARK SMILES IDX 15 14 8 15 9 16 10 17 11 18 12 19 19 20 20 21 21 22 22 24
REMARK SMILES IDX 23 25 24 26 88 27 25 28 87 29 26 30 27 31 28 32 81 33 29 34
REMARK SMILES IDX 86 35 80 36 82 37 30 38 85 39 79 40 78 41 31 43 65 44 44 45
REMARK SMILES IDX 64 46 45 47 48 48 63 49 83 50 46 51 47 52 62 54 84 55 49 56
REMARK SMILES IDX 32 57 33 58 42 59 34 60 35 61 41 62 43 63 36 64 37 65 38 66
REMARK SMILES IDX 39 67 40 68 66 69 67 70 76 71 68 72 69 73 75 74 77 75 70 76
REMARK SMILES IDX 71 77 72 78 73 79 74 80 50 81 51 82 60 83 52 84 53 85 59 86
REMARK SMILES IDX 61 87 54 88 55 89 56 90 57 91 58 92
REMARK H PARENT 16 6 20 23 82 42 48 53
REMARK Flexibility Score: inf
ROOT
ATOM      1  C   UNL A   1      33.370  33.423  28.079  1.00  0.00     0.042 C 
ENDROOT
BRANCH   1   2
ATOM      2  C   UNL A   1      33.862  34.818  28.407  1.00  0.00     0.117 C 
BRANCH   2   3
ATOM      3  N   UNL A   1      34.360  34.966  29.757  1.00  0.00    -0.353 N 
ATOM      4  O   UNL A   1      32.608  36.195  30.618  1.00  0.00    -0.271 OA
ATOM      5  C   UNL A   1      33.591  35.483  30.783  1.00  0.00     0.258 C 
ATOM      6  H   UNL A   1      35.283  34.688  29.952  1.00  0.00     0.163 HD
BRANCH   5   7
ATOM      7  C   UNL A   1      34.056  35.027  32.168  1.00  0.00     0.331 C 
BRANCH   7   8
ATOM      8  O   UNL A   1      35.005  33.967  32.027  1.00  0.00    -0.467 OA
BRANCH   8   9
ATOM      9  C   UNL A   1      36.283  34.302  32.380  1.00  0.00     0.233 A 
ATOM     10  N   UNL A   1      37.103  34.432  31.311  1.00  0.00    -0.220 NA
ATOM     11  C   UNL A   1      36.759  34.273  33.692  1.00  0.00     0.103 A 
ATOM     12  C   UNL A   1      38.434  34.505  31.547  1.00  0.00     0.128 A 
ATOM     13  C   UNL A   1      38.135  34.355  33.899  1.00  0.00     0.041 A 
ATOM     14  Cl  UNL A   1      35.795  34.081  35.098  1.00  0.00    -0.078 Cl
ATOM     15  C   UNL A   1      39.003  34.445  32.809  1.00  0.00     0.076 A 
BRANCH  15  16
ATOM     16  C   UNL A   1      40.488  34.457  32.978  1.00  0.00     0.417 C 
ATOM     17  F   UNL A   1      41.143  34.777  31.828  1.00  0.00    -0.166 F 
ATOM     18  F   UNL A   1      40.900  35.356  33.909  1.00  0.00    -0.166 F 
ATOM     19  F   UNL A   1      40.994  33.254  33.369  1.00  0.00    -0.166 F 
ENDBRANCH  15  16
ENDBRANCH   8   9
ENDBRANCH   7   8
ENDBRANCH   5   7
ENDBRANCH   2   3
ENDBRANCH   1   2
BRANCH   1  20
ATOM     20  C   UNL A   1      34.351  32.312  28.423  1.00  0.00     0.118 C 
BRANCH  20  21
ATOM     21  N   UNL A   1      33.904  30.977  28.035  1.00  0.00    -0.352 N 
ATOM     22  C   UNL A   1      34.614  29.799  27.952  1.00  0.00     0.251 C 
ATOM     23  H   UNL A   1      32.951  30.909  27.797  1.00  0.00     0.163 HD
ATOM     24  O   UNL A   1      34.076  28.785  27.528  1.00  0.00    -0.269 OA
BRANCH  22  25
ATOM     25  C   UNL A   1      36.044  29.782  28.331  1.00  0.00     0.039 A 
ATOM     26  C   UNL A   1      36.396  29.411  29.631  1.00  0.00     0.014 A 
ATOM     27  C   UNL A   1      37.033  30.061  27.387  1.00  0.00     0.014 A 
ATOM     28  C   UNL A   1      37.741  29.202  29.949  1.00  0.00     0.010 A 
ATOM     29  C   UNL A   1      38.360  29.765  27.677  1.00  0.00     0.010 A 
ATOM     30  C   UNL A   1      38.727  29.314  28.955  1.00  0.00    -0.014 A 
BRANCH  30  31
ATOM     31  C   UNL A   1      40.145  28.941  29.202  1.00  0.00     0.031 A 
ATOM     32  C   UNL A   1      41.109  29.974  29.717  1.00  0.00     0.074 A 
ATOM     33  C   UNL A   1      40.590  27.718  28.849  1.00  0.00     0.049 A 
ATOM     34  N   UNL A   1      42.411  29.913  29.817  1.00  0.00    -0.248 NA
ATOM     35  C   UNL A   1      40.532  31.261  30.140  1.00  0.00     0.031 C 
ATOM     36  C   UNL A   1      39.766  26.641  28.292  1.00  0.00     0.029 A 
ATOM     37  N   UNL A   1      41.854  27.180  28.881  1.00  0.00    -0.354 N 
ATOM     38  C   UNL A   1      42.813  31.161  30.277  1.00  0.00     0.074 A 
ATOM     39  C   UNL A   1      41.620  31.971  30.402  1.00  0.00     0.031 C 
ATOM     40  C   UNL A   1      40.542  25.571  28.050  1.00  0.00     0.029 A 
ATOM     41  C   UNL A   1      41.923  25.899  28.386  1.00  0.00     0.049 A 
ATOM     42  H   UNL A   1      42.636  27.668  29.226  1.00  0.00     0.167 HD
ATOM     43  C   UNL A   1      44.061  31.587  30.584  1.00  0.00     0.037 A 
ATOM     44  C   UNL A   1      42.982  25.085  28.206  1.00  0.00     0.037 A 
ATOM     45  C   UNL A   1      45.237  30.763  30.504  1.00  0.00     0.049 A 
ATOM     46  C   UNL A   1      44.355  25.571  28.582  1.00  0.00     0.074 A 
ATOM     47  C   UNL A   1      46.537  31.084  30.851  1.00  0.00     0.029 A 
ATOM     48  N   UNL A   1      45.253  29.451  30.055  1.00  0.00    -0.354 N 
ATOM     49  N   UNL A   1      44.712  26.741  29.053  1.00  0.00    -0.248 NA
ATOM     50  C   UNL A   1      45.469  24.629  28.402  1.00  0.00     0.031 C 
ATOM     51  C   UNL A   1      47.346  29.974  30.588  1.00  0.00     0.029 A 
ATOM     52  C   UNL A   1      46.542  28.950  30.112  1.00  0.00     0.049 A 
ATOM     53  H   UNL A   1      44.466  28.951  29.743  1.00  0.00     0.167 HD
ATOM     54  C   UNL A   1      46.085  26.666  29.257  1.00  0.00     0.074 A 
ATOM     55  C   UNL A   1      46.496  25.336  28.857  1.00  0.00     0.031 C 
ATOM     56  C   UNL A   1      46.929  27.613  29.734  1.00  0.00     0.037 A 
BRANCH  43  57
ATOM     57  C   UNL A   1      44.214  33.010  31.043  1.00  0.00     0.058 A 
ATOM     58  C   UNL A   1      44.417  34.059  30.132  1.00  0.00     0.135 A 
ATOM     59  C   UNL A   1      44.133  33.333  32.407  1.00  0.00     0.135 A 
ATOM     60  F   UNL A   1      44.517  33.802  28.818  1.00  0.00    -0.206 F 
ATOM     61  C   UNL A   1      44.569  35.373  30.559  1.00  0.00     0.059 A 
ATOM     62  C   UNL A   1      44.256  34.646  32.854  1.00  0.00     0.059 A 
ATOM     63  F   UNL A   1      43.941  32.369  33.320  1.00  0.00    -0.206 F 
ATOM     64  C   UNL A   1      44.491  35.657  31.923  1.00  0.00     0.060 A 
BRANCH  64  65
ATOM     65  S   UNL A   1      44.695  37.366  32.464  1.00  0.00     0.124 S 
ATOM     66  O   UNL A   1      43.519  37.999  31.873  1.00  0.00    -0.237 OA
ATOM     67  O   UNL A   1      44.680  37.239  33.918  1.00  0.00    -0.237 OA
ATOM     68  O   UNL A   1      45.975  37.756  31.884  1.00  0.00    -0.744 OA
ENDBRANCH  64  65
ENDBRANCH  43  57
BRANCH  44  69
ATOM     69  C   UNL A   1      42.782  23.715  27.661  1.00  0.00     0.058 A 
ATOM     70  C   UNL A   1      42.580  22.626  28.521  1.00  0.00     0.135 A 
ATOM     71  C   UNL A   1      42.769  23.471  26.279  1.00  0.00     0.135 A 
ATOM     72  F   UNL A   1      42.590  22.810  29.850  1.00  0.00    -0.206 F 
ATOM     73  C   UNL A   1      42.387  21.338  28.032  1.00  0.00     0.059 A 
ATOM     74  C   UNL A   1      42.556  22.195  25.766  1.00  0.00     0.059 A 
ATOM     75  F   UNL A   1      42.941  24.483  25.416  1.00  0.00    -0.206 F 
ATOM     76  C   UNL A   1      42.374  21.133  26.652  1.00  0.00     0.060 A 
BRANCH  76  77
ATOM     77  S   UNL A   1      42.071  19.465  26.026  1.00  0.00     0.124 S 
ATOM     78  O   UNL A   1      42.521  18.646  27.146  1.00  0.00    -0.237 OA
ATOM     79  O   UNL A   1      40.632  19.483  25.785  1.00  0.00    -0.237 OA
ATOM     80  O   UNL A   1      42.898  19.403  24.825  1.00  0.00    -0.744 OA
ENDBRANCH  76  77
ENDBRANCH  44  69
BRANCH  56  81
ATOM     81  C   UNL A   1      48.372  27.240  29.905  1.00  0.00     0.058 A 
ATOM     82  C   UNL A   1      49.327  27.522  28.917  1.00  0.00     0.135 A 
ATOM     83  C   UNL A   1      48.817  26.675  31.111  1.00  0.00     0.135 A 
ATOM     84  F   UNL A   1      48.950  28.055  27.745  1.00  0.00    -0.206 F 
ATOM     85  C   UNL A   1      50.677  27.253  29.118  1.00  0.00     0.059 A 
ATOM     86  C   UNL A   1      50.164  26.416  31.342  1.00  0.00     0.059 A 
ATOM     87  F   UNL A   1      47.941  26.394  32.089  1.00  0.00    -0.206 F 
ATOM     88  C   UNL A   1      51.087  26.707  30.337  1.00  0.00     0.060 A 
BRANCH  88  89
ATOM     89  S   UNL A   1      52.849  26.427  30.615  1.00  0.00     0.124 S 
ATOM     90  O   UNL A   1      53.313  26.115  29.268  1.00  0.00    -0.237 OA
ATOM     91  O   UNL A   1      53.289  27.709  31.155  1.00  0.00    -0.237 OA
ATOM     92  O   UNL A   1      52.871  25.315  31.561  1.00  0.00    -0.744 OA
ENDBRANCH  88  89
ENDBRANCH  56  81
ENDBRANCH  30  31
ENDBRANCH  22  25
ENDBRANCH  20  21
ENDBRANCH   1  20
TORSDOF 16
ENDMDL
MODEL 3
REMARK VINA RESULT:     -10.5      4.018     12.014
REMARK SMILES O=C(COc1ncc(C(F)(F)F)cc1Cl)NCCCNC(=O)c1ccc(-c2c3nc(c(-c4c(F)cc(S(=O)(=O)[O-])cc4F)c4ccc([nH]4)c(-c4c(F)cc(S(=O)(=O)[O-])cc4F)c4nc(c(-c5c(F)cc(S(=O)(=O)[O-])cc5F)c5ccc2[nH]5)C=C4)C=C3)cc1
REMARK SMILES IDX 18 1 17 2 16 3 1 4 2 5 3 7 4 8 5 9 6 10 14 11 7 12 13 13
REMARK SMILES IDX 15 14 8 15 9 16 10 17 11 18 12 19 19 20 20 21 21 22 22 24
REMARK SMILES IDX 23 25 24 26 88 27 25 28 87 29 26 30 27 31 28 32 81 33 29 34
REMARK SMILES IDX 86 35 80 36 82 37 30 38 85 39 79 40 78 41 31 43 65 44 44 45
REMARK SMILES IDX 64 46 45 47 48 48 63 49 83 50 46 51 47 52 62 54 84 55 49 56
REMARK SMILES IDX 32 57 33 58 42 59 34 60 35 61 41 62 43 63 36 64 37 65 38 66
REMARK SMILES IDX 39 67 40 68 66 69 67 70 76 71 68 72 69 73 75 74 77 75 70 76
REMARK SMILES IDX 71 77 72 78 73 79 74 80 50 81 51 82 60 83 52 84 53 85 59 86
REMARK SMILES IDX 61 87 54 88 55 89 56 90 57 91 58 92
REMARK H PARENT 16 6 20 23 82 42 48 53
REMARK Flexibility Score: inf
ROOT
ATOM      1  C   UNL A   1      40.355  20.325  26.330  1.00  0.00     0.042 C 
ENDROOT
BRANCH   1   2
ATOM      2  C   UNL A   1      41.293  19.751  27.371  1.00  0.00     0.117 C 
BRANCH   2   3
ATOM      3  N   UNL A   1      42.639  19.524  26.892  1.00  0.00    -0.353 N 
ATOM      4  O   UNL A   1      42.277  17.498  25.850  1.00  0.00    -0.271 OA
ATOM      5  C   UNL A   1      42.956  18.505  26.014  1.00  0.00     0.258 C 
ATOM      6  H   UNL A   1      43.357  20.120  27.204  1.00  0.00     0.163 HD
BRANCH   5   7
ATOM      7  C   UNL A   1      44.227  18.783  25.207  1.00  0.00     0.331 C 
BRANCH   7   8
ATOM      8  O   UNL A   1      43.996  19.877  24.318  1.00  0.00    -0.467 OA
BRANCH   8   9
ATOM      9  C   UNL A   1      44.492  21.075  24.754  1.00  0.00     0.233 A 
ATOM     10  N   UNL A   1      43.518  21.975  25.028  1.00  0.00    -0.220 NA
ATOM     11  C   UNL A   1      45.842  21.425  24.693  1.00  0.00     0.103 A 
ATOM     12  C   UNL A   1      43.890  23.263  25.218  1.00  0.00     0.128 A 
ATOM     13  C   UNL A   1      46.189  22.760  24.897  1.00  0.00     0.041 A 
ATOM     14  Cl  UNL A   1      47.132  20.357  24.324  1.00  0.00    -0.078 Cl
ATOM     15  C   UNL A   1      45.198  23.713  25.137  1.00  0.00     0.076 A 
BRANCH  15  16
ATOM     16  C   UNL A   1      45.515  25.166  25.284  1.00  0.00     0.417 C 
ATOM     17  F   UNL A   1      44.540  25.968  24.777  1.00  0.00    -0.166 F 
ATOM     18  F   UNL A   1      45.671  25.537  26.582  1.00  0.00    -0.166 F 
ATOM     19  F   UNL A   1      46.663  25.533  24.649  1.00  0.00    -0.166 F 
ENDBRANCH  15  16
ENDBRANCH   8   9
ENDBRANCH   7   8
ENDBRANCH   5   7
ENDBRANCH   2   3
ENDBRANCH   1   2
BRANCH   1  20
ATOM     20  C   UNL A   1      40.316  21.845  26.285  1.00  0.00     0.118 C 
BRANCH  20  21
ATOM     21  N   UNL A   1      39.054  22.398  25.802  1.00  0.00    -0.352 N 
ATOM     22  C   UNL A   1      38.484  23.631  26.037  1.00  0.00     0.251 C 
ATOM     23  H   UNL A   1      38.531  21.800  25.220  1.00  0.00     0.163 HD
ATOM     24  O   UNL A   1      37.369  23.887  25.602  1.00  0.00    -0.269 OA
BRANCH  22  25
ATOM     25  C   UNL A   1      39.209  24.623  26.862  1.00  0.00     0.039 A 
ATOM     26  C   UNL A   1      40.106  25.495  26.241  1.00  0.00     0.014 A 
ATOM     27  C   UNL A   1      38.949  24.737  28.228  1.00  0.00     0.014 A 
ATOM     28  C   UNL A   1      40.649  26.559  26.966  1.00  0.00     0.010 A 
ATOM     29  C   UNL A   1      39.416  25.846  28.924  1.00  0.00     0.010 A 
ATOM     30  C   UNL A   1      40.256  26.780  28.296  1.00  0.00    -0.014 A 
BRANCH  30  31
ATOM     31  C   UNL A   1      40.675  27.988  29.055  1.00  0.00     0.031 A 
ATOM     32  C   UNL A   1      41.991  27.992  29.783  1.00  0.00     0.074 A 
ATOM     33  C   UNL A   1      39.824  29.026  29.191  1.00  0.00     0.049 A 
ATOM     34  N   UNL A   1      42.455  28.855  30.649  1.00  0.00    -0.248 NA
ATOM     35  C   UNL A   1      42.887  26.852  29.531  1.00  0.00     0.031 C 
ATOM     36  C   UNL A   1      38.498  29.124  28.575  1.00  0.00     0.029 A 
ATOM     37  N   UNL A   1      39.937  30.189  29.913  1.00  0.00    -0.354 N 
ATOM     38  C   UNL A   1      43.676  28.347  31.072  1.00  0.00     0.074 A 
ATOM     39  C   UNL A   1      43.865  27.081  30.396  1.00  0.00     0.031 C 
ATOM     40  C   UNL A   1      37.929  30.287  28.934  1.00  0.00     0.029 A 
ATOM     41  C   UNL A   1      38.825  30.995  29.842  1.00  0.00     0.049 A 
ATOM     42  H   UNL A   1      40.740  30.422  30.432  1.00  0.00     0.167 HD
ATOM     43  C   UNL A   1      44.567  28.893  31.933  1.00  0.00     0.037 A 
ATOM     44  C   UNL A   1      38.549  32.164  30.453  1.00  0.00     0.037 A 
ATOM     45  C   UNL A   1      44.397  30.173  32.565  1.00  0.00     0.049 A 
ATOM     46  C   UNL A   1      39.568  32.766  31.382  1.00  0.00     0.074 A 
ATOM     47  C   UNL A   1      45.270  30.840  33.405  1.00  0.00     0.029 A 
ATOM     48  N   UNL A   1      43.282  30.985  32.418  1.00  0.00    -0.354 N 
ATOM     49  N   UNL A   1      40.736  32.289  31.741  1.00  0.00    -0.248 NA
ATOM     50  C   UNL A   1      39.233  34.061  31.992  1.00  0.00     0.031 C 
ATOM     51  C   UNL A   1      44.672  32.046  33.787  1.00  0.00     0.029 A 
ATOM     52  C   UNL A   1      43.443  32.145  33.155  1.00  0.00     0.049 A 
ATOM     53  H   UNL A   1      42.493  30.769  31.870  1.00  0.00     0.167 HD
ATOM     54  C   UNL A   1      41.289  33.240  32.590  1.00  0.00     0.074 A 
ATOM     55  C   UNL A   1      40.329  34.320  32.694  1.00  0.00     0.031 C 
ATOM     56  C   UNL A   1      42.486  33.222  33.226  1.00  0.00     0.037 A 
BRANCH  43  57
ATOM     57  C   UNL A   1      45.812  28.106  32.233  1.00  0.00     0.058 A 
ATOM     58  C   UNL A   1      45.865  27.192  33.297  1.00  0.00     0.135 A 
ATOM     59  C   UNL A   1      46.957  28.249  31.434  1.00  0.00     0.135 A 
ATOM     60  F   UNL A   1      44.802  27.029  34.102  1.00  0.00    -0.206 F 
ATOM     61  C   UNL A   1      47.021  26.473  33.581  1.00  0.00     0.059 A 
ATOM     62  C   UNL A   1      48.117  27.520  31.683  1.00  0.00     0.059 A 
ATOM     63  F   UNL A   1      46.960  29.110  30.404  1.00  0.00    -0.206 F 
ATOM     64  C   UNL A   1      48.144  26.647  32.771  1.00  0.00     0.060 A 
BRANCH  64  65
ATOM     65  S   UNL A   1      49.639  25.711  33.152  1.00  0.00     0.124 S 
ATOM     66  O   UNL A   1      50.321  26.618  34.070  1.00  0.00    -0.237 OA
ATOM     67  O   UNL A   1      49.103  24.492  33.749  1.00  0.00    -0.237 OA
ATOM     68  O   UNL A   1      50.274  25.541  31.850  1.00  0.00    -0.744 OA
ENDBRANCH  64  65
ENDBRANCH  43  57
BRANCH  44  69
ATOM     69  C   UNL A   1      37.259  32.855  30.188  1.00  0.00     0.058 A 
ATOM     70  C   UNL A   1      36.150  32.641  31.019  1.00  0.00     0.135 A 
ATOM     71  C   UNL A   1      37.114  33.752  29.119  1.00  0.00     0.135 A 
ATOM     72  F   UNL A   1      36.239  31.787  32.050  1.00  0.00    -0.206 F 
ATOM     73  C   UNL A   1      34.935  33.279  30.792  1.00  0.00     0.059 A 
ATOM     74  C   UNL A   1      35.915  34.420  28.885  1.00  0.00     0.059 A 
ATOM     75  F   UNL A   1      38.151  34.003  28.306  1.00  0.00    -0.206 F 
ATOM     76  C   UNL A   1      34.828  34.169  29.722  1.00  0.00     0.060 A 
BRANCH  76  77
ATOM     77  S   UNL A   1      33.262  35.033  29.467  1.00  0.00     0.124 S 
ATOM     78  O   UNL A   1      33.720  36.347  29.028  1.00  0.00    -0.237 OA
ATOM     79  O   UNL A   1      32.617  34.209  28.450  1.00  0.00    -0.237 OA
ATOM     80  O   UNL A   1      32.638  34.989  30.786  1.00  0.00    -0.744 OA
ENDBRANCH  76  77
ENDBRANCH  44  69
BRANCH  56  81
ATOM     81  C   UNL A   1      42.859  34.420  34.049  1.00  0.00     0.058 A 
ATOM     82  C   UNL A   1      42.497  34.526  35.400  1.00  0.00     0.135 A 
ATOM     83  C   UNL A   1      43.663  35.431  33.499  1.00  0.00     0.135 A 
ATOM     84  F   UNL A   1      41.723  33.590  35.968  1.00  0.00    -0.206 F 
ATOM     85  C   UNL A   1      42.921  35.598  36.180  1.00  0.00     0.059 A 
ATOM     86  C   UNL A   1      44.115  36.500  34.265  1.00  0.00     0.059 A 
ATOM     87  F   UNL A   1      44.041  35.369  32.212  1.00  0.00    -0.206 F 
ATOM     88  C   UNL A   1      43.735  36.576  35.605  1.00  0.00     0.060 A 
BRANCH  88  89
ATOM     89  S   UNL A   1      44.336  37.925  36.644  1.00  0.00     0.124 S 
ATOM     90  O   UNL A   1      44.074  39.086  35.800  1.00  0.00    -0.237 OA
ATOM     91  O   UNL A   1      43.498  37.804  37.832  1.00  0.00    -0.237 OA
ATOM     92  O   UNL A   1      45.745  37.599  36.843  1.00  0.00    -0.744 OA
ENDBRANCH  88  89
ENDBRANCH  56  81
ENDBRANCH  30  31
ENDBRANCH  22  25
ENDBRANCH  20  21
ENDBRANCH   1  20
TORSDOF 16
ENDMDL
