MODEL 1
REMARK VINA RESULT:     -12.0      0.000      0.000
REMARK SMILES Cc1noc(C)c1[C@H](C)NC(=O)N1CC[C@H](C(=O)NCCCNC(=O)c2ccc(-c3c4nc(c(-c5c(F)cc(S(=O)(=O)[O-])cc5F)c5ccc([nH]5)c(-c5c(F)cc(S(=O)(=O)[O-])cc5F)c5nc(c(-c6c(F)cc(S(=O)(=O)[O-])cc6F)c6ccc3[nH]6)C=C5)C=C4)cc2)[C@@H]1C
REMARK SMILES IDX 21 1 20 2 19 3 17 4 18 5 16 7 13 8 14 9 92 10 15 11 93 12
REMARK SMILES IDX 11 13 10 14 12 16 8 17 9 18 7 19 1 20 2 21 3 22 4 23 5 24
REMARK SMILES IDX 6 25 22 26 23 27 24 28 25 30 26 31 27 32 91 33 28 34 90 35
REMARK SMILES IDX 29 36 30 37 31 38 84 39 32 40 89 41 83 42 85 43 33 44 88 45
REMARK SMILES IDX 82 46 81 47 34 49 68 50 47 51 67 52 48 53 51 54 66 55 86 56
REMARK SMILES IDX 49 57 50 58 65 60 87 61 52 62 35 63 36 64 45 65 37 66 38 67
REMARK SMILES IDX 44 68 46 69 39 70 40 71 41 72 42 73 43 74 69 75 70 76 79 77
REMARK SMILES IDX 71 78 72 79 78 80 80 81 73 82 74 83 75 84 76 85 77 86 53 87
REMARK SMILES IDX 54 88 63 89 55 90 56 91 62 92 64 93 57 94 58 95 59 96 60 97
REMARK SMILES IDX 61 98
REMARK H PARENT 19 6 10 15 23 29 85 48 51 59
REMARK Flexibility Score: inf
ROOT
ATOM      1  C   UNL A   1      38.638  22.752  26.141  1.00  0.00     0.042 C 
ENDROOT
BRANCH   1   2
ATOM      2  C   UNL A   1      37.192  22.965  25.720  1.00  0.00     0.117 C 
BRANCH   2   3
ATOM      3  N   UNL A   1      36.513  21.712  25.470  1.00  0.00    -0.356 N 
ATOM      4  C   UNL A   1      35.215  21.425  25.215  1.00  0.00     0.225 C 
ATOM      5  O   UNL A   1      34.945  20.233  25.024  1.00  0.00    -0.275 OA
ATOM      6  H   UNL A   1      37.103  20.924  25.487  1.00  0.00     0.163 HD
BRANCH   4   7
ATOM      7  C   UNL A   1      34.118  22.466  25.049  1.00  0.00     0.102 C 
ATOM      8  N   UNL A   1      32.054  23.054  26.055  1.00  0.00    -0.321 N 
ATOM      9  C   UNL A   1      31.700  22.196  24.955  1.00  0.00     0.122 C 
ATOM     10  C   UNL A   1      33.487  22.965  26.359  1.00  0.00     0.096 C 
ATOM     11  C   UNL A   1      32.945  22.240  24.087  1.00  0.00     0.037 C 
ATOM     12  C   UNL A   1      33.759  22.129  27.611  1.00  0.00     0.032 C 
BRANCH   8  13
ATOM     13  C   UNL A   1      31.087  23.639  26.811  1.00  0.00     0.318 C 
ATOM     14  N   UNL A   1      30.837  24.957  26.605  1.00  0.00    -0.331 N 
ATOM     15  H   UNL A   1      30.515  25.477  27.377  1.00  0.00     0.165 HD
ATOM     16  O   UNL A   1      30.381  23.011  27.596  1.00  0.00    -0.249 OA
BRANCH  14  17
ATOM     17  C   UNL A   1      31.001  25.673  25.348  1.00  0.00     0.116 C 
ATOM     18  C   UNL A   1      29.651  26.232  24.899  1.00  0.00     0.036 C 
BRANCH  17  19
ATOM     19  C   UNL A   1      32.109  26.664  25.528  1.00  0.00     0.040 A 
ATOM     20  C   UNL A   1      33.740  25.938  23.589  1.00  0.00     0.071 C 
ATOM     21  C   UNL A   1      33.298  26.772  24.732  1.00  0.00     0.086 A 
ATOM     22  N   UNL A   1      34.071  27.785  25.134  1.00  0.00    -0.085 NA
ATOM     23  O   UNL A   1      33.416  28.358  26.197  1.00  0.00    -0.361 OA
ATOM     24  C   UNL A   1      32.254  27.698  26.435  1.00  0.00     0.139 A 
ATOM     25  C   UNL A   1      31.459  28.230  27.559  1.00  0.00     0.091 C 
ENDBRANCH  17  19
ENDBRANCH  14  17
ENDBRANCH   8  13
ENDBRANCH   4   7
ENDBRANCH   2   3
ENDBRANCH   1   2
BRANCH   1  26
ATOM     26  C   UNL A   1      39.336  24.042  26.529  1.00  0.00     0.118 C 
BRANCH  26  27
ATOM     27  N   UNL A   1      40.677  24.122  25.974  1.00  0.00    -0.352 N 
ATOM     28  C   UNL A   1      41.668  25.035  26.232  1.00  0.00     0.251 C 
ATOM     29  H   UNL A   1      40.906  23.423  25.319  1.00  0.00     0.163 HD
ATOM     30  O   UNL A   1      42.649  25.088  25.491  1.00  0.00    -0.269 OA
BRANCH  28  31
ATOM     31  C   UNL A   1      41.547  25.960  27.380  1.00  0.00     0.039 A 
ATOM     32  C   UNL A   1      42.277  27.150  27.374  1.00  0.00     0.014 A 
ATOM     33  C   UNL A   1      40.720  25.653  28.464  1.00  0.00     0.014 A 
ATOM     34  C   UNL A   1      42.134  28.054  28.430  1.00  0.00     0.010 A 
ATOM     35  C   UNL A   1      40.497  26.599  29.458  1.00  0.00     0.010 A 
ATOM     36  C   UNL A   1      41.216  27.802  29.464  1.00  0.00    -0.014 A 
BRANCH  36  37
ATOM     37  C   UNL A   1      41.019  28.763  30.578  1.00  0.00     0.031 A 
ATOM     38  C   UNL A   1      41.882  28.669  31.809  1.00  0.00     0.074 A 
ATOM     39  C   UNL A   1      40.033  29.680  30.505  1.00  0.00     0.049 A 
ATOM     40  N   UNL A   1      41.819  29.361  32.916  1.00  0.00    -0.248 NA
ATOM     41  C   UNL A   1      42.939  27.643  31.807  1.00  0.00     0.031 C 
ATOM     42  C   UNL A   1      39.104  29.838  29.383  1.00  0.00     0.029 A 
ATOM     43  N   UNL A   1      39.643  30.649  31.394  1.00  0.00    -0.354 N 
ATOM     44  C   UNL A   1      42.813  28.849  33.742  1.00  0.00     0.074 A 
ATOM     45  C   UNL A   1      43.422  27.745  33.036  1.00  0.00     0.031 C 
ATOM     46  C   UNL A   1      38.272  30.861  29.639  1.00  0.00     0.029 A 
ATOM     47  C   UNL A   1      38.576  31.402  30.960  1.00  0.00     0.049 A 
ATOM     48  H   UNL A   1      40.084  30.792  32.263  1.00  0.00     0.167 HD
ATOM     49  C   UNL A   1      43.206  29.280  34.964  1.00  0.00     0.037 A 
ATOM     50  C   UNL A   1      37.914  32.409  31.563  1.00  0.00     0.037 A 
ATOM     51  C   UNL A   1      42.613  30.400  35.647  1.00  0.00     0.049 A 
ATOM     52  C   UNL A   1      38.359  32.857  32.930  1.00  0.00     0.074 A 
ATOM     53  C   UNL A   1      42.965  30.946  36.868  1.00  0.00     0.029 A 
ATOM     54  N   UNL A   1      41.546  31.144  35.168  1.00  0.00    -0.354 N 
ATOM     55  N   UNL A   1      39.338  32.396  33.671  1.00  0.00    -0.248 NA
ATOM     56  C   UNL A   1      37.614  33.967  33.542  1.00  0.00     0.031 C 
ATOM     57  C   UNL A   1      42.082  31.992  37.149  1.00  0.00     0.029 A 
ATOM     58  C   UNL A   1      41.215  32.134  36.076  1.00  0.00     0.049 A 
ATOM     59  H   UNL A   1      41.092  30.992  34.308  1.00  0.00     0.167 HD
ATOM     60  C   UNL A   1      39.349  33.180  34.819  1.00  0.00     0.074 A 
ATOM     61  C   UNL A   1      38.286  34.152  34.669  1.00  0.00     0.031 C 
ATOM     62  C   UNL A   1      40.163  33.105  35.901  1.00  0.00     0.037 A 
BRANCH  49  63
ATOM     63  C   UNL A   1      44.339  28.552  35.635  1.00  0.00     0.058 A 
ATOM     64  C   UNL A   1      44.109  27.468  36.498  1.00  0.00     0.135 A 
ATOM     65  C   UNL A   1      45.673  28.906  35.374  1.00  0.00     0.135 A 
ATOM     66  F   UNL A   1      42.853  27.097  36.799  1.00  0.00    -0.206 F 
ATOM     67  C   UNL A   1      45.158  26.775  37.093  1.00  0.00     0.059 A 
ATOM     68  C   UNL A   1      46.739  28.207  35.934  1.00  0.00     0.059 A 
ATOM     69  F   UNL A   1      45.952  29.937  34.561  1.00  0.00    -0.206 F 
ATOM     70  C   UNL A   1      46.470  27.150  36.802  1.00  0.00     0.060 A 
BRANCH  70  71
ATOM     71  S   UNL A   1      47.817  26.221  37.563  1.00  0.00     0.124 S 
ATOM     72  O   UNL A   1      48.814  26.228  36.497  1.00  0.00    -0.237 OA
ATOM     73  O   UNL A   1      48.133  27.034  38.733  1.00  0.00    -0.237 OA
ATOM     74  O   UNL A   1      47.217  24.922  37.849  1.00  0.00    -0.744 OA
ENDBRANCH  70  71
ENDBRANCH  49  63
BRANCH  50  75
ATOM     75  C   UNL A   1      36.770  33.071  30.879  1.00  0.00     0.058 A 
ATOM     76  C   UNL A   1      36.982  33.984  29.834  1.00  0.00     0.135 A 
ATOM     77  C   UNL A   1      35.443  32.819  31.262  1.00  0.00     0.135 A 
ATOM     78  F   UNL A   1      38.232  34.263  29.431  1.00  0.00    -0.206 F 
ATOM     79  C   UNL A   1      35.927  34.645  29.214  1.00  0.00     0.059 A 
ATOM     80  C   UNL A   1      34.369  33.445  30.637  1.00  0.00     0.059 A 
ATOM     81  F   UNL A   1      35.182  31.941  32.242  1.00  0.00    -0.206 F 
ATOM     82  C   UNL A   1      34.622  34.369  29.625  1.00  0.00     0.060 A 
BRANCH  82  83
ATOM     83  S   UNL A   1      33.257  35.217  28.802  1.00  0.00     0.124 S 
ATOM     84  O   UNL A   1      32.510  35.743  29.939  1.00  0.00    -0.237 OA
ATOM     85  O   UNL A   1      33.956  36.203  27.985  1.00  0.00    -0.237 OA
ATOM     86  O   UNL A   1      32.599  34.148  28.056  1.00  0.00    -0.744 OA
ENDBRANCH  82  83
ENDBRANCH  50  75
BRANCH  62  87
ATOM     87  C   UNL A   1      39.973  34.127  36.987  1.00  0.00     0.058 A 
ATOM     88  C   UNL A   1      40.522  35.415  36.898  1.00  0.00     0.135 A 
ATOM     89  C   UNL A   1      39.179  33.829  38.107  1.00  0.00     0.135 A 
ATOM     90  F   UNL A   1      41.294  35.748  35.851  1.00  0.00    -0.206 F 
ATOM     91  C   UNL A   1      40.310  36.365  37.890  1.00  0.00     0.059 A 
ATOM     92  C   UNL A   1      38.928  34.773  39.097  1.00  0.00     0.059 A 
ATOM     93  F   UNL A   1      38.621  32.615  38.238  1.00  0.00    -0.206 F 
ATOM     94  C   UNL A   1      39.508  36.036  38.985  1.00  0.00     0.060 A 
BRANCH  94  95
ATOM     95  S   UNL A   1      39.210  37.293  40.246  1.00  0.00     0.124 S 
ATOM     96  O   UNL A   1      40.560  37.782  40.498  1.00  0.00    -0.237 OA
ATOM     97  O   UNL A   1      38.317  38.220  39.556  1.00  0.00    -0.237 OA
ATOM     98  O   UNL A   1      38.599  36.541  41.338  1.00  0.00    -0.744 OA
ENDBRANCH  94  95
ENDBRANCH  62  87
ENDBRANCH  36  37
ENDBRANCH  28  31
ENDBRANCH  26  27
ENDBRANCH   1  26
TORSDOF 16
ENDMDL
MODEL 2
REMARK VINA RESULT:     -11.9      6.410     11.887
REMARK SMILES Cc1noc(C)c1[C@H](C)NC(=O)N1CC[C@H](C(=O)NCCCNC(=O)c2ccc(-c3c4nc(c(-c5c(F)cc(S(=O)(=O)[O-])cc5F)c5ccc([nH]5)c(-c5c(F)cc(S(=O)(=O)[O-])cc5F)c5nc(c(-c6c(F)cc(S(=O)(=O)[O-])cc6F)c6ccc3[nH]6)C=C5)C=C4)cc2)[C@@H]1C
REMARK SMILES IDX 21 1 20 2 19 3 17 4 18 5 16 7 13 8 14 9 92 10 15 11 93 12
REMARK SMILES IDX 11 13 10 14 12 16 8 17 9 18 7 19 1 20 2 21 3 22 4 23 5 24
REMARK SMILES IDX 6 25 22 26 23 27 24 28 25 30 26 31 27 32 91 33 28 34 90 35
REMARK SMILES IDX 29 36 30 37 31 38 84 39 32 40 89 41 83 42 85 43 33 44 88 45
REMARK SMILES IDX 82 46 81 47 34 49 68 50 47 51 67 52 48 53 51 54 66 55 86 56
REMARK SMILES IDX 49 57 50 58 65 60 87 61 52 62 35 63 36 64 45 65 37 66 38 67
REMARK SMILES IDX 44 68 46 69 39 70 40 71 41 72 42 73 43 74 69 75 70 76 79 77
REMARK SMILES IDX 71 78 72 79 78 80 80 81 73 82 74 83 75 84 76 85 77 86 53 87
REMARK SMILES IDX 54 88 63 89 55 90 56 91 62 92 64 93 57 94 58 95 59 96 60 97
REMARK SMILES IDX 61 98
REMARK H PARENT 19 6 10 15 23 29 85 48 51 59
REMARK Flexibility Score: inf
ROOT
ATOM      1  C   UNL A   1      34.506  29.436  27.787  1.00  0.00     0.042 C 
ENDROOT
BRANCH   1   2
ATOM      2  C   UNL A   1      34.459  29.095  26.306  1.00  0.00     0.117 C 
BRANCH   2   3
ATOM      3  N   UNL A   1      33.297  29.664  25.657  1.00  0.00    -0.356 N 
ATOM      4  C   UNL A   1      32.352  29.116  24.858  1.00  0.00     0.225 C 
ATOM      5  O   UNL A   1      31.458  29.876  24.467  1.00  0.00    -0.275 OA
ATOM      6  H   UNL A   1      33.170  30.625  25.830  1.00  0.00     0.163 HD
BRANCH   4   7
ATOM      7  C   UNL A   1      32.268  27.638  24.509  1.00  0.00     0.102 C 
ATOM      8  N   UNL A   1      32.504  26.241  22.609  1.00  0.00    -0.321 N 
ATOM      9  C   UNL A   1      31.094  26.518  22.694  1.00  0.00     0.122 C 
ATOM     10  C   UNL A   1      33.278  27.158  23.453  1.00  0.00     0.096 C 
ATOM     11  C   UNL A   1      30.935  26.983  24.130  1.00  0.00     0.037 C 
ATOM     12  C   UNL A   1      33.979  28.243  22.633  1.00  0.00     0.032 C 
BRANCH   8  13
ATOM     13  C   UNL A   1      32.983  25.394  21.659  1.00  0.00     0.318 C 
ATOM     14  N   UNL A   1      33.350  24.148  22.054  1.00  0.00    -0.331 N 
ATOM     15  H   UNL A   1      34.071  23.712  21.544  1.00  0.00     0.165 HD
ATOM     16  O   UNL A   1      33.011  25.676  20.464  1.00  0.00    -0.249 OA
BRANCH  14  17
ATOM     17  C   UNL A   1      32.776  23.397  23.162  1.00  0.00     0.116 C 
ATOM     18  C   UNL A   1      32.404  21.992  22.687  1.00  0.00     0.036 C 
BRANCH  17  19
ATOM     19  C   UNL A   1      33.728  23.484  24.314  1.00  0.00     0.040 A 
ATOM     20  C   UNL A   1      32.087  24.174  26.258  1.00  0.00     0.071 C 
ATOM     21  C   UNL A   1      33.400  23.812  25.672  1.00  0.00     0.086 A 
ATOM     22  N   UNL A   1      34.475  23.770  26.464  1.00  0.00    -0.085 NA
ATOM     23  O   UNL A   1      35.526  23.422  25.651  1.00  0.00    -0.361 OA
ATOM     24  C   UNL A   1      35.090  23.251  24.377  1.00  0.00     0.139 A 
ATOM     25  C   UNL A   1      36.137  22.868  23.410  1.00  0.00     0.091 C 
ENDBRANCH  17  19
ENDBRANCH  14  17
ENDBRANCH   8  13
ENDBRANCH   4   7
ENDBRANCH   2   3
ENDBRANCH   1   2
BRANCH   1  26
ATOM     26  C   UNL A   1      35.416  30.611  28.094  1.00  0.00     0.118 C 
BRANCH  26  27
ATOM     27  N   UNL A   1      35.442  30.920  29.514  1.00  0.00    -0.352 N 
ATOM     28  C   UNL A   1      36.403  30.622  30.447  1.00  0.00     0.251 C 
ATOM     29  H   UNL A   1      34.660  31.412  29.854  1.00  0.00     0.163 HD
ATOM     30  O   UNL A   1      36.144  30.750  31.644  1.00  0.00    -0.269 OA
BRANCH  28  31
ATOM     31  C   UNL A   1      37.731  30.133  30.017  1.00  0.00     0.039 A 
ATOM     32  C   UNL A   1      38.058  30.158  28.660  1.00  0.00     0.014 A 
ATOM     33  C   UNL A   1      38.651  29.642  30.949  1.00  0.00     0.014 A 
ATOM     34  C   UNL A   1      39.327  29.743  28.247  1.00  0.00     0.010 A 
ATOM     35  C   UNL A   1      39.946  29.333  30.550  1.00  0.00     0.010 A 
ATOM     36  C   UNL A   1      40.293  29.360  29.192  1.00  0.00    -0.014 A 
BRANCH  36  37
ATOM     37  C   UNL A   1      41.660  28.949  28.783  1.00  0.00     0.031 A 
ATOM     38  C   UNL A   1      42.766  29.970  28.735  1.00  0.00     0.074 A 
ATOM     39  C   UNL A   1      41.892  27.676  28.404  1.00  0.00     0.049 A 
ATOM     40  N   UNL A   1      44.003  29.831  28.334  1.00  0.00    -0.248 NA
ATOM     41  C   UNL A   1      42.431  31.338  29.169  1.00  0.00     0.031 C 
ATOM     42  C   UNL A   1      40.889  26.607  28.365  1.00  0.00     0.029 A 
ATOM     43  N   UNL A   1      43.041  27.064  27.972  1.00  0.00    -0.354 N 
ATOM     44  C   UNL A   1      44.586  31.087  28.456  1.00  0.00     0.074 A 
ATOM     45  C   UNL A   1      43.552  31.992  28.904  1.00  0.00     0.031 C 
ATOM     46  C   UNL A   1      41.474  25.468  27.962  1.00  0.00     0.029 A 
ATOM     47  C   UNL A   1      42.879  25.731  27.670  1.00  0.00     0.049 A 
ATOM     48  H   UNL A   1      43.902  27.534  27.887  1.00  0.00     0.167 HD
ATOM     49  C   UNL A   1      45.874  31.447  28.245  1.00  0.00     0.037 A 
ATOM     50  C   UNL A   1      43.763  24.827  27.202  1.00  0.00     0.037 A 
ATOM     51  C   UNL A   1      46.903  30.533  27.826  1.00  0.00     0.049 A 
ATOM     52  C   UNL A   1      45.185  25.259  26.958  1.00  0.00     0.074 A 
ATOM     53  C   UNL A   1      48.249  30.786  27.627  1.00  0.00     0.029 A 
ATOM     54  N   UNL A   1      46.702  29.190  27.545  1.00  0.00    -0.354 N 
ATOM     55  N   UNL A   1      45.731  26.439  27.133  1.00  0.00    -0.248 NA
ATOM     56  C   UNL A   1      46.114  24.236  26.459  1.00  0.00     0.031 C 
ATOM     57  C   UNL A   1      48.853  29.607  27.179  1.00  0.00     0.029 A 
ATOM     58  C   UNL A   1      47.895  28.605  27.156  1.00  0.00     0.049 A 
ATOM     59  H   UNL A   1      45.839  28.721  27.613  1.00  0.00     0.167 HD
ATOM     60  C   UNL A   1      47.072  26.292  26.799  1.00  0.00     0.074 A 
ATOM     61  C   UNL A   1      47.257  24.905  26.423  1.00  0.00     0.031 C 
ATOM     62  C   UNL A   1      48.063  27.218  26.802  1.00  0.00     0.037 A 
BRANCH  49  63
ATOM     63  C   UNL A   1      46.248  32.886  28.478  1.00  0.00     0.058 A 
ATOM     64  C   UNL A   1      46.688  33.338  29.734  1.00  0.00     0.135 A 
ATOM     65  C   UNL A   1      46.219  33.814  27.425  1.00  0.00     0.135 A 
ATOM     66  F   UNL A   1      46.718  32.499  30.782  1.00  0.00    -0.206 F 
ATOM     67  C   UNL A   1      47.063  34.661  29.941  1.00  0.00     0.059 A 
ATOM     68  C   UNL A   1      46.620  35.136  27.601  1.00  0.00     0.059 A 
ATOM     69  F   UNL A   1      45.803  33.439  26.205  1.00  0.00    -0.206 F 
ATOM     70  C   UNL A   1      47.031  35.551  28.867  1.00  0.00     0.060 A 
BRANCH  70  71
ATOM     71  S   UNL A   1      47.549  37.257  29.150  1.00  0.00     0.124 S 
ATOM     72  O   UNL A   1      48.726  37.068  29.993  1.00  0.00    -0.237 OA
ATOM     73  O   UNL A   1      47.809  37.732  27.795  1.00  0.00    -0.237 OA
ATOM     74  O   UNL A   1      46.396  37.858  29.812  1.00  0.00    -0.744 OA
ENDBRANCH  70  71
ENDBRANCH  49  63
BRANCH  50  75
ATOM     75  C   UNL A   1      43.337  23.425  26.944  1.00  0.00     0.058 A 
ATOM     76  C   UNL A   1      43.164  22.516  27.999  1.00  0.00     0.135 A 
ATOM     77  C   UNL A   1      43.108  22.959  25.639  1.00  0.00     0.135 A 
ATOM     78  F   UNL A   1      43.373  22.910  29.265  1.00  0.00    -0.206 F 
ATOM     79  C   UNL A   1      42.810  21.190  27.771  1.00  0.00     0.059 A 
ATOM     80  C   UNL A   1      42.723  21.646  25.388  1.00  0.00     0.059 A 
ATOM     81  F   UNL A   1      43.239  23.791  24.595  1.00  0.00    -0.206 F 
ATOM     82  C   UNL A   1      42.593  20.764  26.460  1.00  0.00     0.060 A 
BRANCH  82  83
ATOM     83  S   UNL A   1      42.115  19.046  26.175  1.00  0.00     0.124 S 
ATOM     84  O   UNL A   1      43.029  18.661  25.106  1.00  0.00    -0.237 OA
ATOM     85  O   UNL A   1      42.363  18.439  27.478  1.00  0.00    -0.237 OA
ATOM     86  O   UNL A   1      40.708  19.148  25.797  1.00  0.00    -0.744 OA
ENDBRANCH  82  83
ENDBRANCH  50  75
BRANCH  62  87
ATOM     87  C   UNL A   1      49.446  26.757  26.434  1.00  0.00     0.058 A 
ATOM     88  C   UNL A   1      50.274  26.093  27.352  1.00  0.00     0.135 A 
ATOM     89  C   UNL A   1      49.926  26.933  25.125  1.00  0.00     0.135 A 
ATOM     90  F   UNL A   1      49.866  25.904  28.617  1.00  0.00    -0.206 F 
ATOM     91  C   UNL A   1      51.538  25.638  26.992  1.00  0.00     0.059 A 
ATOM     92  C   UNL A   1      51.174  26.460  24.735  1.00  0.00     0.059 A 
ATOM     93  F   UNL A   1      49.171  27.554  24.206  1.00  0.00    -0.206 F 
ATOM     94  C   UNL A   1      51.978  25.823  25.679  1.00  0.00     0.060 A 
BRANCH  94  95
ATOM     95  S   UNL A   1      53.605  25.193  25.217  1.00  0.00     0.124 S 
ATOM     96  O   UNL A   1      54.461  25.831  26.211  1.00  0.00    -0.237 OA
ATOM     97  O   UNL A   1      53.432  23.750  25.361  1.00  0.00    -0.237 OA
ATOM     98  O   UNL A   1      53.776  25.664  23.846  1.00  0.00    -0.744 OA
ENDBRANCH  94  95
ENDBRANCH  62  87
ENDBRANCH  36  37
ENDBRANCH  28  31
ENDBRANCH  26  27
ENDBRANCH   1  26
TORSDOF 16
ENDMDL
MODEL 3
REMARK VINA RESULT:     -11.9      6.732     11.609
REMARK SMILES Cc1noc(C)c1[C@H](C)NC(=O)N1CC[C@H](C(=O)NCCCNC(=O)c2ccc(-c3c4nc(c(-c5c(F)cc(S(=O)(=O)[O-])cc5F)c5ccc([nH]5)c(-c5c(F)cc(S(=O)(=O)[O-])cc5F)c5nc(c(-c6c(F)cc(S(=O)(=O)[O-])cc6F)c6ccc3[nH]6)C=C5)C=C4)cc2)[C@@H]1C
REMARK SMILES IDX 21 1 20 2 19 3 17 4 18 5 16 7 13 8 14 9 92 10 15 11 93 12
REMARK SMILES IDX 11 13 10 14 12 16 8 17 9 18 7 19 1 20 2 21 3 22 4 23 5 24
REMARK SMILES IDX 6 25 22 26 23 27 24 28 25 30 26 31 27 32 91 33 28 34 90 35
REMARK SMILES IDX 29 36 30 37 31 38 84 39 32 40 89 41 83 42 85 43 33 44 88 45
REMARK SMILES IDX 82 46 81 47 34 49 68 50 47 51 67 52 48 53 51 54 66 55 86 56
REMARK SMILES IDX 49 57 50 58 65 60 87 61 52 62 35 63 36 64 45 65 37 66 38 67
REMARK SMILES IDX 44 68 46 69 39 70 40 71 41 72 42 73 43 74 69 75 70 76 79 77
REMARK SMILES IDX 71 78 72 79 78 80 80 81 73 82 74 83 75 84 76 85 77 86 53 87
REMARK SMILES IDX 54 88 63 89 55 90 56 91 62 92 64 93 57 94 58 95 59 96 60 97
REMARK SMILES IDX 61 98
REMARK H PARENT 19 6 10 15 23 29 85 48 51 59
REMARK Flexibility Score: inf
ROOT
ATOM      1  C   UNL A   1      34.425  28.594  26.946  1.00  0.00     0.042 C 
ENDROOT
BRANCH   1   2
ATOM      2  C   UNL A   1      33.020  28.873  27.453  1.00  0.00     0.117 C 
BRANCH   2   3
ATOM      3  N   UNL A   1      32.203  29.521  26.450  1.00  0.00    -0.356 N 
ATOM      4  C   UNL A   1      31.661  29.067  25.296  1.00  0.00     0.225 C 
ATOM      5  O   UNL A   1      30.984  29.878  24.652  1.00  0.00    -0.275 OA
ATOM      6  H   UNL A   1      32.003  30.466  26.644  1.00  0.00     0.163 HD
BRANCH   4   7
ATOM      7  C   UNL A   1      31.745  27.627  24.812  1.00  0.00     0.102 C 
ATOM      8  N   UNL A   1      32.406  26.437  22.872  1.00  0.00    -0.321 N 
ATOM      9  C   UNL A   1      30.986  26.626  22.727  1.00  0.00     0.122 C 
ATOM     10  C   UNL A   1      32.954  27.309  23.917  1.00  0.00     0.096 C 
ATOM     11  C   UNL A   1      30.548  26.940  24.146  1.00  0.00     0.037 C 
ATOM     12  C   UNL A   1      33.707  28.505  23.332  1.00  0.00     0.032 C 
BRANCH   8  13
ATOM     13  C   UNL A   1      33.101  25.714  21.954  1.00  0.00     0.318 C 
ATOM     14  N   UNL A   1      33.576  24.502  22.337  1.00  0.00    -0.331 N 
ATOM     15  H   UNL A   1      34.405  24.189  21.903  1.00  0.00     0.165 HD
ATOM     16  O   UNL A   1      33.236  26.069  20.786  1.00  0.00    -0.249 OA
BRANCH  14  17
ATOM     17  C   UNL A   1      32.976  23.620  23.328  1.00  0.00     0.116 C 
ATOM     18  C   UNL A   1      32.592  22.296  22.668  1.00  0.00     0.036 C 
BRANCH  17  19
ATOM     19  C   UNL A   1      33.912  23.539  24.494  1.00  0.00     0.040 A 
ATOM     20  C   UNL A   1      32.294  24.189  26.471  1.00  0.00     0.071 C 
ATOM     21  C   UNL A   1      33.586  23.779  25.870  1.00  0.00     0.086 A 
ATOM     22  N   UNL A   1      34.641  23.591  26.668  1.00  0.00    -0.085 NA
ATOM     23  O   UNL A   1      35.677  23.232  25.841  1.00  0.00    -0.361 OA
ATOM     24  C   UNL A   1      35.251  23.200  24.552  1.00  0.00     0.139 A 
ATOM     25  C   UNL A   1      36.284  22.820  23.568  1.00  0.00     0.091 C 
ENDBRANCH  17  19
ENDBRANCH  14  17
ENDBRANCH   8  13
ENDBRANCH   4   7
ENDBRANCH   2   3
ENDBRANCH   1   2
BRANCH   1  26
ATOM     26  C   UNL A   1      35.440  29.616  27.423  1.00  0.00     0.118 C 
BRANCH  26  27
ATOM     27  N   UNL A   1      35.342  29.852  28.853  1.00  0.00    -0.352 N 
ATOM     28  C   UNL A   1      36.300  29.701  29.823  1.00  0.00     0.251 C 
ATOM     29  H   UNL A   1      34.464  30.163  29.172  1.00  0.00     0.163 HD
ATOM     30  O   UNL A   1      35.969  29.714  31.009  1.00  0.00    -0.269 OA
BRANCH  28  31
ATOM     31  C   UNL A   1      37.717  29.504  29.445  1.00  0.00     0.039 A 
ATOM     32  C   UNL A   1      38.628  29.090  30.418  1.00  0.00     0.014 A 
ATOM     33  C   UNL A   1      38.148  29.733  28.136  1.00  0.00     0.014 A 
ATOM     34  C   UNL A   1      39.959  28.853  30.063  1.00  0.00     0.010 A 
ATOM     35  C   UNL A   1      39.443  29.394  27.762  1.00  0.00     0.010 A 
ATOM     36  C   UNL A   1      40.370  28.971  28.724  1.00  0.00    -0.014 A 
BRANCH  36  37
ATOM     37  C   UNL A   1      41.769  28.690  28.314  1.00  0.00     0.031 A 
ATOM     38  C   UNL A   1      42.168  27.293  27.918  1.00  0.00     0.074 A 
ATOM     39  C   UNL A   1      42.688  29.677  28.349  1.00  0.00     0.049 A 
ATOM     40  N   UNL A   1      43.349  26.829  27.604  1.00  0.00    -0.248 NA
ATOM     41  C   UNL A   1      41.104  26.274  27.902  1.00  0.00     0.031 C 
ATOM     42  C   UNL A   1      42.430  31.061  28.759  1.00  0.00     0.029 A 
ATOM     43  N   UNL A   1      44.025  29.668  28.043  1.00  0.00    -0.354 N 
ATOM     44  C   UNL A   1      43.172  25.471  27.364  1.00  0.00     0.074 A 
ATOM     45  C   UNL A   1      41.785  25.171  27.634  1.00  0.00     0.031 C 
ATOM     46  C   UNL A   1      43.565  31.771  28.650  1.00  0.00     0.029 A 
ATOM     47  C   UNL A   1      44.640  30.889  28.209  1.00  0.00     0.049 A 
ATOM     48  H   UNL A   1      44.501  28.864  27.734  1.00  0.00     0.167 HD
ATOM     49  C   UNL A   1      44.077  24.563  26.927  1.00  0.00     0.037 A 
ATOM     50  C   UNL A   1      45.925  31.251  28.033  1.00  0.00     0.037 A 
ATOM     51  C   UNL A   1      45.450  24.878  26.632  1.00  0.00     0.049 A 
ATOM     52  C   UNL A   1      46.915  30.217  27.563  1.00  0.00     0.074 A 
ATOM     53  C   UNL A   1      46.437  24.042  26.142  1.00  0.00     0.029 A 
ATOM     54  N   UNL A   1      46.029  26.127  26.799  1.00  0.00    -0.354 N 
ATOM     55  N   UNL A   1      46.716  28.950  27.289  1.00  0.00    -0.248 NA
ATOM     56  C   UNL A   1      48.303  30.662  27.374  1.00  0.00     0.031 C 
ATOM     57  C   UNL A   1      47.625  24.774  26.056  1.00  0.00     0.029 A 
ATOM     58  C   UNL A   1      47.364  26.080  26.438  1.00  0.00     0.049 A 
ATOM     59  H   UNL A   1      45.559  26.928  27.124  1.00  0.00     0.167 HD
ATOM     60  C   UNL A   1      47.943  28.456  26.862  1.00  0.00     0.074 A 
ATOM     61  C   UNL A   1      48.875  29.563  26.903  1.00  0.00     0.031 C 
ATOM     62  C   UNL A   1      48.273  27.200  26.470  1.00  0.00     0.037 A 
BRANCH  49  63
ATOM     63  C   UNL A   1      43.609  23.147  26.724  1.00  0.00     0.058 A 
ATOM     64  C   UNL A   1      43.482  22.590  25.441  1.00  0.00     0.135 A 
ATOM     65  C   UNL A   1      43.335  22.319  27.825  1.00  0.00     0.135 A 
ATOM     66  F   UNL A   1      43.712  23.341  24.352  1.00  0.00    -0.206 F 
ATOM     67  C   UNL A   1      43.080  21.272  25.256  1.00  0.00     0.059 A 
ATOM     68  C   UNL A   1      42.961  20.987  27.664  1.00  0.00     0.059 A 
ATOM     69  F   UNL A   1      43.436  22.799  29.074  1.00  0.00    -0.206 F 
ATOM     70  C   UNL A   1      42.826  20.477  26.374  1.00  0.00     0.060 A 
BRANCH  70  71
ATOM     71  S   UNL A   1      42.333  18.761  26.112  1.00  0.00     0.124 S 
ATOM     72  O   UNL A   1      42.557  18.188  27.436  1.00  0.00    -0.237 OA
ATOM     73  O   UNL A   1      40.937  18.897  25.708  1.00  0.00    -0.237 OA
ATOM     74  O   UNL A   1      43.243  18.299  25.069  1.00  0.00    -0.744 OA
ENDBRANCH  70  71
ENDBRANCH  49  63
BRANCH  50  75
ATOM     75  C   UNL A   1      46.352  32.654  28.287  1.00  0.00     0.058 A 
ATOM     76  C   UNL A   1      46.260  33.631  27.284  1.00  0.00     0.135 A 
ATOM     77  C   UNL A   1      46.873  33.045  29.531  1.00  0.00     0.135 A 
ATOM     78  F   UNL A   1      45.773  33.308  26.076  1.00  0.00    -0.206 F 
ATOM     79  C   UNL A   1      46.697  34.936  27.492  1.00  0.00     0.059 A 
ATOM     80  C   UNL A   1      47.287  34.351  29.773  1.00  0.00     0.059 A 
ATOM     81  F   UNL A   1      46.964  32.156  30.532  1.00  0.00    -0.206 F 
ATOM     82  C   UNL A   1      47.210  35.285  28.741  1.00  0.00     0.060 A 
BRANCH  82  83
ATOM     83  S   UNL A   1      47.756  36.986  29.009  1.00  0.00     0.124 S 
ATOM     84  O   UNL A   1      46.551  37.598  29.557  1.00  0.00    -0.237 OA
ATOM     85  O   UNL A   1      48.865  36.809  29.940  1.00  0.00    -0.237 OA
ATOM     86  O   UNL A   1      48.136  37.430  27.670  1.00  0.00    -0.744 OA
ENDBRANCH  82  83
ENDBRANCH  50  75
BRANCH  62  87
ATOM     87  C   UNL A   1      49.684  26.962  26.009  1.00  0.00     0.058 A 
ATOM     88  C   UNL A   1      50.669  26.455  26.871  1.00  0.00     0.135 A 
ATOM     89  C   UNL A   1      50.039  27.190  24.669  1.00  0.00     0.135 A 
ATOM     90  F   UNL A   1      50.384  26.225  28.162  1.00  0.00    -0.206 F 
ATOM     91  C   UNL A   1      51.962  26.204  26.426  1.00  0.00     0.059 A 
ATOM     92  C   UNL A   1      51.317  26.918  24.196  1.00  0.00     0.059 A 
ATOM     93  F   UNL A   1      49.132  27.665  23.801  1.00  0.00    -0.206 F 
ATOM     94  C   UNL A   1      52.276  26.435  25.085  1.00  0.00     0.060 A 
BRANCH  94  95
ATOM     95  S   UNL A   1      53.948  26.067  24.513  1.00  0.00     0.124 S 
ATOM     96  O   UNL A   1      54.728  27.080  25.216  1.00  0.00    -0.237 OA
ATOM     97  O   UNL A   1      54.137  24.693  24.968  1.00  0.00    -0.237 OA
ATOM     98  O   UNL A   1      53.858  26.235  23.066  1.00  0.00    -0.744 OA
ENDBRANCH  94  95
ENDBRANCH  62  87
ENDBRANCH  36  37
ENDBRANCH  28  31
ENDBRANCH  26  27
ENDBRANCH   1  26
TORSDOF 16
ENDMDL
