MODEL 1
REMARK VINA RESULT:     -11.7      0.000      0.000
REMARK SMILES CC(C)=CC(=O)N1[C@H](C(=O)NCCCNC(=O)c2ccc(-c3c4nc(c(-c5c(F)cc(S(=O)(=O)[O-])cc5F)c5ccc([nH]5)c(-c5c(F)cc(S(=O)(=O)[O-])cc5F)c5nc(c(-c6c(F)cc(S(=O)(=O)[O-])cc6F)c6ccc3[nH]6)C=C5)C=C4)cc2)COC12CCCCC2
REMARK SMILES IDX 13 1 12 2 11 3 9 4 10 5 8 7 7 8 86 9 84 10 85 11 87 12 91 13
REMARK SMILES IDX 88 14 90 15 89 16 5 17 6 18 4 19 1 20 2 21 3 22 14 23 15 24
REMARK SMILES IDX 16 25 17 27 18 28 19 29 83 30 20 31 82 32 21 33 22 34 23 35
REMARK SMILES IDX 76 36 24 37 81 38 75 39 77 40 25 41 80 42 74 43 73 44 26 46
REMARK SMILES IDX 60 47 39 48 59 49 40 50 43 51 58 52 78 53 41 54 42 55 57 57
REMARK SMILES IDX 79 58 44 59 27 60 28 61 37 62 29 63 30 64 36 65 38 66 31 67
REMARK SMILES IDX 32 68 33 69 34 70 35 71 61 72 62 73 71 74 63 75 64 76 70 77
REMARK SMILES IDX 72 78 65 79 66 80 67 81 68 82 69 83 45 84 46 85 55 86 47 87
REMARK SMILES IDX 48 88 54 89 56 90 49 91 50 92 51 93 52 94 53 95
REMARK H PARENT 11 6 15 26 77 45 43 56
REMARK Flexibility Score: inf
ROOT
ATOM      1  C   UNL A   1      32.396  27.687  26.541  1.00  0.00     0.042 C 
ENDROOT
BRANCH   1   2
ATOM      2  C   UNL A   1      32.556  26.229  26.127  1.00  0.00     0.117 C 
BRANCH   2   3
ATOM      3  N   UNL A   1      31.373  25.442  26.407  1.00  0.00    -0.354 N 
ATOM      4  C   UNL A   1      31.140  24.110  26.561  1.00  0.00     0.245 C 
ATOM      5  O   UNL A   1      30.069  23.898  27.134  1.00  0.00    -0.273 OA
ATOM      6  H   UNL A   1      30.561  25.990  26.506  1.00  0.00     0.163 HD
BRANCH   4   7
ATOM      7  C   UNL A   1      32.195  22.996  26.259  1.00  0.00     0.203 C 
ATOM      8  N   UNL A   1      32.957  22.930  24.989  1.00  0.00    -0.296 N 
ATOM      9  C   UNL A   1      34.336  22.488  25.233  1.00  0.00     0.144 C 
ATOM     10  C   UNL A   1      33.342  23.006  27.251  1.00  0.00     0.198 C 
ATOM     11  O   UNL A   1      34.395  22.256  26.655  1.00  0.00    -0.353 OA
ATOM     12  C   UNL A   1      34.778  21.145  24.627  1.00  0.00     0.059 C 
ATOM     13  C   UNL A   1      35.342  23.605  24.890  1.00  0.00     0.059 C 
ATOM     14  C   UNL A   1      36.217  20.780  25.009  1.00  0.00     0.005 C 
ATOM     15  C   UNL A   1      36.784  23.224  25.233  1.00  0.00     0.005 C 
ATOM     16  C   UNL A   1      37.182  21.891  24.608  1.00  0.00     0.000 C 
BRANCH   8  17
ATOM     17  C   UNL A   1      32.428  23.297  23.776  1.00  0.00     0.249 C 
ATOM     18  O   UNL A   1      31.392  22.854  23.294  1.00  0.00    -0.270 OA
BRANCH  17  19
ATOM     19  C   UNL A   1      33.078  24.361  22.984  1.00  0.00     0.070 C 
ATOM     20  C   UNL A   1      31.022  25.838  22.841  1.00  0.00     0.039 C 
ATOM     21  C   UNL A   1      32.478  25.518  22.639  1.00  0.00    -0.071 C 
ATOM     22  C   UNL A   1      33.278  26.617  22.002  1.00  0.00     0.039 C 
ENDBRANCH  17  19
ENDBRANCH   8  17
ENDBRANCH   4   7
ENDBRANCH   2   3
ENDBRANCH   1   2
BRANCH   1  23
ATOM     23  C   UNL A   1      33.561  28.207  27.375  1.00  0.00     0.118 C 
BRANCH  23  24
ATOM     24  N   UNL A   1      33.495  29.650  27.559  1.00  0.00    -0.352 N 
ATOM     25  C   UNL A   1      34.425  30.503  28.101  1.00  0.00     0.251 C 
ATOM     26  H   UNL A   1      32.661  30.076  27.250  1.00  0.00     0.163 HD
ATOM     27  O   UNL A   1      34.097  31.642  28.415  1.00  0.00    -0.269 OA
BRANCH  25  28
ATOM     28  C   UNL A   1      35.813  30.038  28.315  1.00  0.00     0.039 A 
ATOM     29  C   UNL A   1      36.719  30.078  27.252  1.00  0.00     0.014 A 
ATOM     30  C   UNL A   1      36.216  29.555  29.562  1.00  0.00     0.014 A 
ATOM     31  C   UNL A   1      38.046  29.698  27.461  1.00  0.00     0.010 A 
ATOM     32  C   UNL A   1      37.555  29.261  29.791  1.00  0.00     0.010 A 
ATOM     33  C   UNL A   1      38.485  29.322  28.742  1.00  0.00    -0.014 A 
BRANCH  33  34
ATOM     34  C   UNL A   1      39.906  28.985  29.014  1.00  0.00     0.031 A 
ATOM     35  C   UNL A   1      40.837  30.040  29.547  1.00  0.00     0.074 A 
ATOM     36  C   UNL A   1      40.373  27.759  28.705  1.00  0.00     0.049 A 
ATOM     37  N   UNL A   1      42.129  29.980  29.743  1.00  0.00    -0.248 NA
ATOM     38  C   UNL A   1      40.242  31.346  29.876  1.00  0.00     0.031 C 
ATOM     39  C   UNL A   1      39.575  26.666  28.146  1.00  0.00     0.029 A 
ATOM     40  N   UNL A   1      41.636  27.230  28.801  1.00  0.00    -0.354 N 
ATOM     41  C   UNL A   1      42.503  31.239  30.198  1.00  0.00     0.074 A 
ATOM     42  C   UNL A   1      41.312  32.060  30.198  1.00  0.00     0.031 C 
ATOM     43  C   UNL A   1      40.363  25.593  27.963  1.00  0.00     0.029 A 
ATOM     44  C   UNL A   1      41.729  25.935  28.347  1.00  0.00     0.049 A 
ATOM     45  H   UNL A   1      42.403  27.730  29.161  1.00  0.00     0.167 HD
ATOM     46  C   UNL A   1      43.723  31.665  30.600  1.00  0.00     0.037 A 
ATOM     47  C   UNL A   1      42.797  25.121  28.234  1.00  0.00     0.037 A 
ATOM     48  C   UNL A   1      44.898  30.833  30.617  1.00  0.00     0.049 A 
ATOM     49  C   UNL A   1      44.147  25.623  28.670  1.00  0.00     0.074 A 
ATOM     50  C   UNL A   1      46.170  31.151  31.059  1.00  0.00     0.029 A 
ATOM     51  N   UNL A   1      44.947  29.521  30.167  1.00  0.00    -0.354 N 
ATOM     52  N   UNL A   1      44.472  26.797  29.157  1.00  0.00    -0.248 NA
ATOM     53  C   UNL A   1      45.277  24.692  28.546  1.00  0.00     0.031 C 
ATOM     54  C   UNL A   1      47.001  30.050  30.826  1.00  0.00     0.029 A 
ATOM     55  C   UNL A   1      46.234  29.025  30.298  1.00  0.00     0.049 A 
ATOM     56  H   UNL A   1      44.182  29.017  29.809  1.00  0.00     0.167 HD
ATOM     57  C   UNL A   1      45.835  26.735  29.427  1.00  0.00     0.074 A 
ATOM     58  C   UNL A   1      46.272  25.404  29.057  1.00  0.00     0.031 C 
ATOM     59  C   UNL A   1      46.649  27.691  29.938  1.00  0.00     0.037 A 
BRANCH  46  60
ATOM     60  C   UNL A   1      43.852  33.094  31.057  1.00  0.00     0.058 A 
ATOM     61  C   UNL A   1      44.132  34.135  30.157  1.00  0.00     0.135 A 
ATOM     62  C   UNL A   1      43.652  33.434  32.406  1.00  0.00     0.135 A 
ATOM     63  F   UNL A   1      44.346  33.869  28.859  1.00  0.00    -0.206 F 
ATOM     64  C   UNL A   1      44.240  35.455  30.581  1.00  0.00     0.059 A 
ATOM     65  C   UNL A   1      43.724  34.752  32.847  1.00  0.00     0.059 A 
ATOM     66  F   UNL A   1      43.382  32.479  33.310  1.00  0.00    -0.206 F 
ATOM     67  C   UNL A   1      44.033  35.754  31.929  1.00  0.00     0.060 A 
BRANCH  67  68
ATOM     68  S   UNL A   1      44.168  37.474  32.459  1.00  0.00     0.124 S 
ATOM     69  O   UNL A   1      45.543  37.520  32.948  1.00  0.00    -0.237 OA
ATOM     70  O   UNL A   1      43.912  38.202  31.220  1.00  0.00    -0.237 OA
ATOM     71  O   UNL A   1      43.134  37.598  33.481  1.00  0.00    -0.744 OA
ENDBRANCH  67  68
ENDBRANCH  46  60
BRANCH  47  72
ATOM     72  C   UNL A   1      42.630  23.743  27.695  1.00  0.00     0.058 A 
ATOM     73  C   UNL A   1      42.466  22.647  28.555  1.00  0.00     0.135 A 
ATOM     74  C   UNL A   1      42.619  23.495  26.314  1.00  0.00     0.135 A 
ATOM     75  F   UNL A   1      42.475  22.830  29.884  1.00  0.00    -0.206 F 
ATOM     76  C   UNL A   1      42.316  21.353  28.067  1.00  0.00     0.059 A 
ATOM     77  C   UNL A   1      42.442  22.214  25.800  1.00  0.00     0.059 A 
ATOM     78  F   UNL A   1      42.755  24.511  25.446  1.00  0.00    -0.206 F 
ATOM     79  C   UNL A   1      42.301  21.147  26.686  1.00  0.00     0.060 A 
BRANCH  79  80
ATOM     80  S   UNL A   1      42.060  19.469  26.064  1.00  0.00     0.124 S 
ATOM     81  O   UNL A   1      42.466  18.669  27.212  1.00  0.00    -0.237 OA
ATOM     82  O   UNL A   1      40.634  19.462  25.751  1.00  0.00    -0.237 OA
ATOM     83  O   UNL A   1      42.948  19.410  24.907  1.00  0.00    -0.744 OA
ENDBRANCH  79  80
ENDBRANCH  47  72
BRANCH  59  84
ATOM     84  C   UNL A   1      48.091  27.328  30.172  1.00  0.00     0.058 A 
ATOM     85  C   UNL A   1      49.078  27.546  29.201  1.00  0.00     0.135 A 
ATOM     86  C   UNL A   1      48.497  26.823  31.419  1.00  0.00     0.135 A 
ATOM     87  F   UNL A   1      48.743  28.019  27.990  1.00  0.00    -0.206 F 
ATOM     88  C   UNL A   1      50.417  27.263  29.451  1.00  0.00     0.059 A 
ATOM     89  C   UNL A   1      49.834  26.563  31.701  1.00  0.00     0.059 A 
ATOM     90  F   UNL A   1      47.594  26.604  32.389  1.00  0.00    -0.206 F 
ATOM     91  C   UNL A   1      50.786  26.778  30.708  1.00  0.00     0.060 A 
BRANCH  91  92
ATOM     92  S   UNL A   1      52.534  26.468  31.034  1.00  0.00     0.124 S 
ATOM     93  O   UNL A   1      53.079  26.405  29.682  1.00  0.00    -0.237 OA
ATOM     94  O   UNL A   1      52.917  27.638  31.818  1.00  0.00    -0.237 OA
ATOM     95  O   UNL A   1      52.525  25.205  31.766  1.00  0.00    -0.744 OA
ENDBRANCH  91  92
ENDBRANCH  59  84
ENDBRANCH  33  34
ENDBRANCH  25  28
ENDBRANCH  23  24
ENDBRANCH   1  23
TORSDOF 15
ENDMDL
MODEL 2
REMARK VINA RESULT:     -11.7      2.797      3.893
REMARK SMILES CC(C)=CC(=O)N1[C@H](C(=O)NCCCNC(=O)c2ccc(-c3c4nc(c(-c5c(F)cc(S(=O)(=O)[O-])cc5F)c5ccc([nH]5)c(-c5c(F)cc(S(=O)(=O)[O-])cc5F)c5nc(c(-c6c(F)cc(S(=O)(=O)[O-])cc6F)c6ccc3[nH]6)C=C5)C=C4)cc2)COC12CCCCC2
REMARK SMILES IDX 13 1 12 2 11 3 9 4 10 5 8 7 7 8 86 9 84 10 85 11 87 12 91 13
REMARK SMILES IDX 88 14 90 15 89 16 5 17 6 18 4 19 1 20 2 21 3 22 14 23 15 24
REMARK SMILES IDX 16 25 17 27 18 28 19 29 83 30 20 31 82 32 21 33 22 34 23 35
REMARK SMILES IDX 76 36 24 37 81 38 75 39 77 40 25 41 80 42 74 43 73 44 26 46
REMARK SMILES IDX 60 47 39 48 59 49 40 50 43 51 58 52 78 53 41 54 42 55 57 57
REMARK SMILES IDX 79 58 44 59 27 60 28 61 37 62 29 63 30 64 36 65 38 66 31 67
REMARK SMILES IDX 32 68 33 69 34 70 35 71 61 72 62 73 71 74 63 75 64 76 70 77
REMARK SMILES IDX 72 78 65 79 66 80 67 81 68 82 69 83 45 84 46 85 55 86 47 87
REMARK SMILES IDX 48 88 54 89 56 90 49 91 50 92 51 93 52 94 53 95
REMARK H PARENT 11 6 15 26 77 45 43 56
REMARK Flexibility Score: inf
ROOT
ATOM      1  C   UNL A   1      33.752  29.117  27.236  1.00  0.00     0.042 C 
ENDROOT
BRANCH   1   2
ATOM      2  C   UNL A   1      33.008  29.991  26.235  1.00  0.00     0.117 C 
BRANCH   2   3
ATOM      3  N   UNL A   1      33.415  29.737  24.869  1.00  0.00    -0.354 N 
ATOM      4  C   UNL A   1      33.262  28.686  24.019  1.00  0.00     0.245 C 
ATOM      5  O   UNL A   1      33.450  29.017  22.845  1.00  0.00    -0.273 OA
ATOM      6  H   UNL A   1      33.912  30.488  24.469  1.00  0.00     0.163 HD
BRANCH   4   7
ATOM      7  C   UNL A   1      32.697  27.291  24.444  1.00  0.00     0.203 C 
ATOM      8  N   UNL A   1      31.900  26.433  23.536  1.00  0.00    -0.296 N 
ATOM      9  C   UNL A   1      32.232  25.016  23.735  1.00  0.00     0.144 C 
ATOM     10  C   UNL A   1      33.795  26.318  24.825  1.00  0.00     0.198 C 
ATOM     11  O   UNL A   1      33.212  25.020  24.792  1.00  0.00    -0.353 OA
ATOM     12  C   UNL A   1      31.127  24.087  24.266  1.00  0.00     0.059 C 
ATOM     13  C   UNL A   1      32.894  24.421  22.475  1.00  0.00     0.059 C 
ATOM     14  C   UNL A   1      31.627  22.654  24.482  1.00  0.00     0.005 C 
ATOM     15  C   UNL A   1      33.354  22.977  22.678  1.00  0.00     0.005 C 
ATOM     16  C   UNL A   1      32.228  22.091  23.199  1.00  0.00     0.000 C 
BRANCH   8  17
ATOM     17  C   UNL A   1      31.023  26.934  22.605  1.00  0.00     0.249 C 
ATOM     18  O   UNL A   1      31.224  26.980  21.397  1.00  0.00    -0.270 OA
BRANCH  17  19
ATOM     19  C   UNL A   1      29.687  27.397  23.031  1.00  0.00     0.070 C 
ATOM     20  C   UNL A   1      29.997  29.783  22.233  1.00  0.00     0.039 C 
ATOM     21  C   UNL A   1      29.206  28.634  22.796  1.00  0.00    -0.071 C 
ATOM     22  C   UNL A   1      27.768  28.950  23.095  1.00  0.00     0.039 C 
ENDBRANCH  17  19
ENDBRANCH   8  17
ENDBRANCH   4   7
ENDBRANCH   2   3
ENDBRANCH   1   2
BRANCH   1  23
ATOM     23  C   UNL A   1      35.162  29.611  27.536  1.00  0.00     0.118 C 
BRANCH  23  24
ATOM     24  N   UNL A   1      35.217  30.379  28.772  1.00  0.00    -0.352 N 
ATOM     25  C   UNL A   1      36.220  30.454  29.707  1.00  0.00     0.251 C 
ATOM     26  H   UNL A   1      34.419  30.923  28.965  1.00  0.00     0.163 HD
ATOM     27  O   UNL A   1      35.991  30.942  30.808  1.00  0.00    -0.269 OA
BRANCH  25  28
ATOM     28  C   UNL A   1      37.567  29.934  29.385  1.00  0.00     0.039 A 
ATOM     29  C   UNL A   1      37.990  29.911  28.053  1.00  0.00     0.014 A 
ATOM     30  C   UNL A   1      38.408  29.463  30.396  1.00  0.00     0.014 A 
ATOM     31  C   UNL A   1      39.282  29.478  27.746  1.00  0.00     0.010 A 
ATOM     32  C   UNL A   1      39.721  29.116  30.100  1.00  0.00     0.010 A 
ATOM     33  C   UNL A   1      40.171  29.113  28.771  1.00  0.00    -0.014 A 
BRANCH  33  34
ATOM     34  C   UNL A   1      41.576  28.721  28.484  1.00  0.00     0.031 A 
ATOM     35  C   UNL A   1      42.655  29.769  28.453  1.00  0.00     0.074 A 
ATOM     36  C   UNL A   1      41.862  27.441  28.173  1.00  0.00     0.049 A 
ATOM     37  N   UNL A   1      43.912  29.651  28.114  1.00  0.00    -0.248 NA
ATOM     38  C   UNL A   1      42.261  31.139  28.824  1.00  0.00     0.031 C 
ATOM     39  C   UNL A   1      40.893  26.343  28.131  1.00  0.00     0.029 A 
ATOM     40  N   UNL A   1      43.048  26.849  27.816  1.00  0.00    -0.354 N 
ATOM     41  C   UNL A   1      44.453  30.928  28.212  1.00  0.00     0.074 A 
ATOM     42  C   UNL A   1      43.376  31.816  28.589  1.00  0.00     0.031 C 
ATOM     43  C   UNL A   1      41.525  25.210  27.785  1.00  0.00     0.029 A 
ATOM     44  C   UNL A   1      42.932  25.507  27.534  1.00  0.00     0.049 A 
ATOM     45  H   UNL A   1      43.900  27.337  27.766  1.00  0.00     0.167 HD
ATOM     46  C   UNL A   1      45.736  31.319  28.026  1.00  0.00     0.037 A 
ATOM     47  C   UNL A   1      43.851  24.621  27.103  1.00  0.00     0.037 A 
ATOM     48  C   UNL A   1      46.805  30.423  27.671  1.00  0.00     0.049 A 
ATOM     49  C   UNL A   1      45.266  25.083  26.886  1.00  0.00     0.074 A 
ATOM     50  C   UNL A   1      48.150  30.709  27.515  1.00  0.00     0.029 A 
ATOM     51  N   UNL A   1      46.652  29.068  27.414  1.00  0.00    -0.354 N 
ATOM     52  N   UNL A   1      45.775  26.282  27.043  1.00  0.00    -0.248 NA
ATOM     53  C   UNL A   1      46.236  24.075  26.435  1.00  0.00     0.031 C 
ATOM     54  C   UNL A   1      48.801  29.539  27.109  1.00  0.00     0.029 A 
ATOM     55  C   UNL A   1      47.873  28.510  27.074  1.00  0.00     0.049 A 
ATOM     56  H   UNL A   1      45.801  28.576  27.465  1.00  0.00     0.167 HD
ATOM     57  C   UNL A   1      47.128  26.166  26.743  1.00  0.00     0.074 A 
ATOM     58  C   UNL A   1      47.360  24.777  26.403  1.00  0.00     0.031 C 
ATOM     59  C   UNL A   1      48.090  27.121  26.752  1.00  0.00     0.037 A 
BRANCH  46  60
ATOM     60  C   UNL A   1      46.056  32.780  28.203  1.00  0.00     0.058 A 
ATOM     61  C   UNL A   1      46.469  33.303  29.439  1.00  0.00     0.135 A 
ATOM     62  C   UNL A   1      45.988  33.663  27.111  1.00  0.00     0.135 A 
ATOM     63  F   UNL A   1      46.538  32.510  30.519  1.00  0.00    -0.206 F 
ATOM     64  C   UNL A   1      46.772  34.651  29.595  1.00  0.00     0.059 A 
ATOM     65  C   UNL A   1      46.318  35.009  27.236  1.00  0.00     0.059 A 
ATOM     66  F   UNL A   1      45.599  33.218  25.905  1.00  0.00    -0.206 F 
ATOM     67  C   UNL A   1      46.695  35.497  28.487  1.00  0.00     0.060 A 
BRANCH  67  68
ATOM     68  S   UNL A   1      47.102  37.241  28.706  1.00  0.00     0.124 S 
ATOM     69  O   UNL A   1      46.350  37.854  27.615  1.00  0.00    -0.237 OA
ATOM     70  O   UNL A   1      46.600  37.511  30.050  1.00  0.00    -0.237 OA
ATOM     71  O   UNL A   1      48.554  37.274  28.564  1.00  0.00    -0.744 OA
ENDBRANCH  67  68
ENDBRANCH  46  60
BRANCH  47  72
ATOM     72  C   UNL A   1      43.463  23.203  26.861  1.00  0.00     0.058 A 
ATOM     73  C   UNL A   1      43.172  22.342  27.929  1.00  0.00     0.135 A 
ATOM     74  C   UNL A   1      43.364  22.686  25.560  1.00  0.00     0.135 A 
ATOM     75  F   UNL A   1      43.258  22.787  29.192  1.00  0.00    -0.206 F 
ATOM     76  C   UNL A   1      42.815  21.014  27.719  1.00  0.00     0.059 A 
ATOM     77  C   UNL A   1      42.980  21.369  25.322  1.00  0.00     0.059 A 
ATOM     78  F   UNL A   1      43.614  23.472  24.501  1.00  0.00    -0.206 F 
ATOM     79  C   UNL A   1      42.718  20.538  26.410  1.00  0.00     0.060 A 
BRANCH  79  80
ATOM     80  S   UNL A   1      42.210  18.825  26.149  1.00  0.00     0.124 S 
ATOM     81  O   UNL A   1      42.449  18.243  27.463  1.00  0.00    -0.237 OA
ATOM     82  O   UNL A   1      40.810  18.977  25.762  1.00  0.00    -0.237 OA
ATOM     83  O   UNL A   1      43.100  18.370  25.085  1.00  0.00    -0.744 OA
ENDBRANCH  79  80
ENDBRANCH  47  72
BRANCH  59  84
ATOM     84  C   UNL A   1      49.497  26.697  26.426  1.00  0.00     0.058 A 
ATOM     85  C   UNL A   1      50.321  26.070  27.373  1.00  0.00     0.135 A 
ATOM     86  C   UNL A   1      49.997  26.855  25.123  1.00  0.00     0.135 A 
ATOM     87  F   UNL A   1      49.894  25.901  28.634  1.00  0.00    -0.206 F 
ATOM     88  C   UNL A   1      51.598  25.627  27.043  1.00  0.00     0.059 A 
ATOM     89  C   UNL A   1      51.259  26.392  24.763  1.00  0.00     0.059 A 
ATOM     90  F   UNL A   1      49.247  27.441  24.175  1.00  0.00    -0.206 F 
ATOM     91  C   UNL A   1      52.056  25.787  25.733  1.00  0.00     0.060 A 
BRANCH  91  92
ATOM     92  S   UNL A   1      53.693  25.158  25.308  1.00  0.00     0.124 S 
ATOM     93  O   UNL A   1      53.492  23.716  25.419  1.00  0.00    -0.237 OA
ATOM     94  O   UNL A   1      53.882  25.669  23.955  1.00  0.00    -0.237 OA
ATOM     95  O   UNL A   1      54.559  25.750  26.323  1.00  0.00    -0.744 OA
ENDBRANCH  91  92
ENDBRANCH  59  84
ENDBRANCH  33  34
ENDBRANCH  25  28
ENDBRANCH  23  24
ENDBRANCH   1  23
TORSDOF 15
ENDMDL
MODEL 3
REMARK VINA RESULT:     -11.7      0.994      1.883
REMARK SMILES CC(C)=CC(=O)N1[C@H](C(=O)NCCCNC(=O)c2ccc(-c3c4nc(c(-c5c(F)cc(S(=O)(=O)[O-])cc5F)c5ccc([nH]5)c(-c5c(F)cc(S(=O)(=O)[O-])cc5F)c5nc(c(-c6c(F)cc(S(=O)(=O)[O-])cc6F)c6ccc3[nH]6)C=C5)C=C4)cc2)COC12CCCCC2
REMARK SMILES IDX 13 1 12 2 11 3 9 4 10 5 8 7 7 8 86 9 84 10 85 11 87 12 91 13
REMARK SMILES IDX 88 14 90 15 89 16 5 17 6 18 4 19 1 20 2 21 3 22 14 23 15 24
REMARK SMILES IDX 16 25 17 27 18 28 19 29 83 30 20 31 82 32 21 33 22 34 23 35
REMARK SMILES IDX 76 36 24 37 81 38 75 39 77 40 25 41 80 42 74 43 73 44 26 46
REMARK SMILES IDX 60 47 39 48 59 49 40 50 43 51 58 52 78 53 41 54 42 55 57 57
REMARK SMILES IDX 79 58 44 59 27 60 28 61 37 62 29 63 30 64 36 65 38 66 31 67
REMARK SMILES IDX 32 68 33 69 34 70 35 71 61 72 62 73 71 74 63 75 64 76 70 77
REMARK SMILES IDX 72 78 65 79 66 80 67 81 68 82 69 83 45 84 46 85 55 86 47 87
REMARK SMILES IDX 48 88 54 89 56 90 49 91 50 92 51 93 52 94 53 95
REMARK H PARENT 11 6 15 26 77 45 43 56
REMARK Flexibility Score: inf
ROOT
ATOM      1  C   UNL A   1      33.309  28.145  25.030  1.00  0.00     0.042 C 
ENDROOT
BRANCH   1   2
ATOM      2  C   UNL A   1      32.266  27.046  24.868  1.00  0.00     0.117 C 
BRANCH   2   3
ATOM      3  N   UNL A   1      31.998  26.351  26.110  1.00  0.00    -0.354 N 
ATOM      4  C   UNL A   1      31.804  25.045  26.437  1.00  0.00     0.245 C 
ATOM      5  O   UNL A   1      31.958  24.850  27.646  1.00  0.00    -0.273 OA
ATOM      6  H   UNL A   1      31.944  26.956  26.886  1.00  0.00     0.163 HD
BRANCH   4   7
ATOM      7  C   UNL A   1      31.634  23.896  25.391  1.00  0.00     0.203 C 
ATOM      8  N   UNL A   1      32.779  23.261  24.696  1.00  0.00    -0.296 N 
ATOM      9  C   UNL A   1      32.549  21.820  24.525  1.00  0.00     0.144 C 
ATOM     10  C   UNL A   1      30.977  22.667  25.987  1.00  0.00     0.198 C 
ATOM     11  O   UNL A   1      31.242  21.594  25.091  1.00  0.00    -0.353 OA
ATOM     12  C   UNL A   1      32.423  21.278  23.091  1.00  0.00     0.059 C 
ATOM     13  C   UNL A   1      33.569  20.997  25.337  1.00  0.00     0.059 C 
ATOM     14  C   UNL A   1      32.126  19.775  23.062  1.00  0.00     0.005 C 
ATOM     15  C   UNL A   1      33.297  19.494  25.273  1.00  0.00     0.005 C 
ATOM     16  C   UNL A   1      33.186  18.998  23.836  1.00  0.00     0.000 C 
BRANCH   8  17
ATOM     17  C   UNL A   1      33.911  23.947  24.331  1.00  0.00     0.249 C 
ATOM     18  O   UNL A   1      34.056  24.564  23.283  1.00  0.00    -0.270 OA
BRANCH  17  19
ATOM     19  C   UNL A   1      35.044  24.047  25.274  1.00  0.00     0.070 C 
ATOM     20  C   UNL A   1      36.628  22.634  23.888  1.00  0.00     0.039 C 
ATOM     21  C   UNL A   1      36.268  23.531  25.040  1.00  0.00    -0.071 C 
ATOM     22  C   UNL A   1      37.406  23.849  25.968  1.00  0.00     0.039 C 
ENDBRANCH  17  19
ENDBRANCH   8  17
ENDBRANCH   4   7
ENDBRANCH   2   3
ENDBRANCH   1   2
BRANCH   1  23
ATOM     23  C   UNL A   1      33.804  28.300  26.463  1.00  0.00     0.118 C 
BRANCH  23  24
ATOM     24  N   UNL A   1      33.650  29.664  26.946  1.00  0.00    -0.352 N 
ATOM     25  C   UNL A   1      34.469  30.393  27.774  1.00  0.00     0.251 C 
ATOM     26  H   UNL A   1      32.841  30.133  26.634  1.00  0.00     0.163 HD
ATOM     27  O   UNL A   1      34.054  31.428  28.284  1.00  0.00    -0.269 OA
BRANCH  25  28
ATOM     28  C   UNL A   1      35.841  29.918  28.056  1.00  0.00     0.039 A 
ATOM     29  C   UNL A   1      36.803  29.970  27.045  1.00  0.00     0.014 A 
ATOM     30  C   UNL A   1      36.174  29.414  29.316  1.00  0.00     0.014 A 
ATOM     31  C   UNL A   1      38.116  29.580  27.319  1.00  0.00     0.010 A 
ATOM     32  C   UNL A   1      37.497  29.109  29.612  1.00  0.00     0.010 A 
ATOM     33  C   UNL A   1      38.482  29.183  28.616  1.00  0.00    -0.014 A 
BRANCH  33  34
ATOM     34  C   UNL A   1      39.885  28.834  28.960  1.00  0.00     0.031 A 
ATOM     35  C   UNL A   1      40.789  29.874  29.564  1.00  0.00     0.074 A 
ATOM     36  C   UNL A   1      40.364  27.612  28.654  1.00  0.00     0.049 A 
ATOM     37  N   UNL A   1      42.068  29.805  29.829  1.00  0.00    -0.248 NA
ATOM     38  C   UNL A   1      40.181  31.177  29.884  1.00  0.00     0.031 C 
ATOM     39  C   UNL A   1      39.596  26.533  28.031  1.00  0.00     0.029 A 
ATOM     40  N   UNL A   1      41.619  27.076  28.810  1.00  0.00    -0.354 N 
ATOM     41  C   UNL A   1      42.420  31.054  30.328  1.00  0.00     0.074 A 
ATOM     42  C   UNL A   1      41.234  31.879  30.278  1.00  0.00     0.031 C 
ATOM     43  C   UNL A   1      40.388  25.461  27.872  1.00  0.00     0.029 A 
ATOM     44  C   UNL A   1      41.732  25.789  28.336  1.00  0.00     0.049 A 
ATOM     45  H   UNL A   1      42.366  27.566  29.221  1.00  0.00     0.167 HD
ATOM     46  C   UNL A   1      43.618  31.467  30.805  1.00  0.00     0.037 A 
ATOM     47  C   UNL A   1      42.803  24.973  28.268  1.00  0.00     0.037 A 
ATOM     48  C   UNL A   1      44.788  30.629  30.870  1.00  0.00     0.049 A 
ATOM     49  C   UNL A   1      44.128  25.460  28.787  1.00  0.00     0.074 A 
ATOM     50  C   UNL A   1      46.034  30.934  31.388  1.00  0.00     0.029 A 
ATOM     51  N   UNL A   1      44.857  29.326  30.400  1.00  0.00    -0.354 N 
ATOM     52  N   UNL A   1      44.429  26.624  29.313  1.00  0.00    -0.248 NA
ATOM     53  C   UNL A   1      45.259  24.527  28.707  1.00  0.00     0.031 C 
ATOM     54  C   UNL A   1      46.873  29.833  31.181  1.00  0.00     0.029 A 
ATOM     55  C   UNL A   1      46.133  28.822  30.592  1.00  0.00     0.049 A 
ATOM     56  H   UNL A   1      44.111  28.832  29.990  1.00  0.00     0.167 HD
ATOM     57  C   UNL A   1      45.775  26.550  29.656  1.00  0.00     0.074 A 
ATOM     58  C   UNL A   1      46.227  25.224  29.286  1.00  0.00     0.031 C 
ATOM     59  C   UNL A   1      46.563  27.493  30.230  1.00  0.00     0.037 A 
BRANCH  46  60
ATOM     60  C   UNL A   1      43.726  32.887  31.295  1.00  0.00     0.058 A 
ATOM     61  C   UNL A   1      44.062  33.942  30.432  1.00  0.00     0.135 A 
ATOM     62  C   UNL A   1      43.450  33.202  32.636  1.00  0.00     0.135 A 
ATOM     63  F   UNL A   1      44.350  33.699  29.144  1.00  0.00    -0.206 F 
ATOM     64  C   UNL A   1      44.151  35.254  30.887  1.00  0.00     0.059 A 
ATOM     65  C   UNL A   1      43.502  34.512  33.106  1.00  0.00     0.059 A 
ATOM     66  F   UNL A   1      43.124  32.233  33.505  1.00  0.00    -0.206 F 
ATOM     67  C   UNL A   1      43.868  35.529  32.226  1.00  0.00     0.060 A 
BRANCH  67  68
ATOM     68  S   UNL A   1      43.979  37.238  32.795  1.00  0.00     0.124 S 
ATOM     69  O   UNL A   1      43.822  37.972  31.544  1.00  0.00    -0.237 OA
ATOM     70  O   UNL A   1      42.859  37.328  33.727  1.00  0.00    -0.237 OA
ATOM     71  O   UNL A   1      45.304  37.310  33.402  1.00  0.00    -0.744 OA
ENDBRANCH  67  68
ENDBRANCH  46  60
BRANCH  47  72
ATOM     72  C   UNL A   1      42.661  23.606  27.694  1.00  0.00     0.058 A 
ATOM     73  C   UNL A   1      42.418  22.498  28.520  1.00  0.00     0.135 A 
ATOM     74  C   UNL A   1      42.752  23.380  26.312  1.00  0.00     0.135 A 
ATOM     75  F   UNL A   1      42.328  22.660  29.849  1.00  0.00    -0.206 F 
ATOM     76  C   UNL A   1      42.291  21.214  28.000  1.00  0.00     0.059 A 
ATOM     77  C   UNL A   1      42.600  22.110  25.765  1.00  0.00     0.059 A 
ATOM     78  F   UNL A   1      42.966  24.408  25.474  1.00  0.00    -0.206 F 
ATOM     79  C   UNL A   1      42.379  21.031  26.619  1.00  0.00     0.060 A 
BRANCH  79  80
ATOM     80  S   UNL A   1      42.166  19.366  25.952  1.00  0.00     0.124 S 
ATOM     81  O   UNL A   1      43.003  19.417  24.760  1.00  0.00    -0.237 OA
ATOM     82  O   UNL A   1      42.660  18.534  27.045  1.00  0.00    -0.237 OA
ATOM     83  O   UNL A   1      40.729  19.283  25.712  1.00  0.00    -0.744 OA
ENDBRANCH  79  80
ENDBRANCH  47  72
BRANCH  59  84
ATOM     84  C   UNL A   1      47.988  27.119  30.537  1.00  0.00     0.058 A 
ATOM     85  C   UNL A   1      49.042  27.438  29.668  1.00  0.00     0.135 A 
ATOM     86  C   UNL A   1      48.307  26.498  31.756  1.00  0.00     0.135 A 
ATOM     87  F   UNL A   1      48.791  28.024  28.487  1.00  0.00    -0.206 F 
ATOM     88  C   UNL A   1      50.362  27.142  29.990  1.00  0.00     0.059 A 
ATOM     89  C   UNL A   1      49.623  26.221  32.112  1.00  0.00     0.059 A 
ATOM     90  F   UNL A   1      47.337  26.180  32.628  1.00  0.00    -0.206 F 
ATOM     91  C   UNL A   1      50.644  26.540  31.219  1.00  0.00     0.060 A 
BRANCH  91  92
ATOM     92  S   UNL A   1      52.367  26.212  31.645  1.00  0.00     0.124 S 
ATOM     93  O   UNL A   1      52.279  24.870  32.211  1.00  0.00    -0.237 OA
ATOM     94  O   UNL A   1      53.033  26.312  30.351  1.00  0.00    -0.237 OA
ATOM     95  O   UNL A   1      52.690  27.273  32.594  1.00  0.00    -0.744 OA
ENDBRANCH  91  92
ENDBRANCH  59  84
ENDBRANCH  33  34
ENDBRANCH  25  28
ENDBRANCH  23  24
ENDBRANCH   1  23
TORSDOF 15
ENDMDL
