MODEL 1
REMARK VINA RESULT:     -12.8      0.000      0.000
REMARK SMILES CCCc1nn(-c2ccc(OC)cc2)c2sc(C(=O)NCCCNC(=O)c3ccc(-c4c5nc(c(-c6c(F)cc(S(=O)(=O)[O-])cc6F)c6ccc([nH]6)c(-c6c(F)cc(S(=O)(=O)[O-])cc6F)c6nc(c(-c7c(F)cc(S(=O)(=O)[O-])cc7F)c7ccc4[nH]7)C=C6)C=C5)cc3)cc12
REMARK SMILES IDX 22 1 21 2 20 3 18 4 19 5 17 7 4 8 5 9 94 10 6 11 15 12 93 13
REMARK SMILES IDX 16 14 3 15 2 16 1 17 7 18 8 19 14 20 9 21 13 22 10 23 11 24
REMARK SMILES IDX 12 25 23 26 24 27 25 28 26 30 27 31 28 32 92 33 29 34 91 35
REMARK SMILES IDX 30 36 31 37 32 38 85 39 33 40 90 41 84 42 86 43 34 44 89 45
REMARK SMILES IDX 83 46 82 47 35 49 69 50 48 51 68 52 49 53 52 54 67 55 87 56
REMARK SMILES IDX 50 57 51 58 66 60 88 61 53 62 36 63 37 64 46 65 38 66 39 67
REMARK SMILES IDX 45 68 47 69 40 70 41 71 42 72 43 73 44 74 70 75 71 76 80 77
REMARK SMILES IDX 72 78 73 79 79 80 81 81 74 82 75 83 76 84 77 85 78 86 54 87
REMARK SMILES IDX 55 88 64 89 56 90 57 91 63 92 65 93 58 94 59 95 60 96 61 97
REMARK SMILES IDX 62 98
REMARK H PARENT 20 6 24 29 86 48 52 59
REMARK Flexibility Score: inf
ROOT
ATOM      1  C   UNL A   1      36.766  22.176  25.231  1.00  0.00     0.042 C 
ENDROOT
BRANCH   1   2
ATOM      2  C   UNL A   1      35.704  23.078  24.574  1.00  0.00     0.118 C 
BRANCH   2   3
ATOM      3  N   UNL A   1      34.357  22.504  24.558  1.00  0.00    -0.351 N 
ATOM      4  C   UNL A   1      33.102  23.088  24.486  1.00  0.00     0.261 C 
ATOM      5  O   UNL A   1      32.163  22.331  24.235  1.00  0.00    -0.268 OA
ATOM      6  H   UNL A   1      34.339  21.521  24.606  1.00  0.00     0.163 HD
BRANCH   4   7
ATOM      7  C   UNL A   1      32.894  24.523  24.660  1.00  0.00     0.095 A 
ATOM      8  C   UNL A   1      32.855  27.932  26.091  1.00  0.00     0.072 A 
ATOM      9  N   UNL A   1      32.118  28.795  25.321  1.00  0.00    -0.171 NA
ATOM     10  C   UNL A   1      32.817  26.651  25.532  1.00  0.00     0.035 A 
ATOM     11  N   UNL A   1      31.591  28.004  24.341  1.00  0.00    -0.223 N 
ATOM     12  C   UNL A   1      32.126  26.770  24.410  1.00  0.00     0.128 A 
ATOM     13  C   UNL A   1      33.279  25.343  25.742  1.00  0.00     0.038 A 
ATOM     14  S   UNL A   1      32.206  25.483  23.404  1.00  0.00    -0.110 S 
BRANCH   8  15
ATOM     15  C   UNL A   1      33.561  28.466  27.295  1.00  0.00     0.058 C 
BRANCH  15  16
ATOM     16  C   UNL A   1      34.951  29.065  27.068  1.00  0.00     0.003 C 
ATOM     17  C   UNL A   1      35.509  29.811  28.273  1.00  0.00     0.004 C 
ENDBRANCH  15  16
ENDBRANCH   8  15
BRANCH  11  18
ATOM     18  C   UNL A   1      30.608  28.366  23.398  1.00  0.00     0.066 A 
ATOM     19  C   UNL A   1      30.951  29.330  22.432  1.00  0.00     0.032 A 
ATOM     20  C   UNL A   1      29.275  28.033  23.621  1.00  0.00     0.032 A 
ATOM     21  C   UNL A   1      29.957  29.988  21.718  1.00  0.00     0.048 A 
ATOM     22  C   UNL A   1      28.278  28.728  22.915  1.00  0.00     0.048 A 
ATOM     23  C   UNL A   1      28.615  29.709  21.971  1.00  0.00     0.119 A 
BRANCH  23  24
ATOM     24  O   UNL A   1      27.747  30.479  21.250  1.00  0.00    -0.497 OA
ATOM     25  C   UNL A   1      28.183  31.779  20.887  1.00  0.00     0.278 C 
ENDBRANCH  23  24
ENDBRANCH  11  18
ENDBRANCH   4   7
ENDBRANCH   2   3
ENDBRANCH   1   2
BRANCH   1  26
ATOM     26  C   UNL A   1      37.942  22.945  25.792  1.00  0.00     0.118 C 
BRANCH  26  27
ATOM     27  N   UNL A   1      38.889  22.080  26.495  1.00  0.00    -0.352 N 
ATOM     28  C   UNL A   1      40.113  22.424  27.044  1.00  0.00     0.251 C 
ATOM     29  H   UNL A   1      38.624  21.136  26.589  1.00  0.00     0.163 HD
ATOM     30  O   UNL A   1      40.952  21.575  27.279  1.00  0.00    -0.269 OA
BRANCH  28  31
ATOM     31  C   UNL A   1      40.370  23.851  27.312  1.00  0.00     0.039 A 
ATOM     32  C   UNL A   1      39.464  24.836  26.917  1.00  0.00     0.014 A 
ATOM     33  C   UNL A   1      41.494  24.175  28.062  1.00  0.00     0.014 A 
ATOM     34  C   UNL A   1      39.651  26.137  27.380  1.00  0.00     0.010 A 
ATOM     35  C   UNL A   1      41.563  25.401  28.673  1.00  0.00     0.010 A 
ATOM     36  C   UNL A   1      40.685  26.407  28.294  1.00  0.00    -0.014 A 
BRANCH  36  37
ATOM     37  C   UNL A   1      40.814  27.724  28.910  1.00  0.00     0.031 A 
ATOM     38  C   UNL A   1      41.882  28.595  28.345  1.00  0.00     0.074 A 
ATOM     39  C   UNL A   1      39.943  28.217  29.817  1.00  0.00     0.049 A 
ATOM     40  N   UNL A   1      43.018  28.888  28.884  1.00  0.00    -0.248 NA
ATOM     41  C   UNL A   1      41.733  29.092  26.970  1.00  0.00     0.031 C 
ATOM     42  C   UNL A   1      38.668  27.655  30.282  1.00  0.00     0.029 A 
ATOM     43  N   UNL A   1      39.993  29.410  30.467  1.00  0.00    -0.354 N 
ATOM     44  C   UNL A   1      43.640  29.786  28.020  1.00  0.00     0.074 A 
ATOM     45  C   UNL A   1      42.891  29.732  26.790  1.00  0.00     0.031 C 
ATOM     46  C   UNL A   1      37.968  28.601  30.946  1.00  0.00     0.029 A 
ATOM     47  C   UNL A   1      38.823  29.757  31.128  1.00  0.00     0.049 A 
ATOM     48  H   UNL A   1      40.794  29.982  30.470  1.00  0.00     0.167 HD
ATOM     49  C   UNL A   1      44.591  30.657  28.464  1.00  0.00     0.037 A 
ATOM     50  C   UNL A   1      38.571  30.915  31.786  1.00  0.00     0.037 A 
ATOM     51  C   UNL A   1      45.043  30.303  29.788  1.00  0.00     0.049 A 
ATOM     52  C   UNL A   1      39.890  31.494  32.147  1.00  0.00     0.074 A 
ATOM     53  C   UNL A   1      45.649  29.192  30.343  1.00  0.00     0.029 A 
ATOM     54  N   UNL A   1      44.527  31.013  30.846  1.00  0.00    -0.354 N 
ATOM     55  N   UNL A   1      40.720  30.941  32.990  1.00  0.00    -0.248 NA
ATOM     56  C   UNL A   1      40.487  32.451  31.228  1.00  0.00     0.031 C 
ATOM     57  C   UNL A   1      45.038  29.043  31.623  1.00  0.00     0.029 A 
ATOM     58  C   UNL A   1      44.150  30.105  31.803  1.00  0.00     0.049 A 
ATOM     59  H   UNL A   1      44.445  31.993  30.906  1.00  0.00     0.167 HD
ATOM     60  C   UNL A   1      41.977  31.140  32.438  1.00  0.00     0.074 A 
ATOM     61  C   UNL A   1      41.777  32.158  31.408  1.00  0.00     0.031 C 
ATOM     62  C   UNL A   1      43.005  30.272  32.675  1.00  0.00     0.037 A 
BRANCH  49  63
ATOM     63  C   UNL A   1      44.870  32.016  27.870  1.00  0.00     0.058 A 
ATOM     64  C   UNL A   1      46.127  32.270  27.281  1.00  0.00     0.135 A 
ATOM     65  C   UNL A   1      44.065  33.153  28.101  1.00  0.00     0.135 A 
ATOM     66  F   UNL A   1      46.978  31.265  27.023  1.00  0.00    -0.206 F 
ATOM     67  C   UNL A   1      46.579  33.564  27.010  1.00  0.00     0.059 A 
ATOM     68  C   UNL A   1      44.473  34.445  27.788  1.00  0.00     0.059 A 
ATOM     69  F   UNL A   1      42.888  33.075  28.733  1.00  0.00    -0.206 F 
ATOM     70  C   UNL A   1      45.748  34.645  27.283  1.00  0.00     0.060 A 
BRANCH  70  71
ATOM     71  S   UNL A   1      46.367  36.319  27.034  1.00  0.00     0.124 S 
ATOM     72  O   UNL A   1      46.857  36.245  25.662  1.00  0.00    -0.237 OA
ATOM     73  O   UNL A   1      45.166  37.121  27.244  1.00  0.00    -0.237 OA
ATOM     74  O   UNL A   1      47.392  36.454  28.065  1.00  0.00    -0.744 OA
ENDBRANCH  70  71
ENDBRANCH  49  63
BRANCH  50  75
ATOM     75  C   UNL A   1      37.305  31.689  31.808  1.00  0.00     0.058 A 
ATOM     76  C   UNL A   1      36.672  32.005  33.022  1.00  0.00     0.135 A 
ATOM     77  C   UNL A   1      36.850  32.381  30.667  1.00  0.00     0.135 A 
ATOM     78  F   UNL A   1      37.054  31.402  34.158  1.00  0.00    -0.206 F 
ATOM     79  C   UNL A   1      35.689  32.996  33.112  1.00  0.00     0.059 A 
ATOM     80  C   UNL A   1      35.866  33.367  30.731  1.00  0.00     0.059 A 
ATOM     81  F   UNL A   1      37.418  32.188  29.467  1.00  0.00    -0.206 F 
ATOM     82  C   UNL A   1      35.310  33.690  31.963  1.00  0.00     0.060 A 
BRANCH  82  83
ATOM     83  S   UNL A   1      34.188  35.100  32.109  1.00  0.00     0.124 S 
ATOM     84  O   UNL A   1      34.999  36.054  32.857  1.00  0.00    -0.237 OA
ATOM     85  O   UNL A   1      33.931  35.437  30.713  1.00  0.00    -0.237 OA
ATOM     86  O   UNL A   1      33.044  34.550  32.833  1.00  0.00    -0.744 OA
ENDBRANCH  82  83
ENDBRANCH  50  75
BRANCH  62  87
ATOM     87  C   UNL A   1      42.852  29.264  33.788  1.00  0.00     0.058 A 
ATOM     88  C   UNL A   1      43.144  29.512  35.142  1.00  0.00     0.135 A 
ATOM     89  C   UNL A   1      42.233  28.041  33.486  1.00  0.00     0.135 A 
ATOM     90  F   UNL A   1      43.642  30.692  35.535  1.00  0.00    -0.206 F 
ATOM     91  C   UNL A   1      42.869  28.574  36.140  1.00  0.00     0.059 A 
ATOM     92  C   UNL A   1      41.921  27.104  34.467  1.00  0.00     0.059 A 
ATOM     93  F   UNL A   1      41.873  27.765  32.221  1.00  0.00    -0.206 F 
ATOM     94  C   UNL A   1      42.254  27.371  35.793  1.00  0.00     0.060 A 
BRANCH  94  95
ATOM     95  S   UNL A   1      41.830  26.189  37.091  1.00  0.00     0.124 S 
ATOM     96  O   UNL A   1      40.534  26.683  37.544  1.00  0.00    -0.237 OA
ATOM     97  O   UNL A   1      41.808  24.919  36.371  1.00  0.00    -0.237 OA
ATOM     98  O   UNL A   1      42.921  26.330  38.053  1.00  0.00    -0.744 OA
ENDBRANCH  94  95
ENDBRANCH  62  87
ENDBRANCH  36  37
ENDBRANCH  28  31
ENDBRANCH  26  27
ENDBRANCH   1  26
TORSDOF 17
ENDMDL
MODEL 2
REMARK VINA RESULT:     -12.5      2.086      3.570
REMARK SMILES CCCc1nn(-c2ccc(OC)cc2)c2sc(C(=O)NCCCNC(=O)c3ccc(-c4c5nc(c(-c6c(F)cc(S(=O)(=O)[O-])cc6F)c6ccc([nH]6)c(-c6c(F)cc(S(=O)(=O)[O-])cc6F)c6nc(c(-c7c(F)cc(S(=O)(=O)[O-])cc7F)c7ccc4[nH]7)C=C6)C=C5)cc3)cc12
REMARK SMILES IDX 22 1 21 2 20 3 18 4 19 5 17 7 4 8 5 9 94 10 6 11 15 12 93 13
REMARK SMILES IDX 16 14 3 15 2 16 1 17 7 18 8 19 14 20 9 21 13 22 10 23 11 24
REMARK SMILES IDX 12 25 23 26 24 27 25 28 26 30 27 31 28 32 92 33 29 34 91 35
REMARK SMILES IDX 30 36 31 37 32 38 85 39 33 40 90 41 84 42 86 43 34 44 89 45
REMARK SMILES IDX 83 46 82 47 35 49 69 50 48 51 68 52 49 53 52 54 67 55 87 56
REMARK SMILES IDX 50 57 51 58 66 60 88 61 53 62 36 63 37 64 46 65 38 66 39 67
REMARK SMILES IDX 45 68 47 69 40 70 41 71 42 72 43 73 44 74 70 75 71 76 80 77
REMARK SMILES IDX 72 78 73 79 79 80 81 81 74 82 75 83 76 84 77 85 78 86 54 87
REMARK SMILES IDX 55 88 64 89 56 90 57 91 63 92 65 93 58 94 59 95 60 96 61 97
REMARK SMILES IDX 62 98
REMARK H PARENT 20 6 24 29 86 48 52 59
REMARK Flexibility Score: inf
ROOT
ATOM      1  C   UNL A   1      39.440  22.454  26.593  1.00  0.00     0.042 C 
ENDROOT
BRANCH   1   2
ATOM      2  C   UNL A   1      38.220  21.847  25.875  1.00  0.00     0.118 C 
BRANCH   2   3
ATOM      3  N   UNL A   1      37.995  22.373  24.527  1.00  0.00    -0.351 N 
ATOM      4  C   UNL A   1      36.833  22.651  23.823  1.00  0.00     0.261 C 
ATOM      5  O   UNL A   1      36.964  23.325  22.801  1.00  0.00    -0.268 OA
ATOM      6  H   UNL A   1      38.821  22.566  24.029  1.00  0.00     0.163 HD
BRANCH   4   7
ATOM      7  C   UNL A   1      35.517  22.208  24.275  1.00  0.00     0.095 A 
ATOM      8  C   UNL A   1      32.647  20.077  25.221  1.00  0.00     0.072 A 
ATOM      9  N   UNL A   1      31.516  20.820  25.439  1.00  0.00    -0.171 NA
ATOM     10  C   UNL A   1      33.697  20.917  24.837  1.00  0.00     0.035 A 
ATOM     11  N   UNL A   1      31.885  22.095  25.118  1.00  0.00    -0.223 N 
ATOM     12  C   UNL A   1      33.212  22.146  24.895  1.00  0.00     0.128 A 
ATOM     13  C   UNL A   1      35.048  20.889  24.458  1.00  0.00     0.038 A 
ATOM     14  S   UNL A   1      34.327  23.339  24.800  1.00  0.00    -0.110 S 
BRANCH   8  15
ATOM     15  C   UNL A   1      32.593  18.601  25.450  1.00  0.00     0.058 C 
BRANCH  15  16
ATOM     16  C   UNL A   1      33.140  17.712  24.332  1.00  0.00     0.003 C 
ATOM     17  C   UNL A   1      32.556  18.012  22.958  1.00  0.00     0.004 C 
ENDBRANCH  15  16
ENDBRANCH   8  15
BRANCH  11  18
ATOM     18  C   UNL A   1      31.038  23.216  24.991  1.00  0.00     0.066 A 
ATOM     19  C   UNL A   1      30.792  23.705  23.695  1.00  0.00     0.032 A 
ATOM     20  C   UNL A   1      30.737  23.989  26.108  1.00  0.00     0.032 A 
ATOM     21  C   UNL A   1      30.280  24.985  23.518  1.00  0.00     0.048 A 
ATOM     22  C   UNL A   1      30.250  25.293  25.915  1.00  0.00     0.048 A 
ATOM     23  C   UNL A   1      30.028  25.795  24.624  1.00  0.00     0.119 A 
BRANCH  23  24
ATOM     24  O   UNL A   1      29.597  27.050  24.300  1.00  0.00    -0.497 OA
ATOM     25  C   UNL A   1      28.345  27.154  23.640  1.00  0.00     0.278 C 
ENDBRANCH  23  24
ENDBRANCH  11  18
ENDBRANCH   4   7
ENDBRANCH   2   3
ENDBRANCH   1   2
BRANCH   1  26
ATOM     26  C   UNL A   1      40.562  21.462  26.810  1.00  0.00     0.118 C 
BRANCH  26  27
ATOM     27  N   UNL A   1      41.736  21.760  25.990  1.00  0.00    -0.352 N 
ATOM     28  C   UNL A   1      42.269  23.001  25.683  1.00  0.00     0.251 C 
ATOM     29  H   UNL A   1      42.205  20.983  25.610  1.00  0.00     0.163 HD
ATOM     30  O   UNL A   1      43.008  23.143  24.728  1.00  0.00    -0.269 OA
BRANCH  28  31
ATOM     31  C   UNL A   1      41.891  24.143  26.537  1.00  0.00     0.039 A 
ATOM     32  C   UNL A   1      42.437  24.306  27.811  1.00  0.00     0.014 A 
ATOM     33  C   UNL A   1      41.051  25.107  25.991  1.00  0.00     0.014 A 
ATOM     34  C   UNL A   1      42.210  25.505  28.482  1.00  0.00     0.010 A 
ATOM     35  C   UNL A   1      40.997  26.351  26.564  1.00  0.00     0.010 A 
ATOM     36  C   UNL A   1      41.519  26.545  27.836  1.00  0.00    -0.014 A 
BRANCH  36  37
ATOM     37  C   UNL A   1      41.396  27.861  28.455  1.00  0.00     0.031 A 
ATOM     38  C   UNL A   1      42.487  28.824  28.140  1.00  0.00     0.074 A 
ATOM     39  C   UNL A   1      40.304  28.269  29.138  1.00  0.00     0.049 A 
ATOM     40  N   UNL A   1      43.443  29.204  28.920  1.00  0.00    -0.248 NA
ATOM     41  C   UNL A   1      42.612  29.322  26.763  1.00  0.00     0.031 C 
ATOM     42  C   UNL A   1      39.008  27.599  29.306  1.00  0.00     0.029 A 
ATOM     43  N   UNL A   1      40.106  29.454  29.773  1.00  0.00    -0.354 N 
ATOM     44  C   UNL A   1      44.167  30.160  28.212  1.00  0.00     0.074 A 
ATOM     45  C   UNL A   1      43.723  30.059  26.845  1.00  0.00     0.031 C 
ATOM     46  C   UNL A   1      38.100  28.475  29.787  1.00  0.00     0.029 A 
ATOM     47  C   UNL A   1      38.791  29.696  30.149  1.00  0.00     0.049 A 
ATOM     48  H   UNL A   1      40.835  30.091  29.952  1.00  0.00     0.167 HD
ATOM     49  C   UNL A   1      44.917  31.101  28.854  1.00  0.00     0.037 A 
ATOM     50  C   UNL A   1      38.302  30.821  30.724  1.00  0.00     0.037 A 
ATOM     51  C   UNL A   1      45.086  30.771  30.248  1.00  0.00     0.049 A 
ATOM     52  C   UNL A   1      39.452  31.504  31.370  1.00  0.00     0.074 A 
ATOM     53  C   UNL A   1      45.641  29.707  30.934  1.00  0.00     0.029 A 
ATOM     54  N   UNL A   1      44.287  31.423  31.156  1.00  0.00    -0.354 N 
ATOM     55  N   UNL A   1      40.114  31.011  32.383  1.00  0.00    -0.248 NA
ATOM     56  C   UNL A   1      40.160  32.517  30.603  1.00  0.00     0.031 C 
ATOM     57  C   UNL A   1      44.771  29.493  32.044  1.00  0.00     0.029 A 
ATOM     58  C   UNL A   1      43.780  30.476  32.010  1.00  0.00     0.049 A 
ATOM     59  H   UNL A   1      44.112  32.392  31.189  1.00  0.00     0.167 HD
ATOM     60  C   UNL A   1      41.441  31.320  32.129  1.00  0.00     0.074 A 
ATOM     61  C   UNL A   1      41.396  32.330  31.072  1.00  0.00     0.031 C 
ATOM     62  C   UNL A   1      42.458  30.537  32.599  1.00  0.00     0.037 A 
BRANCH  49  63
ATOM     63  C   UNL A   1      45.209  32.486  28.328  1.00  0.00     0.058 A 
ATOM     64  C   UNL A   1      46.546  32.869  28.088  1.00  0.00     0.135 A 
ATOM     65  C   UNL A   1      44.264  33.535  28.316  1.00  0.00     0.135 A 
ATOM     66  F   UNL A   1      47.530  31.955  28.084  1.00  0.00    -0.206 F 
ATOM     67  C   UNL A   1      46.925  34.203  27.921  1.00  0.00     0.059 A 
ATOM     68  C   UNL A   1      44.612  34.864  28.096  1.00  0.00     0.059 A 
ATOM     69  F   UNL A   1      42.975  33.336  28.614  1.00  0.00    -0.206 F 
ATOM     70  C   UNL A   1      45.950  35.194  27.943  1.00  0.00     0.060 A 
BRANCH  70  71
ATOM     71  S   UNL A   1      46.445  36.922  27.834  1.00  0.00     0.124 S 
ATOM     72  O   UNL A   1      46.309  37.172  26.404  1.00  0.00    -0.237 OA
ATOM     73  O   UNL A   1      45.463  37.575  28.694  1.00  0.00    -0.237 OA
ATOM     74  O   UNL A   1      47.811  36.913  28.347  1.00  0.00    -0.744 OA
ENDBRANCH  70  71
ENDBRANCH  49  63
BRANCH  50  75
ATOM     75  C   UNL A   1      37.004  31.487  30.454  1.00  0.00     0.058 A 
ATOM     76  C   UNL A   1      36.188  31.936  31.506  1.00  0.00     0.135 A 
ATOM     77  C   UNL A   1      36.677  31.958  29.165  1.00  0.00     0.135 A 
ATOM     78  F   UNL A   1      36.439  31.548  32.765  1.00  0.00    -0.206 F 
ATOM     79  C   UNL A   1      35.148  32.849  31.303  1.00  0.00     0.059 A 
ATOM     80  C   UNL A   1      35.640  32.861  28.937  1.00  0.00     0.059 A 
ATOM     81  F   UNL A   1      37.419  31.626  28.098  1.00  0.00    -0.206 F 
ATOM     82  C   UNL A   1      34.897  33.326  30.016  1.00  0.00     0.060 A 
BRANCH  82  83
ATOM     83  S   UNL A   1      33.687  34.649  29.781  1.00  0.00     0.124 S 
ATOM     84  O   UNL A   1      34.479  35.663  29.095  1.00  0.00    -0.237 OA
ATOM     85  O   UNL A   1      32.661  33.990  28.980  1.00  0.00    -0.237 OA
ATOM     86  O   UNL A   1      33.285  34.987  31.145  1.00  0.00    -0.744 OA
ENDBRANCH  82  83
ENDBRANCH  50  75
BRANCH  62  87
ATOM     87  C   UNL A   1      42.141  29.508  33.656  1.00  0.00     0.058 A 
ATOM     88  C   UNL A   1      41.645  28.218  33.399  1.00  0.00     0.135 A 
ATOM     89  C   UNL A   1      42.507  29.795  34.981  1.00  0.00     0.135 A 
ATOM     90  F   UNL A   1      41.366  27.823  32.149  1.00  0.00    -0.206 F 
ATOM     91  C   UNL A   1      41.484  27.272  34.414  1.00  0.00     0.059 A 
ATOM     92  C   UNL A   1      42.385  28.858  36.004  1.00  0.00     0.059 A 
ATOM     93  F   UNL A   1      43.044  30.989  35.287  1.00  0.00    -0.206 F 
ATOM     94  C   UNL A   1      41.860  27.601  35.716  1.00  0.00     0.060 A 
BRANCH  94  95
ATOM     95  S   UNL A   1      41.723  26.355  37.017  1.00  0.00     0.124 S 
ATOM     96  O   UNL A   1      40.439  26.688  37.626  1.00  0.00    -0.237 OA
ATOM     97  O   UNL A   1      41.762  25.103  36.266  1.00  0.00    -0.237 OA
ATOM     98  O   UNL A   1      42.893  26.604  37.855  1.00  0.00    -0.744 OA
ENDBRANCH  94  95
ENDBRANCH  62  87
ENDBRANCH  36  37
ENDBRANCH  28  31
ENDBRANCH  26  27
ENDBRANCH   1  26
TORSDOF 17
ENDMDL
MODEL 3
REMARK VINA RESULT:     -12.4      2.870      9.490
REMARK SMILES CCCc1nn(-c2ccc(OC)cc2)c2sc(C(=O)NCCCNC(=O)c3ccc(-c4c5nc(c(-c6c(F)cc(S(=O)(=O)[O-])cc6F)c6ccc([nH]6)c(-c6c(F)cc(S(=O)(=O)[O-])cc6F)c6nc(c(-c7c(F)cc(S(=O)(=O)[O-])cc7F)c7ccc4[nH]7)C=C6)C=C5)cc3)cc12
REMARK SMILES IDX 22 1 21 2 20 3 18 4 19 5 17 7 4 8 5 9 94 10 6 11 15 12 93 13
REMARK SMILES IDX 16 14 3 15 2 16 1 17 7 18 8 19 14 20 9 21 13 22 10 23 11 24
REMARK SMILES IDX 12 25 23 26 24 27 25 28 26 30 27 31 28 32 92 33 29 34 91 35
REMARK SMILES IDX 30 36 31 37 32 38 85 39 33 40 90 41 84 42 86 43 34 44 89 45
REMARK SMILES IDX 83 46 82 47 35 49 69 50 48 51 68 52 49 53 52 54 67 55 87 56
REMARK SMILES IDX 50 57 51 58 66 60 88 61 53 62 36 63 37 64 46 65 38 66 39 67
REMARK SMILES IDX 45 68 47 69 40 70 41 71 42 72 43 73 44 74 70 75 71 76 80 77
REMARK SMILES IDX 72 78 73 79 79 80 81 81 74 82 75 83 76 84 77 85 78 86 54 87
REMARK SMILES IDX 55 88 64 89 56 90 57 91 63 92 65 93 58 94 59 95 60 96 61 97
REMARK SMILES IDX 62 98
REMARK H PARENT 20 6 24 29 86 48 52 59
REMARK Flexibility Score: inf
ROOT
ATOM      1  C   UNL A   1      35.191  30.562  27.648  1.00  0.00     0.042 C 
ENDROOT
BRANCH   1   2
ATOM      2  C   UNL A   1      33.772  30.536  27.050  1.00  0.00     0.118 C 
BRANCH   2   3
ATOM      3  N   UNL A   1      32.828  29.690  27.783  1.00  0.00    -0.351 N 
ATOM      4  C   UNL A   1      31.994  28.661  27.373  1.00  0.00     0.261 C 
ATOM      5  O   UNL A   1      31.503  27.969  28.266  1.00  0.00    -0.268 OA
ATOM      6  H   UNL A   1      32.776  29.887  28.746  1.00  0.00     0.163 HD
BRANCH   4   7
ATOM      7  C   UNL A   1      31.730  28.379  25.965  1.00  0.00     0.095 A 
ATOM      8  C   UNL A   1      30.483  28.625  22.493  1.00  0.00     0.072 A 
ATOM      9  N   UNL A   1      30.744  27.483  21.779  1.00  0.00    -0.171 NA
ATOM     10  C   UNL A   1      30.942  28.478  23.805  1.00  0.00     0.035 A 
ATOM     11  N   UNL A   1      31.301  26.636  22.695  1.00  0.00    -0.223 N 
ATOM     12  C   UNL A   1      31.530  27.292  23.848  1.00  0.00     0.128 A 
ATOM     13  C   UNL A   1      31.013  29.157  25.031  1.00  0.00     0.038 A 
ATOM     14  S   UNL A   1      32.430  27.011  25.183  1.00  0.00    -0.110 S 
BRANCH   8  15
ATOM     15  C   UNL A   1      29.831  29.775  21.795  1.00  0.00     0.058 C 
BRANCH  15  16
ATOM     16  C   UNL A   1      28.471  30.225  22.334  1.00  0.00     0.003 C 
ATOM     17  C   UNL A   1      28.552  31.343  23.365  1.00  0.00     0.004 C 
ENDBRANCH  15  16
ENDBRANCH   8  15
BRANCH  11  18
ATOM     18  C   UNL A   1      31.581  25.265  22.519  1.00  0.00     0.066 A 
ATOM     19  C   UNL A   1      30.768  24.340  23.201  1.00  0.00     0.032 A 
ATOM     20  C   UNL A   1      32.796  24.869  21.970  1.00  0.00     0.032 A 
ATOM     21  C   UNL A   1      31.194  23.027  23.365  1.00  0.00     0.048 A 
ATOM     22  C   UNL A   1      33.229  23.547  22.171  1.00  0.00     0.048 A 
ATOM     23  C   UNL A   1      32.435  22.629  22.873  1.00  0.00     0.119 A 
BRANCH  23  24
ATOM     24  O   UNL A   1      32.755  21.333  23.169  1.00  0.00    -0.497 OA
ATOM     25  C   UNL A   1      32.351  20.840  24.436  1.00  0.00     0.278 C 
ENDBRANCH  23  24
ENDBRANCH  11  18
ENDBRANCH   4   7
ENDBRANCH   2   3
ENDBRANCH   1   2
BRANCH   1  26
ATOM     26  C   UNL A   1      35.670  31.955  27.994  1.00  0.00     0.118 C 
BRANCH  26  27
ATOM     27  N   UNL A   1      35.074  32.457  29.231  1.00  0.00    -0.352 N 
ATOM     28  C   UNL A   1      35.341  32.058  30.530  1.00  0.00     0.251 C 
ATOM     29  H   UNL A   1      34.400  33.168  29.128  1.00  0.00     0.163 HD
ATOM     30  O   UNL A   1      34.550  32.283  31.427  1.00  0.00    -0.269 OA
BRANCH  28  31
ATOM     31  C   UNL A   1      36.600  31.333  30.782  1.00  0.00     0.039 A 
ATOM     32  C   UNL A   1      36.631  29.940  30.852  1.00  0.00     0.014 A 
ATOM     33  C   UNL A   1      37.772  32.078  30.846  1.00  0.00     0.014 A 
ATOM     34  C   UNL A   1      37.871  29.303  30.878  1.00  0.00     0.010 A 
ATOM     35  C   UNL A   1      38.977  31.448  30.672  1.00  0.00     0.010 A 
ATOM     36  C   UNL A   1      39.046  30.064  30.748  1.00  0.00    -0.014 A 
BRANCH  36  37
ATOM     37  C   UNL A   1      40.348  29.415  30.623  1.00  0.00     0.031 A 
ATOM     38  C   UNL A   1      41.061  29.156  31.904  1.00  0.00     0.074 A 
ATOM     39  C   UNL A   1      40.832  28.922  29.462  1.00  0.00     0.049 A 
ATOM     40  N   UNL A   1      42.087  29.789  32.369  1.00  0.00    -0.248 NA
ATOM     41  C   UNL A   1      40.497  28.171  32.839  1.00  0.00     0.031 C 
ATOM     42  C   UNL A   1      40.171  28.800  28.156  1.00  0.00     0.029 A 
ATOM     43  N   UNL A   1      42.036  28.332  29.238  1.00  0.00    -0.354 N 
ATOM     44  C   UNL A   1      42.439  29.143  33.552  1.00  0.00     0.074 A 
ATOM     45  C   UNL A   1      41.330  28.282  33.877  1.00  0.00     0.031 C 
ATOM     46  C   UNL A   1      40.885  27.977  27.358  1.00  0.00     0.029 A 
ATOM     47  C   UNL A   1      42.142  27.682  28.016  1.00  0.00     0.049 A 
ATOM     48  H   UNL A   1      42.774  28.364  29.888  1.00  0.00     0.167 HD
ATOM     49  C   UNL A   1      43.707  29.213  34.048  1.00  0.00     0.037 A 
ATOM     50  C   UNL A   1      43.193  26.953  27.570  1.00  0.00     0.037 A 
ATOM     51  C   UNL A   1      44.470  30.242  33.384  1.00  0.00     0.049 A 
ATOM     52  C   UNL A   1      44.383  27.409  28.334  1.00  0.00     0.074 A 
ATOM     53  C   UNL A   1      44.337  31.610  33.240  1.00  0.00     0.029 A 
ATOM     54  N   UNL A   1      45.347  29.848  32.402  1.00  0.00    -0.354 N 
ATOM     55  N   UNL A   1      44.892  28.608  28.237  1.00  0.00    -0.248 NA
ATOM     56  C   UNL A   1      44.730  26.685  29.547  1.00  0.00     0.031 C 
ATOM     57  C   UNL A   1      44.735  31.877  31.896  1.00  0.00     0.029 A 
ATOM     58  C   UNL A   1      45.153  30.675  31.323  1.00  0.00     0.049 A 
ATOM     59  H   UNL A   1      45.997  29.110  32.461  1.00  0.00     0.167 HD
ATOM     60  C   UNL A   1      45.253  28.950  29.531  1.00  0.00     0.074 A 
ATOM     61  C   UNL A   1      45.219  27.692  30.275  1.00  0.00     0.031 C 
ATOM     62  C   UNL A   1      45.277  30.253  29.943  1.00  0.00     0.037 A 
BRANCH  49  63
ATOM     63  C   UNL A   1      44.376  28.144  34.878  1.00  0.00     0.058 A 
ATOM     64  C   UNL A   1      44.485  26.834  34.364  1.00  0.00     0.135 A 
ATOM     65  C   UNL A   1      44.662  28.283  36.254  1.00  0.00     0.135 A 
ATOM     66  F   UNL A   1      44.230  26.583  33.070  1.00  0.00    -0.206 F 
ATOM     67  C   UNL A   1      44.784  25.735  35.172  1.00  0.00     0.059 A 
ATOM     68  C   UNL A   1      45.015  27.210  37.065  1.00  0.00     0.059 A 
ATOM     69  F   UNL A   1      44.514  29.447  36.897  1.00  0.00    -0.206 F 
ATOM     70  C   UNL A   1      45.031  25.934  36.526  1.00  0.00     0.060 A 
BRANCH  70  71
ATOM     71  S   UNL A   1      45.312  24.509  37.591  1.00  0.00     0.124 S 
ATOM     72  O   UNL A   1      44.397  24.786  38.692  1.00  0.00    -0.237 OA
ATOM     73  O   UNL A   1      44.945  23.399  36.717  1.00  0.00    -0.237 OA
ATOM     74  O   UNL A   1      46.733  24.603  37.910  1.00  0.00    -0.744 OA
ENDBRANCH  70  71
ENDBRANCH  49  63
BRANCH  50  75
ATOM     75  C   UNL A   1      43.156  25.687  26.796  1.00  0.00     0.058 A 
ATOM     76  C   UNL A   1      43.729  25.605  25.515  1.00  0.00     0.135 A 
ATOM     77  C   UNL A   1      42.822  24.462  27.410  1.00  0.00     0.135 A 
ATOM     78  F   UNL A   1      44.091  26.722  24.867  1.00  0.00    -0.206 F 
ATOM     79  C   UNL A   1      44.014  24.379  24.905  1.00  0.00     0.059 A 
ATOM     80  C   UNL A   1      43.088  23.229  26.818  1.00  0.00     0.059 A 
ATOM     81  F   UNL A   1      42.312  24.427  28.650  1.00  0.00    -0.206 F 
ATOM     82  C   UNL A   1      43.712  23.194  25.577  1.00  0.00     0.060 A 
BRANCH  82  83
ATOM     83  S   UNL A   1      44.256  21.617  24.878  1.00  0.00     0.124 S 
ATOM     84  O   UNL A   1      44.390  21.945  23.463  1.00  0.00    -0.237 OA
ATOM     85  O   UNL A   1      45.501  21.374  25.598  1.00  0.00    -0.237 OA
ATOM     86  O   UNL A   1      43.162  20.705  25.207  1.00  0.00    -0.744 OA
ENDBRANCH  82  83
ENDBRANCH  50  75
BRANCH  62  87
ATOM     87  C   UNL A   1      45.210  31.338  28.897  1.00  0.00     0.058 A 
ATOM     88  C   UNL A   1      44.023  31.919  28.417  1.00  0.00     0.135 A 
ATOM     89  C   UNL A   1      46.417  31.921  28.478  1.00  0.00     0.135 A 
ATOM     90  F   UNL A   1      42.826  31.493  28.842  1.00  0.00    -0.206 F 
ATOM     91  C   UNL A   1      44.036  33.002  27.533  1.00  0.00     0.059 A 
ATOM     92  C   UNL A   1      46.454  33.019  27.623  1.00  0.00     0.059 A 
ATOM     93  F   UNL A   1      47.587  31.453  28.946  1.00  0.00    -0.206 F 
ATOM     94  C   UNL A   1      45.258  33.548  27.143  1.00  0.00     0.060 A 
BRANCH  94  95
ATOM     95  S   UNL A   1      45.275  34.993  26.061  1.00  0.00     0.124 S 
ATOM     96  O   UNL A   1      45.642  36.063  26.983  1.00  0.00    -0.237 OA
ATOM     97  O   UNL A   1      46.284  34.637  25.067  1.00  0.00    -0.237 OA
ATOM     98  O   UNL A   1      43.907  35.055  25.550  1.00  0.00    -0.744 OA
ENDBRANCH  94  95
ENDBRANCH  62  87
ENDBRANCH  36  37
ENDBRANCH  28  31
ENDBRANCH  26  27
ENDBRANCH   1  26
TORSDOF 17
ENDMDL
