MODEL 1
REMARK VINA RESULT:     -11.7      0.000      0.000
REMARK SMILES O=C(NCCCNC(=O)[C@H]1C[C@H]2CCCC[C@@H]2[N@@H+]1CC[C@@H]1CCCO1)c1ccc(-c2c3nc(c(-c4c(F)cc(S(=O)(=O)[O-])cc4F)c4ccc([nH]4)c(-c4c(F)cc(S(=O)(=O)[O-])cc4F)c4nc(c(-c5c(F)cc(S(=O)(=O)[O-])cc5F)c5ccc2[nH]5)C=C4)C=C3)cc1
REMARK SMILES IDX 5 1 4 2 3 3 1 4 2 5 26 7 27 8 91 9 28 10 90 11 29 12 30 13
REMARK SMILES IDX 31 14 84 15 32 16 89 17 83 18 85 19 33 20 88 21 82 22 81 23
REMARK SMILES IDX 34 25 68 26 47 27 67 28 48 29 51 30 66 31 86 32 49 33 50 34
REMARK SMILES IDX 65 36 87 37 52 38 35 39 36 40 45 41 37 42 38 43 44 44 46 45
REMARK SMILES IDX 39 46 40 47 41 48 42 49 43 50 69 51 70 52 79 53 71 54 72 55
REMARK SMILES IDX 78 56 80 57 73 58 74 59 75 60 76 61 77 62 53 63 54 64 63 65
REMARK SMILES IDX 55 66 56 67 62 68 64 69 57 70 58 71 59 72 60 73 61 74 6 75
REMARK SMILES IDX 7 76 8 77 9 79 10 80 11 81 18 82 12 83 17 84 13 86 16 87
REMARK SMILES IDX 14 88 15 89 19 90 20 91 21 92 22 93 25 94 23 95 24 96
REMARK H PARENT 3 6 85 24 51 35 7 78 18 85
REMARK Flexibility Score: inf
ROOT
ATOM      1  C   UNL A   1      32.407  27.945  27.017  1.00  0.00     0.042 C 
ENDROOT
BRANCH   1   2
ATOM      2  C   UNL A   1      33.757  28.628  26.977  1.00  0.00     0.118 C 
BRANCH   2   3
ATOM      3  N   UNL A   1      33.671  29.999  27.463  1.00  0.00    -0.352 N 
ATOM      4  O   UNL A   1      34.207  31.725  28.804  1.00  0.00    -0.269 OA
ATOM      5  C   UNL A   1      34.555  30.687  28.256  1.00  0.00     0.251 C 
ATOM      6  H   UNL A   1      32.870  30.499  27.185  1.00  0.00     0.163 HD
BRANCH   5   7
ATOM      7  C   UNL A   1      35.924  30.160  28.429  1.00  0.00     0.039 A 
ATOM      8  C   UNL A   1      36.825  30.199  27.360  1.00  0.00     0.014 A 
ATOM      9  C   UNL A   1      36.318  29.658  29.670  1.00  0.00     0.014 A 
ATOM     10  C   UNL A   1      38.079  29.629  27.493  1.00  0.00     0.010 A 
ATOM     11  C   UNL A   1      37.622  29.187  29.835  1.00  0.00     0.010 A 
ATOM     12  C   UNL A   1      38.509  29.173  28.747  1.00  0.00    -0.014 A 
BRANCH  12  13
ATOM     13  C   UNL A   1      39.942  28.853  28.929  1.00  0.00     0.031 A 
ATOM     14  C   UNL A   1      40.505  27.527  28.519  1.00  0.00     0.074 A 
ATOM     15  C   UNL A   1      40.721  29.799  29.493  1.00  0.00     0.049 A 
ATOM     16  N   UNL A   1      41.727  27.085  28.656  1.00  0.00    -0.248 NA
ATOM     17  C   UNL A   1      39.587  26.569  27.883  1.00  0.00     0.031 C 
ATOM     18  C   UNL A   1      40.252  31.117  29.944  1.00  0.00     0.029 A 
ATOM     19  N   UNL A   1      42.058  29.811  29.787  1.00  0.00    -0.354 N 
ATOM     20  C   UNL A   1      41.724  25.792  28.150  1.00  0.00     0.074 A 
ATOM     21  C   UNL A   1      40.376  25.514  27.706  1.00  0.00     0.031 C 
ATOM     22  C   UNL A   1      41.287  31.812  30.433  1.00  0.00     0.029 A 
ATOM     23  C   UNL A   1      42.471  30.967  30.408  1.00  0.00     0.049 A 
ATOM     24  H   UNL A   1      42.664  29.065  29.575  1.00  0.00     0.167 HD
ATOM     25  C   UNL A   1      42.761  24.926  28.073  1.00  0.00     0.037 A 
ATOM     26  C   UNL A   1      43.659  31.292  30.947  1.00  0.00     0.037 A 
ATOM     27  C   UNL A   1      44.102  25.239  28.504  1.00  0.00     0.049 A 
ATOM     28  C   UNL A   1      44.775  30.292  30.874  1.00  0.00     0.074 A 
ATOM     29  C   UNL A   1      45.240  24.459  28.394  1.00  0.00     0.029 A 
ATOM     30  N   UNL A   1      44.480  26.410  29.143  1.00  0.00    -0.354 N 
ATOM     31  N   UNL A   1      44.777  29.105  30.317  1.00  0.00    -0.248 NA
ATOM     32  C   UNL A   1      46.045  30.665  31.508  1.00  0.00     0.031 C 
ATOM     33  C   UNL A   1      46.291  25.129  29.025  1.00  0.00     0.029 A 
ATOM     34  C   UNL A   1      45.823  26.353  29.477  1.00  0.00     0.049 A 
ATOM     35  H   UNL A   1      43.882  27.170  29.330  1.00  0.00     0.167 HD
ATOM     36  C   UNL A   1      46.049  28.591  30.528  1.00  0.00     0.074 A 
ATOM     37  C   UNL A   1      46.798  29.611  31.234  1.00  0.00     0.031 C 
ATOM     38  C   UNL A   1      46.549  27.381  30.181  1.00  0.00     0.037 A 
BRANCH  25  39
ATOM     39  C   UNL A   1      42.511  23.547  27.529  1.00  0.00     0.058 A 
ATOM     40  C   UNL A   1      42.586  23.265  26.157  1.00  0.00     0.135 A 
ATOM     41  C   UNL A   1      42.310  22.471  28.410  1.00  0.00     0.135 A 
ATOM     42  F   UNL A   1      42.760  24.258  25.270  1.00  0.00    -0.206 F 
ATOM     43  C   UNL A   1      42.479  21.963  25.677  1.00  0.00     0.059 A 
ATOM     44  C   UNL A   1      42.222  21.158  27.955  1.00  0.00     0.059 A 
ATOM     45  F   UNL A   1      42.224  22.687  29.731  1.00  0.00    -0.206 F 
ATOM     46  C   UNL A   1      42.309  20.915  26.585  1.00  0.00     0.060 A 
BRANCH  46  47
ATOM     47  S   UNL A   1      42.235  19.227  25.949  1.00  0.00     0.124 S 
ATOM     48  O   UNL A   1      40.809  19.081  25.673  1.00  0.00    -0.237 OA
ATOM     49  O   UNL A   1      43.102  19.299  24.776  1.00  0.00    -0.237 OA
ATOM     50  O   UNL A   1      42.746  18.421  27.053  1.00  0.00    -0.744 OA
ENDBRANCH  46  47
ENDBRANCH  25  39
BRANCH  26  51
ATOM     51  C   UNL A   1      43.828  32.589  31.656  1.00  0.00     0.058 A 
ATOM     52  C   UNL A   1      43.573  32.707  33.030  1.00  0.00     0.135 A 
ATOM     53  C   UNL A   1      44.236  33.742  30.965  1.00  0.00     0.135 A 
ATOM     54  F   UNL A   1      43.182  31.635  33.734  1.00  0.00    -0.206 F 
ATOM     55  C   UNL A   1      43.682  33.929  33.685  1.00  0.00     0.059 A 
ATOM     56  C   UNL A   1      44.386  34.966  31.606  1.00  0.00     0.059 A 
ATOM     57  F   UNL A   1      44.515  33.680  29.653  1.00  0.00    -0.206 F 
ATOM     58  C   UNL A   1      44.084  35.054  32.963  1.00  0.00     0.060 A 
BRANCH  58  59
ATOM     59  S   UNL A   1      44.216  36.636  33.821  1.00  0.00     0.124 S 
ATOM     60  O   UNL A   1      44.937  36.251  35.029  1.00  0.00    -0.237 OA
ATOM     61  O   UNL A   1      44.962  37.444  32.862  1.00  0.00    -0.237 OA
ATOM     62  O   UNL A   1      42.825  37.030  34.015  1.00  0.00    -0.744 OA
ENDBRANCH  58  59
ENDBRANCH  26  51
BRANCH  38  63
ATOM     63  C   UNL A   1      47.976  27.096  30.556  1.00  0.00     0.058 A 
ATOM     64  C   UNL A   1      48.294  26.296  31.664  1.00  0.00     0.135 A 
ATOM     65  C   UNL A   1      49.031  27.578  29.766  1.00  0.00     0.135 A 
ATOM     66  F   UNL A   1      47.320  25.825  32.459  1.00  0.00    -0.206 F 
ATOM     67  C   UNL A   1      49.611  25.994  31.985  1.00  0.00     0.059 A 
ATOM     68  C   UNL A   1      50.355  27.261  30.050  1.00  0.00     0.059 A 
ATOM     69  F   UNL A   1      48.778  28.343  28.691  1.00  0.00    -0.206 F 
ATOM     70  C   UNL A   1      50.635  26.474  31.165  1.00  0.00     0.060 A 
BRANCH  70  71
ATOM     71  S   UNL A   1      52.336  26.023  31.561  1.00  0.00     0.124 S 
ATOM     72  O   UNL A   1      52.154  24.732  32.218  1.00  0.00    -0.237 OA
ATOM     73  O   UNL A   1      52.961  25.980  30.243  1.00  0.00    -0.237 OA
ATOM     74  O   UNL A   1      52.784  27.110  32.426  1.00  0.00    -0.744 OA
ENDBRANCH  70  71
ENDBRANCH  38  63
ENDBRANCH  12  13
ENDBRANCH   5   7
ENDBRANCH   2   3
ENDBRANCH   1   2
BRANCH   1  75
ATOM     75  C   UNL A   1      32.383  26.695  26.155  1.00  0.00     0.118 C 
BRANCH  75  76
ATOM     76  N   UNL A   1      31.702  25.603  26.822  1.00  0.00    -0.351 N 
ATOM     77  C   UNL A   1      31.876  24.253  26.812  1.00  0.00     0.278 C 
ATOM     78  H   UNL A   1      30.962  25.897  27.401  1.00  0.00     0.163 HD
ATOM     79  O   UNL A   1      31.001  23.595  27.391  1.00  0.00    -0.268 OA
BRANCH  77  80
ATOM     80  C   UNL A   1      33.114  23.530  26.218  1.00  0.00     0.274 C 
ATOM     81  C   UNL A   1      33.460  22.138  26.770  1.00  0.00     0.085 C 
ATOM     82  N   UNL A   1      32.911  23.379  24.748  1.00  0.00    -0.322 N 
ATOM     83  C   UNL A   1      33.438  21.243  25.535  1.00  0.00     0.054 C 
ATOM     84  C   UNL A   1      32.549  21.987  24.542  1.00  0.00     0.188 C 
ATOM     85  H   UNL A   1      32.141  23.951  24.400  1.00  0.00     0.349 HD
ATOM     86  C   UNL A   1      33.025  19.787  25.651  1.00  0.00     0.010 C 
ATOM     87  C   UNL A   1      32.441  21.379  23.151  1.00  0.00     0.065 C 
ATOM     88  C   UNL A   1      33.104  19.152  24.254  1.00  0.00     0.001 C 
ATOM     89  C   UNL A   1      32.216  19.865  23.226  1.00  0.00     0.006 C 
BRANCH  82  90
ATOM     90  C   UNL A   1      33.933  23.999  23.898  1.00  0.00     0.265 C 
BRANCH  90  91
ATOM     91  C   UNL A   1      35.110  23.185  23.305  1.00  0.00     0.093 C 
BRANCH  91  92
ATOM     92  C   UNL A   1      36.429  23.268  24.068  1.00  0.00     0.123 C 
ATOM     93  C   UNL A   1      36.990  21.956  24.575  1.00  0.00     0.034 C 
ATOM     94  O   UNL A   1      36.358  24.065  25.258  1.00  0.00    -0.378 OA
ATOM     95  C   UNL A   1      38.010  22.424  25.605  1.00  0.00     0.031 C 
ATOM     96  C   UNL A   1      37.643  23.878  25.874  1.00  0.00     0.160 C 
ENDBRANCH  91  92
ENDBRANCH  90  91
ENDBRANCH  82  90
ENDBRANCH  77  80
ENDBRANCH  75  76
ENDBRANCH   1  75
TORSDOF 16
ENDMDL
MODEL 2
REMARK VINA RESULT:     -11.5      0.603      8.243
REMARK SMILES O=C(NCCCNC(=O)[C@H]1C[C@H]2CCCC[C@@H]2[N@@H+]1CC[C@@H]1CCCO1)c1ccc(-c2c3nc(c(-c4c(F)cc(S(=O)(=O)[O-])cc4F)c4ccc([nH]4)c(-c4c(F)cc(S(=O)(=O)[O-])cc4F)c4nc(c(-c5c(F)cc(S(=O)(=O)[O-])cc5F)c5ccc2[nH]5)C=C4)C=C3)cc1
REMARK SMILES IDX 5 1 4 2 3 3 1 4 2 5 26 7 27 8 91 9 28 10 90 11 29 12 30 13
REMARK SMILES IDX 31 14 84 15 32 16 89 17 83 18 85 19 33 20 88 21 82 22 81 23
REMARK SMILES IDX 34 25 68 26 47 27 67 28 48 29 51 30 66 31 86 32 49 33 50 34
REMARK SMILES IDX 65 36 87 37 52 38 35 39 36 40 45 41 37 42 38 43 44 44 46 45
REMARK SMILES IDX 39 46 40 47 41 48 42 49 43 50 69 51 70 52 79 53 71 54 72 55
REMARK SMILES IDX 78 56 80 57 73 58 74 59 75 60 76 61 77 62 53 63 54 64 63 65
REMARK SMILES IDX 55 66 56 67 62 68 64 69 57 70 58 71 59 72 60 73 61 74 6 75
REMARK SMILES IDX 7 76 8 77 9 79 10 80 11 81 18 82 12 83 17 84 13 86 16 87
REMARK SMILES IDX 14 88 15 89 19 90 20 91 21 92 22 93 25 94 23 95 24 96
REMARK H PARENT 3 6 85 24 51 35 7 78 18 85
REMARK Flexibility Score: inf
ROOT
ATOM      1  C   UNL A   1      32.472  27.817  26.965  1.00  0.00     0.042 C 
ENDROOT
BRANCH   1   2
ATOM      2  C   UNL A   1      33.831  28.484  26.918  1.00  0.00     0.118 C 
BRANCH   2   3
ATOM      3  N   UNL A   1      33.728  29.913  27.184  1.00  0.00    -0.352 N 
ATOM      4  O   UNL A   1      34.192  31.821  28.283  1.00  0.00    -0.269 OA
ATOM      5  C   UNL A   1      34.564  30.711  27.924  1.00  0.00     0.251 C 
ATOM      6  H   UNL A   1      32.955  30.366  26.777  1.00  0.00     0.163 HD
BRANCH   5   7
ATOM      7  C   UNL A   1      35.910  30.214  28.271  1.00  0.00     0.039 A 
ATOM      8  C   UNL A   1      36.942  30.281  27.329  1.00  0.00     0.014 A 
ATOM      9  C   UNL A   1      36.152  29.712  29.551  1.00  0.00     0.014 A 
ATOM     10  C   UNL A   1      38.181  29.739  27.621  1.00  0.00     0.010 A 
ATOM     11  C   UNL A   1      37.434  29.269  29.882  1.00  0.00     0.010 A 
ATOM     12  C   UNL A   1      38.455  29.283  28.918  1.00  0.00    -0.014 A 
BRANCH  12  13
ATOM     13  C   UNL A   1      39.860  28.994  29.283  1.00  0.00     0.031 A 
ATOM     14  C   UNL A   1      40.723  30.024  29.945  1.00  0.00     0.074 A 
ATOM     15  C   UNL A   1      40.338  27.769  28.984  1.00  0.00     0.049 A 
ATOM     16  N   UNL A   1      41.982  29.933  30.284  1.00  0.00    -0.248 NA
ATOM     17  C   UNL A   1      40.106  31.322  30.263  1.00  0.00     0.031 C 
ATOM     18  C   UNL A   1      39.572  26.706  28.318  1.00  0.00     0.029 A 
ATOM     19  N   UNL A   1      41.567  27.203  29.191  1.00  0.00    -0.354 N 
ATOM     20  C   UNL A   1      42.319  31.165  30.830  1.00  0.00     0.074 A 
ATOM     21  C   UNL A   1      41.133  31.992  30.773  1.00  0.00     0.031 C 
ATOM     22  C   UNL A   1      40.340  25.616  28.195  1.00  0.00     0.029 A 
ATOM     23  C   UNL A   1      41.672  25.925  28.693  1.00  0.00     0.049 A 
ATOM     24  H   UNL A   1      42.304  27.667  29.650  1.00  0.00     0.167 HD
ATOM     25  C   UNL A   1      43.516  31.555  31.326  1.00  0.00     0.037 A 
ATOM     26  C   UNL A   1      42.736  25.108  28.601  1.00  0.00     0.037 A 
ATOM     27  C   UNL A   1      44.676  30.701  31.390  1.00  0.00     0.049 A 
ATOM     28  C   UNL A   1      44.055  25.590  29.130  1.00  0.00     0.074 A 
ATOM     29  C   UNL A   1      45.912  30.975  31.948  1.00  0.00     0.029 A 
ATOM     30  N   UNL A   1      44.752  29.419  30.863  1.00  0.00    -0.354 N 
ATOM     31  N   UNL A   1      44.335  26.727  29.719  1.00  0.00    -0.248 NA
ATOM     32  C   UNL A   1      45.202  24.689  28.975  1.00  0.00     0.031 C 
ATOM     33  C   UNL A   1      46.755  29.889  31.699  1.00  0.00     0.029 A 
ATOM     34  C   UNL A   1      46.028  28.911  31.039  1.00  0.00     0.049 A 
ATOM     35  H   UNL A   1      44.008  28.943  30.428  1.00  0.00     0.167 HD
ATOM     36  C   UNL A   1      45.692  26.677  30.010  1.00  0.00     0.074 A 
ATOM     37  C   UNL A   1      46.166  25.382  29.564  1.00  0.00     0.031 C 
ATOM     38  C   UNL A   1      46.478  27.619  30.584  1.00  0.00     0.037 A 
BRANCH  25  39
ATOM     39  C   UNL A   1      43.665  32.966  31.823  1.00  0.00     0.058 A 
ATOM     40  C   UNL A   1      43.958  34.031  30.960  1.00  0.00     0.135 A 
ATOM     41  C   UNL A   1      43.394  33.268  33.169  1.00  0.00     0.135 A 
ATOM     42  F   UNL A   1      44.242  33.798  29.668  1.00  0.00    -0.206 F 
ATOM     43  C   UNL A   1      43.968  35.349  31.409  1.00  0.00     0.059 A 
ATOM     44  C   UNL A   1      43.376  34.580  33.636  1.00  0.00     0.059 A 
ATOM     45  F   UNL A   1      43.115  32.285  34.038  1.00  0.00    -0.206 F 
ATOM     46  C   UNL A   1      43.664  35.614  32.747  1.00  0.00     0.060 A 
BRANCH  46  47
ATOM     47  S   UNL A   1      43.621  37.333  33.297  1.00  0.00     0.124 S 
ATOM     48  O   UNL A   1      42.397  37.354  34.092  1.00  0.00    -0.237 OA
ATOM     49  O   UNL A   1      44.866  37.449  34.049  1.00  0.00    -0.237 OA
ATOM     50  O   UNL A   1      43.572  38.090  32.050  1.00  0.00    -0.744 OA
ENDBRANCH  46  47
ENDBRANCH  25  39
BRANCH  26  51
ATOM     51  C   UNL A   1      42.608  23.789  27.926  1.00  0.00     0.058 A 
ATOM     52  C   UNL A   1      42.430  22.609  28.661  1.00  0.00     0.135 A 
ATOM     53  C   UNL A   1      42.675  23.685  26.526  1.00  0.00     0.135 A 
ATOM     54  F   UNL A   1      42.358  22.657  29.999  1.00  0.00    -0.206 F 
ATOM     55  C   UNL A   1      42.361  21.368  28.036  1.00  0.00     0.059 A 
ATOM     56  C   UNL A   1      42.572  22.460  25.877  1.00  0.00     0.059 A 
ATOM     57  F   UNL A   1      42.823  24.786  25.773  1.00  0.00    -0.206 F 
ATOM     58  C   UNL A   1      42.438  21.304  26.643  1.00  0.00     0.060 A 
BRANCH  58  59
ATOM     59  S   UNL A   1      42.352  19.689  25.842  1.00  0.00     0.124 S 
ATOM     60  O   UNL A   1      42.734  18.802  26.935  1.00  0.00    -0.237 OA
ATOM     61  O   UNL A   1      40.955  19.627  25.427  1.00  0.00    -0.237 OA
ATOM     62  O   UNL A   1      43.318  19.803  24.754  1.00  0.00    -0.744 OA
ENDBRANCH  58  59
ENDBRANCH  26  51
BRANCH  38  63
ATOM     63  C   UNL A   1      47.930  27.282  30.767  1.00  0.00     0.058 A 
ATOM     64  C   UNL A   1      48.382  26.588  31.900  1.00  0.00     0.135 A 
ATOM     65  C   UNL A   1      48.868  27.603  29.773  1.00  0.00     0.135 A 
ATOM     66  F   UNL A   1      47.526  26.272  32.885  1.00  0.00    -0.206 F 
ATOM     67  C   UNL A   1      49.718  26.235  32.048  1.00  0.00     0.059 A 
ATOM     68  C   UNL A   1      50.203  27.231  29.886  1.00  0.00     0.059 A 
ATOM     69  F   UNL A   1      48.484  28.262  28.667  1.00  0.00    -0.206 F 
ATOM     70  C   UNL A   1      50.619  26.554  31.029  1.00  0.00     0.060 A 
BRANCH  70  71
ATOM     71  S   UNL A   1      52.338  26.036  31.210  1.00  0.00     0.124 S 
ATOM     72  O   UNL A   1      52.187  24.716  31.814  1.00  0.00    -0.237 OA
ATOM     73  O   UNL A   1      52.814  26.051  29.831  1.00  0.00    -0.237 OA
ATOM     74  O   UNL A   1      52.913  27.061  32.077  1.00  0.00    -0.744 OA
ENDBRANCH  70  71
ENDBRANCH  38  63
ENDBRANCH  12  13
ENDBRANCH   5   7
ENDBRANCH   2   3
ENDBRANCH   1   2
BRANCH   1  75
ATOM     75  C   UNL A   1      32.439  26.549  26.131  1.00  0.00     0.118 C 
BRANCH  75  76
ATOM     76  N   UNL A   1      31.627  25.523  26.755  1.00  0.00    -0.351 N 
ATOM     77  C   UNL A   1      31.747  24.170  26.849  1.00  0.00     0.278 C 
ATOM     78  H   UNL A   1      30.825  25.877  27.205  1.00  0.00     0.163 HD
ATOM     79  O   UNL A   1      30.772  23.579  27.334  1.00  0.00    -0.268 OA
BRANCH  77  80
ATOM     80  C   UNL A   1      33.025  23.373  26.481  1.00  0.00     0.274 C 
ATOM     81  C   UNL A   1      33.174  21.957  27.061  1.00  0.00     0.085 C 
ATOM     82  N   UNL A   1      33.091  23.246  24.997  1.00  0.00    -0.322 N 
ATOM     83  C   UNL A   1      33.327  21.074  25.827  1.00  0.00     0.054 C 
ATOM     84  C   UNL A   1      32.687  21.882  24.701  1.00  0.00     0.188 C 
ATOM     85  H   UNL A   1      32.437  23.869  24.523  1.00  0.00     0.349 HD
ATOM     86  C   UNL A   1      32.809  19.647  25.837  1.00  0.00     0.010 C 
ATOM     87  C   UNL A   1      32.802  21.292  23.302  1.00  0.00     0.065 C 
ATOM     88  C   UNL A   1      33.106  19.018  24.467  1.00  0.00     0.001 C 
ATOM     89  C   UNL A   1      32.473  19.796  23.306  1.00  0.00     0.006 C 
BRANCH  82  90
ATOM     90  C   UNL A   1      34.291  23.803  24.363  1.00  0.00     0.265 C 
BRANCH  90  91
ATOM     91  C   UNL A   1      35.484  24.335  25.193  1.00  0.00     0.093 C 
BRANCH  91  92
ATOM     92  C   UNL A   1      36.482  23.286  25.674  1.00  0.00     0.123 C 
ATOM     93  C   UNL A   1      37.867  23.791  26.021  1.00  0.00     0.034 C 
ATOM     94  O   UNL A   1      36.752  22.260  24.708  1.00  0.00    -0.378 OA
ATOM     95  C   UNL A   1      38.681  22.504  26.035  1.00  0.00     0.031 C 
ATOM     96  C   UNL A   1      37.806  21.491  25.309  1.00  0.00     0.160 C 
ENDBRANCH  91  92
ENDBRANCH  90  91
ENDBRANCH  82  90
ENDBRANCH  77  80
ENDBRANCH  75  76
ENDBRANCH   1  75
TORSDOF 16
ENDMDL
MODEL 3
REMARK VINA RESULT:     -11.5      4.958     10.425
REMARK SMILES O=C(NCCCNC(=O)[C@H]1C[C@H]2CCCC[C@@H]2[N@@H+]1CC[C@@H]1CCCO1)c1ccc(-c2c3nc(c(-c4c(F)cc(S(=O)(=O)[O-])cc4F)c4ccc([nH]4)c(-c4c(F)cc(S(=O)(=O)[O-])cc4F)c4nc(c(-c5c(F)cc(S(=O)(=O)[O-])cc5F)c5ccc2[nH]5)C=C4)C=C3)cc1
REMARK SMILES IDX 5 1 4 2 3 3 1 4 2 5 26 7 27 8 91 9 28 10 90 11 29 12 30 13
REMARK SMILES IDX 31 14 84 15 32 16 89 17 83 18 85 19 33 20 88 21 82 22 81 23
REMARK SMILES IDX 34 25 68 26 47 27 67 28 48 29 51 30 66 31 86 32 49 33 50 34
REMARK SMILES IDX 65 36 87 37 52 38 35 39 36 40 45 41 37 42 38 43 44 44 46 45
REMARK SMILES IDX 39 46 40 47 41 48 42 49 43 50 69 51 70 52 79 53 71 54 72 55
REMARK SMILES IDX 78 56 80 57 73 58 74 59 75 60 76 61 77 62 53 63 54 64 63 65
REMARK SMILES IDX 55 66 56 67 62 68 64 69 57 70 58 71 59 72 60 73 61 74 6 75
REMARK SMILES IDX 7 76 8 77 9 79 10 80 11 81 18 82 12 83 17 84 13 86 16 87
REMARK SMILES IDX 14 88 15 89 19 90 20 91 21 92 22 93 25 94 23 95 24 96
REMARK H PARENT 3 6 85 24 51 35 7 78 18 85
REMARK Flexibility Score: inf
ROOT
ATOM      1  C   UNL A   1      38.137  23.720  26.429  1.00  0.00     0.042 C 
ENDROOT
BRANCH   1   2
ATOM      2  C   UNL A   1      39.552  23.692  26.970  1.00  0.00     0.118 C 
BRANCH   2   3
ATOM      3  N   UNL A   1      40.479  24.349  26.058  1.00  0.00    -0.352 N 
ATOM      4  O   UNL A   1      41.519  26.115  25.128  1.00  0.00    -0.269 OA
ATOM      5  C   UNL A   1      40.978  25.626  26.111  1.00  0.00     0.251 C 
ATOM      6  H   UNL A   1      40.791  23.802  25.301  1.00  0.00     0.163 HD
BRANCH   5   7
ATOM      7  C   UNL A   1      40.857  26.391  27.369  1.00  0.00     0.039 A 
ATOM      8  C   UNL A   1      41.675  27.504  27.588  1.00  0.00     0.014 A 
ATOM      9  C   UNL A   1      39.901  26.018  28.315  1.00  0.00     0.014 A 
ATOM     10  C   UNL A   1      41.624  28.171  28.800  1.00  0.00     0.010 A 
ATOM     11  C   UNL A   1      39.772  26.762  29.489  1.00  0.00     0.010 A 
ATOM     12  C   UNL A   1      40.633  27.844  29.735  1.00  0.00    -0.014 A 
BRANCH  12  13
ATOM     13  C   UNL A   1      40.407  28.760  30.876  1.00  0.00     0.031 A 
ATOM     14  C   UNL A   1      39.338  29.807  30.838  1.00  0.00     0.074 A 
ATOM     15  C   UNL A   1      41.214  28.623  31.948  1.00  0.00     0.049 A 
ATOM     16  N   UNL A   1      39.050  30.709  31.739  1.00  0.00    -0.248 NA
ATOM     17  C   UNL A   1      38.485  29.862  29.639  1.00  0.00     0.031 C 
ATOM     18  C   UNL A   1      42.300  27.640  32.065  1.00  0.00     0.029 A 
ATOM     19  N   UNL A   1      41.258  29.299  33.138  1.00  0.00    -0.354 N 
ATOM     20  C   UNL A   1      38.004  31.455  31.212  1.00  0.00     0.074 A 
ATOM     21  C   UNL A   1      37.708  30.906  29.907  1.00  0.00     0.031 C 
ATOM     22  C   UNL A   1      42.883  27.762  33.264  1.00  0.00     0.029 A 
ATOM     23  C   UNL A   1      42.272  28.881  33.967  1.00  0.00     0.049 A 
ATOM     24  H   UNL A   1      40.625  30.014  33.376  1.00  0.00     0.167 HD
ATOM     25  C   UNL A   1      37.363  32.504  31.777  1.00  0.00     0.037 A 
ATOM     26  C   UNL A   1      42.700  29.375  35.143  1.00  0.00     0.037 A 
ATOM     27  C   UNL A   1      37.665  33.016  33.091  1.00  0.00     0.049 A 
ATOM     28  C   UNL A   1      41.985  30.561  35.721  1.00  0.00     0.074 A 
ATOM     29  C   UNL A   1      37.018  34.023  33.787  1.00  0.00     0.029 A 
ATOM     30  N   UNL A   1      38.708  32.581  33.896  1.00  0.00    -0.354 N 
ATOM     31  N   UNL A   1      40.944  31.201  35.247  1.00  0.00    -0.248 NA
ATOM     32  C   UNL A   1      42.504  31.098  36.984  1.00  0.00     0.031 C 
ATOM     33  C   UNL A   1      37.710  34.242  34.981  1.00  0.00     0.029 A 
ATOM     34  C   UNL A   1      38.753  33.332  35.058  1.00  0.00     0.049 A 
ATOM     35  H   UNL A   1      39.325  31.847  33.672  1.00  0.00     0.167 HD
ATOM     36  C   UNL A   1      40.679  32.216  36.157  1.00  0.00     0.074 A 
ATOM     37  C   UNL A   1      41.648  32.080  37.226  1.00  0.00     0.031 C 
ATOM     38  C   UNL A   1      39.729  33.180  36.109  1.00  0.00     0.037 A 
BRANCH  25  39
ATOM     39  C   UNL A   1      36.284  33.197  30.993  1.00  0.00     0.058 A 
ATOM     40  C   UNL A   1      34.930  33.105  31.349  1.00  0.00     0.135 A 
ATOM     41  C   UNL A   1      36.627  34.063  29.940  1.00  0.00     0.135 A 
ATOM     42  F   UNL A   1      34.545  32.280  32.337  1.00  0.00    -0.206 F 
ATOM     43  C   UNL A   1      33.955  33.853  30.695  1.00  0.00     0.059 A 
ATOM     44  C   UNL A   1      35.672  34.837  29.287  1.00  0.00     0.059 A 
ATOM     45  F   UNL A   1      37.907  34.183  29.556  1.00  0.00    -0.206 F 
ATOM     46  C   UNL A   1      34.337  34.724  29.673  1.00  0.00     0.060 A 
BRANCH  46  47
ATOM     47  S   UNL A   1      33.067  35.731  28.879  1.00  0.00     0.124 S 
ATOM     48  O   UNL A   1      33.877  36.688  28.132  1.00  0.00    -0.237 OA
ATOM     49  O   UNL A   1      32.349  34.747  28.075  1.00  0.00    -0.237 OA
ATOM     50  O   UNL A   1      32.318  36.286  30.001  1.00  0.00    -0.744 OA
ENDBRANCH  46  47
ENDBRANCH  25  39
BRANCH  26  51
ATOM     51  C   UNL A   1      43.896  28.793  35.807  1.00  0.00     0.058 A 
ATOM     52  C   UNL A   1      43.781  27.730  36.715  1.00  0.00     0.135 A 
ATOM     53  C   UNL A   1      45.181  29.300  35.553  1.00  0.00     0.135 A 
ATOM     54  F   UNL A   1      42.575  27.210  36.989  1.00  0.00    -0.206 F 
ATOM     55  C   UNL A   1      44.891  27.217  37.376  1.00  0.00     0.059 A 
ATOM     56  C   UNL A   1      46.311  28.779  36.175  1.00  0.00     0.059 A 
ATOM     57  F   UNL A   1      45.351  30.301  34.676  1.00  0.00    -0.206 F 
ATOM     58  C   UNL A   1      46.152  27.752  37.102  1.00  0.00     0.060 A 
BRANCH  58  59
ATOM     59  S   UNL A   1      47.586  27.082  37.969  1.00  0.00     0.124 S 
ATOM     60  O   UNL A   1      48.556  28.158  37.800  1.00  0.00    -0.237 OA
ATOM     61  O   UNL A   1      47.068  26.894  39.320  1.00  0.00    -0.237 OA
ATOM     62  O   UNL A   1      47.874  25.851  37.239  1.00  0.00    -0.744 OA
ENDBRANCH  58  59
ENDBRANCH  26  51
BRANCH  38  63
ATOM     63  C   UNL A   1      39.688  34.160  37.246  1.00  0.00     0.058 A 
ATOM     64  C   UNL A   1      40.283  35.427  37.140  1.00  0.00     0.135 A 
ATOM     65  C   UNL A   1      38.998  33.853  38.429  1.00  0.00     0.135 A 
ATOM     66  F   UNL A   1      40.967  35.762  36.034  1.00  0.00    -0.206 F 
ATOM     67  C   UNL A   1      40.206  36.352  38.174  1.00  0.00     0.059 A 
ATOM     68  C   UNL A   1      38.881  34.775  39.463  1.00  0.00     0.059 A 
ATOM     69  F   UNL A   1      38.407  32.656  38.577  1.00  0.00    -0.206 F 
ATOM     70  C   UNL A   1      39.495  36.019  39.329  1.00  0.00     0.060 A 
BRANCH  70  71
ATOM     71  S   UNL A   1      39.354  37.253  40.637  1.00  0.00     0.124 S 
ATOM     72  O   UNL A   1      40.715  37.779  40.695  1.00  0.00    -0.237 OA
ATOM     73  O   UNL A   1      38.346  38.162  40.101  1.00  0.00    -0.237 OA
ATOM     74  O   UNL A   1      38.934  36.473  41.797  1.00  0.00    -0.744 OA
ENDBRANCH  70  71
ENDBRANCH  38  63
ENDBRANCH  12  13
ENDBRANCH   5   7
ENDBRANCH   2   3
ENDBRANCH   1   2
BRANCH   1  75
ATOM     75  C   UNL A   1      37.789  22.436  25.699  1.00  0.00     0.118 C 
BRANCH  75  76
ATOM     76  N   UNL A   1      37.520  22.680  24.295  1.00  0.00    -0.351 N 
ATOM     77  C   UNL A   1      36.374  22.887  23.590  1.00  0.00     0.278 C 
ATOM     78  H   UNL A   1      38.332  22.699  23.738  1.00  0.00     0.163 HD
ATOM     79  O   UNL A   1      36.500  22.911  22.358  1.00  0.00    -0.268 OA
BRANCH  77  80
ATOM     80  C   UNL A   1      34.990  23.178  24.227  1.00  0.00     0.274 C 
ATOM     81  C   UNL A   1      34.847  24.455  25.071  1.00  0.00     0.085 C 
ATOM     82  N   UNL A   1      33.978  23.262  23.134  1.00  0.00    -0.322 N 
ATOM     83  C   UNL A   1      33.716  25.217  24.388  1.00  0.00     0.054 C 
ATOM     84  C   UNL A   1      33.704  24.678  22.960  1.00  0.00     0.188 C 
ATOM     85  H   UNL A   1      34.332  22.906  22.246  1.00  0.00     0.349 HD
ATOM     86  C   UNL A   1      33.699  26.735  24.398  1.00  0.00     0.010 C 
ATOM     87  C   UNL A   1      32.579  25.178  22.064  1.00  0.00     0.065 C 
ATOM     88  C   UNL A   1      32.449  27.206  23.640  1.00  0.00     0.001 C 
ATOM     89  C   UNL A   1      32.401  26.694  22.195  1.00  0.00     0.006 C 
BRANCH  82  90
ATOM     90  C   UNL A   1      32.864  22.311  23.226  1.00  0.00     0.265 C 
BRANCH  90  91
ATOM     91  C   UNL A   1      32.672  21.388  24.454  1.00  0.00     0.093 C 
BRANCH  91  92
ATOM     92  C   UNL A   1      32.514  19.901  24.152  1.00  0.00     0.123 C 
ATOM     93  C   UNL A   1      33.713  19.027  24.458  1.00  0.00     0.034 C 
ATOM     94  O   UNL A   1      32.258  19.617  22.770  1.00  0.00    -0.378 OA
ATOM     95  C   UNL A   1      33.392  17.762  23.675  1.00  0.00     0.031 C 
ATOM     96  C   UNL A   1      32.297  18.182  22.702  1.00  0.00     0.160 C 
ENDBRANCH  91  92
ENDBRANCH  90  91
ENDBRANCH  82  90
ENDBRANCH  77  80
ENDBRANCH  75  76
ENDBRANCH   1  75
TORSDOF 16
ENDMDL
