MODEL 1
REMARK VINA RESULT:     -12.6      0.000      0.000
REMARK SMILES COc1ccc(NS(=O)(=O)c2ccc(NC(=O)[C@H]3CCCC[C@@H]3C(=O)NCCCNC(=O)c3ccc(-c4c5nc(c(-c6c(F)cc(S(=O)(=O)[O-])cc6F)c6ccc([nH]6)c(-c6c(F)cc(S(=O)(=O)[O-])cc6F)c6nc(c(-c7c(F)cc(S(=O)(=O)[O-])cc7F)c7ccc4[nH]7)C=C6)C=C5)cc3)cc2)cc1
REMARK SMILES IDX 24 1 25 2 26 3 23 5 18 6 19 7 20 8 22 9 21 10 16 11 15 12
REMARK SMILES IDX 17 14 14 15 11 16 12 17 100 18 13 19 99 20 8 21 9 22 10 23
REMARK SMILES IDX 7 24 6 26 3 27 4 28 102 29 5 30 101 31 2 32 1 33 27 34 28 35
REMARK SMILES IDX 29 36 30 37 31 38 32 40 33 41 34 42 98 43 35 44 97 45 36 46
REMARK SMILES IDX 37 47 38 48 91 49 39 50 96 51 90 52 92 53 40 54 95 55 89 56
REMARK SMILES IDX 88 57 41 59 75 60 54 61 74 62 55 63 58 64 73 65 93 66 56 67
REMARK SMILES IDX 57 68 72 70 94 71 59 72 42 73 43 74 52 75 44 76 45 77 51 78
REMARK SMILES IDX 53 79 46 80 47 81 48 82 49 83 50 84 76 85 77 86 86 87 78 88
REMARK SMILES IDX 79 89 85 90 87 91 80 92 81 93 82 94 83 95 84 96 60 97 61 98
REMARK SMILES IDX 70 99 62 100 63 101 69 102 71 103 64 104 65 105 66 106
REMARK SMILES IDX 67 107 68 108
REMARK H PARENT 26 4 15 13 7 25 30 39 92 58 58 69
REMARK Flexibility Score: inf
ROOT
ATOM      1  C   UNL A   1      33.330  28.750  23.864  1.00  0.00     0.223 C 
ATOM      2  O   UNL A   1      33.633  29.198  22.751  1.00  0.00    -0.275 OA
ATOM      3  N   UNL A   1      33.982  29.301  24.935  1.00  0.00    -0.356 N 
ATOM      4  H   UNL A   1      34.966  29.292  24.900  1.00  0.00     0.163 HD
ENDROOT
BRANCH   1   5
ATOM      5  C   UNL A   1      32.511  27.442  23.957  1.00  0.00     0.091 C 
ATOM      6  C   UNL A   1      31.218  27.415  24.789  1.00  0.00     0.091 C 
ATOM      7  C   UNL A   1      31.382  27.079  26.270  1.00  0.00     0.014 C 
ATOM      8  C   UNL A   1      32.503  26.117  26.652  1.00  0.00     0.001 C 
ATOM      9  C   UNL A   1      33.507  26.322  24.256  1.00  0.00     0.014 C 
ATOM     10  C   UNL A   1      33.719  26.022  25.730  1.00  0.00     0.001 C 
BRANCH   6  11
ATOM     11  C   UNL A   1      29.982  26.761  24.081  1.00  0.00     0.228 C 
ATOM     12  N   UNL A   1      29.523  25.501  24.388  1.00  0.00    -0.326 N 
ATOM     13  H   UNL A   1      28.544  25.404  24.415  1.00  0.00     0.169 HD
ATOM     14  O   UNL A   1      29.291  27.451  23.320  1.00  0.00    -0.274 OA
BRANCH  12  15
ATOM     15  C   UNL A   1      30.251  24.336  24.665  1.00  0.00     0.041 A 
ATOM     16  C   UNL A   1      31.963  22.208  25.249  1.00  0.00     0.087 A 
ATOM     17  C   UNL A   1      31.919  22.741  23.964  1.00  0.00     0.024 A 
ATOM     18  C   UNL A   1      31.087  22.679  26.230  1.00  0.00     0.024 A 
ATOM     19  C   UNL A   1      30.996  23.737  23.663  1.00  0.00     0.027 A 
ATOM     20  C   UNL A   1      30.227  23.753  25.936  1.00  0.00     0.027 A 
BRANCH  16  21
ATOM     21  S   UNL A   1      33.144  20.927  25.597  1.00  0.00     0.261 S 
ATOM     22  O   UNL A   1      32.477  19.652  25.518  1.00  0.00    -0.201 OA
ATOM     23  O   UNL A   1      33.869  21.329  26.789  1.00  0.00    -0.201 OA
BRANCH  21  24
ATOM     24  N   UNL A   1      34.283  20.972  24.302  1.00  0.00    -0.280 N 
ATOM     25  H   UNL A   1      34.114  20.533  23.437  1.00  0.00     0.180 HD
BRANCH  24  26
ATOM     26  C   UNL A   1      35.491  21.693  24.573  1.00  0.00     0.049 A 
ATOM     27  C   UNL A   1      37.741  22.981  25.609  1.00  0.00     0.119 A 
ATOM     28  C   UNL A   1      37.738  21.599  25.450  1.00  0.00     0.048 A 
ATOM     29  C   UNL A   1      36.640  23.725  25.177  1.00  0.00     0.048 A 
ATOM     30  C   UNL A   1      36.637  20.965  24.886  1.00  0.00     0.030 A 
ATOM     31  C   UNL A   1      35.501  23.079  24.682  1.00  0.00     0.030 A 
BRANCH  27  32
ATOM     32  O   UNL A   1      38.870  23.470  26.205  1.00  0.00    -0.497 OA
ATOM     33  C   UNL A   1      39.630  22.555  26.978  1.00  0.00     0.278 C 
ENDBRANCH  27  32
ENDBRANCH  24  26
ENDBRANCH  21  24
ENDBRANCH  16  21
ENDBRANCH  12  15
ENDBRANCH   6  11
ENDBRANCH   1   5
BRANCH   3  34
ATOM     34  C   UNL A   1      33.384  29.901  26.122  1.00  0.00     0.117 C 
BRANCH  34  35
ATOM     35  C   UNL A   1      34.043  29.514  27.445  1.00  0.00     0.042 C 
BRANCH  35  36
ATOM     36  C   UNL A   1      35.375  30.163  27.787  1.00  0.00     0.118 C 
BRANCH  36  37
ATOM     37  N   UNL A   1      35.450  30.532  29.187  1.00  0.00    -0.352 N 
ATOM     38  C   UNL A   1      36.449  30.395  30.119  1.00  0.00     0.251 C 
ATOM     39  H   UNL A   1      34.634  30.961  29.532  1.00  0.00     0.163 HD
ATOM     40  O   UNL A   1      36.133  30.524  31.303  1.00  0.00    -0.269 OA
BRANCH  38  41
ATOM     41  C   UNL A   1      37.871  30.101  29.779  1.00  0.00     0.039 A 
ATOM     42  C   UNL A   1      38.215  30.044  28.421  1.00  0.00     0.014 A 
ATOM     43  C   UNL A   1      38.838  29.751  30.725  1.00  0.00     0.014 A 
ATOM     44  C   UNL A   1      39.502  29.656  28.020  1.00  0.00     0.010 A 
ATOM     45  C   UNL A   1      40.148  29.438  30.328  1.00  0.00     0.010 A 
ATOM     46  C   UNL A   1      40.491  29.361  28.970  1.00  0.00    -0.014 A 
BRANCH  46  47
ATOM     47  C   UNL A   1      41.857  28.940  28.542  1.00  0.00     0.031 A 
ATOM     48  C   UNL A   1      42.991  29.937  28.489  1.00  0.00     0.074 A 
ATOM     49  C   UNL A   1      42.084  27.656  28.193  1.00  0.00     0.049 A 
ATOM     50  N   UNL A   1      44.239  29.754  28.138  1.00  0.00    -0.248 NA
ATOM     51  C   UNL A   1      42.678  31.325  28.863  1.00  0.00     0.031 C 
ATOM     52  C   UNL A   1      41.071  26.599  28.159  1.00  0.00     0.029 A 
ATOM     53  N   UNL A   1      43.237  27.019  27.801  1.00  0.00    -0.354 N 
ATOM     54  C   UNL A   1      44.856  30.998  28.238  1.00  0.00     0.074 A 
ATOM     55  C   UNL A   1      43.832  31.939  28.635  1.00  0.00     0.031 C 
ATOM     56  C   UNL A   1      41.649  25.444  27.792  1.00  0.00     0.029 A 
ATOM     57  C   UNL A   1      43.066  25.679  27.534  1.00  0.00     0.049 A 
ATOM     58  H   UNL A   1      44.104  27.477  27.719  1.00  0.00     0.167 HD
ATOM     59  C   UNL A   1      46.157  31.324  28.042  1.00  0.00     0.037 A 
ATOM     60  C   UNL A   1      43.948  24.745  27.126  1.00  0.00     0.037 A 
ATOM     61  C   UNL A   1      47.183  30.381  27.675  1.00  0.00     0.049 A 
ATOM     62  C   UNL A   1      45.388  25.132  26.925  1.00  0.00     0.074 A 
ATOM     63  C   UNL A   1      48.538  30.606  27.503  1.00  0.00     0.029 A 
ATOM     64  N   UNL A   1      46.970  29.033  27.429  1.00  0.00    -0.354 N 
ATOM     65  N   UNL A   1      45.958  26.304  27.080  1.00  0.00    -0.248 NA
ATOM     66  C   UNL A   1      46.310  24.067  26.502  1.00  0.00     0.031 C 
ATOM     67  C   UNL A   1      49.138  29.402  27.117  1.00  0.00     0.029 A 
ATOM     68  C   UNL A   1      48.166  28.417  27.092  1.00  0.00     0.049 A 
ATOM     69  H   UNL A   1      46.099  28.579  27.487  1.00  0.00     0.167 HD
ATOM     70  C   UNL A   1      47.305  26.112  26.792  1.00  0.00     0.074 A 
ATOM     71  C   UNL A   1      47.470  24.708  26.478  1.00  0.00     0.031 C 
ATOM     72  C   UNL A   1      48.314  27.018  26.784  1.00  0.00     0.037 A 
BRANCH  59  73
ATOM     73  C   UNL A   1      46.559  32.762  28.238  1.00  0.00     0.058 A 
ATOM     74  C   UNL A   1      47.057  33.226  29.466  1.00  0.00     0.135 A 
ATOM     75  C   UNL A   1      46.510  33.674  27.169  1.00  0.00     0.135 A 
ATOM     76  F   UNL A   1      47.115  32.402  30.525  1.00  0.00    -0.206 F 
ATOM     77  C   UNL A   1      47.471  34.543  29.636  1.00  0.00     0.059 A 
ATOM     78  C   UNL A   1      46.943  34.990  27.309  1.00  0.00     0.059 A 
ATOM     79  F   UNL A   1      46.045  33.286  25.971  1.00  0.00    -0.206 F 
ATOM     80  C   UNL A   1      47.413  35.418  28.551  1.00  0.00     0.060 A 
BRANCH  80  81
ATOM     81  S   UNL A   1      47.976  37.118  28.783  1.00  0.00     0.124 S 
ATOM     82  O   UNL A   1      46.993  37.861  28.000  1.00  0.00    -0.237 OA
ATOM     83  O   UNL A   1      47.889  37.281  30.230  1.00  0.00    -0.237 OA
ATOM     84  O   UNL A   1      49.331  37.106  28.237  1.00  0.00    -0.744 OA
ENDBRANCH  80  81
ENDBRANCH  59  73
BRANCH  60  85
ATOM     85  C   UNL A   1      43.500  23.345  26.890  1.00  0.00     0.058 A 
ATOM     86  C   UNL A   1      43.220  22.482  27.959  1.00  0.00     0.135 A 
ATOM     87  C   UNL A   1      43.354  22.839  25.589  1.00  0.00     0.135 A 
ATOM     88  F   UNL A   1      43.350  22.916  29.222  1.00  0.00    -0.206 F 
ATOM     89  C   UNL A   1      42.836  21.161  27.750  1.00  0.00     0.059 A 
ATOM     90  C   UNL A   1      42.946  21.530  25.353  1.00  0.00     0.059 A 
ATOM     91  F   UNL A   1      43.593  23.627  24.529  1.00  0.00    -0.206 F 
ATOM     92  C   UNL A   1      42.704  20.692  26.442  1.00  0.00     0.060 A 
BRANCH  92  93
ATOM     93  S   UNL A   1      42.176  18.986  26.178  1.00  0.00     0.124 S 
ATOM     94  O   UNL A   1      43.014  18.591  25.052  1.00  0.00    -0.237 OA
ATOM     95  O   UNL A   1      42.493  18.362  27.459  1.00  0.00    -0.237 OA
ATOM     96  O   UNL A   1      40.751  19.117  25.891  1.00  0.00    -0.744 OA
ENDBRANCH  92  93
ENDBRANCH  60  85
BRANCH  72  97
ATOM     97  C   UNL A   1      49.690  26.510  26.447  1.00  0.00     0.058 A 
ATOM     98  C   UNL A   1      50.208  26.598  25.146  1.00  0.00     0.135 A 
ATOM     99  C   UNL A   1      50.507  25.951  27.443  1.00  0.00     0.135 A 
ATOM    100  F   UNL A   1      49.466  27.120  24.158  1.00  0.00    -0.206 F 
ATOM    101  C   UNL A   1      51.476  26.118  24.835  1.00  0.00     0.059 A 
ATOM    102  C   UNL A   1      51.789  25.488  27.160  1.00  0.00     0.059 A 
ATOM    103  F   UNL A   1      50.064  25.854  28.707  1.00  0.00    -0.206 F 
ATOM    104  C   UNL A   1      52.257  25.561  25.850  1.00  0.00     0.060 A 
BRANCH 104 105
ATOM    105  S   UNL A   1      53.905  24.949  25.436  1.00  0.00     0.124 S 
ATOM    106  O   UNL A   1      54.248  25.782  24.288  1.00  0.00    -0.237 OA
ATOM    107  O   UNL A   1      54.656  25.214  26.659  1.00  0.00    -0.237 OA
ATOM    108  O   UNL A   1      53.677  23.537  25.141  1.00  0.00    -0.744 OA
ENDBRANCH 104 105
ENDBRANCH  72  97
ENDBRANCH  46  47
ENDBRANCH  38  41
ENDBRANCH  36  37
ENDBRANCH  35  36
ENDBRANCH  34  35
ENDBRANCH   3  34
TORSDOF 19
ENDMDL
MODEL 2
REMARK VINA RESULT:     -12.3      0.553      7.880
REMARK SMILES COc1ccc(NS(=O)(=O)c2ccc(NC(=O)[C@H]3CCCC[C@@H]3C(=O)NCCCNC(=O)c3ccc(-c4c5nc(c(-c6c(F)cc(S(=O)(=O)[O-])cc6F)c6ccc([nH]6)c(-c6c(F)cc(S(=O)(=O)[O-])cc6F)c6nc(c(-c7c(F)cc(S(=O)(=O)[O-])cc7F)c7ccc4[nH]7)C=C6)C=C5)cc3)cc2)cc1
REMARK SMILES IDX 24 1 25 2 26 3 23 5 18 6 19 7 20 8 22 9 21 10 16 11 15 12
REMARK SMILES IDX 17 14 14 15 11 16 12 17 100 18 13 19 99 20 8 21 9 22 10 23
REMARK SMILES IDX 7 24 6 26 3 27 4 28 102 29 5 30 101 31 2 32 1 33 27 34 28 35
REMARK SMILES IDX 29 36 30 37 31 38 32 40 33 41 34 42 98 43 35 44 97 45 36 46
REMARK SMILES IDX 37 47 38 48 91 49 39 50 96 51 90 52 92 53 40 54 95 55 89 56
REMARK SMILES IDX 88 57 41 59 75 60 54 61 74 62 55 63 58 64 73 65 93 66 56 67
REMARK SMILES IDX 57 68 72 70 94 71 59 72 42 73 43 74 52 75 44 76 45 77 51 78
REMARK SMILES IDX 53 79 46 80 47 81 48 82 49 83 50 84 76 85 77 86 86 87 78 88
REMARK SMILES IDX 79 89 85 90 87 91 80 92 81 93 82 94 83 95 84 96 60 97 61 98
REMARK SMILES IDX 70 99 62 100 63 101 69 102 71 103 64 104 65 105 66 106
REMARK SMILES IDX 67 107 68 108
REMARK H PARENT 26 4 15 13 7 25 30 39 92 58 58 69
REMARK Flexibility Score: inf
ROOT
ATOM      1  C   UNL A   1      33.391  28.818  23.917  1.00  0.00     0.223 C 
ATOM      2  O   UNL A   1      33.713  29.303  22.826  1.00  0.00    -0.275 OA
ATOM      3  N   UNL A   1      34.028  29.331  25.017  1.00  0.00    -0.356 N 
ATOM      4  H   UNL A   1      35.012  29.320  24.997  1.00  0.00     0.163 HD
ENDROOT
BRANCH   1   5
ATOM      5  C   UNL A   1      32.567  27.511  23.953  1.00  0.00     0.091 C 
ATOM      6  C   UNL A   1      31.337  27.415  24.871  1.00  0.00     0.091 C 
ATOM      7  C   UNL A   1      31.602  26.948  26.299  1.00  0.00     0.014 C 
ATOM      8  C   UNL A   1      32.738  25.951  26.513  1.00  0.00     0.001 C 
ATOM      9  C   UNL A   1      33.570  26.364  24.079  1.00  0.00     0.014 C 
ATOM     10  C   UNL A   1      33.883  25.934  25.502  1.00  0.00     0.001 C 
BRANCH   6  11
ATOM     11  C   UNL A   1      30.046  26.832  24.198  1.00  0.00     0.228 C 
ATOM     12  N   UNL A   1      29.544  25.586  24.496  1.00  0.00    -0.326 N 
ATOM     13  H   UNL A   1      28.563  25.532  24.560  1.00  0.00     0.169 HD
ATOM     14  O   UNL A   1      29.358  27.568  23.479  1.00  0.00    -0.274 OA
BRANCH  12  15
ATOM     15  C   UNL A   1      30.229  24.385  24.721  1.00  0.00     0.041 A 
ATOM     16  C   UNL A   1      31.865  22.172  25.196  1.00  0.00     0.087 A 
ATOM     17  C   UNL A   1      31.804  22.740  23.927  1.00  0.00     0.024 A 
ATOM     18  C   UNL A   1      31.041  22.654  26.217  1.00  0.00     0.024 A 
ATOM     19  C   UNL A   1      30.916  23.781  23.680  1.00  0.00     0.027 A 
ATOM     20  C   UNL A   1      30.219  23.770  25.976  1.00  0.00     0.027 A 
BRANCH  16  21
ATOM     21  S   UNL A   1      32.999  20.833  25.474  1.00  0.00     0.261 S 
ATOM     22  O   UNL A   1      32.291  19.588  25.313  1.00  0.00    -0.201 OA
ATOM     23  O   UNL A   1      33.726  21.138  26.693  1.00  0.00    -0.201 OA
BRANCH  21  24
ATOM     24  N   UNL A   1      34.150  20.917  24.191  1.00  0.00    -0.280 N 
ATOM     25  H   UNL A   1      33.972  20.545  23.298  1.00  0.00     0.180 HD
BRANCH  24  26
ATOM     26  C   UNL A   1      35.384  21.569  24.517  1.00  0.00     0.049 A 
ATOM     27  C   UNL A   1      37.611  22.814  25.653  1.00  0.00     0.119 A 
ATOM     28  C   UNL A   1      37.483  21.429  25.702  1.00  0.00     0.048 A 
ATOM     29  C   UNL A   1      36.656  23.568  24.966  1.00  0.00     0.048 A 
ATOM     30  C   UNL A   1      36.400  20.807  25.092  1.00  0.00     0.030 A 
ATOM     31  C   UNL A   1      35.526  22.948  24.419  1.00  0.00     0.030 A 
BRANCH  27  32
ATOM     32  O   UNL A   1      38.702  23.295  26.320  1.00  0.00    -0.497 OA
ATOM     33  C   UNL A   1      39.788  22.400  26.496  1.00  0.00     0.278 C 
ENDBRANCH  27  32
ENDBRANCH  24  26
ENDBRANCH  21  24
ENDBRANCH  16  21
ENDBRANCH  12  15
ENDBRANCH   6  11
ENDBRANCH   1   5
BRANCH   3  34
ATOM     34  C   UNL A   1      33.413  29.892  26.214  1.00  0.00     0.117 C 
BRANCH  34  35
ATOM     35  C   UNL A   1      34.113  29.543  27.526  1.00  0.00     0.042 C 
BRANCH  35  36
ATOM     36  C   UNL A   1      35.275  30.422  27.963  1.00  0.00     0.118 C 
BRANCH  36  37
ATOM     37  N   UNL A   1      35.455  30.400  29.400  1.00  0.00    -0.352 N 
ATOM     38  C   UNL A   1      36.452  29.886  30.192  1.00  0.00     0.251 C 
ATOM     39  H   UNL A   1      34.728  30.836  29.902  1.00  0.00     0.163 HD
ATOM     40  O   UNL A   1      36.201  29.747  31.390  1.00  0.00    -0.269 OA
BRANCH  38  41
ATOM     41  C   UNL A   1      37.798  29.491  29.686  1.00  0.00     0.039 A 
ATOM     42  C   UNL A   1      38.760  29.104  30.630  1.00  0.00     0.014 A 
ATOM     43  C   UNL A   1      38.191  29.614  28.350  1.00  0.00     0.014 A 
ATOM     44  C   UNL A   1      40.081  28.836  30.244  1.00  0.00     0.010 A 
ATOM     45  C   UNL A   1      39.492  29.270  27.952  1.00  0.00     0.010 A 
ATOM     46  C   UNL A   1      40.461  28.902  28.896  1.00  0.00    -0.014 A 
BRANCH  46  47
ATOM     47  C   UNL A   1      41.870  28.624  28.488  1.00  0.00     0.031 A 
ATOM     48  C   UNL A   1      42.290  27.236  28.062  1.00  0.00     0.074 A 
ATOM     49  C   UNL A   1      42.781  29.619  28.502  1.00  0.00     0.049 A 
ATOM     50  N   UNL A   1      43.469  26.809  27.681  1.00  0.00    -0.248 NA
ATOM     51  C   UNL A   1      41.258  26.188  28.085  1.00  0.00     0.031 C 
ATOM     52  C   UNL A   1      42.520  30.995  28.931  1.00  0.00     0.029 A 
ATOM     53  N   UNL A   1      44.109  29.631  28.148  1.00  0.00    -0.354 N 
ATOM     54  C   UNL A   1      43.323  25.447  27.428  1.00  0.00     0.074 A 
ATOM     55  C   UNL A   1      41.953  25.109  27.747  1.00  0.00     0.031 C 
ATOM     56  C   UNL A   1      43.641  31.722  28.792  1.00  0.00     0.029 A 
ATOM     57  C   UNL A   1      44.710  30.861  28.296  1.00  0.00     0.049 A 
ATOM     58  H   UNL A   1      44.586  28.835  27.820  1.00  0.00     0.167 HD
ATOM     59  C   UNL A   1      44.234  24.565  26.952  1.00  0.00     0.037 A 
ATOM     60  C   UNL A   1      45.978  31.252  28.061  1.00  0.00     0.037 A 
ATOM     61  C   UNL A   1      45.590  24.908  26.605  1.00  0.00     0.049 A 
ATOM     62  C   UNL A   1      46.969  30.255  27.524  1.00  0.00     0.074 A 
ATOM     63  C   UNL A   1      46.574  24.095  26.068  1.00  0.00     0.029 A 
ATOM     64  N   UNL A   1      46.154  26.166  26.756  1.00  0.00    -0.354 N 
ATOM     65  N   UNL A   1      46.791  28.986  27.240  1.00  0.00    -0.248 NA
ATOM     66  C   UNL A   1      48.331  30.744  27.264  1.00  0.00     0.031 C 
ATOM     67  C   UNL A   1      47.742  24.852  25.928  1.00  0.00     0.029 A 
ATOM     68  C   UNL A   1      47.475  26.148  26.336  1.00  0.00     0.049 A 
ATOM     69  H   UNL A   1      45.685  26.957  27.108  1.00  0.00     0.167 HD
ATOM     70  C   UNL A   1      48.012  28.531  26.753  1.00  0.00     0.074 A 
ATOM     71  C   UNL A   1      48.912  29.666  26.756  1.00  0.00     0.031 C 
ATOM     72  C   UNL A   1      48.358  27.286  26.344  1.00  0.00     0.037 A 
BRANCH  59  73
ATOM     73  C   UNL A   1      43.796  23.137  26.755  1.00  0.00     0.058 A 
ATOM     74  C   UNL A   1      43.495  22.304  27.844  1.00  0.00     0.135 A 
ATOM     75  C   UNL A   1      43.611  22.614  25.464  1.00  0.00     0.135 A 
ATOM     76  F   UNL A   1      43.666  22.747  29.100  1.00  0.00    -0.206 F 
ATOM     77  C   UNL A   1      43.048  20.999  27.664  1.00  0.00     0.059 A 
ATOM     78  C   UNL A   1      43.141  21.319  25.259  1.00  0.00     0.059 A 
ATOM     79  F   UNL A   1      43.881  23.366  24.385  1.00  0.00    -0.206 F 
ATOM     80  C   UNL A   1      42.871  20.515  26.366  1.00  0.00     0.060 A 
BRANCH  80  81
ATOM     81  S   UNL A   1      42.267  18.827  26.151  1.00  0.00     0.124 S 
ATOM     82  O   UNL A   1      43.133  18.343  25.080  1.00  0.00    -0.237 OA
ATOM     83  O   UNL A   1      42.499  18.242  27.467  1.00  0.00    -0.237 OA
ATOM     84  O   UNL A   1      40.865  19.010  25.788  1.00  0.00    -0.744 OA
ENDBRANCH  80  81
ENDBRANCH  59  73
BRANCH  60  85
ATOM     85  C   UNL A   1      46.388  32.660  28.320  1.00  0.00     0.058 A 
ATOM     86  C   UNL A   1      46.261  33.647  27.332  1.00  0.00     0.135 A 
ATOM     87  C   UNL A   1      46.923  33.045  29.560  1.00  0.00     0.135 A 
ATOM     88  F   UNL A   1      45.761  33.329  26.128  1.00  0.00    -0.206 F 
ATOM     89  C   UNL A   1      46.674  34.958  27.551  1.00  0.00     0.059 A 
ATOM     90  C   UNL A   1      47.319  34.355  29.812  1.00  0.00     0.059 A 
ATOM     91  F   UNL A   1      47.051  32.144  30.547  1.00  0.00    -0.206 F 
ATOM     92  C   UNL A   1      47.205  35.302  28.795  1.00  0.00     0.060 A 
BRANCH  92  93
ATOM     93  S   UNL A   1      47.710  37.011  29.082  1.00  0.00     0.124 S 
ATOM     94  O   UNL A   1      46.845  37.733  28.157  1.00  0.00    -0.237 OA
ATOM     95  O   UNL A   1      47.416  37.187  30.501  1.00  0.00    -0.237 OA
ATOM     96  O   UNL A   1      49.130  37.002  28.743  1.00  0.00    -0.744 OA
ENDBRANCH  92  93
ENDBRANCH  60  85
BRANCH  72  97
ATOM     97  C   UNL A   1      49.763  27.094  25.842  1.00  0.00     0.058 A 
ATOM     98  C   UNL A   1      50.805  26.712  26.702  1.00  0.00     0.135 A 
ATOM     99  C   UNL A   1      50.066  27.271  24.483  1.00  0.00     0.135 A 
ATOM    100  F   UNL A   1      50.568  26.533  28.011  1.00  0.00    -0.206 F 
ATOM    101  C   UNL A   1      52.106  26.545  26.239  1.00  0.00     0.059 A 
ATOM    102  C   UNL A   1      51.355  27.085  23.992  1.00  0.00     0.059 A 
ATOM    103  F   UNL A   1      49.105  27.624  23.616  1.00  0.00    -0.206 F 
ATOM    104  C   UNL A   1      52.371  26.738  24.881  1.00  0.00     0.060 A 
BRANCH 104 105
ATOM    105  S   UNL A   1      54.061  26.511  24.289  1.00  0.00     0.124 S 
ATOM    106  O   UNL A   1      54.725  27.691  24.835  1.00  0.00    -0.237 OA
ATOM    107  O   UNL A   1      54.438  25.236  24.893  1.00  0.00    -0.237 OA
ATOM    108  O   UNL A   1      53.912  26.490  22.837  1.00  0.00    -0.744 OA
ENDBRANCH 104 105
ENDBRANCH  72  97
ENDBRANCH  46  47
ENDBRANCH  38  41
ENDBRANCH  36  37
ENDBRANCH  35  36
ENDBRANCH  34  35
ENDBRANCH   3  34
TORSDOF 19
ENDMDL
MODEL 3
REMARK VINA RESULT:     -11.3      5.069      6.505
REMARK SMILES COc1ccc(NS(=O)(=O)c2ccc(NC(=O)[C@H]3CCCC[C@@H]3C(=O)NCCCNC(=O)c3ccc(-c4c5nc(c(-c6c(F)cc(S(=O)(=O)[O-])cc6F)c6ccc([nH]6)c(-c6c(F)cc(S(=O)(=O)[O-])cc6F)c6nc(c(-c7c(F)cc(S(=O)(=O)[O-])cc7F)c7ccc4[nH]7)C=C6)C=C5)cc3)cc2)cc1
REMARK SMILES IDX 24 1 25 2 26 3 23 5 18 6 19 7 20 8 22 9 21 10 16 11 15 12
REMARK SMILES IDX 17 14 14 15 11 16 12 17 100 18 13 19 99 20 8 21 9 22 10 23
REMARK SMILES IDX 7 24 6 26 3 27 4 28 102 29 5 30 101 31 2 32 1 33 27 34 28 35
REMARK SMILES IDX 29 36 30 37 31 38 32 40 33 41 34 42 98 43 35 44 97 45 36 46
REMARK SMILES IDX 37 47 38 48 91 49 39 50 96 51 90 52 92 53 40 54 95 55 89 56
REMARK SMILES IDX 88 57 41 59 75 60 54 61 74 62 55 63 58 64 73 65 93 66 56 67
REMARK SMILES IDX 57 68 72 70 94 71 59 72 42 73 43 74 52 75 44 76 45 77 51 78
REMARK SMILES IDX 53 79 46 80 47 81 48 82 49 83 50 84 76 85 77 86 86 87 78 88
REMARK SMILES IDX 79 89 85 90 87 91 80 92 81 93 82 94 83 95 84 96 60 97 61 98
REMARK SMILES IDX 70 99 62 100 63 101 69 102 71 103 64 104 65 105 66 106
REMARK SMILES IDX 67 107 68 108
REMARK H PARENT 26 4 15 13 7 25 30 39 92 58 58 69
REMARK Flexibility Score: inf
ROOT
ATOM      1  C   UNL A   1      33.636  27.697  22.894  1.00  0.00     0.223 C 
ATOM      2  O   UNL A   1      33.971  27.795  21.707  1.00  0.00    -0.275 OA
ATOM      3  N   UNL A   1      34.295  28.512  23.777  1.00  0.00    -0.356 N 
ATOM      4  H   UNL A   1      35.278  28.460  23.769  1.00  0.00     0.163 HD
ENDROOT
BRANCH   1   5
ATOM      5  C   UNL A   1      32.765  26.500  23.340  1.00  0.00     0.091 C 
ATOM      6  C   UNL A   1      31.520  26.749  24.206  1.00  0.00     0.091 C 
ATOM      7  C   UNL A   1      31.749  26.774  25.715  1.00  0.00     0.014 C 
ATOM      8  C   UNL A   1      32.845  25.872  26.275  1.00  0.00     0.001 C 
ATOM      9  C   UNL A   1      33.725  25.431  23.863  1.00  0.00     0.014 C 
ATOM     10  C   UNL A   1      34.003  25.487  25.355  1.00  0.00     0.001 C 
BRANCH   6  11
ATOM     11  C   UNL A   1      30.219  26.013  23.733  1.00  0.00     0.228 C 
ATOM     12  N   UNL A   1      29.908  24.726  24.107  1.00  0.00    -0.326 N 
ATOM     13  H   UNL A   1      28.959  24.565  24.314  1.00  0.00     0.169 HD
ATOM     14  O   UNL A   1      29.356  26.654  23.118  1.00  0.00    -0.274 OA
BRANCH  12  15
ATOM     15  C   UNL A   1      30.748  23.613  24.235  1.00  0.00     0.041 A 
ATOM     16  C   UNL A   1      32.153  21.212  24.484  1.00  0.00     0.087 A 
ATOM     17  C   UNL A   1      31.550  21.789  25.596  1.00  0.00     0.024 A 
ATOM     18  C   UNL A   1      32.131  21.875  23.254  1.00  0.00     0.024 A 
ATOM     19  C   UNL A   1      30.934  23.032  25.479  1.00  0.00     0.027 A 
ATOM     20  C   UNL A   1      31.422  23.083  23.130  1.00  0.00     0.027 A 
BRANCH  16  21
ATOM     21  S   UNL A   1      32.943  19.632  24.671  1.00  0.00     0.261 S 
ATOM     22  O   UNL A   1      33.581  19.285  23.426  1.00  0.00    -0.201 OA
ATOM     23  O   UNL A   1      31.980  18.746  25.300  1.00  0.00    -0.201 OA
BRANCH  21  24
ATOM     24  N   UNL A   1      34.204  19.870  25.825  1.00  0.00    -0.280 N 
ATOM     25  H   UNL A   1      34.380  19.231  26.552  1.00  0.00     0.180 HD
BRANCH  24  26
ATOM     26  C   UNL A   1      34.978  21.063  25.648  1.00  0.00     0.049 A 
ATOM     27  C   UNL A   1      36.872  23.112  25.546  1.00  0.00     0.119 A 
ATOM     28  C   UNL A   1      36.916  22.073  24.622  1.00  0.00     0.048 A 
ATOM     29  C   UNL A   1      35.830  23.161  26.476  1.00  0.00     0.048 A 
ATOM     30  C   UNL A   1      35.942  21.081  24.642  1.00  0.00     0.030 A 
ATOM     31  C   UNL A   1      34.895  22.121  26.545  1.00  0.00     0.030 A 
BRANCH  27  32
ATOM     32  O   UNL A   1      37.906  23.999  25.434  1.00  0.00    -0.497 OA
ATOM     33  C   UNL A   1      38.752  24.137  26.565  1.00  0.00     0.278 C 
ENDBRANCH  27  32
ENDBRANCH  24  26
ENDBRANCH  21  24
ENDBRANCH  16  21
ENDBRANCH  12  15
ENDBRANCH   6  11
ENDBRANCH   1   5
BRANCH   3  34
ATOM     34  C   UNL A   1      33.705  29.447  24.726  1.00  0.00     0.117 C 
BRANCH  34  35
ATOM     35  C   UNL A   1      34.127  29.246  26.181  1.00  0.00     0.042 C 
BRANCH  35  36
ATOM     36  C   UNL A   1      33.250  29.856  27.262  1.00  0.00     0.118 C 
BRANCH  36  37
ATOM     37  N   UNL A   1      33.375  31.299  27.306  1.00  0.00    -0.352 N 
ATOM     38  C   UNL A   1      34.278  32.123  27.931  1.00  0.00     0.251 C 
ATOM     39  H   UNL A   1      32.685  31.777  26.792  1.00  0.00     0.163 HD
ATOM     40  O   UNL A   1      33.971  33.311  28.043  1.00  0.00    -0.269 OA
BRANCH  38  41
ATOM     41  C   UNL A   1      35.589  31.662  28.474  1.00  0.00     0.039 A 
ATOM     42  C   UNL A   1      35.595  30.495  29.253  1.00  0.00     0.014 A 
ATOM     43  C   UNL A   1      36.775  32.393  28.364  1.00  0.00     0.014 A 
ATOM     44  C   UNL A   1      36.764  30.066  29.896  1.00  0.00     0.010 A 
ATOM     45  C   UNL A   1      37.963  31.922  28.943  1.00  0.00     0.010 A 
ATOM     46  C   UNL A   1      37.969  30.766  29.739  1.00  0.00    -0.014 A 
BRANCH  46  47
ATOM     47  C   UNL A   1      39.211  30.312  30.432  1.00  0.00     0.031 A 
ATOM     48  C   UNL A   1      39.618  30.913  31.757  1.00  0.00     0.074 A 
ATOM     49  C   UNL A   1      39.982  29.358  29.868  1.00  0.00     0.049 A 
ATOM     50  N   UNL A   1      40.663  30.646  32.500  1.00  0.00    -0.248 NA
ATOM     51  C   UNL A   1      38.748  31.961  32.312  1.00  0.00     0.031 C 
ATOM     52  C   UNL A   1      39.728  28.724  28.573  1.00  0.00     0.029 A 
ATOM     53  N   UNL A   1      41.135  28.754  30.310  1.00  0.00    -0.354 N 
ATOM     54  C   UNL A   1      40.583  31.496  33.599  1.00  0.00     0.074 A 
ATOM     55  C   UNL A   1      39.412  32.322  33.402  1.00  0.00     0.031 C 
ATOM     56  C   UNL A   1      40.679  27.806  28.336  1.00  0.00     0.029 A 
ATOM     57  C   UNL A   1      41.628  27.805  29.444  1.00  0.00     0.049 A 
ATOM     58  H   UNL A   1      41.567  28.980  31.165  1.00  0.00     0.167 HD
ATOM     59  C   UNL A   1      41.392  31.567  34.685  1.00  0.00     0.037 A 
ATOM     60  C   UNL A   1      42.723  27.023  29.529  1.00  0.00     0.037 A 
ATOM     61  C   UNL A   1      42.541  30.724  34.896  1.00  0.00     0.049 A 
ATOM     62  C   UNL A   1      43.600  27.115  30.749  1.00  0.00     0.074 A 
ATOM     63  C   UNL A   1      43.393  30.686  35.986  1.00  0.00     0.029 A 
ATOM     64  N   UNL A   1      42.997  29.766  34.003  1.00  0.00    -0.354 N 
ATOM     65  N   UNL A   1      43.471  27.888  31.802  1.00  0.00    -0.248 NA
ATOM     66  C   UNL A   1      44.766  26.222  30.799  1.00  0.00     0.031 C 
ATOM     67  C   UNL A   1      44.386  29.732  35.736  1.00  0.00     0.029 A 
ATOM     68  C   UNL A   1      44.127  29.144  34.510  1.00  0.00     0.049 A 
ATOM     69  H   UNL A   1      42.580  29.558  33.135  1.00  0.00     0.167 HD
ATOM     70  C   UNL A   1      44.527  27.561  32.645  1.00  0.00     0.074 A 
ATOM     71  C   UNL A   1      45.271  26.503  31.992  1.00  0.00     0.031 C 
ATOM     72  C   UNL A   1      44.855  28.091  33.849  1.00  0.00     0.037 A 
BRANCH  59  73
ATOM     73  C   UNL A   1      41.057  32.581  35.747  1.00  0.00     0.058 A 
ATOM     74  C   UNL A   1      41.723  33.816  35.820  1.00  0.00     0.135 A 
ATOM     75  C   UNL A   1      40.016  32.347  36.662  1.00  0.00     0.135 A 
ATOM     76  F   UNL A   1      42.733  34.088  34.980  1.00  0.00    -0.206 F 
ATOM     77  C   UNL A   1      41.385  34.771  36.773  1.00  0.00     0.059 A 
ATOM     78  C   UNL A   1      39.644  33.299  37.607  1.00  0.00     0.059 A 
ATOM     79  F   UNL A   1      39.344  31.185  36.637  1.00  0.00    -0.206 F 
ATOM     80  C   UNL A   1      40.342  34.506  37.662  1.00  0.00     0.060 A 
BRANCH  80  81
ATOM     81  S   UNL A   1      39.901  35.767  38.877  1.00  0.00     0.124 S 
ATOM     82  O   UNL A   1      39.714  36.938  38.026  1.00  0.00    -0.237 OA
ATOM     83  O   UNL A   1      38.689  35.216  39.473  1.00  0.00    -0.237 OA
ATOM     84  O   UNL A   1      41.065  35.813  39.757  1.00  0.00    -0.744 OA
ENDBRANCH  80  81
ENDBRANCH  59  73
BRANCH  60  85
ATOM     85  C   UNL A   1      43.051  26.071  28.432  1.00  0.00     0.058 A 
ATOM     86  C   UNL A   1      42.604  24.742  28.466  1.00  0.00     0.135 A 
ATOM     87  C   UNL A   1      43.826  26.470  27.332  1.00  0.00     0.135 A 
ATOM     88  F   UNL A   1      41.865  24.310  29.500  1.00  0.00    -0.206 F 
ATOM     89  C   UNL A   1      42.936  23.834  27.465  1.00  0.00     0.059 A 
ATOM     90  C   UNL A   1      44.149  25.588  26.305  1.00  0.00     0.059 A 
ATOM     91  F   UNL A   1      44.266  27.735  27.241  1.00  0.00    -0.206 F 
ATOM     92  C   UNL A   1      43.711  24.267  26.388  1.00  0.00     0.060 A 
BRANCH  92  93
ATOM     93  S   UNL A   1      44.111  23.092  25.077  1.00  0.00     0.124 S 
ATOM     94  O   UNL A   1      42.784  22.684  24.633  1.00  0.00    -0.237 OA
ATOM     95  O   UNL A   1      44.871  23.916  24.143  1.00  0.00    -0.237 OA
ATOM     96  O   UNL A   1      44.888  22.069  25.771  1.00  0.00    -0.744 OA
ENDBRANCH  92  93
ENDBRANCH  60  85
BRANCH  72  97
ATOM     97  C   UNL A   1      46.058  27.517  34.547  1.00  0.00     0.058 A 
ATOM     98  C   UNL A   1      47.341  28.057  34.368  1.00  0.00     0.135 A 
ATOM     99  C   UNL A   1      45.921  26.428  35.424  1.00  0.00     0.135 A 
ATOM    100  F   UNL A   1      47.525  29.095  33.537  1.00  0.00    -0.206 F 
ATOM    101  C   UNL A   1      48.452  27.517  35.006  1.00  0.00     0.059 A 
ATOM    102  C   UNL A   1      47.015  25.888  36.093  1.00  0.00     0.059 A 
ATOM    103  F   UNL A   1      44.714  25.881  35.641  1.00  0.00    -0.206 F 
ATOM    104  C   UNL A   1      48.279  26.430  35.865  1.00  0.00     0.060 A 
BRANCH 104 105
ATOM    105  S   UNL A   1      49.728  25.743  36.694  1.00  0.00     0.124 S 
ATOM    106  O   UNL A   1      49.343  24.344  36.850  1.00  0.00    -0.237 OA
ATOM    107  O   UNL A   1      50.795  26.003  35.733  1.00  0.00    -0.237 OA
ATOM    108  O   UNL A   1      49.807  26.514  37.932  1.00  0.00    -0.744 OA
ENDBRANCH 104 105
ENDBRANCH  72  97
ENDBRANCH  46  47
ENDBRANCH  38  41
ENDBRANCH  36  37
ENDBRANCH  35  36
ENDBRANCH  34  35
ENDBRANCH   3  34
TORSDOF 19
ENDMDL
