MODEL 1
REMARK VINA RESULT:     -11.3      0.000      0.000
REMARK SMILES O=C(Cc1cccn(C(F)F)c1=O)NCCCNC(=O)c1ccc(-c2c3nc(c(-c4c(F)cc(S(=O)(=O)[O-])cc4F)c4ccc([nH]4)c(-c4c(F)cc(S(=O)(=O)[O-])cc4F)c4nc(c(-c5c(F)cc(S(=O)(=O)[O-])cc5F)c5ccc2[nH]5)C=C4)C=C3)cc1
REMARK SMILES IDX 16 1 15 2 14 3 1 4 2 5 3 7 4 8 5 9 12 10 6 11 8 12 13 13
REMARK SMILES IDX 7 14 9 15 10 16 11 17 17 18 18 19 19 20 20 22 21 23 22 24
REMARK SMILES IDX 86 25 23 26 85 27 24 28 25 29 26 30 79 31 27 32 84 33 78 34
REMARK SMILES IDX 80 35 28 36 83 37 77 38 76 39 29 41 63 42 42 43 62 44 43 45
REMARK SMILES IDX 46 46 61 47 81 48 44 49 45 50 60 52 82 53 47 54 30 55 31 56
REMARK SMILES IDX 40 57 32 58 33 59 39 60 41 61 34 62 35 63 36 64 37 65 38 66
REMARK SMILES IDX 64 67 65 68 74 69 66 70 67 71 73 72 75 73 68 74 69 75 70 76
REMARK SMILES IDX 71 77 72 78 48 79 49 80 58 81 50 82 51 83 57 84 59 85 52 86
REMARK SMILES IDX 53 87 54 88 55 89 56 90
REMARK H PARENT 14 6 18 21 80 40 46 51
REMARK Flexibility Score: inf
ROOT
ATOM      1  C   UNL A   1      40.543  22.048  27.438  1.00  0.00     0.042 C 
ENDROOT
BRANCH   1   2
ATOM      2  C   UNL A   1      39.623  21.966  26.226  1.00  0.00     0.117 C 
BRANCH   2   3
ATOM      3  N   UNL A   1      38.335  22.588  26.457  1.00  0.00    -0.356 N 
ATOM      4  O   UNL A   1      37.471  22.149  24.372  1.00  0.00    -0.275 OA
ATOM      5  C   UNL A   1      37.336  22.604  25.503  1.00  0.00     0.224 C 
ATOM      6  H   UNL A   1      38.165  23.016  27.327  1.00  0.00     0.163 HD
BRANCH   5   7
ATOM      7  C   UNL A   1      36.025  23.187  26.011  1.00  0.00     0.141 C 
BRANCH   7   8
ATOM      8  C   UNL A   1      34.897  22.370  25.451  1.00  0.00     0.027 A 
ATOM      9  C   UNL A   1      34.545  21.163  25.932  1.00  0.00     0.011 A 
ATOM     10  C   UNL A   1      34.120  22.947  24.303  1.00  0.00     0.258 A 
ATOM     11  C   UNL A   1      33.491  20.393  25.326  1.00  0.00     0.019 A 
ATOM     12  N   UNL A   1      33.118  22.144  23.783  1.00  0.00    -0.258 N 
ATOM     13  O   UNL A   1      34.364  24.077  23.890  1.00  0.00    -0.269 OA
ATOM     14  C   UNL A   1      32.821  20.892  24.283  1.00  0.00     0.095 A 
BRANCH  12  15
ATOM     15  C   UNL A   1      32.352  22.664  22.681  1.00  0.00     0.451 C 
ATOM     16  F   UNL A   1      33.103  22.632  21.547  1.00  0.00    -0.185 F 
ATOM     17  F   UNL A   1      31.285  21.852  22.445  1.00  0.00    -0.185 F 
ENDBRANCH  12  15
ENDBRANCH   7   8
ENDBRANCH   5   7
ENDBRANCH   2   3
ENDBRANCH   1   2
BRANCH   1  18
ATOM     18  C   UNL A   1      41.694  23.041  27.316  1.00  0.00     0.118 C 
BRANCH  18  19
ATOM     19  N   UNL A   1      41.569  23.973  26.204  1.00  0.00    -0.352 N 
ATOM     20  C   UNL A   1      41.339  25.333  26.245  1.00  0.00     0.251 C 
ATOM     21  H   UNL A   1      41.658  23.581  25.305  1.00  0.00     0.163 HD
ATOM     22  O   UNL A   1      41.180  25.960  25.202  1.00  0.00    -0.269 OA
BRANCH  20  23
ATOM     23  C   UNL A   1      41.241  26.023  27.553  1.00  0.00     0.039 A 
ATOM     24  C   UNL A   1      40.104  25.883  28.350  1.00  0.00     0.014 A 
ATOM     25  C   UNL A   1      42.282  26.861  27.962  1.00  0.00     0.014 A 
ATOM     26  C   UNL A   1      39.932  26.712  29.454  1.00  0.00     0.010 A 
ATOM     27  C   UNL A   1      42.140  27.634  29.121  1.00  0.00     0.010 A 
ATOM     28  C   UNL A   1      40.939  27.611  29.845  1.00  0.00    -0.014 A 
BRANCH  28  29
ATOM     29  C   UNL A   1      40.688  28.527  30.990  1.00  0.00     0.031 A 
ATOM     30  C   UNL A   1      41.587  28.514  32.201  1.00  0.00     0.074 A 
ATOM     31  C   UNL A   1      39.697  29.436  30.903  1.00  0.00     0.049 A 
ATOM     32  N   UNL A   1      41.566  29.298  33.250  1.00  0.00    -0.248 NA
ATOM     33  C   UNL A   1      42.644  27.491  32.244  1.00  0.00     0.031 C 
ATOM     34  C   UNL A   1      38.759  29.553  29.785  1.00  0.00     0.029 A 
ATOM     35  N   UNL A   1      39.336  30.457  31.747  1.00  0.00    -0.354 N 
ATOM     36  C   UNL A   1      42.593  28.859  34.079  1.00  0.00     0.074 A 
ATOM     37  C   UNL A   1      43.198  27.717  33.428  1.00  0.00     0.031 C 
ATOM     38  C   UNL A   1      37.976  30.625  29.978  1.00  0.00     0.029 A 
ATOM     39  C   UNL A   1      38.318  31.242  31.256  1.00  0.00     0.049 A 
ATOM     40  H   UNL A   1      39.764  30.614  32.618  1.00  0.00     0.167 HD
ATOM     41  C   UNL A   1      43.006  29.369  35.263  1.00  0.00     0.037 A 
ATOM     42  C   UNL A   1      37.725  32.336  31.772  1.00  0.00     0.037 A 
ATOM     43  C   UNL A   1      42.423  30.521  35.901  1.00  0.00     0.049 A 
ATOM     44  C   UNL A   1      38.184  32.867  33.100  1.00  0.00     0.074 A 
ATOM     45  C   UNL A   1      42.791  31.124  37.090  1.00  0.00     0.029 A 
ATOM     46  N   UNL A   1      41.352  31.247  35.400  1.00  0.00    -0.354 N 
ATOM     47  N   UNL A   1      39.163  32.441  33.861  1.00  0.00    -0.248 NA
ATOM     48  C   UNL A   1      37.451  34.018  33.646  1.00  0.00     0.031 C 
ATOM     49  C   UNL A   1      41.922  32.194  37.327  1.00  0.00     0.029 A 
ATOM     50  C   UNL A   1      41.035  32.280  36.267  1.00  0.00     0.049 A 
ATOM     51  H   UNL A   1      40.886  31.056  34.554  1.00  0.00     0.167 HD
ATOM     52  C   UNL A   1      39.165  33.271  34.975  1.00  0.00     0.074 A 
ATOM     53  C   UNL A   1      38.105  34.239  34.779  1.00  0.00     0.031 C 
ATOM     54  C   UNL A   1      39.971  33.231  36.064  1.00  0.00     0.037 A 
BRANCH  41  55
ATOM     55  C   UNL A   1      44.151  28.686  35.960  1.00  0.00     0.058 A 
ATOM     56  C   UNL A   1      45.479  29.098  35.765  1.00  0.00     0.135 A 
ATOM     57  C   UNL A   1      43.914  27.646  36.873  1.00  0.00     0.135 A 
ATOM     58  F   UNL A   1      45.761  30.077  34.891  1.00  0.00    -0.206 F 
ATOM     59  C   UNL A   1      46.533  28.492  36.439  1.00  0.00     0.059 A 
ATOM     60  C   UNL A   1      44.952  27.039  37.575  1.00  0.00     0.059 A 
ATOM     61  F   UNL A   1      42.662  27.216  37.096  1.00  0.00    -0.206 F 
ATOM     62  C   UNL A   1      46.260  27.462  37.343  1.00  0.00     0.060 A 
BRANCH  62  63
ATOM     63  S   UNL A   1      47.641  26.692  38.214  1.00  0.00     0.124 S 
ATOM     64  O   UNL A   1      47.275  26.935  39.607  1.00  0.00    -0.237 OA
ATOM     65  O   UNL A   1      47.555  25.304  37.771  1.00  0.00    -0.237 OA
ATOM     66  O   UNL A   1      48.802  27.432  37.733  1.00  0.00    -0.744 OA
ENDBRANCH  62  63
ENDBRANCH  41  55
BRANCH  42  67
ATOM     67  C   UNL A   1      36.639  33.006  31.014  1.00  0.00     0.058 A 
ATOM     68  C   UNL A   1      35.297  32.856  31.393  1.00  0.00     0.135 A 
ATOM     69  C   UNL A   1      36.923  33.845  29.925  1.00  0.00     0.135 A 
ATOM     70  F   UNL A   1      34.977  32.059  32.423  1.00  0.00    -0.206 F 
ATOM     71  C   UNL A   1      34.274  33.517  30.722  1.00  0.00     0.059 A 
ATOM     72  C   UNL A   1      35.921  34.533  29.252  1.00  0.00     0.059 A 
ATOM     73  F   UNL A   1      38.194  34.029  29.532  1.00  0.00    -0.206 F 
ATOM     74  C   UNL A   1      34.597  34.360  29.657  1.00  0.00     0.060 A 
BRANCH  74  75
ATOM     75  S   UNL A   1      33.271  35.277  28.845  1.00  0.00     0.124 S 
ATOM     76  O   UNL A   1      32.488  35.735  29.987  1.00  0.00    -0.237 OA
ATOM     77  O   UNL A   1      34.008  36.308  28.122  1.00  0.00    -0.237 OA
ATOM     78  O   UNL A   1      32.632  34.269  28.004  1.00  0.00    -0.744 OA
ENDBRANCH  74  75
ENDBRANCH  42  67
BRANCH  54  79
ATOM     79  C   UNL A   1      39.739  34.256  37.137  1.00  0.00     0.058 A 
ATOM     80  C   UNL A   1      38.981  33.954  38.279  1.00  0.00     0.135 A 
ATOM     81  C   UNL A   1      40.339  35.522  37.060  1.00  0.00     0.135 A 
ATOM     82  F   UNL A   1      38.381  32.759  38.395  1.00  0.00    -0.206 F 
ATOM     83  C   UNL A   1      38.821  34.877  39.306  1.00  0.00     0.059 A 
ATOM     84  C   UNL A   1      40.208  36.454  38.085  1.00  0.00     0.059 A 
ATOM     85  F   UNL A   1      41.079  35.855  35.990  1.00  0.00    -0.206 F 
ATOM     86  C   UNL A   1      39.443  36.123  39.203  1.00  0.00     0.060 A 
BRANCH  86  87
ATOM     87  S   UNL A   1      39.270  37.291  40.569  1.00  0.00     0.124 S 
ATOM     88  O   UNL A   1      40.633  37.795  40.700  1.00  0.00    -0.237 OA
ATOM     89  O   UNL A   1      38.290  38.239  40.047  1.00  0.00    -0.237 OA
ATOM     90  O   UNL A   1      38.799  36.458  41.672  1.00  0.00    -0.744 OA
ENDBRANCH  86  87
ENDBRANCH  54  79
ENDBRANCH  28  29
ENDBRANCH  20  23
ENDBRANCH  18  19
ENDBRANCH   1  18
TORSDOF 15
ENDMDL
MODEL 2
REMARK VINA RESULT:     -11.3      3.318      4.742
REMARK SMILES O=C(Cc1cccn(C(F)F)c1=O)NCCCNC(=O)c1ccc(-c2c3nc(c(-c4c(F)cc(S(=O)(=O)[O-])cc4F)c4ccc([nH]4)c(-c4c(F)cc(S(=O)(=O)[O-])cc4F)c4nc(c(-c5c(F)cc(S(=O)(=O)[O-])cc5F)c5ccc2[nH]5)C=C4)C=C3)cc1
REMARK SMILES IDX 16 1 15 2 14 3 1 4 2 5 3 7 4 8 5 9 12 10 6 11 8 12 13 13
REMARK SMILES IDX 7 14 9 15 10 16 11 17 17 18 18 19 19 20 20 22 21 23 22 24
REMARK SMILES IDX 86 25 23 26 85 27 24 28 25 29 26 30 79 31 27 32 84 33 78 34
REMARK SMILES IDX 80 35 28 36 83 37 77 38 76 39 29 41 63 42 42 43 62 44 43 45
REMARK SMILES IDX 46 46 61 47 81 48 44 49 45 50 60 52 82 53 47 54 30 55 31 56
REMARK SMILES IDX 40 57 32 58 33 59 39 60 41 61 34 62 35 63 36 64 37 65 38 66
REMARK SMILES IDX 64 67 65 68 74 69 66 70 67 71 73 72 75 73 68 74 69 75 70 76
REMARK SMILES IDX 71 77 72 78 48 79 49 80 58 81 50 82 51 83 57 84 59 85 52 86
REMARK SMILES IDX 53 87 54 88 55 89 56 90
REMARK H PARENT 14 6 18 21 80 40 46 51
REMARK Flexibility Score: inf
ROOT
ATOM      1  C   UNL A   1      44.009  23.908  28.460  1.00  0.00     0.042 C 
ENDROOT
BRANCH   1   2
ATOM      2  C   UNL A   1      44.509  24.741  27.286  1.00  0.00     0.117 C 
BRANCH   2   3
ATOM      3  N   UNL A   1      44.606  23.977  26.058  1.00  0.00    -0.356 N 
ATOM      4  O   UNL A   1      46.868  23.586  26.189  1.00  0.00    -0.275 OA
ATOM      5  C   UNL A   1      45.794  23.429  25.616  1.00  0.00     0.224 C 
ATOM      6  H   UNL A   1      43.794  23.845  25.517  1.00  0.00     0.163 HD
BRANCH   5   7
ATOM      7  C   UNL A   1      45.633  22.554  24.381  1.00  0.00     0.141 C 
BRANCH   7   8
ATOM      8  C   UNL A   1      45.380  21.145  24.831  1.00  0.00     0.027 A 
ATOM      9  C   UNL A   1      46.341  20.205  24.903  1.00  0.00     0.011 A 
ATOM     10  C   UNL A   1      43.979  20.781  25.232  1.00  0.00     0.258 A 
ATOM     11  C   UNL A   1      46.039  18.852  25.289  1.00  0.00     0.019 A 
ATOM     12  N   UNL A   1      43.775  19.460  25.597  1.00  0.00    -0.258 N 
ATOM     13  O   UNL A   1      43.095  21.632  25.252  1.00  0.00    -0.269 OA
ATOM     14  C   UNL A   1      44.786  18.519  25.614  1.00  0.00     0.095 A 
BRANCH  12  15
ATOM     15  C   UNL A   1      42.445  19.074  25.988  1.00  0.00     0.451 C 
ATOM     16  F   UNL A   1      42.319  17.722  25.909  1.00  0.00    -0.185 F 
ATOM     17  F   UNL A   1      42.246  19.392  27.296  1.00  0.00    -0.185 F 
ENDBRANCH  12  15
ENDBRANCH   7   8
ENDBRANCH   5   7
ENDBRANCH   2   3
ENDBRANCH   1   2
BRANCH   1  18
ATOM     18  C   UNL A   1      42.512  23.614  28.459  1.00  0.00     0.118 C 
BRANCH  18  19
ATOM     19  N   UNL A   1      41.857  23.834  27.177  1.00  0.00    -0.352 N 
ATOM     20  C   UNL A   1      40.989  24.843  26.818  1.00  0.00     0.251 C 
ATOM     21  H   UNL A   1      42.060  23.174  26.475  1.00  0.00     0.163 HD
ATOM     22  O   UNL A   1      40.461  24.834  25.711  1.00  0.00    -0.269 OA
BRANCH  20  23
ATOM     23  C   UNL A   1      40.663  25.912  27.792  1.00  0.00     0.039 A 
ATOM     24  C   UNL A   1      41.453  27.059  27.885  1.00  0.00     0.014 A 
ATOM     25  C   UNL A   1      39.579  25.740  28.658  1.00  0.00     0.014 A 
ATOM     26  C   UNL A   1      41.271  27.936  28.950  1.00  0.00     0.010 A 
ATOM     27  C   UNL A   1      39.348  26.668  29.680  1.00  0.00     0.010 A 
ATOM     28  C   UNL A   1      40.229  27.743  29.872  1.00  0.00    -0.014 A 
BRANCH  28  29
ATOM     29  C   UNL A   1      40.110  28.664  31.035  1.00  0.00     0.031 A 
ATOM     30  C   UNL A   1      41.072  28.573  32.194  1.00  0.00     0.074 A 
ATOM     31  C   UNL A   1      39.187  29.646  31.008  1.00  0.00     0.049 A 
ATOM     32  N   UNL A   1      41.167  29.346  33.246  1.00  0.00    -0.248 NA
ATOM     33  C   UNL A   1      42.050  27.473  32.173  1.00  0.00     0.031 C 
ATOM     34  C   UNL A   1      38.200  29.842  29.945  1.00  0.00     0.029 A 
ATOM     35  N   UNL A   1      38.950  30.683  31.875  1.00  0.00    -0.354 N 
ATOM     36  C   UNL A   1      42.202  28.824  34.014  1.00  0.00     0.074 A 
ATOM     37  C   UNL A   1      42.684  27.647  33.325  1.00  0.00     0.031 C 
ATOM     38  C   UNL A   1      37.511  30.968  30.187  1.00  0.00     0.029 A 
ATOM     39  C   UNL A   1      37.969  31.546  31.446  1.00  0.00     0.049 A 
ATOM     40  H   UNL A   1      39.437  30.799  32.723  1.00  0.00     0.167 HD
ATOM     41  C   UNL A   1      42.717  29.291  35.177  1.00  0.00     0.037 A 
ATOM     42  C   UNL A   1      37.489  32.676  32.001  1.00  0.00     0.037 A 
ATOM     43  C   UNL A   1      42.258  30.478  35.852  1.00  0.00     0.049 A 
ATOM     44  C   UNL A   1      38.059  33.158  33.303  1.00  0.00     0.074 A 
ATOM     45  C   UNL A   1      42.735  31.040  37.022  1.00  0.00     0.029 A 
ATOM     46  N   UNL A   1      41.218  31.285  35.416  1.00  0.00    -0.354 N 
ATOM     47  N   UNL A   1      39.043  32.654  34.007  1.00  0.00    -0.248 NA
ATOM     48  C   UNL A   1      37.445  34.355  33.896  1.00  0.00     0.031 C 
ATOM     49  C   UNL A   1      41.963  32.170  37.313  1.00  0.00     0.029 A 
ATOM     50  C   UNL A   1      41.028  32.331  36.305  1.00  0.00     0.049 A 
ATOM     51  H   UNL A   1      40.693  31.138  34.596  1.00  0.00     0.167 HD
ATOM     52  C   UNL A   1      39.169  33.471  35.123  1.00  0.00     0.074 A 
ATOM     53  C   UNL A   1      38.175  34.517  34.992  1.00  0.00     0.031 C 
ATOM     54  C   UNL A   1      40.028  33.361  36.166  1.00  0.00     0.037 A 
BRANCH  41  55
ATOM     55  C   UNL A   1      43.844  28.518  35.805  1.00  0.00     0.058 A 
ATOM     56  C   UNL A   1      43.601  27.433  36.662  1.00  0.00     0.135 A 
ATOM     57  C   UNL A   1      45.180  28.829  35.503  1.00  0.00     0.135 A 
ATOM     58  F   UNL A   1      42.343  27.104  36.995  1.00  0.00    -0.206 F 
ATOM     59  C   UNL A   1      44.644  26.694  37.210  1.00  0.00     0.059 A 
ATOM     60  C   UNL A   1      46.238  28.090  36.024  1.00  0.00     0.059 A 
ATOM     61  F   UNL A   1      45.466  29.857  34.688  1.00  0.00    -0.206 F 
ATOM     62  C   UNL A   1      45.960  27.030  36.885  1.00  0.00     0.060 A 
BRANCH  62  63
ATOM     63  S   UNL A   1      47.300  26.054  37.601  1.00  0.00     0.124 S 
ATOM     64  O   UNL A   1      48.392  27.023  37.607  1.00  0.00    -0.237 OA
ATOM     65  O   UNL A   1      46.763  25.699  38.910  1.00  0.00    -0.237 OA
ATOM     66  O   UNL A   1      47.451  24.945  36.665  1.00  0.00    -0.744 OA
ENDBRANCH  62  63
ENDBRANCH  41  55
BRANCH  42  67
ATOM     67  C   UNL A   1      36.416  33.432  31.307  1.00  0.00     0.058 A 
ATOM     68  C   UNL A   1      36.688  34.163  30.142  1.00  0.00     0.135 A 
ATOM     69  C   UNL A   1      35.090  33.399  31.768  1.00  0.00     0.135 A 
ATOM     70  F   UNL A   1      37.940  34.229  29.668  1.00  0.00    -0.206 F 
ATOM     71  C   UNL A   1      35.682  34.836  29.455  1.00  0.00     0.059 A 
ATOM     72  C   UNL A   1      34.065  34.044  31.086  1.00  0.00     0.059 A 
ATOM     73  F   UNL A   1      34.779  32.702  32.872  1.00  0.00    -0.206 F 
ATOM     74  C   UNL A   1      34.372  34.763  29.931  1.00  0.00     0.060 A 
BRANCH  74  75
ATOM     75  S   UNL A   1      33.061  35.569  28.987  1.00  0.00     0.124 S 
ATOM     76  O   UNL A   1      32.528  34.454  28.213  1.00  0.00    -0.237 OA
ATOM     77  O   UNL A   1      32.196  36.087  30.042  1.00  0.00    -0.237 OA
ATOM     78  O   UNL A   1      33.777  36.585  28.220  1.00  0.00    -0.744 OA
ENDBRANCH  74  75
ENDBRANCH  42  67
BRANCH  54  79
ATOM     79  C   UNL A   1      39.933  34.390  37.255  1.00  0.00     0.058 A 
ATOM     80  C   UNL A   1      40.641  35.599  37.176  1.00  0.00     0.135 A 
ATOM     81  C   UNL A   1      39.072  34.201  38.346  1.00  0.00     0.135 A 
ATOM     82  F   UNL A   1      41.483  35.823  36.155  1.00  0.00    -0.206 F 
ATOM     83  C   UNL A   1      40.503  36.584  38.147  1.00  0.00     0.059 A 
ATOM     84  C   UNL A   1      38.903  35.181  39.319  1.00  0.00     0.059 A 
ATOM     85  F   UNL A   1      38.367  33.064  38.462  1.00  0.00    -0.206 F 
ATOM     86  C   UNL A   1      39.628  36.369  39.213  1.00  0.00     0.060 A 
BRANCH  86  87
ATOM     87  S   UNL A   1      39.419  37.678  40.438  1.00  0.00     0.124 S 
ATOM     88  O   UNL A   1      38.197  38.325  39.972  1.00  0.00    -0.237 OA
ATOM     89  O   UNL A   1      39.302  36.925  41.683  1.00  0.00    -0.237 OA
ATOM     90  O   UNL A   1      40.639  38.468  40.303  1.00  0.00    -0.744 OA
ENDBRANCH  86  87
ENDBRANCH  54  79
ENDBRANCH  28  29
ENDBRANCH  20  23
ENDBRANCH  18  19
ENDBRANCH   1  18
TORSDOF 15
ENDMDL
MODEL 3
REMARK VINA RESULT:     -11.2      6.355     11.011
REMARK SMILES O=C(Cc1cccn(C(F)F)c1=O)NCCCNC(=O)c1ccc(-c2c3nc(c(-c4c(F)cc(S(=O)(=O)[O-])cc4F)c4ccc([nH]4)c(-c4c(F)cc(S(=O)(=O)[O-])cc4F)c4nc(c(-c5c(F)cc(S(=O)(=O)[O-])cc5F)c5ccc2[nH]5)C=C4)C=C3)cc1
REMARK SMILES IDX 16 1 15 2 14 3 1 4 2 5 3 7 4 8 5 9 12 10 6 11 8 12 13 13
REMARK SMILES IDX 7 14 9 15 10 16 11 17 17 18 18 19 19 20 20 22 21 23 22 24
REMARK SMILES IDX 86 25 23 26 85 27 24 28 25 29 26 30 79 31 27 32 84 33 78 34
REMARK SMILES IDX 80 35 28 36 83 37 77 38 76 39 29 41 63 42 42 43 62 44 43 45
REMARK SMILES IDX 46 46 61 47 81 48 44 49 45 50 60 52 82 53 47 54 30 55 31 56
REMARK SMILES IDX 40 57 32 58 33 59 39 60 41 61 34 62 35 63 36 64 37 65 38 66
REMARK SMILES IDX 64 67 65 68 74 69 66 70 67 71 73 72 75 73 68 74 69 75 70 76
REMARK SMILES IDX 71 77 72 78 48 79 49 80 58 81 50 82 51 83 57 84 59 85 52 86
REMARK SMILES IDX 53 87 54 88 55 89 56 90
REMARK H PARENT 14 6 18 21 80 40 46 51
REMARK Flexibility Score: inf
ROOT
ATOM      1  C   UNL A   1      32.427  28.007  26.877  1.00  0.00     0.042 C 
ENDROOT
BRANCH   1   2
ATOM      2  C   UNL A   1      32.160  27.586  25.438  1.00  0.00     0.117 C 
BRANCH   2   3
ATOM      3  N   UNL A   1      30.868  28.029  24.955  1.00  0.00    -0.356 N 
ATOM      4  O   UNL A   1      31.562  28.539  22.823  1.00  0.00    -0.275 OA
ATOM      5  C   UNL A   1      30.665  28.451  23.655  1.00  0.00     0.224 C 
ATOM      6  H   UNL A   1      30.105  28.030  25.577  1.00  0.00     0.163 HD
BRANCH   5   7
ATOM      7  C   UNL A   1      29.205  28.737  23.334  1.00  0.00     0.141 C 
BRANCH   7   8
ATOM      8  C   UNL A   1      29.058  30.209  23.079  1.00  0.00     0.027 A 
ATOM      9  C   UNL A   1      29.444  31.156  23.954  1.00  0.00     0.011 A 
ATOM     10  C   UNL A   1      28.458  30.634  21.769  1.00  0.00     0.258 A 
ATOM     11  C   UNL A   1      29.232  32.554  23.688  1.00  0.00     0.019 A 
ATOM     12  N   UNL A   1      28.296  31.998  21.590  1.00  0.00    -0.258 N 
ATOM     13  O   UNL A   1      28.166  29.800  20.917  1.00  0.00    -0.269 OA
ATOM     14  C   UNL A   1      28.669  32.932  22.537  1.00  0.00     0.095 A 
BRANCH  12  15
ATOM     15  C   UNL A   1      27.724  32.443  20.346  1.00  0.00     0.451 C 
ATOM     16  F   UNL A   1      27.200  33.688  20.504  1.00  0.00    -0.185 F 
ATOM     17  F   UNL A   1      28.707  32.567  19.413  1.00  0.00    -0.185 F 
ENDBRANCH  12  15
ENDBRANCH   7   8
ENDBRANCH   5   7
ENDBRANCH   2   3
ENDBRANCH   1   2
BRANCH   1  18
ATOM     18  C   UNL A   1      33.790  28.645  27.128  1.00  0.00     0.118 C 
BRANCH  18  19
ATOM     19  N   UNL A   1      33.732  29.993  27.676  1.00  0.00    -0.352 N 
ATOM     20  C   UNL A   1      34.721  30.698  28.329  1.00  0.00     0.251 C 
ATOM     21  H   UNL A   1      32.873  30.461  27.567  1.00  0.00     0.163 HD
ATOM     22  O   UNL A   1      34.476  31.803  28.802  1.00  0.00    -0.269 OA
BRANCH  20  23
ATOM     23  C   UNL A   1      36.065  30.095  28.496  1.00  0.00     0.039 A 
ATOM     24  C   UNL A   1      36.454  29.545  29.718  1.00  0.00     0.014 A 
ATOM     25  C   UNL A   1      36.965  30.127  27.427  1.00  0.00     0.014 A 
ATOM     26  C   UNL A   1      37.785  29.197  29.924  1.00  0.00     0.010 A 
ATOM     27  C   UNL A   1      38.285  29.699  27.613  1.00  0.00     0.010 A 
ATOM     28  C   UNL A   1      38.723  29.286  28.880  1.00  0.00    -0.014 A 
BRANCH  28  29
ATOM     29  C   UNL A   1      40.150  28.968  29.159  1.00  0.00     0.031 A 
ATOM     30  C   UNL A   1      40.736  27.636  28.766  1.00  0.00     0.074 A 
ATOM     31  C   UNL A   1      40.945  29.917  29.691  1.00  0.00     0.049 A 
ATOM     32  N   UNL A   1      41.975  27.223  28.856  1.00  0.00    -0.248 NA
ATOM     33  C   UNL A   1      39.815  26.635  28.201  1.00  0.00     0.031 C 
ATOM     34  C   UNL A   1      40.500  31.247  30.114  1.00  0.00     0.029 A 
ATOM     35  N   UNL A   1      42.296  29.928  29.933  1.00  0.00    -0.354 N 
ATOM     36  C   UNL A   1      41.983  25.919  28.372  1.00  0.00     0.074 A 
ATOM     37  C   UNL A   1      40.617  25.594  28.020  1.00  0.00     0.031 C 
ATOM     38  C   UNL A   1      41.566  31.966  30.498  1.00  0.00     0.029 A 
ATOM     39  C   UNL A   1      42.762  31.135  30.399  1.00  0.00     0.049 A 
ATOM     40  H   UNL A   1      42.876  29.147  29.785  1.00  0.00     0.167 HD
ATOM     41  C   UNL A   1      43.032  25.076  28.219  1.00  0.00     0.037 A 
ATOM     42  C   UNL A   1      44.010  31.532  30.714  1.00  0.00     0.037 A 
ATOM     43  C   UNL A   1      44.395  25.405  28.544  1.00  0.00     0.049 A 
ATOM     44  C   UNL A   1      45.152  30.570  30.559  1.00  0.00     0.074 A 
ATOM     45  C   UNL A   1      45.527  24.622  28.400  1.00  0.00     0.029 A 
ATOM     46  N   UNL A   1      44.813  26.616  29.075  1.00  0.00    -0.354 N 
ATOM     47  N   UNL A   1      45.137  29.346  30.091  1.00  0.00    -0.248 NA
ATOM     48  C   UNL A   1      46.479  31.037  30.988  1.00  0.00     0.031 C 
ATOM     49  C   UNL A   1      46.625  25.346  28.874  1.00  0.00     0.029 A 
ATOM     50  C   UNL A   1      46.183  26.594  29.281  1.00  0.00     0.049 A 
ATOM     51  H   UNL A   1      44.223  27.379  29.276  1.00  0.00     0.167 HD
ATOM     52  C   UNL A   1      46.449  28.895  30.167  1.00  0.00     0.074 A 
ATOM     53  C   UNL A   1      47.237  29.986  30.704  1.00  0.00     0.031 C 
ATOM     54  C   UNL A   1      46.954  27.684  29.825  1.00  0.00     0.037 A 
BRANCH  41  55
ATOM     55  C   UNL A   1      42.752  23.703  27.672  1.00  0.00     0.058 A 
ATOM     56  C   UNL A   1      42.695  23.461  26.290  1.00  0.00     0.135 A 
ATOM     57  C   UNL A   1      42.596  22.607  28.536  1.00  0.00     0.135 A 
ATOM     58  F   UNL A   1      42.822  24.477  25.421  1.00  0.00    -0.206 F 
ATOM     59  C   UNL A   1      42.476  22.184  25.785  1.00  0.00     0.059 A 
ATOM     60  C   UNL A   1      42.397  21.317  28.052  1.00  0.00     0.059 A 
ATOM     61  F   UNL A   1      42.644  22.784  29.866  1.00  0.00    -0.206 F 
ATOM     62  C   UNL A   1      42.328  21.118  26.674  1.00  0.00     0.060 A 
BRANCH  62  63
ATOM     63  S   UNL A   1      42.052  19.466  26.000  1.00  0.00     0.124 S 
ATOM     64  O   UNL A   1      40.618  19.499  25.729  1.00  0.00    -0.237 OA
ATOM     65  O   UNL A   1      42.917  19.460  24.824  1.00  0.00    -0.237 OA
ATOM     66  O   UNL A   1      42.464  18.582  27.084  1.00  0.00    -0.744 OA
ENDBRANCH  62  63
ENDBRANCH  41  55
BRANCH  42  67
ATOM     67  C   UNL A   1      44.236  32.919  31.194  1.00  0.00     0.058 A 
ATOM     68  C   UNL A   1      44.486  33.962  30.290  1.00  0.00     0.135 A 
ATOM     69  C   UNL A   1      44.162  33.237  32.559  1.00  0.00     0.135 A 
ATOM     70  F   UNL A   1      44.573  33.705  28.977  1.00  0.00    -0.206 F 
ATOM     71  C   UNL A   1      44.651  35.274  30.722  1.00  0.00     0.059 A 
ATOM     72  C   UNL A   1      44.301  34.544  33.013  1.00  0.00     0.059 A 
ATOM     73  F   UNL A   1      43.913  32.274  33.460  1.00  0.00    -0.206 F 
ATOM     74  C   UNL A   1      44.548  35.556  32.086  1.00  0.00     0.060 A 
BRANCH  74  75
ATOM     75  S   UNL A   1      44.681  37.273  32.628  1.00  0.00     0.124 S 
ATOM     76  O   UNL A   1      43.289  37.705  32.579  1.00  0.00    -0.237 OA
ATOM     77  O   UNL A   1      45.261  37.131  33.960  1.00  0.00    -0.237 OA
ATOM     78  O   UNL A   1      45.564  37.872  31.631  1.00  0.00    -0.744 OA
ENDBRANCH  74  75
ENDBRANCH  42  67
BRANCH  54  79
ATOM     79  C   UNL A   1      48.425  27.464  30.026  1.00  0.00     0.058 A 
ATOM     80  C   UNL A   1      48.919  26.880  31.203  1.00  0.00     0.135 A 
ATOM     81  C   UNL A   1      49.341  27.769  29.008  1.00  0.00     0.135 A 
ATOM     82  F   UNL A   1      48.083  26.577  32.209  1.00  0.00    -0.206 F 
ATOM     83  C   UNL A   1      50.273  26.611  31.365  1.00  0.00     0.059 A 
ATOM     84  C   UNL A   1      50.698  27.491  29.141  1.00  0.00     0.059 A 
ATOM     85  F   UNL A   1      48.916  28.323  27.861  1.00  0.00    -0.206 F 
ATOM     86  C   UNL A   1      51.155  26.916  30.327  1.00  0.00     0.060 A 
BRANCH  86  87
ATOM     87  S   UNL A   1      52.903  26.512  30.531  1.00  0.00     0.124 S 
ATOM     88  O   UNL A   1      52.842  25.419  31.496  1.00  0.00    -0.237 OA
ATOM     89  O   UNL A   1      53.298  26.141  29.176  1.00  0.00    -0.237 OA
ATOM     90  O   UNL A   1      53.484  27.757  31.027  1.00  0.00    -0.744 OA
ENDBRANCH  86  87
ENDBRANCH  54  79
ENDBRANCH  28  29
ENDBRANCH  20  23
ENDBRANCH  18  19
ENDBRANCH   1  18
TORSDOF 15
ENDMDL
