MODEL 1
REMARK VINA RESULT:     -12.4      0.000      0.000
REMARK SMILES CC1(C)S[C@H](c2ccccc2O)[NH2+][C@H]1C(=O)NCCCNC(=O)c1ccc(-c2c3nc(c(-c4c(F)cc(S(=O)(=O)[O-])cc4F)c4ccc([nH]4)c(-c4c(F)cc(S(=O)(=O)[O-])cc4F)c4nc(c(-c5c(F)cc(S(=O)(=O)[O-])cc5F)c5ccc2[nH]5)C=C4)C=C3)cc1
REMARK SMILES IDX 19 1 18 2 17 3 15 4 16 5 14 7 1 8 2 9 3 10 4 11 5 12 13 13
REMARK SMILES IDX 6 16 7 17 11 18 8 19 10 20 9 21 12 22 20 24 21 25 22 26
REMARK SMILES IDX 23 28 24 29 25 30 89 31 26 32 88 33 27 34 28 35 29 36 82 37
REMARK SMILES IDX 30 38 87 39 81 40 83 41 31 42 86 43 80 44 79 45 32 47 66 48
REMARK SMILES IDX 45 49 65 50 46 51 49 52 64 53 84 54 47 55 48 56 63 58 85 59
REMARK SMILES IDX 50 60 33 61 34 62 43 63 35 64 36 65 42 66 44 67 37 68 38 69
REMARK SMILES IDX 39 70 40 71 41 72 67 73 68 74 77 75 69 76 70 77 76 78 78 79
REMARK SMILES IDX 71 80 72 81 73 82 74 83 75 84 51 85 52 86 61 87 53 88 54 89
REMARK SMILES IDX 60 90 62 91 55 92 56 93 57 94 58 95 59 96
REMARK H PARENT 17 6 13 14 13 15 12 23 21 27 83 46 49 57
REMARK Flexibility Score: inf
ROOT
ATOM      1  C   UNL A   1      33.936  30.411  27.221  1.00  0.00     0.042 C 
ENDROOT
BRANCH   1   2
ATOM      2  C   UNL A   1      33.376  29.209  26.467  1.00  0.00     0.118 C 
BRANCH   2   3
ATOM      3  N   UNL A   1      33.984  29.033  25.155  1.00  0.00    -0.351 N 
ATOM      4  C   UNL A   1      33.522  28.880  23.887  1.00  0.00     0.279 C 
ATOM      5  O   UNL A   1      34.396  28.712  23.025  1.00  0.00    -0.268 OA
ATOM      6  H   UNL A   1      34.968  29.023  25.199  1.00  0.00     0.163 HD
BRANCH   4   7
ATOM      7  C   UNL A   1      32.039  28.851  23.467  1.00  0.00     0.289 C 
ATOM      8  C   UNL A   1      31.655  26.521  24.578  1.00  0.00     0.030 C 
ATOM      9  C   UNL A   1      31.415  27.447  23.391  1.00  0.00     0.077 C 
ATOM     10  C   UNL A   1      31.806  26.726  22.095  1.00  0.00     0.030 C 
ATOM     11  S   UNL A   1      29.631  27.810  23.341  1.00  0.00    -0.081 SA
ATOM     12  C   UNL A   1      29.789  29.547  23.880  1.00  0.00     0.278 C 
ATOM     13  N   UNL A   1      31.197  29.805  24.231  1.00  0.00    -0.320 N 
ATOM     14  H   UNL A   1      31.338  29.666  25.232  1.00  0.00     0.348 HD
ATOM     15  H   UNL A   1      31.451  30.765  24.001  1.00  0.00     0.348 HD
BRANCH  12  16
ATOM     16  C   UNL A   1      29.191  30.496  22.859  1.00  0.00     0.062 A 
ATOM     17  C   UNL A   1      28.617  30.059  21.653  1.00  0.00     0.015 A 
ATOM     18  C   UNL A   1      29.161  31.876  23.127  1.00  0.00     0.125 A 
ATOM     19  C   UNL A   1      28.010  30.960  20.773  1.00  0.00     0.001 A 
ATOM     20  C   UNL A   1      28.551  32.781  22.257  1.00  0.00     0.047 A 
ATOM     21  C   UNL A   1      27.968  32.317  21.080  1.00  0.00     0.004 A 
BRANCH  18  22
ATOM     22  O   UNL A   1      29.752  32.341  24.270  1.00  0.00    -0.507 OA
ATOM     23  H   UNL A   1      29.237  32.489  25.037  1.00  0.00     0.293 HD
ENDBRANCH  18  22
ENDBRANCH  12  16
ENDBRANCH   4   7
ENDBRANCH   2   3
ENDBRANCH   1   2
BRANCH   1  24
ATOM     24  C   UNL A   1      35.287  30.163  27.876  1.00  0.00     0.118 C 
BRANCH  24  25
ATOM     25  N   UNL A   1      35.334  30.663  29.241  1.00  0.00    -0.352 N 
ATOM     26  C   UNL A   1      36.339  30.578  30.174  1.00  0.00     0.251 C 
ATOM     27  H   UNL A   1      34.524  31.134  29.541  1.00  0.00     0.163 HD
ATOM     28  O   UNL A   1      36.092  30.855  31.344  1.00  0.00    -0.269 OA
BRANCH  26  29
ATOM     29  C   UNL A   1      37.702  30.138  29.789  1.00  0.00     0.039 A 
ATOM     30  C   UNL A   1      38.053  30.128  28.435  1.00  0.00     0.014 A 
ATOM     31  C   UNL A   1      38.620  29.690  30.742  1.00  0.00     0.014 A 
ATOM     32  C   UNL A   1      39.334  29.722  28.048  1.00  0.00     0.010 A 
ATOM     33  C   UNL A   1      39.924  29.373  30.365  1.00  0.00     0.010 A 
ATOM     34  C   UNL A   1      40.292  29.366  29.012  1.00  0.00    -0.014 A 
BRANCH  34  35
ATOM     35  C   UNL A   1      41.664  28.942  28.626  1.00  0.00     0.031 A 
ATOM     36  C   UNL A   1      42.782  29.953  28.586  1.00  0.00     0.074 A 
ATOM     37  C   UNL A   1      41.898  27.666  28.260  1.00  0.00     0.049 A 
ATOM     38  N   UNL A   1      44.022  29.800  28.199  1.00  0.00    -0.248 NA
ATOM     39  C   UNL A   1      42.452  31.324  29.009  1.00  0.00     0.031 C 
ATOM     40  C   UNL A   1      40.895  26.601  28.209  1.00  0.00     0.029 A 
ATOM     41  N   UNL A   1      43.055  27.050  27.852  1.00  0.00    -0.354 N 
ATOM     42  C   UNL A   1      44.611  31.055  28.307  1.00  0.00     0.074 A 
ATOM     43  C   UNL A   1      43.580  31.969  28.748  1.00  0.00     0.031 C 
ATOM     44  C   UNL A   1      41.485  25.459  27.820  1.00  0.00     0.029 A 
ATOM     45  C   UNL A   1      42.899  25.716  27.562  1.00  0.00     0.049 A 
ATOM     46  H   UNL A   1      43.916  27.521  27.774  1.00  0.00     0.167 HD
ATOM     47  C   UNL A   1      45.900  31.412  28.086  1.00  0.00     0.037 A 
ATOM     48  C   UNL A   1      43.793  24.802  27.137  1.00  0.00     0.037 A 
ATOM     49  C   UNL A   1      46.935  30.494  27.694  1.00  0.00     0.049 A 
ATOM     50  C   UNL A   1      45.224  25.214  26.927  1.00  0.00     0.074 A 
ATOM     51  C   UNL A   1      48.283  30.747  27.500  1.00  0.00     0.029 A 
ATOM     52  N   UNL A   1      46.741  29.143  27.444  1.00  0.00    -0.354 N 
ATOM     53  N   UNL A   1      45.771  26.397  27.077  1.00  0.00    -0.248 NA
ATOM     54  C   UNL A   1      46.161  24.167  26.496  1.00  0.00     0.031 C 
ATOM     55  C   UNL A   1      48.899  29.553  27.110  1.00  0.00     0.029 A 
ATOM     56  C   UNL A   1      47.942  28.550  27.092  1.00  0.00     0.049 A 
ATOM     57  H   UNL A   1      45.877  28.676  27.508  1.00  0.00     0.167 HD
ATOM     58  C   UNL A   1      47.119  26.232  26.780  1.00  0.00     0.074 A 
ATOM     59  C   UNL A   1      47.307  24.833  26.452  1.00  0.00     0.031 C 
ATOM     60  C   UNL A   1      48.112  27.155  26.778  1.00  0.00     0.037 A 
BRANCH  47  61
ATOM     61  C   UNL A   1      46.260  32.859  28.281  1.00  0.00     0.058 A 
ATOM     62  C   UNL A   1      46.676  33.351  29.528  1.00  0.00     0.135 A 
ATOM     63  C   UNL A   1      46.209  33.761  27.205  1.00  0.00     0.135 A 
ATOM     64  F   UNL A   1      46.728  32.535  30.593  1.00  0.00    -0.206 F 
ATOM     65  C   UNL A   1      46.996  34.692  29.711  1.00  0.00     0.059 A 
ATOM     66  C   UNL A   1      46.549  35.101  27.360  1.00  0.00     0.059 A 
ATOM     67  F   UNL A   1      45.818  33.343  25.990  1.00  0.00    -0.206 F 
ATOM     68  C   UNL A   1      46.925  35.561  28.622  1.00  0.00     0.060 A 
BRANCH  68  69
ATOM     69  S   UNL A   1      47.338  37.300  28.875  1.00  0.00     0.124 S 
ATOM     70  O   UNL A   1      46.112  37.802  29.487  1.00  0.00    -0.237 OA
ATOM     71  O   UNL A   1      48.500  37.223  29.755  1.00  0.00    -0.237 OA
ATOM     72  O   UNL A   1      47.611  37.784  27.525  1.00  0.00    -0.744 OA
ENDBRANCH  68  69
ENDBRANCH  47  61
BRANCH  48  73
ATOM     73  C   UNL A   1      43.366  23.395  26.916  1.00  0.00     0.058 A 
ATOM     74  C   UNL A   1      43.207  22.890  25.618  1.00  0.00     0.135 A 
ATOM     75  C   UNL A   1      43.128  22.526  27.992  1.00  0.00     0.135 A 
ATOM     76  F   UNL A   1      43.418  23.686  24.558  1.00  0.00    -0.206 F 
ATOM     77  C   UNL A   1      42.814  21.576  25.390  1.00  0.00     0.059 A 
ATOM     78  C   UNL A   1      42.755  21.201  27.789  1.00  0.00     0.059 A 
ATOM     79  F   UNL A   1      43.283  22.959  29.252  1.00  0.00    -0.206 F 
ATOM     80  C   UNL A   1      42.592  20.738  26.484  1.00  0.00     0.060 A 
BRANCH  80  81
ATOM     81  S   UNL A   1      42.138  19.016  26.180  1.00  0.00     0.124 S 
ATOM     82  O   UNL A   1      42.401  18.409  27.479  1.00  0.00    -0.237 OA
ATOM     83  O   UNL A   1      40.734  19.128  25.801  1.00  0.00    -0.237 OA
ATOM     84  O   UNL A   1      43.039  18.619  25.102  1.00  0.00    -0.744 OA
ENDBRANCH  80  81
ENDBRANCH  48  73
BRANCH  60  85
ATOM     85  C   UNL A   1      49.495  26.677  26.440  1.00  0.00     0.058 A 
ATOM     86  C   UNL A   1      50.304  26.040  27.392  1.00  0.00     0.135 A 
ATOM     87  C   UNL A   1      49.996  26.816  25.136  1.00  0.00     0.135 A 
ATOM     88  F   UNL A   1      49.873  25.890  28.654  1.00  0.00    -0.206 F 
ATOM     89  C   UNL A   1      51.575  25.575  27.068  1.00  0.00     0.059 A 
ATOM     90  C   UNL A   1      51.255  26.338  24.784  1.00  0.00     0.059 A 
ATOM     91  F   UNL A   1      49.256  27.409  24.186  1.00  0.00    -0.206 F 
ATOM     92  C   UNL A   1      52.041  25.729  25.761  1.00  0.00     0.060 A 
BRANCH  92  93
ATOM     93  S   UNL A   1      53.678  25.093  25.343  1.00  0.00     0.124 S 
ATOM     94  O   UNL A   1      53.894  25.684  24.026  1.00  0.00    -0.237 OA
ATOM     95  O   UNL A   1      54.508  25.623  26.420  1.00  0.00    -0.237 OA
ATOM     96  O   UNL A   1      53.492  23.645  25.359  1.00  0.00    -0.744 OA
ENDBRANCH  92  93
ENDBRANCH  60  85
ENDBRANCH  34  35
ENDBRANCH  26  29
ENDBRANCH  24  25
ENDBRANCH   1  24
TORSDOF 15
ENDMDL
MODEL 2
REMARK VINA RESULT:     -12.2      3.831      5.554
REMARK SMILES CC1(C)S[C@H](c2ccccc2O)[NH2+][C@H]1C(=O)NCCCNC(=O)c1ccc(-c2c3nc(c(-c4c(F)cc(S(=O)(=O)[O-])cc4F)c4ccc([nH]4)c(-c4c(F)cc(S(=O)(=O)[O-])cc4F)c4nc(c(-c5c(F)cc(S(=O)(=O)[O-])cc5F)c5ccc2[nH]5)C=C4)C=C3)cc1
REMARK SMILES IDX 19 1 18 2 17 3 15 4 16 5 14 7 1 8 2 9 3 10 4 11 5 12 13 13
REMARK SMILES IDX 6 16 7 17 11 18 8 19 10 20 9 21 12 22 20 24 21 25 22 26
REMARK SMILES IDX 23 28 24 29 25 30 89 31 26 32 88 33 27 34 28 35 29 36 82 37
REMARK SMILES IDX 30 38 87 39 81 40 83 41 31 42 86 43 80 44 79 45 32 47 66 48
REMARK SMILES IDX 45 49 65 50 46 51 49 52 64 53 84 54 47 55 48 56 63 58 85 59
REMARK SMILES IDX 50 60 33 61 34 62 43 63 35 64 36 65 42 66 44 67 37 68 38 69
REMARK SMILES IDX 39 70 40 71 41 72 67 73 68 74 77 75 69 76 70 77 76 78 78 79
REMARK SMILES IDX 71 80 72 81 73 82 74 83 75 84 51 85 52 86 61 87 53 88 54 89
REMARK SMILES IDX 60 90 62 91 55 92 56 93 57 94 58 95 59 96
REMARK H PARENT 17 6 13 14 13 15 12 23 21 27 83 46 49 57
REMARK Flexibility Score: inf
ROOT
ATOM      1  C   UNL A   1      32.726  27.394  25.911  1.00  0.00     0.042 C 
ENDROOT
BRANCH   1   2
ATOM      2  C   UNL A   1      32.896  25.922  25.548  1.00  0.00     0.118 C 
BRANCH   2   3
ATOM      3  N   UNL A   1      33.274  25.726  24.155  1.00  0.00    -0.351 N 
ATOM      4  C   UNL A   1      33.747  24.687  23.418  1.00  0.00     0.279 C 
ATOM      5  O   UNL A   1      33.991  24.951  22.232  1.00  0.00    -0.268 OA
ATOM      6  H   UNL A   1      33.161  26.544  23.619  1.00  0.00     0.163 HD
BRANCH   4   7
ATOM      7  C   UNL A   1      34.037  23.268  23.944  1.00  0.00     0.289 C 
ATOM      8  C   UNL A   1      35.857  24.134  25.601  1.00  0.00     0.030 C 
ATOM      9  C   UNL A   1      35.424  23.085  24.583  1.00  0.00     0.077 C 
ATOM     10  C   UNL A   1      36.517  22.923  23.521  1.00  0.00     0.030 C 
ATOM     11  S   UNL A   1      35.242  21.509  25.477  1.00  0.00    -0.081 SA
ATOM     12  C   UNL A   1      33.419  21.462  25.386  1.00  0.00     0.278 C 
ATOM     13  N   UNL A   1      32.946  22.726  24.792  1.00  0.00    -0.320 N 
ATOM     14  H   UNL A   1      32.716  23.393  25.530  1.00  0.00     0.348 HD
ATOM     15  H   UNL A   1      32.108  22.564  24.233  1.00  0.00     0.348 HD
BRANCH  12  16
ATOM     16  C   UNL A   1      32.935  20.200  24.697  1.00  0.00     0.062 A 
ATOM     17  C   UNL A   1      32.639  20.145  23.324  1.00  0.00     0.015 A 
ATOM     18  C   UNL A   1      32.807  19.011  25.436  1.00  0.00     0.125 A 
ATOM     19  C   UNL A   1      32.268  18.943  22.714  1.00  0.00     0.001 A 
ATOM     20  C   UNL A   1      32.443  17.807  24.832  1.00  0.00     0.047 A 
ATOM     21  C   UNL A   1      32.179  17.775  23.465  1.00  0.00     0.004 A 
BRANCH  18  22
ATOM     22  O   UNL A   1      33.041  19.041  26.783  1.00  0.00    -0.507 OA
ATOM     23  H   UNL A   1      32.507  19.571  27.340  1.00  0.00     0.293 HD
ENDBRANCH  18  22
ENDBRANCH  12  16
ENDBRANCH   4   7
ENDBRANCH   2   3
ENDBRANCH   1   2
BRANCH   1  24
ATOM     24  C   UNL A   1      33.870  27.971  26.732  1.00  0.00     0.118 C 
BRANCH  24  25
ATOM     25  N   UNL A   1      33.642  29.363  27.085  1.00  0.00    -0.352 N 
ATOM     26  C   UNL A   1      34.444  30.237  27.779  1.00  0.00     0.251 C 
ATOM     27  H   UNL A   1      32.784  29.736  26.779  1.00  0.00     0.163 HD
ATOM     28  O   UNL A   1      33.969  31.297  28.177  1.00  0.00    -0.269 OA
BRANCH  26  29
ATOM     29  C   UNL A   1      35.860  29.905  28.069  1.00  0.00     0.039 A 
ATOM     30  C   UNL A   1      36.205  29.471  29.353  1.00  0.00     0.014 A 
ATOM     31  C   UNL A   1      36.859  30.065  27.105  1.00  0.00     0.014 A 
ATOM     32  C   UNL A   1      37.533  29.147  29.650  1.00  0.00     0.010 A 
ATOM     33  C   UNL A   1      38.164  29.656  27.373  1.00  0.00     0.010 A 
ATOM     34  C   UNL A   1      38.522  29.211  28.653  1.00  0.00    -0.014 A 
BRANCH  34  35
ATOM     35  C   UNL A   1      39.939  28.862  28.941  1.00  0.00     0.031 A 
ATOM     36  C   UNL A   1      40.854  29.886  29.565  1.00  0.00     0.074 A 
ATOM     37  C   UNL A   1      40.420  27.652  28.595  1.00  0.00     0.049 A 
ATOM     38  N   UNL A   1      42.135  29.804  29.817  1.00  0.00    -0.248 NA
ATOM     39  C   UNL A   1      40.255  31.181  29.923  1.00  0.00     0.031 C 
ATOM     40  C   UNL A   1      39.652  26.590  27.942  1.00  0.00     0.029 A 
ATOM     41  N   UNL A   1      41.674  27.114  28.738  1.00  0.00    -0.354 N 
ATOM     42  C   UNL A   1      42.499  31.041  30.339  1.00  0.00     0.074 A 
ATOM     43  C   UNL A   1      41.314  31.872  30.320  1.00  0.00     0.031 C 
ATOM     44  C   UNL A   1      40.445  25.519  27.766  1.00  0.00     0.029 A 
ATOM     45  C   UNL A   1      41.782  25.829  28.261  1.00  0.00     0.049 A 
ATOM     46  H   UNL A   1      42.426  27.603  29.143  1.00  0.00     0.167 HD
ATOM     47  C   UNL A   1      43.702  31.443  30.816  1.00  0.00     0.037 A 
ATOM     48  C   UNL A   1      42.839  24.994  28.227  1.00  0.00     0.037 A 
ATOM     49  C   UNL A   1      44.867  30.601  30.879  1.00  0.00     0.049 A 
ATOM     50  C   UNL A   1      44.157  25.451  28.789  1.00  0.00     0.074 A 
ATOM     51  C   UNL A   1      46.116  30.897  31.397  1.00  0.00     0.029 A 
ATOM     52  N   UNL A   1      44.924  29.294  30.417  1.00  0.00    -0.354 N 
ATOM     53  N   UNL A   1      44.470  26.610  29.318  1.00  0.00    -0.248 NA
ATOM     54  C   UNL A   1      45.265  24.486  28.756  1.00  0.00     0.031 C 
ATOM     55  C   UNL A   1      46.936  29.776  31.226  1.00  0.00     0.029 A 
ATOM     56  C   UNL A   1      46.188  28.772  30.632  1.00  0.00     0.049 A 
ATOM     57  H   UNL A   1      44.176  28.811  29.998  1.00  0.00     0.167 HD
ATOM     58  C   UNL A   1      45.802  26.506  29.700  1.00  0.00     0.074 A 
ATOM     59  C   UNL A   1      46.234  25.167  29.352  1.00  0.00     0.031 C 
ATOM     60  C   UNL A   1      46.597  27.434  30.286  1.00  0.00     0.037 A 
BRANCH  47  61
ATOM     61  C   UNL A   1      43.809  32.855  31.322  1.00  0.00     0.058 A 
ATOM     62  C   UNL A   1      44.167  33.914  30.474  1.00  0.00     0.135 A 
ATOM     63  C   UNL A   1      43.532  33.156  32.666  1.00  0.00     0.135 A 
ATOM     64  F   UNL A   1      44.458  33.678  29.185  1.00  0.00    -0.206 F 
ATOM     65  C   UNL A   1      44.280  35.218  30.945  1.00  0.00     0.059 A 
ATOM     66  C   UNL A   1      43.614  34.458  33.153  1.00  0.00     0.059 A 
ATOM     67  F   UNL A   1      43.185  32.182  33.520  1.00  0.00    -0.206 F 
ATOM     68  C   UNL A   1      44.006  35.479  32.288  1.00  0.00     0.060 A 
BRANCH  68  69
ATOM     69  S   UNL A   1      44.161  37.175  32.888  1.00  0.00     0.124 S 
ATOM     70  O   UNL A   1      42.981  37.289  33.740  1.00  0.00    -0.237 OA
ATOM     71  O   UNL A   1      45.444  37.146  33.583  1.00  0.00    -0.237 OA
ATOM     72  O   UNL A   1      44.133  37.971  31.665  1.00  0.00    -0.744 OA
ENDBRANCH  68  69
ENDBRANCH  47  61
BRANCH  48  73
ATOM     73  C   UNL A   1      42.684  23.625  27.670  1.00  0.00     0.058 A 
ATOM     74  C   UNL A   1      42.851  23.385  26.299  1.00  0.00     0.135 A 
ATOM     75  C   UNL A   1      42.385  22.530  28.495  1.00  0.00     0.135 A 
ATOM     76  F   UNL A   1      43.132  24.402  25.470  1.00  0.00    -0.206 F 
ATOM     77  C   UNL A   1      42.715  22.110  25.760  1.00  0.00     0.059 A 
ATOM     78  C   UNL A   1      42.265  21.241  27.982  1.00  0.00     0.059 A 
ATOM     79  F   UNL A   1      42.232  22.706  29.817  1.00  0.00    -0.206 F 
ATOM     80  C   UNL A   1      42.423  21.044  26.611  1.00  0.00     0.060 A 
BRANCH  80  81
ATOM     81  S   UNL A   1      42.306  19.382  25.912  1.00  0.00     0.124 S 
ATOM     82  O   UNL A   1      40.868  19.252  25.704  1.00  0.00    -0.237 OA
ATOM     83  O   UNL A   1      43.118  19.497  24.705  1.00  0.00    -0.237 OA
ATOM     84  O   UNL A   1      42.872  18.538  26.960  1.00  0.00    -0.744 OA
ENDBRANCH  80  81
ENDBRANCH  48  73
BRANCH  60  85
ATOM     85  C   UNL A   1      48.005  27.027  30.616  1.00  0.00     0.058 A 
ATOM     86  C   UNL A   1      49.056  27.221  29.708  1.00  0.00     0.135 A 
ATOM     87  C   UNL A   1      48.311  26.482  31.873  1.00  0.00     0.135 A 
ATOM     88  F   UNL A   1      48.813  27.733  28.492  1.00  0.00    -0.206 F 
ATOM     89  C   UNL A   1      50.363  26.867  30.028  1.00  0.00     0.059 A 
ATOM     90  C   UNL A   1      49.614  26.142  32.222  1.00  0.00     0.059 A 
ATOM     91  F   UNL A   1      47.341  26.286  32.780  1.00  0.00    -0.206 F 
ATOM     92  C   UNL A   1      50.632  26.328  31.287  1.00  0.00     0.060 A 
BRANCH  92  93
ATOM     93  S   UNL A   1      52.336  25.902  31.704  1.00  0.00     0.124 S 
ATOM     94  O   UNL A   1      53.018  26.146  30.436  1.00  0.00    -0.237 OA
ATOM     95  O   UNL A   1      52.643  26.841  32.779  1.00  0.00    -0.237 OA
ATOM     96  O   UNL A   1      52.246  24.503  32.110  1.00  0.00    -0.744 OA
ENDBRANCH  92  93
ENDBRANCH  60  85
ENDBRANCH  34  35
ENDBRANCH  26  29
ENDBRANCH  24  25
ENDBRANCH   1  24
TORSDOF 15
ENDMDL
MODEL 3
REMARK VINA RESULT:     -12.2      5.588     12.171
REMARK SMILES CC1(C)S[C@H](c2ccccc2O)[NH2+][C@H]1C(=O)NCCCNC(=O)c1ccc(-c2c3nc(c(-c4c(F)cc(S(=O)(=O)[O-])cc4F)c4ccc([nH]4)c(-c4c(F)cc(S(=O)(=O)[O-])cc4F)c4nc(c(-c5c(F)cc(S(=O)(=O)[O-])cc5F)c5ccc2[nH]5)C=C4)C=C3)cc1
REMARK SMILES IDX 19 1 18 2 17 3 15 4 16 5 14 7 1 8 2 9 3 10 4 11 5 12 13 13
REMARK SMILES IDX 6 16 7 17 11 18 8 19 10 20 9 21 12 22 20 24 21 25 22 26
REMARK SMILES IDX 23 28 24 29 25 30 89 31 26 32 88 33 27 34 28 35 29 36 82 37
REMARK SMILES IDX 30 38 87 39 81 40 83 41 31 42 86 43 80 44 79 45 32 47 66 48
REMARK SMILES IDX 45 49 65 50 46 51 49 52 64 53 84 54 47 55 48 56 63 58 85 59
REMARK SMILES IDX 50 60 33 61 34 62 43 63 35 64 36 65 42 66 44 67 37 68 38 69
REMARK SMILES IDX 39 70 40 71 41 72 67 73 68 74 77 75 69 76 70 77 76 78 78 79
REMARK SMILES IDX 71 80 72 81 73 82 74 83 75 84 51 85 52 86 61 87 53 88 54 89
REMARK SMILES IDX 60 90 62 91 55 92 56 93 57 94 58 95 59 96
REMARK H PARENT 17 6 13 14 13 15 12 23 21 27 83 46 49 57
REMARK Flexibility Score: inf
ROOT
ATOM      1  C   UNL A   1      41.738  21.280  26.162  1.00  0.00     0.042 C 
ENDROOT
BRANCH   1   2
ATOM      2  C   UNL A   1      42.779  22.355  26.461  1.00  0.00     0.118 C 
BRANCH   2   3
ATOM      3  N   UNL A   1      43.692  22.579  25.349  1.00  0.00    -0.351 N 
ATOM      4  C   UNL A   1      44.549  23.569  24.986  1.00  0.00     0.279 C 
ATOM      5  O   UNL A   1      45.132  23.391  23.907  1.00  0.00    -0.268 OA
ATOM      6  H   UNL A   1      43.686  21.835  24.704  1.00  0.00     0.163 HD
BRANCH   4   7
ATOM      7  C   UNL A   1      44.802  24.873  25.768  1.00  0.00     0.289 C 
ATOM      8  C   UNL A   1      47.291  24.242  26.233  1.00  0.00     0.030 C 
ATOM      9  C   UNL A   1      45.980  24.817  26.756  1.00  0.00     0.077 C 
ATOM     10  C   UNL A   1      45.592  24.103  28.056  1.00  0.00     0.030 C 
ATOM     11  S   UNL A   1      46.271  26.577  27.123  1.00  0.00    -0.081 SA
ATOM     12  C   UNL A   1      45.284  27.215  25.726  1.00  0.00     0.278 C 
ATOM     13  N   UNL A   1      44.847  26.075  24.899  1.00  0.00    -0.320 N 
ATOM     14  H   UNL A   1      45.507  25.926  24.135  1.00  0.00     0.348 HD
ATOM     15  H   UNL A   1      43.928  26.258  24.498  1.00  0.00     0.348 HD
BRANCH  12  16
ATOM     16  C   UNL A   1      44.173  28.129  26.208  1.00  0.00     0.062 A 
ATOM     17  C   UNL A   1      44.278  28.910  27.372  1.00  0.00     0.015 A 
ATOM     18  C   UNL A   1      42.993  28.247  25.453  1.00  0.00     0.125 A 
ATOM     19  C   UNL A   1      43.261  29.796  27.741  1.00  0.00     0.001 A 
ATOM     20  C   UNL A   1      41.977  29.132  25.811  1.00  0.00     0.047 A 
ATOM     21  C   UNL A   1      42.117  29.914  26.956  1.00  0.00     0.004 A 
BRANCH  18  22
ATOM     22  O   UNL A   1      42.839  27.465  24.341  1.00  0.00    -0.507 OA
ATOM     23  H   UNL A   1      42.093  27.580  23.787  1.00  0.00     0.293 HD
ENDBRANCH  18  22
ENDBRANCH  12  16
ENDBRANCH   4   7
ENDBRANCH   2   3
ENDBRANCH   1   2
BRANCH   1  24
ATOM     24  C   UNL A   1      40.405  21.488  26.865  1.00  0.00     0.118 C 
BRANCH  24  25
ATOM     25  N   UNL A   1      39.360  21.909  25.945  1.00  0.00    -0.352 N 
ATOM     26  C   UNL A   1      38.656  23.088  25.895  1.00  0.00     0.251 C 
ATOM     27  H   UNL A   1      39.123  21.251  25.253  1.00  0.00     0.163 HD
ATOM     28  O   UNL A   1      37.653  23.155  25.191  1.00  0.00    -0.269 OA
BRANCH  26  29
ATOM     29  C   UNL A   1      39.079  24.264  26.694  1.00  0.00     0.039 A 
ATOM     30  C   UNL A   1      38.531  24.450  27.968  1.00  0.00     0.014 A 
ATOM     31  C   UNL A   1      39.972  25.210  26.183  1.00  0.00     0.014 A 
ATOM     32  C   UNL A   1      38.918  25.548  28.742  1.00  0.00     0.010 A 
ATOM     33  C   UNL A   1      40.425  26.251  26.989  1.00  0.00     0.010 A 
ATOM     34  C   UNL A   1      39.891  26.446  28.271  1.00  0.00    -0.014 A 
BRANCH  34  35
ATOM     35  C   UNL A   1      40.327  27.615  29.079  1.00  0.00     0.031 A 
ATOM     36  C   UNL A   1      41.663  27.591  29.778  1.00  0.00     0.074 A 
ATOM     37  C   UNL A   1      39.507  28.674  29.233  1.00  0.00     0.049 A 
ATOM     38  N   UNL A   1      42.187  28.472  30.592  1.00  0.00    -0.248 NA
ATOM     39  C   UNL A   1      42.507  26.406  29.556  1.00  0.00     0.031 C 
ATOM     40  C   UNL A   1      38.170  28.802  28.650  1.00  0.00     0.029 A 
ATOM     41  N   UNL A   1      39.675  29.842  29.934  1.00  0.00    -0.354 N 
ATOM     42  C   UNL A   1      43.405  27.937  30.997  1.00  0.00     0.074 A 
ATOM     43  C   UNL A   1      43.520  26.634  30.379  1.00  0.00     0.031 C 
ATOM     44  C   UNL A   1      37.651  29.993  28.996  1.00  0.00     0.029 A 
ATOM     45  C   UNL A   1      38.602  30.697  29.850  1.00  0.00     0.049 A 
ATOM     46  H   UNL A   1      40.488  30.047  30.450  1.00  0.00     0.167 HD
ATOM     47  C   UNL A   1      44.355  28.490  31.788  1.00  0.00     0.037 A 
ATOM     48  C   UNL A   1      38.406  31.912  30.398  1.00  0.00     0.037 A 
ATOM     49  C   UNL A   1      44.262  29.805  32.363  1.00  0.00     0.049 A 
ATOM     50  C   UNL A   1      39.488  32.519  31.249  1.00  0.00     0.074 A 
ATOM     51  C   UNL A   1      45.196  30.478  33.132  1.00  0.00     0.029 A 
ATOM     52  N   UNL A   1      43.172  30.653  32.225  1.00  0.00    -0.354 N 
ATOM     53  N   UNL A   1      40.652  32.016  31.584  1.00  0.00    -0.248 NA
ATOM     54  C   UNL A   1      39.232  33.861  31.792  1.00  0.00     0.031 C 
ATOM     55  C   UNL A   1      44.661  31.723  33.479  1.00  0.00     0.029 A 
ATOM     56  C   UNL A   1      43.408  31.839  32.898  1.00  0.00     0.049 A 
ATOM     57  H   UNL A   1      42.354  30.442  31.721  1.00  0.00     0.167 HD
ATOM     58  C   UNL A   1      41.276  32.987  32.358  1.00  0.00     0.074 A 
ATOM     59  C   UNL A   1      40.366  34.112  32.433  1.00  0.00     0.031 C 
ATOM     60  C   UNL A   1      42.493  32.952  32.955  1.00  0.00     0.037 A 
BRANCH  47  61
ATOM     61  C   UNL A   1      45.588  27.674  32.063  1.00  0.00     0.058 A 
ATOM     62  C   UNL A   1      46.731  27.772  31.254  1.00  0.00     0.135 A 
ATOM     63  C   UNL A   1      45.635  26.797  33.160  1.00  0.00     0.135 A 
ATOM     64  F   UNL A   1      46.732  28.583  30.184  1.00  0.00    -0.206 F 
ATOM     65  C   UNL A   1      47.865  27.007  31.500  1.00  0.00     0.059 A 
ATOM     66  C   UNL A   1      46.770  26.040  33.440  1.00  0.00     0.059 A 
ATOM     67  F   UNL A   1      44.571  26.664  33.967  1.00  0.00    -0.206 F 
ATOM     68  C   UNL A   1      47.874  26.139  32.593  1.00  0.00     0.060 A 
BRANCH  68  69
ATOM     69  S   UNL A   1      49.351  25.148  32.899  1.00  0.00     0.124 S 
ATOM     70  O   UNL A   1      50.213  26.114  33.573  1.00  0.00    -0.237 OA
ATOM     71  O   UNL A   1      48.837  24.067  33.734  1.00  0.00    -0.237 OA
ATOM     72  O   UNL A   1      49.777  24.752  31.560  1.00  0.00    -0.744 OA
ENDBRANCH  68  69
ENDBRANCH  47  61
BRANCH  48  73
ATOM     73  C   UNL A   1      37.146  32.652  30.128  1.00  0.00     0.058 A 
ATOM     74  C   UNL A   1      36.006  32.439  30.917  1.00  0.00     0.135 A 
ATOM     75  C   UNL A   1      37.060  33.597  29.093  1.00  0.00     0.135 A 
ATOM     76  F   UNL A   1      36.039  31.542  31.914  1.00  0.00    -0.206 F 
ATOM     77  C   UNL A   1      34.820  33.126  30.683  1.00  0.00     0.059 A 
ATOM     78  C   UNL A   1      35.890  34.311  28.854  1.00  0.00     0.059 A 
ATOM     79  F   UNL A   1      38.129  33.847  28.322  1.00  0.00    -0.206 F 
ATOM     80  C   UNL A   1      34.773  34.062  29.649  1.00  0.00     0.060 A 
BRANCH  80  81
ATOM     81  S   UNL A   1      33.245  34.991  29.389  1.00  0.00     0.124 S 
ATOM     82  O   UNL A   1      33.758  36.275  28.925  1.00  0.00    -0.237 OA
ATOM     83  O   UNL A   1      32.556  34.181  28.390  1.00  0.00    -0.237 OA
ATOM     84  O   UNL A   1      32.629  34.996  30.712  1.00  0.00    -0.744 OA
ENDBRANCH  80  81
ENDBRANCH  48  73
BRANCH  60  85
ATOM     85  C   UNL A   1      42.925  34.174  33.713  1.00  0.00     0.058 A 
ATOM     86  C   UNL A   1      42.738  34.281  35.099  1.00  0.00     0.135 A 
ATOM     87  C   UNL A   1      43.576  35.227  33.053  1.00  0.00     0.135 A 
ATOM     88  F   UNL A   1      42.115  33.303  35.775  1.00  0.00    -0.206 F 
ATOM     89  C   UNL A   1      43.164  35.402  35.803  1.00  0.00     0.059 A 
ATOM     90  C   UNL A   1      44.031  36.349  33.740  1.00  0.00     0.059 A 
ATOM     91  F   UNL A   1      43.788  35.168  31.728  1.00  0.00    -0.206 F 
ATOM     92  C   UNL A   1      43.809  36.431  35.114  1.00  0.00     0.060 A 
BRANCH  92  93
ATOM     93  S   UNL A   1      44.386  37.869  36.042  1.00  0.00     0.124 S 
ATOM     94  O   UNL A   1      44.016  38.962  35.148  1.00  0.00    -0.237 OA
ATOM     95  O   UNL A   1      43.620  37.775  37.280  1.00  0.00    -0.237 OA
ATOM     96  O   UNL A   1      45.820  37.628  36.180  1.00  0.00    -0.744 OA
ENDBRANCH  92  93
ENDBRANCH  60  85
ENDBRANCH  34  35
ENDBRANCH  26  29
ENDBRANCH  24  25
ENDBRANCH   1  24
TORSDOF 15
ENDMDL
