MODEL 1
REMARK VINA RESULT:     -13.4      0.000      0.000
REMARK SMILES O=C(C[C@]1(C(=O)NC2CCCCC2)CC(c2ccc([N+](=O)[O-])cc2)=NO1)NCCCNC(=O)c1ccc(-c2c3nc(c(-c4c(F)cc(S(=O)(=O)[O-])cc4F)c4ccc([nH]4)c(-c4c(F)cc(S(=O)(=O)[O-])cc4F)c4nc(c(-c5c(F)cc(S(=O)(=O)[O-])cc5F)c5ccc2[nH]5)C=C4)C=C3)cc1
REMARK SMILES IDX 29 1 28 2 27 3 1 4 2 5 3 7 4 8 14 9 26 10 15 11 25 12 5 13
REMARK SMILES IDX 6 14 7 15 8 17 9 18 13 19 10 20 12 21 11 22 16 23 17 24
REMARK SMILES IDX 24 25 18 26 23 27 19 28 20 29 21 30 22 31 30 32 31 33 32 34
REMARK SMILES IDX 33 36 34 37 35 38 99 39 36 40 98 41 37 42 38 43 39 44 92 45
REMARK SMILES IDX 40 46 97 47 91 48 93 49 41 50 96 51 90 52 89 53 42 55 76 56
REMARK SMILES IDX 55 57 75 58 56 59 59 60 74 61 94 62 57 63 58 64 73 66 95 67
REMARK SMILES IDX 60 68 43 69 44 70 53 71 45 72 46 73 52 74 54 75 47 76 48 77
REMARK SMILES IDX 49 78 50 79 51 80 77 81 78 82 87 83 79 84 80 85 86 86 88 87
REMARK SMILES IDX 81 88 82 89 83 90 84 91 85 92 61 93 62 94 71 95 63 96 64 97
REMARK SMILES IDX 70 98 72 99 65 100 66 101 67 102 68 103 69 104
REMARK H PARENT 27 6 7 16 31 35 93 54 59 65
REMARK Flexibility Score: inf
ROOT
ATOM      1  C   UNL A   1      37.379  23.151  25.810  1.00  0.00     0.042 C 
ENDROOT
BRANCH   1   2
ATOM      2  C   UNL A   1      36.175  23.697  25.062  1.00  0.00     0.117 C 
BRANCH   2   3
ATOM      3  N   UNL A   1      34.957  23.639  25.845  1.00  0.00    -0.356 N 
ATOM      4  O   UNL A   1      34.231  25.732  25.238  1.00  0.00    -0.275 OA
ATOM      5  C   UNL A   1      34.057  24.679  25.840  1.00  0.00     0.224 C 
ATOM      6  H   UNL A   1      34.771  22.842  26.391  1.00  0.00     0.163 HD
BRANCH   5   7
ATOM      7  C   UNL A   1      32.811  24.418  26.636  1.00  0.00     0.162 C 
BRANCH   7   8
ATOM      8  C   UNL A   1      31.658  23.764  25.851  1.00  0.00     0.229 C 
ATOM      9  C   UNL A   1      31.396  22.261  26.006  1.00  0.00     0.123 C 
ATOM     10  O   UNL A   1      31.969  23.908  24.468  1.00  0.00    -0.378 OA
ATOM     11  C   UNL A   1      32.087  21.775  24.787  1.00  0.00     0.092 C 
ATOM     12  N   UNL A   1      32.439  22.693  23.952  1.00  0.00    -0.089 NA
BRANCH   8  13
ATOM     13  C   UNL A   1      30.383  24.534  26.239  1.00  0.00     0.268 C 
ATOM     14  O   UNL A   1      29.609  24.032  27.066  1.00  0.00    -0.270 OA
ATOM     15  N   UNL A   1      30.112  25.805  25.824  1.00  0.00    -0.350 N 
ATOM     16  H   UNL A   1      29.395  26.242  26.339  1.00  0.00     0.163 HD
BRANCH  15  17
ATOM     17  C   UNL A   1      30.674  26.660  24.762  1.00  0.00     0.082 C 
ATOM     18  C   UNL A   1      29.732  26.914  23.570  1.00  0.00     0.025 C 
ATOM     19  C   UNL A   1      31.411  27.865  25.354  1.00  0.00     0.025 C 
ATOM     20  C   UNL A   1      29.637  28.336  22.996  1.00  0.00     0.002 C 
ATOM     21  C   UNL A   1      31.708  28.932  24.312  1.00  0.00     0.002 C 
ATOM     22  C   UNL A   1      30.412  29.437  23.711  1.00  0.00     0.000 C 
ENDBRANCH  15  17
ENDBRANCH   8  13
BRANCH  11  23
ATOM     23  C   UNL A   1      32.322  20.353  24.502  1.00  0.00    -0.000 A 
ATOM     24  C   UNL A   1      32.862  19.562  25.524  1.00  0.00     0.017 A 
ATOM     25  C   UNL A   1      32.157  19.838  23.213  1.00  0.00     0.017 A 
ATOM     26  C   UNL A   1      33.261  18.252  25.259  1.00  0.00     0.086 A 
ATOM     27  C   UNL A   1      32.571  18.530  22.937  1.00  0.00     0.086 A 
ATOM     28  C   UNL A   1      33.131  17.746  23.960  1.00  0.00     0.269 A 
BRANCH  28  29
ATOM     29  N   UNL A   1      33.626  16.397  23.659  1.00  0.00     0.062 N 
ATOM     30  O   UNL A   1      33.352  15.490  24.458  1.00  0.00    -0.258 OA
ATOM     31  O   UNL A   1      34.302  16.247  22.631  1.00  0.00    -0.258 OA
ENDBRANCH  28  29
ENDBRANCH  11  23
ENDBRANCH   7   8
ENDBRANCH   5   7
ENDBRANCH   2   3
ENDBRANCH   1   2
BRANCH   1  32
ATOM     32  C   UNL A   1      38.264  24.218  26.440  1.00  0.00     0.118 C 
BRANCH  32  33
ATOM     33  N   UNL A   1      39.668  24.082  26.076  1.00  0.00    -0.352 N 
ATOM     34  C   UNL A   1      40.758  24.817  26.474  1.00  0.00     0.251 C 
ATOM     35  H   UNL A   1      39.865  23.350  25.449  1.00  0.00     0.163 HD
ATOM     36  O   UNL A   1      41.836  24.641  25.917  1.00  0.00    -0.269 OA
BRANCH  34  37
ATOM     37  C   UNL A   1      40.629  25.827  27.549  1.00  0.00     0.039 A 
ATOM     38  C   UNL A   1      39.682  25.623  28.555  1.00  0.00     0.014 A 
ATOM     39  C   UNL A   1      41.414  26.984  27.555  1.00  0.00     0.014 A 
ATOM     40  C   UNL A   1      39.560  26.552  29.592  1.00  0.00     0.010 A 
ATOM     41  C   UNL A   1      41.357  27.858  28.636  1.00  0.00     0.010 A 
ATOM     42  C   UNL A   1      40.414  27.665  29.656  1.00  0.00    -0.014 A 
BRANCH  42  43
ATOM     43  C   UNL A   1      40.304  28.657  30.758  1.00  0.00     0.031 A 
ATOM     44  C   UNL A   1      41.190  28.536  31.972  1.00  0.00     0.074 A 
ATOM     45  C   UNL A   1      39.383  29.639  30.689  1.00  0.00     0.049 A 
ATOM     46  N   UNL A   1      41.220  29.276  33.050  1.00  0.00    -0.248 NA
ATOM     47  C   UNL A   1      42.150  27.419  31.987  1.00  0.00     0.031 C 
ATOM     48  C   UNL A   1      38.433  29.832  29.591  1.00  0.00     0.029 A 
ATOM     49  N   UNL A   1      39.090  30.657  31.562  1.00  0.00    -0.354 N 
ATOM     50  C   UNL A   1      42.186  28.710  33.872  1.00  0.00     0.074 A 
ATOM     51  C   UNL A   1      42.674  27.526  33.198  1.00  0.00     0.031 C 
ATOM     52  C   UNL A   1      37.686  30.920  29.842  1.00  0.00     0.029 A 
ATOM     53  C   UNL A   1      38.075  31.478  31.134  1.00  0.00     0.049 A 
ATOM     54  H   UNL A   1      39.565  30.787  32.416  1.00  0.00     0.167 HD
ATOM     55  C   UNL A   1      42.650  29.148  35.067  1.00  0.00     0.037 A 
ATOM     56  C   UNL A   1      37.518  32.559  31.716  1.00  0.00     0.037 A 
ATOM     57  C   UNL A   1      42.180  30.342  35.721  1.00  0.00     0.049 A 
ATOM     58  C   UNL A   1      38.050  33.030  33.044  1.00  0.00     0.074 A 
ATOM     59  C   UNL A   1      42.619  30.903  36.907  1.00  0.00     0.029 A 
ATOM     60  N   UNL A   1      41.164  31.159  35.246  1.00  0.00    -0.354 N 
ATOM     61  N   UNL A   1      39.009  32.517  33.778  1.00  0.00    -0.248 NA
ATOM     62  C   UNL A   1      37.432  34.234  33.618  1.00  0.00     0.031 C 
ATOM     63  C   UNL A   1      41.835  32.031  37.174  1.00  0.00     0.029 A 
ATOM     64  C   UNL A   1      40.949  32.208  36.123  1.00  0.00     0.049 A 
ATOM     65  H   UNL A   1      40.668  31.013  34.407  1.00  0.00     0.167 HD
ATOM     66  C   UNL A   1      39.134  33.356  34.881  1.00  0.00     0.074 A 
ATOM     67  C   UNL A   1      38.158  34.413  34.712  1.00  0.00     0.031 C 
ATOM     68  C   UNL A   1      39.982  33.262  35.935  1.00  0.00     0.037 A 
BRANCH  55  69
ATOM     69  C   UNL A   1      43.724  28.338  35.742  1.00  0.00     0.058 A 
ATOM     70  C   UNL A   1      45.089  28.574  35.503  1.00  0.00     0.135 A 
ATOM     71  C   UNL A   1      43.389  27.332  36.662  1.00  0.00     0.135 A 
ATOM     72  F   UNL A   1      45.469  29.512  34.620  1.00  0.00    -0.206 F 
ATOM     73  C   UNL A   1      46.078  27.820  36.125  1.00  0.00     0.059 A 
ATOM     74  C   UNL A   1      44.363  26.588  37.322  1.00  0.00     0.059 A 
ATOM     75  F   UNL A   1      42.101  27.062  36.930  1.00  0.00    -0.206 F 
ATOM     76  C   UNL A   1      45.706  26.829  37.034  1.00  0.00     0.060 A 
BRANCH  76  77
ATOM     77  S   UNL A   1      47.003  25.863  37.834  1.00  0.00     0.124 S 
ATOM     78  O   UNL A   1      46.230  24.782  38.438  1.00  0.00    -0.237 OA
ATOM     79  O   UNL A   1      47.850  25.484  36.708  1.00  0.00    -0.237 OA
ATOM     80  O   UNL A   1      47.599  26.806  38.775  1.00  0.00    -0.744 OA
ENDBRANCH  76  77
ENDBRANCH  55  69
BRANCH  56  81
ATOM     81  C   UNL A   1      36.414  33.288  31.034  1.00  0.00     0.058 A 
ATOM     82  C   UNL A   1      35.102  33.242  31.529  1.00  0.00     0.135 A 
ATOM     83  C   UNL A   1      36.648  34.048  29.878  1.00  0.00     0.135 A 
ATOM     84  F   UNL A   1      34.825  32.525  32.629  1.00  0.00    -0.206 F 
ATOM     85  C   UNL A   1      34.058  33.906  30.894  1.00  0.00     0.059 A 
ATOM     86  C   UNL A   1      35.625  34.745  29.240  1.00  0.00     0.059 A 
ATOM     87  F   UNL A   1      37.888  34.140  29.372  1.00  0.00    -0.206 F 
ATOM     88  C   UNL A   1      34.331  34.657  29.750  1.00  0.00     0.060 A 
BRANCH  88  89
ATOM     89  S   UNL A   1      32.976  35.548  28.956  1.00  0.00     0.124 S 
ATOM     90  O   UNL A   1      33.692  36.599  28.243  1.00  0.00    -0.237 OA
ATOM     91  O   UNL A   1      32.372  34.510  28.126  1.00  0.00    -0.237 OA
ATOM     92  O   UNL A   1      32.160  35.991  30.083  1.00  0.00    -0.744 OA
ENDBRANCH  88  89
ENDBRANCH  56  81
BRANCH  68  93
ATOM     93  C   UNL A   1      39.935  34.358  36.966  1.00  0.00     0.058 A 
ATOM     94  C   UNL A   1      40.709  35.522  36.850  1.00  0.00     0.135 A 
ATOM     95  C   UNL A   1      39.061  34.258  38.062  1.00  0.00     0.135 A 
ATOM     96  F   UNL A   1      41.562  35.668  35.824  1.00  0.00    -0.206 F 
ATOM     97  C   UNL A   1      40.642  36.536  37.801  1.00  0.00     0.059 A 
ATOM     98  C   UNL A   1      38.955  35.273  39.007  1.00  0.00     0.059 A 
ATOM     99  F   UNL A   1      38.288  33.171  38.214  1.00  0.00    -0.206 F 
ATOM    100  C   UNL A   1      39.761  36.402  38.876  1.00  0.00     0.060 A 
BRANCH 100 101
ATOM    101  S   UNL A   1      39.666  37.736  40.089  1.00  0.00     0.124 S 
ATOM    102  O   UNL A   1      39.451  36.993  41.326  1.00  0.00    -0.237 OA
ATOM    103  O   UNL A   1      40.970  38.376  39.953  1.00  0.00    -0.237 OA
ATOM    104  O   UNL A   1      38.532  38.533  39.631  1.00  0.00    -0.744 OA
ENDBRANCH 100 101
ENDBRANCH  68  93
ENDBRANCH  42  43
ENDBRANCH  34  37
ENDBRANCH  32  33
ENDBRANCH   1  32
TORSDOF 18
ENDMDL
MODEL 2
REMARK VINA RESULT:     -13.0      1.655      2.534
REMARK SMILES O=C(C[C@]1(C(=O)NC2CCCCC2)CC(c2ccc([N+](=O)[O-])cc2)=NO1)NCCCNC(=O)c1ccc(-c2c3nc(c(-c4c(F)cc(S(=O)(=O)[O-])cc4F)c4ccc([nH]4)c(-c4c(F)cc(S(=O)(=O)[O-])cc4F)c4nc(c(-c5c(F)cc(S(=O)(=O)[O-])cc5F)c5ccc2[nH]5)C=C4)C=C3)cc1
REMARK SMILES IDX 29 1 28 2 27 3 1 4 2 5 3 7 4 8 14 9 26 10 15 11 25 12 5 13
REMARK SMILES IDX 6 14 7 15 8 17 9 18 13 19 10 20 12 21 11 22 16 23 17 24
REMARK SMILES IDX 24 25 18 26 23 27 19 28 20 29 21 30 22 31 30 32 31 33 32 34
REMARK SMILES IDX 33 36 34 37 35 38 99 39 36 40 98 41 37 42 38 43 39 44 92 45
REMARK SMILES IDX 40 46 97 47 91 48 93 49 41 50 96 51 90 52 89 53 42 55 76 56
REMARK SMILES IDX 55 57 75 58 56 59 59 60 74 61 94 62 57 63 58 64 73 66 95 67
REMARK SMILES IDX 60 68 43 69 44 70 53 71 45 72 46 73 52 74 54 75 47 76 48 77
REMARK SMILES IDX 49 78 50 79 51 80 77 81 78 82 87 83 79 84 80 85 86 86 88 87
REMARK SMILES IDX 81 88 82 89 83 90 84 91 85 92 61 93 62 94 71 95 63 96 64 97
REMARK SMILES IDX 70 98 72 99 65 100 66 101 67 102 68 103 69 104
REMARK H PARENT 27 6 7 16 31 35 93 54 59 65
REMARK Flexibility Score: inf
ROOT
ATOM      1  C   UNL A   1      40.369  22.424  27.657  1.00  0.00     0.042 C 
ENDROOT
BRANCH   1   2
ATOM      2  C   UNL A   1      39.789  22.047  26.304  1.00  0.00     0.117 C 
BRANCH   2   3
ATOM      3  N   UNL A   1      38.341  21.980  26.316  1.00  0.00    -0.356 N 
ATOM      4  O   UNL A   1      38.034  24.235  26.010  1.00  0.00    -0.275 OA
ATOM      5  C   UNL A   1      37.574  23.106  26.135  1.00  0.00     0.224 C 
ATOM      6  H   UNL A   1      37.900  21.111  26.457  1.00  0.00     0.163 HD
BRANCH   5   7
ATOM      7  C   UNL A   1      36.097  22.844  26.088  1.00  0.00     0.162 C 
BRANCH   7   8
ATOM      8  C   UNL A   1      35.574  22.281  24.753  1.00  0.00     0.229 C 
ATOM      9  C   UNL A   1      34.374  21.325  24.754  1.00  0.00     0.123 C 
ATOM     10  O   UNL A   1      36.626  21.497  24.197  1.00  0.00    -0.378 OA
ATOM     11  C   UNL A   1      35.102  20.037  24.654  1.00  0.00     0.092 C 
ATOM     12  N   UNL A   1      36.359  20.135  24.383  1.00  0.00    -0.089 NA
BRANCH   8  13
ATOM     13  C   UNL A   1      35.237  23.500  23.875  1.00  0.00     0.268 C 
ATOM     14  O   UNL A   1      35.868  23.672  22.822  1.00  0.00    -0.270 OA
ATOM     15  N   UNL A   1      34.189  24.340  24.117  1.00  0.00    -0.350 N 
ATOM     16  H   UNL A   1      33.961  24.914  23.350  1.00  0.00     0.163 HD
BRANCH  15  17
ATOM     17  C   UNL A   1      33.327  24.563  25.292  1.00  0.00     0.082 C 
ATOM     18  C   UNL A   1      33.461  25.954  25.938  1.00  0.00     0.025 C 
ATOM     19  C   UNL A   1      31.914  24.025  25.052  1.00  0.00     0.025 C 
ATOM     20  C   UNL A   1      32.186  26.693  26.369  1.00  0.00     0.002 C 
ATOM     21  C   UNL A   1      30.919  24.527  26.085  1.00  0.00     0.002 C 
ATOM     22  C   UNL A   1      30.848  26.040  26.038  1.00  0.00     0.000 C 
ENDBRANCH  15  17
ENDBRANCH   8  13
BRANCH  11  23
ATOM     23  C   UNL A   1      34.452  18.727  24.800  1.00  0.00    -0.000 A 
ATOM     24  C   UNL A   1      33.138  18.699  25.284  1.00  0.00     0.017 A 
ATOM     25  C   UNL A   1      35.167  17.541  24.608  1.00  0.00     0.017 A 
ATOM     26  C   UNL A   1      32.534  17.482  25.600  1.00  0.00     0.086 A 
ATOM     27  C   UNL A   1      34.571  16.318  24.939  1.00  0.00     0.086 A 
ATOM     28  C   UNL A   1      33.260  16.296  25.443  1.00  0.00     0.269 A 
BRANCH  28  29
ATOM     29  N   UNL A   1      32.657  15.021  25.853  1.00  0.00     0.062 N 
ATOM     30  O   UNL A   1      31.605  15.065  26.508  1.00  0.00    -0.258 OA
ATOM     31  O   UNL A   1      33.242  13.977  25.532  1.00  0.00    -0.258 OA
ENDBRANCH  28  29
ENDBRANCH  11  23
ENDBRANCH   7   8
ENDBRANCH   5   7
ENDBRANCH   2   3
ENDBRANCH   1   2
BRANCH   1  32
ATOM     32  C   UNL A   1      41.751  23.059  27.594  1.00  0.00     0.118 C 
BRANCH  32  33
ATOM     33  N   UNL A   1      41.977  23.813  26.369  1.00  0.00    -0.352 N 
ATOM     34  C   UNL A   1      41.860  25.160  26.127  1.00  0.00     0.251 C 
ATOM     35  H   UNL A   1      42.256  23.273  25.594  1.00  0.00     0.163 HD
ATOM     36  O   UNL A   1      41.936  25.572  24.974  1.00  0.00    -0.269 OA
BRANCH  34  37
ATOM     37  C   UNL A   1      41.624  26.104  27.243  1.00  0.00     0.039 A 
ATOM     38  C   UNL A   1      40.485  25.939  28.036  1.00  0.00     0.014 A 
ATOM     39  C   UNL A   1      42.499  27.165  27.494  1.00  0.00     0.014 A 
ATOM     40  C   UNL A   1      40.255  26.805  29.108  1.00  0.00     0.010 A 
ATOM     41  C   UNL A   1      42.318  27.965  28.617  1.00  0.00     0.010 A 
ATOM     42  C   UNL A   1      41.183  27.810  29.425  1.00  0.00    -0.014 A 
BRANCH  42  43
ATOM     43  C   UNL A   1      40.958  28.732  30.569  1.00  0.00     0.031 A 
ATOM     44  C   UNL A   1      41.799  28.608  31.813  1.00  0.00     0.074 A 
ATOM     45  C   UNL A   1      39.973  29.651  30.508  1.00  0.00     0.049 A 
ATOM     46  N   UNL A   1      41.732  29.290  32.928  1.00  0.00    -0.248 NA
ATOM     47  C   UNL A   1      42.834  27.561  31.816  1.00  0.00     0.031 C 
ATOM     48  C   UNL A   1      39.058  29.837  29.380  1.00  0.00     0.029 A 
ATOM     49  N   UNL A   1      39.573  30.599  31.417  1.00  0.00    -0.354 N 
ATOM     50  C   UNL A   1      42.702  28.749  33.763  1.00  0.00     0.074 A 
ATOM     51  C   UNL A   1      43.300  27.639  33.053  1.00  0.00     0.031 C 
ATOM     52  C   UNL A   1      38.226  30.856  29.652  1.00  0.00     0.029 A 
ATOM     53  C   UNL A   1      38.521  31.370  30.986  1.00  0.00     0.049 A 
ATOM     54  H   UNL A   1      40.002  30.715  32.296  1.00  0.00     0.167 HD
ATOM     55  C   UNL A   1      43.084  29.155  34.998  1.00  0.00     0.037 A 
ATOM     56  C   UNL A   1      37.865  32.377  31.596  1.00  0.00     0.037 A 
ATOM     57  C   UNL A   1      42.504  30.277  35.689  1.00  0.00     0.049 A 
ATOM     58  C   UNL A   1      38.307  32.813  32.968  1.00  0.00     0.074 A 
ATOM     59  C   UNL A   1      42.853  30.803  36.920  1.00  0.00     0.029 A 
ATOM     60  N   UNL A   1      41.453  31.046  35.210  1.00  0.00    -0.354 N 
ATOM     61  N   UNL A   1      39.269  32.329  33.718  1.00  0.00    -0.248 NA
ATOM     62  C   UNL A   1      37.583  33.940  33.573  1.00  0.00     0.031 C 
ATOM     63  C   UNL A   1      41.981  31.859  37.207  1.00  0.00     0.029 A 
ATOM     64  C   UNL A   1      41.129  32.030  36.128  1.00  0.00     0.049 A 
ATOM     65  H   UNL A   1      41.004  30.912  34.344  1.00  0.00     0.167 HD
ATOM     66  C   UNL A   1      39.289  33.115  34.866  1.00  0.00     0.074 A 
ATOM     67  C   UNL A   1      38.249  34.110  34.706  1.00  0.00     0.031 C 
ATOM     68  C   UNL A   1      40.098  33.023  35.950  1.00  0.00     0.037 A 
BRANCH  55  69
ATOM     69  C   UNL A   1      44.184  28.385  35.678  1.00  0.00     0.058 A 
ATOM     70  C   UNL A   1      43.910  27.314  36.546  1.00  0.00     0.135 A 
ATOM     71  C   UNL A   1      45.531  28.701  35.439  1.00  0.00     0.135 A 
ATOM     72  F   UNL A   1      42.641  26.978  36.826  1.00  0.00    -0.206 F 
ATOM     73  C   UNL A   1      44.930  26.608  37.177  1.00  0.00     0.059 A 
ATOM     74  C   UNL A   1      46.568  27.987  36.033  1.00  0.00     0.059 A 
ATOM     75  F   UNL A   1      45.853  29.715  34.620  1.00  0.00    -0.206 F 
ATOM     76  C   UNL A   1      46.256  26.952  36.914  1.00  0.00     0.060 A 
BRANCH  76  77
ATOM     77  S   UNL A   1      47.566  26.023  37.737  1.00  0.00     0.124 S 
ATOM     78  O   UNL A   1      47.424  26.481  39.117  1.00  0.00    -0.237 OA
ATOM     79  O   UNL A   1      47.173  24.641  37.486  1.00  0.00    -0.237 OA
ATOM     80  O   UNL A   1      48.778  26.462  37.054  1.00  0.00    -0.744 OA
ENDBRANCH  76  77
ENDBRANCH  55  69
BRANCH  56  81
ATOM     81  C   UNL A   1      36.741  33.064  30.902  1.00  0.00     0.058 A 
ATOM     82  C   UNL A   1      35.407  32.731  31.182  1.00  0.00     0.135 A 
ATOM     83  C   UNL A   1      36.976  34.069  29.951  1.00  0.00     0.135 A 
ATOM     84  F   UNL A   1      35.129  31.774  32.079  1.00  0.00    -0.206 F 
ATOM     85  C   UNL A   1      34.348  33.354  30.530  1.00  0.00     0.059 A 
ATOM     86  C   UNL A   1      35.933  34.727  29.307  1.00  0.00     0.059 A 
ATOM     87  F   UNL A   1      38.234  34.438  29.659  1.00  0.00    -0.206 F 
ATOM     88  C   UNL A   1      34.621  34.353  29.595  1.00  0.00     0.060 A 
BRANCH  88  89
ATOM     89  S   UNL A   1      33.237  35.183  28.785  1.00  0.00     0.124 S 
ATOM     90  O   UNL A   1      32.478  35.673  29.930  1.00  0.00    -0.237 OA
ATOM     91  O   UNL A   1      33.915  36.198  27.985  1.00  0.00    -0.237 OA
ATOM     92  O   UNL A   1      32.605  34.112  28.020  1.00  0.00    -0.744 OA
ENDBRANCH  88  89
ENDBRANCH  56  81
BRANCH  68  93
ATOM     93  C   UNL A   1      39.931  34.057  37.031  1.00  0.00     0.058 A 
ATOM     94  C   UNL A   1      40.561  35.310  36.967  1.00  0.00     0.135 A 
ATOM     95  C   UNL A   1      39.085  33.804  38.125  1.00  0.00     0.135 A 
ATOM     96  F   UNL A   1      41.382  35.602  35.946  1.00  0.00    -0.206 F 
ATOM     97  C   UNL A   1      40.383  36.263  37.965  1.00  0.00     0.059 A 
ATOM     98  C   UNL A   1      38.869  34.755  39.116  1.00  0.00     0.059 A 
ATOM     99  F   UNL A   1      38.447  32.628  38.229  1.00  0.00    -0.206 F 
ATOM    100  C   UNL A   1      39.535  35.977  39.036  1.00  0.00     0.060 A 
BRANCH 100 101
ATOM    101  S   UNL A   1      39.293  37.233  40.310  1.00  0.00     0.124 S 
ATOM    102  O   UNL A   1      38.529  38.243  39.586  1.00  0.00    -0.237 OA
ATOM    103  O   UNL A   1      38.561  36.499  41.337  1.00  0.00    -0.237 OA
ATOM    104  O   UNL A   1      40.655  37.616  40.672  1.00  0.00    -0.744 OA
ENDBRANCH 100 101
ENDBRANCH  68  93
ENDBRANCH  42  43
ENDBRANCH  34  37
ENDBRANCH  32  33
ENDBRANCH   1  32
TORSDOF 18
ENDMDL
MODEL 3
REMARK VINA RESULT:     -12.8      6.681     11.876
REMARK SMILES O=C(C[C@]1(C(=O)NC2CCCCC2)CC(c2ccc([N+](=O)[O-])cc2)=NO1)NCCCNC(=O)c1ccc(-c2c3nc(c(-c4c(F)cc(S(=O)(=O)[O-])cc4F)c4ccc([nH]4)c(-c4c(F)cc(S(=O)(=O)[O-])cc4F)c4nc(c(-c5c(F)cc(S(=O)(=O)[O-])cc5F)c5ccc2[nH]5)C=C4)C=C3)cc1
REMARK SMILES IDX 29 1 28 2 27 3 1 4 2 5 3 7 4 8 14 9 26 10 15 11 25 12 5 13
REMARK SMILES IDX 6 14 7 15 8 17 9 18 13 19 10 20 12 21 11 22 16 23 17 24
REMARK SMILES IDX 24 25 18 26 23 27 19 28 20 29 21 30 22 31 30 32 31 33 32 34
REMARK SMILES IDX 33 36 34 37 35 38 99 39 36 40 98 41 37 42 38 43 39 44 92 45
REMARK SMILES IDX 40 46 97 47 91 48 93 49 41 50 96 51 90 52 89 53 42 55 76 56
REMARK SMILES IDX 55 57 75 58 56 59 59 60 74 61 94 62 57 63 58 64 73 66 95 67
REMARK SMILES IDX 60 68 43 69 44 70 53 71 45 72 46 73 52 74 54 75 47 76 48 77
REMARK SMILES IDX 49 78 50 79 51 80 77 81 78 82 87 83 79 84 80 85 86 86 88 87
REMARK SMILES IDX 81 88 82 89 83 90 84 91 85 92 61 93 62 94 71 95 63 96 64 97
REMARK SMILES IDX 70 98 72 99 65 100 66 101 67 102 68 103 69 104
REMARK H PARENT 27 6 7 16 31 35 93 54 59 65
REMARK Flexibility Score: inf
ROOT
ATOM      1  C   UNL A   1      33.947  29.187  26.972  1.00  0.00     0.042 C 
ENDROOT
BRANCH   1   2
ATOM      2  C   UNL A   1      33.409  27.777  26.800  1.00  0.00     0.117 C 
BRANCH   2   3
ATOM      3  N   UNL A   1      33.637  27.250  25.469  1.00  0.00    -0.356 N 
ATOM      4  O   UNL A   1      34.129  25.122  26.178  1.00  0.00    -0.275 OA
ATOM      5  C   UNL A   1      33.957  25.928  25.271  1.00  0.00     0.224 C 
ATOM      6  H   UNL A   1      33.561  27.851  24.693  1.00  0.00     0.163 HD
BRANCH   5   7
ATOM      7  C   UNL A   1      34.072  25.532  23.828  1.00  0.00     0.162 C 
BRANCH   7   8
ATOM      8  C   UNL A   1      32.733  25.314  23.100  1.00  0.00     0.229 C 
ATOM      9  C   UNL A   1      32.013  26.511  22.466  1.00  0.00     0.123 C 
ATOM     10  O   UNL A   1      31.806  24.845  24.075  1.00  0.00    -0.378 OA
ATOM     11  C   UNL A   1      31.028  26.787  23.540  1.00  0.00     0.092 C 
ATOM     12  N   UNL A   1      30.942  25.880  24.453  1.00  0.00    -0.089 NA
BRANCH   8  13
ATOM     13  C   UNL A   1      33.002  24.262  22.008  1.00  0.00     0.268 C 
ATOM     14  O   UNL A   1      33.162  24.640  20.839  1.00  0.00    -0.270 OA
ATOM     15  N   UNL A   1      33.209  22.939  22.268  1.00  0.00    -0.350 N 
ATOM     16  H   UNL A   1      33.601  22.447  21.511  1.00  0.00     0.163 HD
BRANCH  15  17
ATOM     17  C   UNL A   1      32.966  22.095  23.452  1.00  0.00     0.082 C 
ATOM     18  C   UNL A   1      32.169  20.806  23.176  1.00  0.00     0.025 C 
ATOM     19  C   UNL A   1      34.224  21.979  24.317  1.00  0.00     0.025 C 
ATOM     20  C   UNL A   1      32.631  19.498  23.833  1.00  0.00     0.002 C 
ATOM     21  C   UNL A   1      34.120  20.865  25.346  1.00  0.00     0.002 C 
ATOM     22  C   UNL A   1      33.920  19.536  24.647  1.00  0.00     0.000 C 
ENDBRANCH  15  17
ENDBRANCH   8  13
BRANCH  11  23
ATOM     23  C   UNL A   1      30.165  27.976  23.561  1.00  0.00    -0.000 A 
ATOM     24  C   UNL A   1      28.853  27.840  23.089  1.00  0.00     0.017 A 
ATOM     25  C   UNL A   1      30.675  29.233  23.896  1.00  0.00     0.017 A 
ATOM     26  C   UNL A   1      28.046  28.966  22.929  1.00  0.00     0.086 A 
ATOM     27  C   UNL A   1      29.875  30.369  23.722  1.00  0.00     0.086 A 
ATOM     28  C   UNL A   1      28.567  30.230  23.229  1.00  0.00     0.269 A 
BRANCH  28  29
ATOM     29  N   UNL A   1      27.748  31.424  22.983  1.00  0.00     0.062 N 
ATOM     30  O   UNL A   1      26.888  31.718  23.827  1.00  0.00    -0.258 OA
ATOM     31  O   UNL A   1      27.954  32.059  21.939  1.00  0.00    -0.258 OA
ENDBRANCH  28  29
ENDBRANCH  11  23
ENDBRANCH   7   8
ENDBRANCH   5   7
ENDBRANCH   2   3
ENDBRANCH   1   2
BRANCH   1  32
ATOM     32  C   UNL A   1      35.334  29.259  27.597  1.00  0.00     0.118 C 
BRANCH  32  33
ATOM     33  N   UNL A   1      35.337  29.892  28.908  1.00  0.00    -0.352 N 
ATOM     34  C   UNL A   1      36.362  30.054  29.808  1.00  0.00     0.251 C 
ATOM     35  H   UNL A   1      34.470  30.260  29.193  1.00  0.00     0.163 HD
ATOM     36  O   UNL A   1      36.112  30.472  30.934  1.00  0.00    -0.269 OA
BRANCH  34  37
ATOM     37  C   UNL A   1      37.752  29.709  29.432  1.00  0.00     0.039 A 
ATOM     38  C   UNL A   1      38.127  29.796  28.089  1.00  0.00     0.014 A 
ATOM     39  C   UNL A   1      38.675  29.274  30.386  1.00  0.00     0.014 A 
ATOM     40  C   UNL A   1      39.440  29.497  27.714  1.00  0.00     0.010 A 
ATOM     41  C   UNL A   1      40.004  29.069  30.027  1.00  0.00     0.010 A 
ATOM     42  C   UNL A   1      40.397  29.156  28.684  1.00  0.00    -0.014 A 
BRANCH  42  43
ATOM     43  C   UNL A   1      41.801  28.846  28.303  1.00  0.00     0.031 A 
ATOM     44  C   UNL A   1      42.184  27.439  27.923  1.00  0.00     0.074 A 
ATOM     45  C   UNL A   1      42.737  29.815  28.340  1.00  0.00     0.049 A 
ATOM     46  N   UNL A   1      43.358  26.961  27.598  1.00  0.00    -0.248 NA
ATOM     47  C   UNL A   1      41.112  26.430  27.936  1.00  0.00     0.031 C 
ATOM     48  C   UNL A   1      42.502  31.204  28.740  1.00  0.00     0.029 A 
ATOM     49  N   UNL A   1      44.076  29.780  28.040  1.00  0.00    -0.354 N 
ATOM     50  C   UNL A   1      43.168  25.602  27.382  1.00  0.00     0.074 A 
ATOM     51  C   UNL A   1      41.781  25.317  27.676  1.00  0.00     0.031 C 
ATOM     52  C   UNL A   1      43.650  31.894  28.631  1.00  0.00     0.029 A 
ATOM     53  C   UNL A   1      44.709  30.990  28.192  1.00  0.00     0.049 A 
ATOM     54  H   UNL A   1      44.540  28.963  27.744  1.00  0.00     0.167 HD
ATOM     55  C   UNL A   1      44.059  24.677  26.949  1.00  0.00     0.037 A 
ATOM     56  C   UNL A   1      45.998  31.335  28.001  1.00  0.00     0.037 A 
ATOM     57  C   UNL A   1      45.432  24.971  26.632  1.00  0.00     0.049 A 
ATOM     58  C   UNL A   1      46.971  30.291  27.518  1.00  0.00     0.074 A 
ATOM     59  C   UNL A   1      46.403  24.119  26.136  1.00  0.00     0.029 A 
ATOM     60  N   UNL A   1      46.030  26.215  26.779  1.00  0.00    -0.354 N 
ATOM     61  N   UNL A   1      46.758  29.022  27.259  1.00  0.00    -0.248 NA
ATOM     62  C   UNL A   1      48.356  30.727  27.291  1.00  0.00     0.031 C 
ATOM     63  C   UNL A   1      47.600  24.834  26.031  1.00  0.00     0.029 A 
ATOM     64  C   UNL A   1      47.361  26.148  26.402  1.00  0.00     0.049 A 
ATOM     65  H   UNL A   1      45.575  27.026  27.104  1.00  0.00     0.167 HD
ATOM     66  C   UNL A   1      47.973  28.519  26.802  1.00  0.00     0.074 A 
ATOM     67  C   UNL A   1      48.911  29.622  26.814  1.00  0.00     0.031 C 
ATOM     68  C   UNL A   1      48.281  27.258  26.406  1.00  0.00     0.037 A 
BRANCH  55  69
ATOM     69  C   UNL A   1      43.574  23.261  26.787  1.00  0.00     0.058 A 
ATOM     70  C   UNL A   1      43.340  22.428  27.895  1.00  0.00     0.135 A 
ATOM     71  C   UNL A   1      43.312  22.736  25.511  1.00  0.00     0.135 A 
ATOM     72  F   UNL A   1      43.589  22.869  29.138  1.00  0.00    -0.206 F 
ATOM     73  C   UNL A   1      42.896  21.119  27.741  1.00  0.00     0.059 A 
ATOM     74  C   UNL A   1      42.835  21.440  25.335  1.00  0.00     0.059 A 
ATOM     75  F   UNL A   1      43.518  23.486  24.416  1.00  0.00    -0.206 F 
ATOM     76  C   UNL A   1      42.646  20.633  26.457  1.00  0.00     0.060 A 
BRANCH  76  77
ATOM     77  S   UNL A   1      42.068  18.934  26.276  1.00  0.00     0.124 S 
ATOM     78  O   UNL A   1      40.711  19.139  25.779  1.00  0.00    -0.237 OA
ATOM     79  O   UNL A   1      43.018  18.382  25.316  1.00  0.00    -0.237 OA
ATOM     80  O   UNL A   1      42.163  18.395  27.629  1.00  0.00    -0.744 OA
ENDBRANCH  76  77
ENDBRANCH  55  69
BRANCH  56  81
ATOM     81  C   UNL A   1      46.439  32.737  28.237  1.00  0.00     0.058 A 
ATOM     82  C   UNL A   1      46.898  33.149  29.497  1.00  0.00     0.135 A 
ATOM     83  C   UNL A   1      46.415  33.691  27.207  1.00  0.00     0.135 A 
ATOM     84  F   UNL A   1      46.936  32.277  30.514  1.00  0.00    -0.206 F 
ATOM     85  C   UNL A   1      47.298  34.460  29.735  1.00  0.00     0.059 A 
ATOM     86  C   UNL A   1      46.837  35.001  27.414  1.00  0.00     0.059 A 
ATOM     87  F   UNL A   1      46.001  33.345  25.978  1.00  0.00    -0.206 F 
ATOM     88  C   UNL A   1      47.266  35.378  28.685  1.00  0.00     0.060 A 
BRANCH  88  89
ATOM     89  S   UNL A   1      47.826  37.067  28.995  1.00  0.00     0.124 S 
ATOM     90  O   UNL A   1      48.109  37.025  30.425  1.00  0.00    -0.237 OA
ATOM     91  O   UNL A   1      48.987  37.170  28.117  1.00  0.00    -0.237 OA
ATOM     92  O   UNL A   1      46.678  37.879  28.602  1.00  0.00    -0.744 OA
ENDBRANCH  88  89
ENDBRANCH  56  81
BRANCH  68  93
ATOM     93  C   UNL A   1      49.677  27.011  25.900  1.00  0.00     0.058 A 
ATOM     94  C   UNL A   1      50.704  26.559  26.743  1.00  0.00     0.135 A 
ATOM     95  C   UNL A   1      49.975  27.186  24.538  1.00  0.00     0.135 A 
ATOM     96  F   UNL A   1      50.475  26.379  28.053  1.00  0.00    -0.206 F 
ATOM     97  C   UNL A   1      51.986  26.317  26.258  1.00  0.00     0.059 A 
ATOM     98  C   UNL A   1      51.241  26.919  24.027  1.00  0.00     0.059 A 
ATOM     99  F   UNL A   1      49.025  27.604  23.686  1.00  0.00    -0.206 F 
ATOM    100  C   UNL A   1      52.244  26.500  24.898  1.00  0.00     0.060 A 
BRANCH 100 101
ATOM    101  S   UNL A   1      53.905  26.159  24.278  1.00  0.00     0.124 S 
ATOM    102  O   UNL A   1      54.195  24.874  24.907  1.00  0.00    -0.237 OA
ATOM    103  O   UNL A   1      53.699  26.126  22.834  1.00  0.00    -0.237 OA
ATOM    104  O   UNL A   1      54.691  27.288  24.769  1.00  0.00    -0.744 OA
ENDBRANCH 100 101
ENDBRANCH  68  93
ENDBRANCH  42  43
ENDBRANCH  34  37
ENDBRANCH  32  33
ENDBRANCH   1  32
TORSDOF 18
ENDMDL
