MODEL 1
REMARK VINA RESULT:      -9.9      0.000      0.000
REMARK SMILES CCCCCC[C@H]1OCC[C@H]1C(=O)NCCCNC(=O)c1ccc(-c2c3nc(c(-c4c(F)cc(S(=O)(=O)[O-])cc4F)c4ccc([nH]4)c(-c4c(F)cc(S(=O)(=O)[O-])cc4F)c4nc(c(-c5c(F)cc(S(=O)(=O)[O-])cc5F)c5ccc2[nH]5)C=C4)C=C3)cc1
REMARK SMILES IDX 15 1 14 2 12 3 13 4 11 6 7 7 8 8 9 9 10 10 6 11 5 12 4 13
REMARK SMILES IDX 3 14 2 15 1 16 16 17 17 18 18 19 19 20 20 22 21 23 22 24
REMARK SMILES IDX 86 25 23 26 85 27 24 28 25 29 26 30 79 31 27 32 84 33 78 34
REMARK SMILES IDX 80 35 28 36 83 37 77 38 76 39 29 41 63 42 42 43 62 44 43 45
REMARK SMILES IDX 46 46 61 47 81 48 44 49 45 50 60 52 82 53 47 54 30 55 31 56
REMARK SMILES IDX 40 57 32 58 33 59 39 60 41 61 34 62 35 63 36 64 37 65 38 66
REMARK SMILES IDX 64 67 65 68 74 69 66 70 67 71 73 72 75 73 68 74 69 75 70 76
REMARK SMILES IDX 71 77 72 78 48 79 49 80 58 81 50 82 51 83 57 84 59 85 52 86
REMARK SMILES IDX 53 87 54 88 55 89 56 90
REMARK H PARENT 14 5 18 21 80 40 46 51
REMARK Flexibility Score: inf
ROOT
ATOM      1  C   UNL A   1      33.369  28.506  24.581  1.00  0.00     0.117 C 
ENDROOT
BRANCH   1   2
ATOM      2  N   UNL A   1      33.800  27.803  23.382  1.00  0.00    -0.356 N 
ATOM      3  C   UNL A   1      33.204  26.905  22.563  1.00  0.00     0.225 C 
ATOM      4  O   UNL A   1      33.916  26.455  21.657  1.00  0.00    -0.275 OA
ATOM      5  H   UNL A   1      34.719  28.027  23.109  1.00  0.00     0.163 HD
BRANCH   3   6
ATOM      6  C   UNL A   1      31.757  26.448  22.650  1.00  0.00     0.109 C 
ATOM      7  C   UNL A   1      31.271  25.647  23.850  1.00  0.00     0.130 C 
ATOM      8  O   UNL A   1      30.466  26.529  24.632  1.00  0.00    -0.377 OA
ATOM      9  C   UNL A   1      29.939  27.551  23.789  1.00  0.00     0.161 C 
ATOM     10  C   UNL A   1      30.712  27.535  22.485  1.00  0.00     0.044 C 
BRANCH   7  11
ATOM     11  C   UNL A   1      32.246  24.814  24.696  1.00  0.00     0.033 C 
BRANCH  11  12
ATOM     12  C   UNL A   1      32.651  23.422  24.202  1.00  0.00     0.003 C 
BRANCH  12  13
ATOM     13  C   UNL A   1      34.017  23.320  23.507  1.00  0.00     0.000 C 
BRANCH  13  14
ATOM     14  C   UNL A   1      34.950  22.258  24.090  1.00  0.00    -0.000 C 
BRANCH  14  15
ATOM     15  C   UNL A   1      36.443  22.592  24.010  1.00  0.00    -0.003 C 
ATOM     16  C   UNL A   1      37.353  21.499  24.558  1.00  0.00     0.004 C 
ENDBRANCH  14  15
ENDBRANCH  13  14
ENDBRANCH  12  13
ENDBRANCH  11  12
ENDBRANCH   7  11
ENDBRANCH   3   6
ENDBRANCH   1   2
BRANCH   1  17
ATOM     17  C   UNL A   1      33.999  27.936  25.859  1.00  0.00     0.042 C 
BRANCH  17  18
ATOM     18  C   UNL A   1      33.263  28.271  27.152  1.00  0.00     0.118 C 
BRANCH  18  19
ATOM     19  N   UNL A   1      33.296  29.688  27.458  1.00  0.00    -0.352 N 
ATOM     20  C   UNL A   1      34.279  30.487  27.988  1.00  0.00     0.251 C 
ATOM     21  H   UNL A   1      32.460  30.164  27.248  1.00  0.00     0.163 HD
ATOM     22  O   UNL A   1      33.960  31.622  28.343  1.00  0.00    -0.269 OA
BRANCH  20  23
ATOM     23  C   UNL A   1      35.687  30.042  28.169  1.00  0.00     0.039 A 
ATOM     24  C   UNL A   1      36.076  29.614  29.447  1.00  0.00     0.014 A 
ATOM     25  C   UNL A   1      36.663  30.147  27.175  1.00  0.00     0.014 A 
ATOM     26  C   UNL A   1      37.410  29.282  29.717  1.00  0.00     0.010 A 
ATOM     27  C   UNL A   1      37.981  29.738  27.423  1.00  0.00     0.010 A 
ATOM     28  C   UNL A   1      38.378  29.325  28.703  1.00  0.00    -0.014 A 
BRANCH  28  29
ATOM     29  C   UNL A   1      39.806  28.991  28.982  1.00  0.00     0.031 A 
ATOM     30  C   UNL A   1      40.731  30.021  29.585  1.00  0.00     0.074 A 
ATOM     31  C   UNL A   1      40.290  27.772  28.666  1.00  0.00     0.049 A 
ATOM     32  N   UNL A   1      42.015  29.939  29.833  1.00  0.00    -0.248 NA
ATOM     33  C   UNL A   1      40.141  31.322  29.936  1.00  0.00     0.031 C 
ATOM     34  C   UNL A   1      39.520  26.689  28.054  1.00  0.00     0.029 A 
ATOM     35  N   UNL A   1      41.550  27.241  28.809  1.00  0.00    -0.354 N 
ATOM     36  C   UNL A   1      42.388  31.178  30.344  1.00  0.00     0.074 A 
ATOM     37  C   UNL A   1      41.203  32.008  30.332  1.00  0.00     0.031 C 
ATOM     38  C   UNL A   1      40.315  25.620  27.890  1.00  0.00     0.029 A 
ATOM     39  C   UNL A   1      41.662  25.950  28.350  1.00  0.00     0.049 A 
ATOM     40  H   UNL A   1      42.301  27.740  29.204  1.00  0.00     0.167 HD
ATOM     41  C   UNL A   1      43.599  31.584  30.801  1.00  0.00     0.037 A 
ATOM     42  C   UNL A   1      42.726  25.125  28.293  1.00  0.00     0.037 A 
ATOM     43  C   UNL A   1      44.770  30.748  30.853  1.00  0.00     0.049 A 
ATOM     44  C   UNL A   1      44.059  25.595  28.811  1.00  0.00     0.074 A 
ATOM     45  C   UNL A   1      46.024  31.054  31.354  1.00  0.00     0.029 A 
ATOM     46  N   UNL A   1      44.834  29.441  30.394  1.00  0.00    -0.354 N 
ATOM     47  N   UNL A   1      44.379  26.756  29.329  1.00  0.00    -0.248 NA
ATOM     48  C   UNL A   1      45.175  24.639  28.741  1.00  0.00     0.031 C 
ATOM     49  C   UNL A   1      46.857  29.945  31.164  1.00  0.00     0.029 A 
ATOM     50  C   UNL A   1      46.109  28.932  30.585  1.00  0.00     0.049 A 
ATOM     51  H   UNL A   1      44.084  28.946  29.992  1.00  0.00     0.167 HD
ATOM     52  C   UNL A   1      45.724  26.663  29.669  1.00  0.00     0.074 A 
ATOM     53  C   UNL A   1      46.156  25.329  29.308  1.00  0.00     0.031 C 
ATOM     54  C   UNL A   1      46.528  27.600  30.231  1.00  0.00     0.037 A 
BRANCH  41  55
ATOM     55  C   UNL A   1      43.722  33.004  31.287  1.00  0.00     0.058 A 
ATOM     56  C   UNL A   1      44.095  34.049  30.426  1.00  0.00     0.135 A 
ATOM     57  C   UNL A   1      43.422  33.331  32.619  1.00  0.00     0.135 A 
ATOM     58  F   UNL A   1      44.403  33.792  29.145  1.00  0.00    -0.206 F 
ATOM     59  C   UNL A   1      44.198  35.361  30.876  1.00  0.00     0.059 A 
ATOM     60  C   UNL A   1      43.492  34.642  33.085  1.00  0.00     0.059 A 
ATOM     61  F   UNL A   1      43.055  32.373  33.484  1.00  0.00    -0.206 F 
ATOM     62  C   UNL A   1      43.897  35.648  32.209  1.00  0.00     0.060 A 
BRANCH  62  63
ATOM     63  S   UNL A   1      44.038  37.355  32.778  1.00  0.00     0.124 S 
ATOM     64  O   UNL A   1      43.819  38.094  31.538  1.00  0.00    -0.237 OA
ATOM     65  O   UNL A   1      42.968  37.446  33.767  1.00  0.00    -0.237 OA
ATOM     66  O   UNL A   1      45.393  37.423  33.318  1.00  0.00    -0.744 OA
ENDBRANCH  62  63
ENDBRANCH  41  55
BRANCH  42  67
ATOM     67  C   UNL A   1      42.571  23.755  27.734  1.00  0.00     0.058 A 
ATOM     68  C   UNL A   1      42.464  22.640  28.578  1.00  0.00     0.135 A 
ATOM     69  C   UNL A   1      42.508  23.537  26.349  1.00  0.00     0.135 A 
ATOM     70  F   UNL A   1      42.527  22.798  29.909  1.00  0.00    -0.206 F 
ATOM     71  C   UNL A   1      42.313  21.354  28.071  1.00  0.00     0.059 A 
ATOM     72  C   UNL A   1      42.334  22.262  25.818  1.00  0.00     0.059 A 
ATOM     73  F   UNL A   1      42.590  24.573  25.500  1.00  0.00    -0.206 F 
ATOM     74  C   UNL A   1      42.247  21.175  26.687  1.00  0.00     0.060 A 
BRANCH  74  75
ATOM     75  S   UNL A   1      41.994  19.509  26.040  1.00  0.00     0.124 S 
ATOM     76  O   UNL A   1      40.562  19.516  25.761  1.00  0.00    -0.237 OA
ATOM     77  O   UNL A   1      42.873  19.495  24.874  1.00  0.00    -0.237 OA
ATOM     78  O   UNL A   1      42.419  18.653  27.143  1.00  0.00    -0.744 OA
ENDBRANCH  74  75
ENDBRANCH  42  67
BRANCH  54  79
ATOM     79  C   UNL A   1      47.950  27.210  30.522  1.00  0.00     0.058 A 
ATOM     80  C   UNL A   1      48.995  27.511  29.633  1.00  0.00     0.135 A 
ATOM     81  C   UNL A   1      48.281  26.571  31.728  1.00  0.00     0.135 A 
ATOM     82  F   UNL A   1      48.733  28.114  28.463  1.00  0.00    -0.206 F 
ATOM     83  C   UNL A   1      50.314  27.173  29.921  1.00  0.00     0.059 A 
ATOM     84  C   UNL A   1      49.595  26.246  32.048  1.00  0.00     0.059 A 
ATOM     85  F   UNL A   1      47.321  26.270  32.618  1.00  0.00    -0.206 F 
ATOM     86  C   UNL A   1      50.604  26.541  31.132  1.00  0.00     0.060 A 
BRANCH  86  87
ATOM     87  S   UNL A   1      52.323  26.138  31.510  1.00  0.00     0.124 S 
ATOM     88  O   UNL A   1      52.920  26.117  30.179  1.00  0.00    -0.237 OA
ATOM     89  O   UNL A   1      52.725  27.250  32.367  1.00  0.00    -0.237 OA
ATOM     90  O   UNL A   1      52.230  24.844  32.179  1.00  0.00    -0.744 OA
ENDBRANCH  86  87
ENDBRANCH  54  79
ENDBRANCH  28  29
ENDBRANCH  20  23
ENDBRANCH  18  19
ENDBRANCH  17  18
ENDBRANCH   1  17
TORSDOF 18
ENDMDL
MODEL 2
REMARK VINA RESULT:      -9.8      4.963     10.500
REMARK SMILES CCCCCC[C@H]1OCC[C@H]1C(=O)NCCCNC(=O)c1ccc(-c2c3nc(c(-c4c(F)cc(S(=O)(=O)[O-])cc4F)c4ccc([nH]4)c(-c4c(F)cc(S(=O)(=O)[O-])cc4F)c4nc(c(-c5c(F)cc(S(=O)(=O)[O-])cc5F)c5ccc2[nH]5)C=C4)C=C3)cc1
REMARK SMILES IDX 15 1 14 2 12 3 13 4 11 6 7 7 8 8 9 9 10 10 6 11 5 12 4 13
REMARK SMILES IDX 3 14 2 15 1 16 16 17 17 18 18 19 19 20 20 22 21 23 22 24
REMARK SMILES IDX 86 25 23 26 85 27 24 28 25 29 26 30 79 31 27 32 84 33 78 34
REMARK SMILES IDX 80 35 28 36 83 37 77 38 76 39 29 41 63 42 42 43 62 44 43 45
REMARK SMILES IDX 46 46 61 47 81 48 44 49 45 50 60 52 82 53 47 54 30 55 31 56
REMARK SMILES IDX 40 57 32 58 33 59 39 60 41 61 34 62 35 63 36 64 37 65 38 66
REMARK SMILES IDX 64 67 65 68 74 69 66 70 67 71 73 72 75 73 68 74 69 75 70 76
REMARK SMILES IDX 71 77 72 78 48 79 49 80 58 81 50 82 51 83 57 84 59 85 52 86
REMARK SMILES IDX 53 87 54 88 55 89 56 90
REMARK H PARENT 14 5 18 21 80 40 46 51
REMARK Flexibility Score: inf
ROOT
ATOM      1  C   UNL A   1      37.192  22.433  25.736  1.00  0.00     0.117 C 
ENDROOT
BRANCH   1   2
ATOM      2  N   UNL A   1      35.975  22.459  26.532  1.00  0.00    -0.356 N 
ATOM      3  C   UNL A   1      34.718  22.906  26.299  1.00  0.00     0.225 C 
ATOM      4  O   UNL A   1      33.938  22.828  27.257  1.00  0.00    -0.275 OA
ATOM      5  H   UNL A   1      36.088  22.072  27.430  1.00  0.00     0.163 HD
BRANCH   3   6
ATOM      6  C   UNL A   1      34.199  23.446  24.976  1.00  0.00     0.109 C 
ATOM      7  C   UNL A   1      32.897  22.920  24.386  1.00  0.00     0.130 C 
ATOM      8  O   UNL A   1      31.923  23.949  24.561  1.00  0.00    -0.377 OA
ATOM      9  C   UNL A   1      32.585  25.209  24.647  1.00  0.00     0.161 C 
ATOM     10  C   UNL A   1      34.059  24.954  24.889  1.00  0.00     0.044 C 
BRANCH   7  11
ATOM     11  C   UNL A   1      32.369  21.524  24.747  1.00  0.00     0.033 C 
BRANCH  11  12
ATOM     12  C   UNL A   1      32.887  20.312  23.967  1.00  0.00     0.003 C 
BRANCH  12  13
ATOM     13  C   UNL A   1      33.035  19.006  24.763  1.00  0.00     0.000 C 
BRANCH  13  14
ATOM     14  C   UNL A   1      34.093  18.046  24.218  1.00  0.00    -0.000 C 
BRANCH  14  15
ATOM     15  C   UNL A   1      33.612  16.608  23.998  1.00  0.00    -0.003 C 
ATOM     16  C   UNL A   1      33.546  15.776  25.272  1.00  0.00     0.004 C 
ENDBRANCH  14  15
ENDBRANCH  13  14
ENDBRANCH  12  13
ENDBRANCH  11  12
ENDBRANCH   7  11
ENDBRANCH   3   6
ENDBRANCH   1   2
BRANCH   1  17
ATOM     17  C   UNL A   1      38.150  23.580  26.083  1.00  0.00     0.042 C 
BRANCH  17  18
ATOM     18  C   UNL A   1      39.391  23.175  26.872  1.00  0.00     0.118 C 
BRANCH  18  19
ATOM     19  N   UNL A   1      40.619  23.621  26.244  1.00  0.00    -0.352 N 
ATOM     20  C   UNL A   1      41.338  24.784  26.365  1.00  0.00     0.251 C 
ATOM     21  H   UNL A   1      41.008  22.971  25.615  1.00  0.00     0.163 HD
ATOM     22  O   UNL A   1      42.235  24.986  25.545  1.00  0.00    -0.269 OA
BRANCH  20  23
ATOM     23  C   UNL A   1      41.073  25.807  27.413  1.00  0.00     0.039 A 
ATOM     24  C   UNL A   1      41.909  26.931  27.453  1.00  0.00     0.014 A 
ATOM     25  C   UNL A   1      40.124  25.644  28.425  1.00  0.00     0.014 A 
ATOM     26  C   UNL A   1      41.786  27.881  28.476  1.00  0.00     0.010 A 
ATOM     27  C   UNL A   1      39.946  26.634  29.401  1.00  0.00     0.010 A 
ATOM     28  C   UNL A   1      40.791  27.753  29.456  1.00  0.00    -0.014 A 
BRANCH  28  29
ATOM     29  C   UNL A   1      40.660  28.748  30.560  1.00  0.00     0.031 A 
ATOM     30  C   UNL A   1      41.549  28.664  31.778  1.00  0.00     0.074 A 
ATOM     31  C   UNL A   1      39.721  29.714  30.494  1.00  0.00     0.049 A 
ATOM     32  N   UNL A   1      41.537  29.393  32.867  1.00  0.00    -0.248 NA
ATOM     33  C   UNL A   1      42.574  27.608  31.782  1.00  0.00     0.031 C 
ATOM     34  C   UNL A   1      38.776  29.899  29.392  1.00  0.00     0.029 A 
ATOM     35  N   UNL A   1      39.401  30.718  31.375  1.00  0.00    -0.354 N 
ATOM     36  C   UNL A   1      42.529  28.871  33.690  1.00  0.00     0.074 A 
ATOM     37  C   UNL A   1      43.097  27.738  32.993  1.00  0.00     0.031 C 
ATOM     38  C   UNL A   1      37.996  30.960  29.654  1.00  0.00     0.029 A 
ATOM     39  C   UNL A   1      38.358  31.510  30.958  1.00  0.00     0.049 A 
ATOM     40  H   UNL A   1      39.876  30.858  32.226  1.00  0.00     0.167 HD
ATOM     41  C   UNL A   1      42.945  29.305  34.907  1.00  0.00     0.037 A 
ATOM     42  C   UNL A   1      37.750  32.554  31.556  1.00  0.00     0.037 A 
ATOM     43  C   UNL A   1      42.411  30.457  35.585  1.00  0.00     0.049 A 
ATOM     44  C   UNL A   1      38.233  33.023  32.903  1.00  0.00     0.074 A 
ATOM     45  C   UNL A   1      42.810  31.007  36.792  1.00  0.00     0.029 A 
ATOM     46  N   UNL A   1      41.367  31.241  35.117  1.00  0.00    -0.354 N 
ATOM     47  N   UNL A   1      39.201  32.541  33.645  1.00  0.00    -0.248 NA
ATOM     48  C   UNL A   1      37.543  34.180  33.491  1.00  0.00     0.031 C 
ATOM     49  C   UNL A   1      41.983  32.101  37.072  1.00  0.00     0.029 A 
ATOM     50  C   UNL A   1      41.097  32.259  36.018  1.00  0.00     0.049 A 
ATOM     51  H   UNL A   1      40.887  31.096  34.269  1.00  0.00     0.167 HD
ATOM     52  C   UNL A   1      39.253  33.350  34.774  1.00  0.00     0.074 A 
ATOM     53  C   UNL A   1      38.226  34.359  34.614  1.00  0.00     0.031 C 
ATOM     54  C   UNL A   1      40.078  33.264  35.847  1.00  0.00     0.037 A 
BRANCH  41  55
ATOM     55  C   UNL A   1      44.041  28.529  35.588  1.00  0.00     0.058 A 
ATOM     56  C   UNL A   1      45.398  28.807  35.353  1.00  0.00     0.135 A 
ATOM     57  C   UNL A   1      43.733  27.525  36.520  1.00  0.00     0.135 A 
ATOM     58  F   UNL A   1      45.750  29.749  34.464  1.00  0.00    -0.206 F 
ATOM     59  C   UNL A   1      46.408  28.094  35.991  1.00  0.00     0.059 A 
ATOM     60  C   UNL A   1      44.727  26.818  37.191  1.00  0.00     0.059 A 
ATOM     61  F   UNL A   1      42.453  27.221  36.787  1.00  0.00    -0.206 F 
ATOM     62  C   UNL A   1      46.063  27.099  36.907  1.00  0.00     0.060 A 
BRANCH  62  63
ATOM     63  S   UNL A   1      47.385  26.184  37.725  1.00  0.00     0.124 S 
ATOM     64  O   UNL A   1      46.758  24.881  37.923  1.00  0.00    -0.237 OA
ATOM     65  O   UNL A   1      48.458  26.227  36.736  1.00  0.00    -0.237 OA
ATOM     66  O   UNL A   1      47.629  26.953  38.943  1.00  0.00    -0.744 OA
ENDBRANCH  62  63
ENDBRANCH  41  55
BRANCH  42  67
ATOM     67  C   UNL A   1      36.621  33.242  30.875  1.00  0.00     0.058 A 
ATOM     68  C   UNL A   1      35.304  33.091  31.331  1.00  0.00     0.135 A 
ATOM     69  C   UNL A   1      36.840  34.076  29.766  1.00  0.00     0.135 A 
ATOM     70  F   UNL A   1      35.045  32.298  32.381  1.00  0.00    -0.206 F 
ATOM     71  C   UNL A   1      34.239  33.733  30.706  1.00  0.00     0.059 A 
ATOM     72  C   UNL A   1      35.793  34.746  29.139  1.00  0.00     0.059 A 
ATOM     73  F   UNL A   1      38.084  34.264  29.301  1.00  0.00    -0.206 F 
ATOM     74  C   UNL A   1      34.494  34.561  29.612  1.00  0.00     0.060 A 
BRANCH  74  75
ATOM     75  S   UNL A   1      33.113  35.433  28.843  1.00  0.00     0.124 S 
ATOM     76  O   UNL A   1      33.807  36.434  28.041  1.00  0.00    -0.237 OA
ATOM     77  O   UNL A   1      32.450  34.366  28.100  1.00  0.00    -0.237 OA
ATOM     78  O   UNL A   1      32.364  35.946  29.986  1.00  0.00    -0.744 OA
ENDBRANCH  74  75
ENDBRANCH  42  67
BRANCH  54  79
ATOM     79  C   UNL A   1      39.932  34.305  36.921  1.00  0.00     0.058 A 
ATOM     80  C   UNL A   1      40.624  35.526  36.865  1.00  0.00     0.135 A 
ATOM     81  C   UNL A   1      39.050  34.101  37.995  1.00  0.00     0.135 A 
ATOM     82  F   UNL A   1      41.483  35.769  35.864  1.00  0.00    -0.206 F 
ATOM     83  C   UNL A   1      40.461  36.498  37.848  1.00  0.00     0.059 A 
ATOM     84  C   UNL A   1      38.855  35.068  38.976  1.00  0.00     0.059 A 
ATOM     85  F   UNL A   1      38.357  32.954  38.091  1.00  0.00    -0.206 F 
ATOM     86  C   UNL A   1      39.574  36.260  38.900  1.00  0.00     0.060 A 
BRANCH  86  87
ATOM     87  S   UNL A   1      39.347  37.542  40.150  1.00  0.00     0.124 S 
ATOM     88  O   UNL A   1      40.662  38.173  40.167  1.00  0.00    -0.237 OA
ATOM     89  O   UNL A   1      38.266  38.345  39.585  1.00  0.00    -0.237 OA
ATOM     90  O   UNL A   1      38.995  36.788  41.350  1.00  0.00    -0.744 OA
ENDBRANCH  86  87
ENDBRANCH  54  79
ENDBRANCH  28  29
ENDBRANCH  20  23
ENDBRANCH  18  19
ENDBRANCH  17  18
ENDBRANCH   1  17
TORSDOF 18
ENDMDL
MODEL 3
REMARK VINA RESULT:      -9.7      5.869     11.187
REMARK SMILES CCCCCC[C@H]1OCC[C@H]1C(=O)NCCCNC(=O)c1ccc(-c2c3nc(c(-c4c(F)cc(S(=O)(=O)[O-])cc4F)c4ccc([nH]4)c(-c4c(F)cc(S(=O)(=O)[O-])cc4F)c4nc(c(-c5c(F)cc(S(=O)(=O)[O-])cc5F)c5ccc2[nH]5)C=C4)C=C3)cc1
REMARK SMILES IDX 15 1 14 2 12 3 13 4 11 6 7 7 8 8 9 9 10 10 6 11 5 12 4 13
REMARK SMILES IDX 3 14 2 15 1 16 16 17 17 18 18 19 19 20 20 22 21 23 22 24
REMARK SMILES IDX 86 25 23 26 85 27 24 28 25 29 26 30 79 31 27 32 84 33 78 34
REMARK SMILES IDX 80 35 28 36 83 37 77 38 76 39 29 41 63 42 42 43 62 44 43 45
REMARK SMILES IDX 46 46 61 47 81 48 44 49 45 50 60 52 82 53 47 54 30 55 31 56
REMARK SMILES IDX 40 57 32 58 33 59 39 60 41 61 34 62 35 63 36 64 37 65 38 66
REMARK SMILES IDX 64 67 65 68 74 69 66 70 67 71 73 72 75 73 68 74 69 75 70 76
REMARK SMILES IDX 71 77 72 78 48 79 49 80 58 81 50 82 51 83 57 84 59 85 52 86
REMARK SMILES IDX 53 87 54 88 55 89 56 90
REMARK H PARENT 14 5 18 21 80 40 46 51
REMARK Flexibility Score: inf
ROOT
ATOM      1  C   UNL A   1      42.275  22.341  28.169  1.00  0.00     0.117 C 
ENDROOT
BRANCH   1   2
ATOM      2  N   UNL A   1      43.394  21.936  27.332  1.00  0.00    -0.356 N 
ATOM      3  C   UNL A   1      44.273  22.615  26.558  1.00  0.00     0.225 C 
ATOM      4  O   UNL A   1      45.068  21.917  25.915  1.00  0.00    -0.275 OA
ATOM      5  H   UNL A   1      43.542  20.963  27.325  1.00  0.00     0.163 HD
BRANCH   3   6
ATOM      6  C   UNL A   1      44.379  24.128  26.452  1.00  0.00     0.109 C 
ATOM      7  C   UNL A   1      45.159  24.921  27.491  1.00  0.00     0.130 C 
ATOM      8  O   UNL A   1      46.370  25.341  26.861  1.00  0.00    -0.377 OA
ATOM      9  C   UNL A   1      46.164  25.404  25.451  1.00  0.00     0.161 C 
ATOM     10  C   UNL A   1      44.884  24.662  25.125  1.00  0.00     0.044 C 
BRANCH   7  11
ATOM     11  C   UNL A   1      45.379  24.373  28.909  1.00  0.00     0.033 C 
BRANCH  11  12
ATOM     12  C   UNL A   1      44.394  24.764  30.015  1.00  0.00     0.003 C 
BRANCH  12  13
ATOM     13  C   UNL A   1      44.143  23.710  31.103  1.00  0.00     0.000 C 
BRANCH  13  14
ATOM     14  C   UNL A   1      44.392  24.199  32.531  1.00  0.00    -0.000 C 
BRANCH  14  15
ATOM     15  C   UNL A   1      43.959  23.227  33.633  1.00  0.00    -0.003 C 
ATOM     16  C   UNL A   1      43.048  23.849  34.685  1.00  0.00     0.004 C 
ENDBRANCH  14  15
ENDBRANCH  13  14
ENDBRANCH  12  13
ENDBRANCH  11  12
ENDBRANCH   7  11
ENDBRANCH   3   6
ENDBRANCH   1   2
BRANCH   1  17
ATOM     17  C   UNL A   1      40.917  21.946  27.573  1.00  0.00     0.042 C 
BRANCH  17  18
ATOM     18  C   UNL A   1      40.064  23.107  27.074  1.00  0.00     0.118 C 
BRANCH  18  19
ATOM     19  N   UNL A   1      40.767  23.944  26.122  1.00  0.00    -0.352 N 
ATOM     20  C   UNL A   1      41.019  25.293  26.101  1.00  0.00     0.251 C 
ATOM     21  H   UNL A   1      41.131  23.455  25.349  1.00  0.00     0.163 HD
ATOM     22  O   UNL A   1      41.458  25.775  25.056  1.00  0.00    -0.269 OA
BRANCH  20  23
ATOM     23  C   UNL A   1      40.768  26.192  27.261  1.00  0.00     0.039 A 
ATOM     24  C   UNL A   1      41.601  27.310  27.411  1.00  0.00     0.014 A 
ATOM     25  C   UNL A   1      39.838  25.913  28.265  1.00  0.00     0.014 A 
ATOM     26  C   UNL A   1      41.492  28.139  28.535  1.00  0.00     0.010 A 
ATOM     27  C   UNL A   1      39.674  26.788  29.348  1.00  0.00     0.010 A 
ATOM     28  C   UNL A   1      40.515  27.898  29.512  1.00  0.00    -0.014 A 
BRANCH  28  29
ATOM     29  C   UNL A   1      40.401  28.763  30.722  1.00  0.00     0.031 A 
ATOM     30  C   UNL A   1      39.380  29.874  30.777  1.00  0.00     0.074 A 
ATOM     31  C   UNL A   1      41.233  28.578  31.768  1.00  0.00     0.049 A 
ATOM     32  N   UNL A   1      39.178  30.771  31.711  1.00  0.00    -0.248 NA
ATOM     33  C   UNL A   1      38.480  30.009  29.621  1.00  0.00     0.031 C 
ATOM     34  C   UNL A   1      42.284  27.563  31.842  1.00  0.00     0.029 A 
ATOM     35  N   UNL A   1      41.331  29.244  32.966  1.00  0.00    -0.354 N 
ATOM     36  C   UNL A   1      38.152  31.587  31.247  1.00  0.00     0.074 A 
ATOM     37  C   UNL A   1      37.799  31.104  29.929  1.00  0.00     0.031 C 
ATOM     38  C   UNL A   1      42.908  27.661  33.027  1.00  0.00     0.029 A 
ATOM     39  C   UNL A   1      42.329  28.768  33.783  1.00  0.00     0.049 A 
ATOM     40  H   UNL A   1      40.742  29.991  33.216  1.00  0.00     0.167 HD
ATOM     41  C   UNL A   1      37.543  32.630  31.865  1.00  0.00     0.037 A 
ATOM     42  C   UNL A   1      42.743  29.178  34.999  1.00  0.00     0.037 A 
ATOM     43  C   UNL A   1      37.863  33.086  33.193  1.00  0.00     0.049 A 
ATOM     44  C   UNL A   1      42.049  30.333  35.669  1.00  0.00     0.074 A 
ATOM     45  C   UNL A   1      37.260  34.096  33.923  1.00  0.00     0.029 A 
ATOM     46  N   UNL A   1      38.869  32.564  33.992  1.00  0.00    -0.354 N 
ATOM     47  N   UNL A   1      41.052  31.063  35.229  1.00  0.00    -0.248 NA
ATOM     48  C   UNL A   1      42.532  30.718  37.003  1.00  0.00     0.031 C 
ATOM     49  C   UNL A   1      37.925  34.209  35.150  1.00  0.00     0.029 A 
ATOM     50  C   UNL A   1      38.914  33.240  35.201  1.00  0.00     0.049 A 
ATOM     51  H   UNL A   1      39.463  31.821  33.738  1.00  0.00     0.167 HD
ATOM     52  C   UNL A   1      40.773  31.975  36.241  1.00  0.00     0.074 A 
ATOM     53  C   UNL A   1      41.699  31.700  37.320  1.00  0.00     0.031 C 
ATOM     54  C   UNL A   1      39.834  32.953  36.272  1.00  0.00     0.037 A 
BRANCH  41  55
ATOM     55  C   UNL A   1      36.459  33.353  31.111  1.00  0.00     0.058 A 
ATOM     56  C   UNL A   1      36.751  34.196  30.027  1.00  0.00     0.135 A 
ATOM     57  C   UNL A   1      35.108  33.166  31.448  1.00  0.00     0.135 A 
ATOM     58  F   UNL A   1      38.025  34.419  29.669  1.00  0.00    -0.206 F 
ATOM     59  C   UNL A   1      35.746  34.856  29.327  1.00  0.00     0.059 A 
ATOM     60  C   UNL A   1      34.084  33.794  30.743  1.00  0.00     0.059 A 
ATOM     61  F   UNL A   1      34.771  32.366  32.471  1.00  0.00    -0.206 F 
ATOM     62  C   UNL A   1      34.415  34.651  29.693  1.00  0.00     0.060 A 
BRANCH  62  63
ATOM     63  S   UNL A   1      33.123  35.514  28.775  1.00  0.00     0.124 S 
ATOM     64  O   UNL A   1      32.291  36.030  29.858  1.00  0.00    -0.237 OA
ATOM     65  O   UNL A   1      33.882  36.512  28.028  1.00  0.00    -0.237 OA
ATOM     66  O   UNL A   1      32.517  34.459  27.967  1.00  0.00    -0.744 OA
ENDBRANCH  62  63
ENDBRANCH  41  55
BRANCH  42  67
ATOM     67  C   UNL A   1      43.869  28.477  35.672  1.00  0.00     0.058 A 
ATOM     68  C   UNL A   1      45.200  28.832  35.409  1.00  0.00     0.135 A 
ATOM     69  C   UNL A   1      43.636  27.452  36.602  1.00  0.00     0.135 A 
ATOM     70  F   UNL A   1      45.472  29.801  34.521  1.00  0.00    -0.206 F 
ATOM     71  C   UNL A   1      46.263  28.189  36.034  1.00  0.00     0.059 A 
ATOM     72  C   UNL A   1      44.682  26.810  37.259  1.00  0.00     0.059 A 
ATOM     73  F   UNL A   1      42.379  27.086  36.900  1.00  0.00    -0.206 F 
ATOM     74  C   UNL A   1      45.993  27.180  36.961  1.00  0.00     0.060 A 
BRANCH  74  75
ATOM     75  S   UNL A   1      47.377  26.389  37.809  1.00  0.00     0.124 S 
ATOM     76  O   UNL A   1      48.154  27.545  38.243  1.00  0.00    -0.237 OA
ATOM     77  O   UNL A   1      46.704  25.639  38.865  1.00  0.00    -0.237 OA
ATOM     78  O   UNL A   1      47.987  25.573  36.765  1.00  0.00    -0.744 OA
ENDBRANCH  74  75
ENDBRANCH  42  67
BRANCH  54  79
ATOM     79  C   UNL A   1      39.734  33.780  37.524  1.00  0.00     0.058 A 
ATOM     80  C   UNL A   1      40.442  34.983  37.672  1.00  0.00     0.135 A 
ATOM     81  C   UNL A   1      38.879  33.390  38.568  1.00  0.00     0.135 A 
ATOM     82  F   UNL A   1      41.277  35.398  36.707  1.00  0.00    -0.206 F 
ATOM     83  C   UNL A   1      40.323  35.759  38.821  1.00  0.00     0.059 A 
ATOM     84  C   UNL A   1      38.727  34.163  39.715  1.00  0.00     0.059 A 
ATOM     85  F   UNL A   1      38.171  32.253  38.473  1.00  0.00    -0.206 F 
ATOM     86  C   UNL A   1      39.462  35.341  39.837  1.00  0.00     0.060 A 
BRANCH  86  87
ATOM     87  S   UNL A   1      39.290  36.373  41.309  1.00  0.00     0.124 S 
ATOM     88  O   UNL A   1      40.634  36.309  41.872  1.00  0.00    -0.237 OA
ATOM     89  O   UNL A   1      38.900  37.662  40.745  1.00  0.00    -0.237 OA
ATOM     90  O   UNL A   1      38.252  35.696  42.080  1.00  0.00    -0.744 OA
ENDBRANCH  86  87
ENDBRANCH  54  79
ENDBRANCH  28  29
ENDBRANCH  20  23
ENDBRANCH  18  19
ENDBRANCH  17  18
ENDBRANCH   1  17
TORSDOF 18
ENDMDL
