MODEL 1
REMARK VINA RESULT:     -10.9      0.000      0.000
REMARK SMILES O=C(NCCCNC(=O)[C@]1([NH2+]C2CC2)CCC[C@H](SC[C@H](O)CO)C1)c1ccc(-c2c3nc(c(-c4c(F)cc(S(=O)(=O)[O-])cc4F)c4ccc([nH]4)c(-c4c(F)cc(S(=O)(=O)[O-])cc4F)c4nc(c(-c5c(F)cc(S(=O)(=O)[O-])cc5F)c5ccc2[nH]5)C=C4)C=C3)cc1
REMARK SMILES IDX 6 1 5 2 4 3 3 4 1 5 2 6 26 8 27 9 91 10 28 11 90 12 29 13
REMARK SMILES IDX 30 14 31 15 84 16 32 17 89 18 83 19 85 20 33 21 88 22 82 23
REMARK SMILES IDX 81 24 34 26 68 27 47 28 67 29 48 30 51 31 66 32 86 33 49 34
REMARK SMILES IDX 50 35 65 37 87 38 52 39 35 40 36 41 45 42 37 43 38 44 44 45
REMARK SMILES IDX 46 46 39 47 40 48 41 49 42 50 43 51 69 52 70 53 79 54 71 55
REMARK SMILES IDX 72 56 78 57 80 58 73 59 74 60 75 61 76 62 77 63 53 64 54 65
REMARK SMILES IDX 63 66 55 67 56 68 62 69 64 70 57 71 58 72 59 73 60 74 61 75
REMARK SMILES IDX 7 76 8 77 9 79 10 80 15 81 25 82 16 83 18 84 17 85 11 86
REMARK SMILES IDX 12 89 13 90 14 91 19 92 20 93 21 94 23 95 24 96 22 98
REMARK H PARENT 3 7 85 25 51 36 7 78 11 87 11 88 24 97 22 99
REMARK Flexibility Score: inf
ROOT
ATOM      1  C   UNL A   1      36.335  22.609  25.787  1.00  0.00     0.118 C 
ENDROOT
BRANCH   1   2
ATOM      2  C   UNL A   1      37.492  23.487  25.370  1.00  0.00     0.042 C 
BRANCH   2   3
ATOM      3  C   UNL A   1      38.452  23.813  26.500  1.00  0.00     0.118 C 
BRANCH   3   4
ATOM      4  N   UNL A   1      39.833  24.017  26.062  1.00  0.00    -0.352 N 
ATOM      5  O   UNL A   1      41.855  24.936  25.771  1.00  0.00    -0.269 OA
ATOM      6  C   UNL A   1      40.806  24.932  26.405  1.00  0.00     0.251 C 
ATOM      7  H   UNL A   1      40.128  23.367  25.384  1.00  0.00     0.163 HD
BRANCH   6   8
ATOM      8  C   UNL A   1      40.602  25.926  27.487  1.00  0.00     0.039 A 
ATOM      9  C   UNL A   1      41.329  27.109  27.537  1.00  0.00     0.014 A 
ATOM     10  C   UNL A   1      39.628  25.688  28.467  1.00  0.00     0.014 A 
ATOM     11  C   UNL A   1      41.271  27.917  28.664  1.00  0.00     0.010 A 
ATOM     12  C   UNL A   1      39.457  26.588  29.527  1.00  0.00     0.010 A 
ATOM     13  C   UNL A   1      40.315  27.687  29.664  1.00  0.00    -0.014 A 
BRANCH  13  14
ATOM     14  C   UNL A   1      40.223  28.646  30.799  1.00  0.00     0.031 A 
ATOM     15  C   UNL A   1      41.189  28.586  31.952  1.00  0.00     0.074 A 
ATOM     16  C   UNL A   1      39.293  29.622  30.748  1.00  0.00     0.049 A 
ATOM     17  N   UNL A   1      41.260  29.361  33.006  1.00  0.00    -0.248 NA
ATOM     18  C   UNL A   1      42.199  27.516  31.932  1.00  0.00     0.031 C 
ATOM     19  C   UNL A   1      38.294  29.777  29.685  1.00  0.00     0.029 A 
ATOM     20  N   UNL A   1      39.055  30.688  31.577  1.00  0.00    -0.354 N 
ATOM     21  C   UNL A   1      42.292  28.853  33.787  1.00  0.00     0.074 A 
ATOM     22  C   UNL A   1      42.810  27.693  33.095  1.00  0.00     0.031 C 
ATOM     23  C   UNL A   1      37.607  30.911  29.884  1.00  0.00     0.029 A 
ATOM     24  C   UNL A   1      38.053  31.517  31.132  1.00  0.00     0.049 A 
ATOM     25  H   UNL A   1      39.554  30.843  32.412  1.00  0.00     0.167 HD
ATOM     26  C   UNL A   1      42.765  29.318  34.970  1.00  0.00     0.037 A 
ATOM     27  C   UNL A   1      37.529  32.633  31.673  1.00  0.00     0.037 A 
ATOM     28  C   UNL A   1      42.264  30.494  35.633  1.00  0.00     0.049 A 
ATOM     29  C   UNL A   1      38.073  33.128  32.979  1.00  0.00     0.074 A 
ATOM     30  C   UNL A   1      42.693  31.061  36.821  1.00  0.00     0.029 A 
ATOM     31  N   UNL A   1      41.228  31.289  35.164  1.00  0.00    -0.354 N 
ATOM     32  N   UNL A   1      39.048  32.631  33.702  1.00  0.00    -0.248 NA
ATOM     33  C   UNL A   1      37.441  34.323  33.550  1.00  0.00     0.031 C 
ATOM     34  C   UNL A   1      41.892  32.177  37.088  1.00  0.00     0.029 A 
ATOM     35  C   UNL A   1      40.992  32.332  36.046  1.00  0.00     0.049 A 
ATOM     36  H   UNL A   1      40.732  31.134  34.327  1.00  0.00     0.167 HD
ATOM     37  C   UNL A   1      39.151  33.456  34.814  1.00  0.00     0.074 A 
ATOM     38  C   UNL A   1      38.154  34.496  34.657  1.00  0.00     0.031 C 
ATOM     39  C   UNL A   1      39.992  33.356  35.873  1.00  0.00     0.037 A 
BRANCH  26  40
ATOM     40  C   UNL A   1      43.866  28.536  35.636  1.00  0.00     0.058 A 
ATOM     41  C   UNL A   1      43.597  27.503  36.547  1.00  0.00     0.135 A 
ATOM     42  C   UNL A   1      45.211  28.810  35.336  1.00  0.00     0.135 A 
ATOM     43  F   UNL A   1      42.330  27.208  36.882  1.00  0.00    -0.206 F 
ATOM     44  C   UNL A   1      44.623  26.790  37.161  1.00  0.00     0.059 A 
ATOM     45  C   UNL A   1      46.251  28.093  35.920  1.00  0.00     0.059 A 
ATOM     46  F   UNL A   1      45.526  29.786  34.470  1.00  0.00    -0.206 F 
ATOM     47  C   UNL A   1      45.948  27.096  36.845  1.00  0.00     0.060 A 
BRANCH  47  48
ATOM     48  S   UNL A   1      47.269  26.173  37.661  1.00  0.00     0.124 S 
ATOM     49  O   UNL A   1      48.032  27.251  38.283  1.00  0.00    -0.237 OA
ATOM     50  O   UNL A   1      46.530  25.312  38.578  1.00  0.00    -0.237 OA
ATOM     51  O   UNL A   1      47.935  25.487  36.559  1.00  0.00    -0.744 OA
ENDBRANCH  47  48
ENDBRANCH  26  40
BRANCH  27  52
ATOM     52  C   UNL A   1      36.417  33.331  30.976  1.00  0.00     0.058 A 
ATOM     53  C   UNL A   1      35.107  33.280  31.469  1.00  0.00     0.135 A 
ATOM     54  C   UNL A   1      36.659  34.113  29.835  1.00  0.00     0.135 A 
ATOM     55  F   UNL A   1      34.825  32.542  32.553  1.00  0.00    -0.206 F 
ATOM     56  C   UNL A   1      34.072  33.982  30.857  1.00  0.00     0.059 A 
ATOM     57  C   UNL A   1      35.647  34.845  29.223  1.00  0.00     0.059 A 
ATOM     58  F   UNL A   1      37.901  34.209  29.336  1.00  0.00    -0.206 F 
ATOM     59  C   UNL A   1      34.355  34.769  29.738  1.00  0.00     0.060 A 
BRANCH  59  60
ATOM     60  S   UNL A   1      33.026  35.742  28.998  1.00  0.00     0.124 S 
ATOM     61  O   UNL A   1      32.361  34.744  28.169  1.00  0.00    -0.237 OA
ATOM     62  O   UNL A   1      32.285  36.195  30.172  1.00  0.00    -0.237 OA
ATOM     63  O   UNL A   1      33.741  36.790  28.276  1.00  0.00    -0.744 OA
ENDBRANCH  59  60
ENDBRANCH  27  52
BRANCH  39  64
ATOM     64  C   UNL A   1      39.880  34.413  36.932  1.00  0.00     0.058 A 
ATOM     65  C   UNL A   1      40.577  35.627  36.835  1.00  0.00     0.135 A 
ATOM     66  C   UNL A   1      39.035  34.224  38.036  1.00  0.00     0.135 A 
ATOM     67  F   UNL A   1      41.405  35.850  35.801  1.00  0.00    -0.206 F 
ATOM     68  C   UNL A   1      40.456  36.611  37.809  1.00  0.00     0.059 A 
ATOM     69  C   UNL A   1      38.881  35.204  39.011  1.00  0.00     0.059 A 
ATOM     70  F   UNL A   1      38.341  33.082  38.170  1.00  0.00    -0.206 F 
ATOM     71  C   UNL A   1      39.606  36.391  38.894  1.00  0.00     0.060 A 
BRANCH  71  72
ATOM     72  S   UNL A   1      39.431  37.688  40.137  1.00  0.00     0.124 S 
ATOM     73  O   UNL A   1      39.166  36.905  41.341  1.00  0.00    -0.237 OA
ATOM     74  O   UNL A   1      40.730  38.351  40.085  1.00  0.00    -0.237 OA
ATOM     75  O   UNL A   1      38.310  38.481  39.644  1.00  0.00    -0.744 OA
ENDBRANCH  71  72
ENDBRANCH  39  64
ENDBRANCH  13  14
ENDBRANCH   6   8
ENDBRANCH   3   4
ENDBRANCH   2   3
ENDBRANCH   1   2
BRANCH   1  76
ATOM     76  N   UNL A   1      35.616  22.989  26.968  1.00  0.00    -0.351 N 
ATOM     77  C   UNL A   1      34.257  23.093  27.078  1.00  0.00     0.281 C 
ATOM     78  H   UNL A   1      36.148  23.193  27.770  1.00  0.00     0.163 HD
ATOM     79  O   UNL A   1      33.802  22.712  28.169  1.00  0.00    -0.268 OA
BRANCH  77  80
ATOM     80  C   UNL A   1      33.321  23.837  26.028  1.00  0.00     0.176 C 
ATOM     81  C   UNL A   1      31.958  24.136  26.717  1.00  0.00     0.079 C 
ATOM     82  C   UNL A   1      32.995  23.218  24.632  1.00  0.00     0.093 C 
ATOM     83  C   UNL A   1      31.060  22.901  26.778  1.00  0.00     0.008 C 
ATOM     84  C   UNL A   1      31.958  22.076  24.539  1.00  0.00     0.053 C 
ATOM     85  C   UNL A   1      30.716  22.414  25.375  1.00  0.00     0.015 C 
BRANCH  80  86
ATOM     86  N   UNL A   1      34.008  25.144  25.705  1.00  0.00    -0.331 N 
ATOM     87  H   UNL A   1      34.064  25.224  24.690  1.00  0.00     0.347 HD
ATOM     88  H   UNL A   1      34.912  25.098  26.175  1.00  0.00     0.347 HD
BRANCH  86  89
ATOM     89  C   UNL A   1      33.362  26.365  26.217  1.00  0.00     0.183 C 
ATOM     90  C   UNL A   1      34.047  27.691  26.060  1.00  0.00     0.071 C 
ATOM     91  C   UNL A   1      32.853  27.366  25.214  1.00  0.00     0.071 C 
ENDBRANCH  86  89
ENDBRANCH  80  86
BRANCH  84  92
ATOM     92  S   UNL A   1      32.484  20.367  24.960  1.00  0.00    -0.156 SA
BRANCH  92  93
ATOM     93  C   UNL A   1      32.684  19.592  23.309  1.00  0.00     0.104 C 
BRANCH  93  94
ATOM     94  C   UNL A   1      32.765  18.068  23.249  1.00  0.00     0.149 C 
BRANCH  94  95
ATOM     95  C   UNL A   1      32.494  17.410  24.600  1.00  0.00     0.188 C 
BRANCH  95  96
ATOM     96  O   UNL A   1      32.548  15.991  24.469  1.00  0.00    -0.394 OA
ATOM     97  H   UNL A   1      32.914  15.759  23.601  1.00  0.00     0.210 HD
ENDBRANCH  95  96
ENDBRANCH  94  95
BRANCH  94  98
ATOM     98  O   UNL A   1      31.745  17.628  22.332  1.00  0.00    -0.390 OA
ATOM     99  H   UNL A   1      30.976  18.215  22.399  1.00  0.00     0.211 HD
ENDBRANCH  94  98
ENDBRANCH  93  94
ENDBRANCH  92  93
ENDBRANCH  84  92
ENDBRANCH  77  80
ENDBRANCH   1  76
TORSDOF 21
ENDMDL
MODEL 2
REMARK VINA RESULT:     -10.7      1.602      3.542
REMARK SMILES O=C(NCCCNC(=O)[C@]1([NH2+]C2CC2)CCC[C@H](SC[C@H](O)CO)C1)c1ccc(-c2c3nc(c(-c4c(F)cc(S(=O)(=O)[O-])cc4F)c4ccc([nH]4)c(-c4c(F)cc(S(=O)(=O)[O-])cc4F)c4nc(c(-c5c(F)cc(S(=O)(=O)[O-])cc5F)c5ccc2[nH]5)C=C4)C=C3)cc1
REMARK SMILES IDX 6 1 5 2 4 3 3 4 1 5 2 6 26 8 27 9 91 10 28 11 90 12 29 13
REMARK SMILES IDX 30 14 31 15 84 16 32 17 89 18 83 19 85 20 33 21 88 22 82 23
REMARK SMILES IDX 81 24 34 26 68 27 47 28 67 29 48 30 51 31 66 32 86 33 49 34
REMARK SMILES IDX 50 35 65 37 87 38 52 39 35 40 36 41 45 42 37 43 38 44 44 45
REMARK SMILES IDX 46 46 39 47 40 48 41 49 42 50 43 51 69 52 70 53 79 54 71 55
REMARK SMILES IDX 72 56 78 57 80 58 73 59 74 60 75 61 76 62 77 63 53 64 54 65
REMARK SMILES IDX 63 66 55 67 56 68 62 69 64 70 57 71 58 72 59 73 60 74 61 75
REMARK SMILES IDX 7 76 8 77 9 79 10 80 15 81 25 82 16 83 18 84 17 85 11 86
REMARK SMILES IDX 12 89 13 90 14 91 19 92 20 93 21 94 23 95 24 96 22 98
REMARK H PARENT 3 7 85 25 51 36 7 78 11 87 11 88 24 97 22 99
REMARK Flexibility Score: inf
ROOT
ATOM      1  C   UNL A   1      36.135  23.789  24.943  1.00  0.00     0.118 C 
ENDROOT
BRANCH   1   2
ATOM      2  C   UNL A   1      37.443  23.170  25.379  1.00  0.00     0.042 C 
BRANCH   2   3
ATOM      3  C   UNL A   1      38.236  24.029  26.347  1.00  0.00     0.118 C 
BRANCH   3   4
ATOM      4  N   UNL A   1      39.675  24.040  26.086  1.00  0.00    -0.352 N 
ATOM      5  O   UNL A   1      41.824  24.670  26.065  1.00  0.00    -0.269 OA
ATOM      6  C   UNL A   1      40.714  24.809  26.565  1.00  0.00     0.251 C 
ATOM      7  H   UNL A   1      39.960  23.359  25.435  1.00  0.00     0.163 HD
BRANCH   6   8
ATOM      8  C   UNL A   1      40.517  25.816  27.636  1.00  0.00     0.039 A 
ATOM      9  C   UNL A   1      41.269  26.983  27.688  1.00  0.00     0.014 A 
ATOM     10  C   UNL A   1      39.524  25.607  28.604  1.00  0.00     0.014 A 
ATOM     11  C   UNL A   1      41.212  27.802  28.808  1.00  0.00     0.010 A 
ATOM     12  C   UNL A   1      39.357  26.520  29.655  1.00  0.00     0.010 A 
ATOM     13  C   UNL A   1      40.238  27.601  29.796  1.00  0.00    -0.014 A 
BRANCH  13  14
ATOM     14  C   UNL A   1      40.150  28.570  30.921  1.00  0.00     0.031 A 
ATOM     15  C   UNL A   1      41.110  28.510  32.080  1.00  0.00     0.074 A 
ATOM     16  C   UNL A   1      39.231  29.556  30.857  1.00  0.00     0.049 A 
ATOM     17  N   UNL A   1      41.184  29.293  33.127  1.00  0.00    -0.248 NA
ATOM     18  C   UNL A   1      42.108  27.429  32.074  1.00  0.00     0.031 C 
ATOM     19  C   UNL A   1      38.239  29.713  29.788  1.00  0.00     0.029 A 
ATOM     20  N   UNL A   1      39.000  30.631  31.675  1.00  0.00    -0.354 N 
ATOM     21  C   UNL A   1      42.206  28.782  33.918  1.00  0.00     0.074 A 
ATOM     22  C   UNL A   1      42.715  27.610  33.239  1.00  0.00     0.031 C 
ATOM     23  C   UNL A   1      37.563  30.855  29.973  1.00  0.00     0.029 A 
ATOM     24  C   UNL A   1      38.009  31.467  31.218  1.00  0.00     0.049 A 
ATOM     25  H   UNL A   1      39.496  30.789  32.511  1.00  0.00     0.167 HD
ATOM     26  C   UNL A   1      42.678  29.252  35.099  1.00  0.00     0.037 A 
ATOM     27  C   UNL A   1      37.494  32.593  31.746  1.00  0.00     0.037 A 
ATOM     28  C   UNL A   1      42.186  30.440  35.749  1.00  0.00     0.049 A 
ATOM     29  C   UNL A   1      38.038  33.094  33.051  1.00  0.00     0.074 A 
ATOM     30  C   UNL A   1      42.616  31.012  36.935  1.00  0.00     0.029 A 
ATOM     31  N   UNL A   1      41.161  31.241  35.268  1.00  0.00    -0.354 N 
ATOM     32  N   UNL A   1      39.003  32.593  33.783  1.00  0.00    -0.248 NA
ATOM     33  C   UNL A   1      37.416  34.301  33.608  1.00  0.00     0.031 C 
ATOM     34  C   UNL A   1      41.825  32.139  37.187  1.00  0.00     0.029 A 
ATOM     35  C   UNL A   1      40.932  32.294  36.139  1.00  0.00     0.049 A 
ATOM     36  H   UNL A   1      40.667  31.084  34.430  1.00  0.00     0.167 HD
ATOM     37  C   UNL A   1      39.110  33.427  34.888  1.00  0.00     0.074 A 
ATOM     38  C   UNL A   1      38.124  34.476  34.717  1.00  0.00     0.031 C 
ATOM     39  C   UNL A   1      39.944  33.328  35.952  1.00  0.00     0.037 A 
BRANCH  26  40
ATOM     40  C   UNL A   1      43.767  28.464  35.778  1.00  0.00     0.058 A 
ATOM     41  C   UNL A   1      45.126  28.751  35.580  1.00  0.00     0.135 A 
ATOM     42  C   UNL A   1      43.441  27.422  36.662  1.00  0.00     0.135 A 
ATOM     43  F   UNL A   1      45.495  29.727  34.734  1.00  0.00    -0.206 F 
ATOM     44  C   UNL A   1      46.125  28.013  36.209  1.00  0.00     0.059 A 
ATOM     45  C   UNL A   1      44.423  26.687  37.321  1.00  0.00     0.059 A 
ATOM     46  F   UNL A   1      42.156  27.106  36.891  1.00  0.00    -0.206 F 
ATOM     47  C   UNL A   1      45.763  26.978  37.074  1.00  0.00     0.060 A 
BRANCH  47  48
ATOM     48  S   UNL A   1      47.069  26.019  37.872  1.00  0.00     0.124 S 
ATOM     49  O   UNL A   1      46.313  24.888  38.401  1.00  0.00    -0.237 OA
ATOM     50  O   UNL A   1      47.961  25.716  36.758  1.00  0.00    -0.237 OA
ATOM     51  O   UNL A   1      47.605  26.938  38.869  1.00  0.00    -0.744 OA
ENDBRANCH  47  48
ENDBRANCH  26  40
BRANCH  27  52
ATOM     52  C   UNL A   1      36.394  33.297  31.037  1.00  0.00     0.058 A 
ATOM     53  C   UNL A   1      35.071  33.221  31.494  1.00  0.00     0.135 A 
ATOM     54  C   UNL A   1      36.656  34.109  29.922  1.00  0.00     0.135 A 
ATOM     55  F   UNL A   1      34.770  32.453  32.553  1.00  0.00    -0.206 F 
ATOM     56  C   UNL A   1      34.046  33.927  30.873  1.00  0.00     0.059 A 
ATOM     57  C   UNL A   1      35.654  34.846  29.302  1.00  0.00     0.059 A 
ATOM     58  F   UNL A   1      37.910  34.230  29.459  1.00  0.00    -0.206 F 
ATOM     59  C   UNL A   1      34.350  34.744  29.782  1.00  0.00     0.060 A 
BRANCH  59  60
ATOM     60  S   UNL A   1      33.030  35.722  29.030  1.00  0.00     0.124 S 
ATOM     61  O   UNL A   1      32.394  34.736  28.164  1.00  0.00    -0.237 OA
ATOM     62  O   UNL A   1      32.256  36.142  30.195  1.00  0.00    -0.237 OA
ATOM     63  O   UNL A   1      33.752  36.791  28.349  1.00  0.00    -0.744 OA
ENDBRANCH  59  60
ENDBRANCH  27  52
BRANCH  39  64
ATOM     64  C   UNL A   1      39.838  34.395  37.001  1.00  0.00     0.058 A 
ATOM     65  C   UNL A   1      40.475  35.637  36.853  1.00  0.00     0.135 A 
ATOM     66  C   UNL A   1      39.058  34.187  38.149  1.00  0.00     0.135 A 
ATOM     67  F   UNL A   1      41.240  35.879  35.776  1.00  0.00    -0.206 F 
ATOM     68  C   UNL A   1      40.359  36.629  37.819  1.00  0.00     0.059 A 
ATOM     69  C   UNL A   1      38.909  35.174  39.117  1.00  0.00     0.059 A 
ATOM     70  F   UNL A   1      38.423  33.018  38.333  1.00  0.00    -0.206 F 
ATOM     71  C   UNL A   1      39.574  36.390  38.948  1.00  0.00     0.060 A 
BRANCH  71  72
ATOM     72  S   UNL A   1      39.404  37.697  40.181  1.00  0.00     0.124 S 
ATOM     73  O   UNL A   1      40.765  38.222  40.239  1.00  0.00    -0.237 OA
ATOM     74  O   UNL A   1      38.410  38.575  39.573  1.00  0.00    -0.237 OA
ATOM     75  O   UNL A   1      38.956  36.983  41.372  1.00  0.00    -0.744 OA
ENDBRANCH  71  72
ENDBRANCH  39  64
ENDBRANCH  13  14
ENDBRANCH   6   8
ENDBRANCH   3   4
ENDBRANCH   2   3
ENDBRANCH   1   2
BRANCH   1  76
ATOM     76  N   UNL A   1      35.494  23.223  23.792  1.00  0.00    -0.351 N 
ATOM     77  C   UNL A   1      34.152  23.248  23.532  1.00  0.00     0.281 C 
ATOM     78  H   UNL A   1      36.071  22.776  23.132  1.00  0.00     0.163 HD
ATOM     79  O   UNL A   1      33.867  23.409  22.333  1.00  0.00    -0.268 OA
BRANCH  77  80
ATOM     80  C   UNL A   1      33.020  22.885  24.590  1.00  0.00     0.176 C 
ATOM     81  C   UNL A   1      31.671  22.733  23.827  1.00  0.00     0.079 C 
ATOM     82  C   UNL A   1      32.737  23.783  25.834  1.00  0.00     0.093 C 
ATOM     83  C   UNL A   1      31.046  24.086  23.489  1.00  0.00     0.008 C 
ATOM     84  C   UNL A   1      31.947  25.098  25.648  1.00  0.00     0.053 C 
ATOM     85  C   UNL A   1      30.718  24.862  24.760  1.00  0.00     0.015 C 
BRANCH  80  86
ATOM     86  N   UNL A   1      33.409  21.546  25.175  1.00  0.00    -0.331 N 
ATOM     87  H   UNL A   1      32.773  21.349  25.948  1.00  0.00     0.347 HD
ATOM     88  H   UNL A   1      34.386  21.643  25.448  1.00  0.00     0.347 HD
BRANCH  86  89
ATOM     89  C   UNL A   1      33.369  20.396  24.257  1.00  0.00     0.183 C 
ATOM     90  C   UNL A   1      34.039  19.110  24.645  1.00  0.00     0.071 C 
ATOM     91  C   UNL A   1      32.543  19.202  24.656  1.00  0.00     0.071 C 
ENDBRANCH  86  89
ENDBRANCH  80  86
BRANCH  84  92
ATOM     92  S   UNL A   1      32.832  26.580  25.020  1.00  0.00    -0.156 SA
BRANCH  92  93
ATOM     93  C   UNL A   1      31.458  27.661  24.463  1.00  0.00     0.104 C 
BRANCH  93  94
ATOM     94  C   UNL A   1      31.752  29.151  24.303  1.00  0.00     0.149 C 
BRANCH  94  95
ATOM     95  C   UNL A   1      32.722  29.677  25.358  1.00  0.00     0.188 C 
BRANCH  95  96
ATOM     96  O   UNL A   1      32.016  30.453  26.324  1.00  0.00    -0.394 OA
ATOM     97  H   UNL A   1      32.625  30.723  27.030  1.00  0.00     0.210 HD
ENDBRANCH  95  96
ENDBRANCH  94  95
BRANCH  94  98
ATOM     98  O   UNL A   1      32.369  29.321  23.012  1.00  0.00    -0.390 OA
ATOM     99  H   UNL A   1      31.986  30.094  22.570  1.00  0.00     0.211 HD
ENDBRANCH  94  98
ENDBRANCH  93  94
ENDBRANCH  92  93
ENDBRANCH  84  92
ENDBRANCH  77  80
ENDBRANCH   1  76
TORSDOF 21
ENDMDL
MODEL 3
REMARK VINA RESULT:     -10.5      6.931     12.464
REMARK SMILES O=C(NCCCNC(=O)[C@]1([NH2+]C2CC2)CCC[C@H](SC[C@H](O)CO)C1)c1ccc(-c2c3nc(c(-c4c(F)cc(S(=O)(=O)[O-])cc4F)c4ccc([nH]4)c(-c4c(F)cc(S(=O)(=O)[O-])cc4F)c4nc(c(-c5c(F)cc(S(=O)(=O)[O-])cc5F)c5ccc2[nH]5)C=C4)C=C3)cc1
REMARK SMILES IDX 6 1 5 2 4 3 3 4 1 5 2 6 26 8 27 9 91 10 28 11 90 12 29 13
REMARK SMILES IDX 30 14 31 15 84 16 32 17 89 18 83 19 85 20 33 21 88 22 82 23
REMARK SMILES IDX 81 24 34 26 68 27 47 28 67 29 48 30 51 31 66 32 86 33 49 34
REMARK SMILES IDX 50 35 65 37 87 38 52 39 35 40 36 41 45 42 37 43 38 44 44 45
REMARK SMILES IDX 46 46 39 47 40 48 41 49 42 50 43 51 69 52 70 53 79 54 71 55
REMARK SMILES IDX 72 56 78 57 80 58 73 59 74 60 75 61 76 62 77 63 53 64 54 65
REMARK SMILES IDX 63 66 55 67 56 68 62 69 64 70 57 71 58 72 59 73 60 74 61 75
REMARK SMILES IDX 7 76 8 77 9 79 10 80 15 81 25 82 16 83 18 84 17 85 11 86
REMARK SMILES IDX 12 89 13 90 14 91 19 92 20 93 21 94 23 95 24 96 22 98
REMARK H PARENT 3 7 85 25 51 36 7 78 11 87 11 88 24 97 22 99
REMARK Flexibility Score: inf
ROOT
ATOM      1  C   UNL A   1      33.611  29.490  26.790  1.00  0.00     0.118 C 
ENDROOT
BRANCH   1   2
ATOM      2  C   UNL A   1      34.035  30.824  27.360  1.00  0.00     0.042 C 
BRANCH   2   3
ATOM      3  C   UNL A   1      35.432  30.822  27.952  1.00  0.00     0.118 C 
BRANCH   3   4
ATOM      4  N   UNL A   1      35.462  30.611  29.399  1.00  0.00    -0.352 N 
ATOM      5  O   UNL A   1      36.092  29.910  31.431  1.00  0.00    -0.269 OA
ATOM      6  C   UNL A   1      36.398  30.070  30.255  1.00  0.00     0.251 C 
ATOM      7  H   UNL A   1      34.646  30.920  29.856  1.00  0.00     0.163 HD
BRANCH   6   8
ATOM      8  C   UNL A   1      37.740  29.648  29.785  1.00  0.00     0.039 A 
ATOM      9  C   UNL A   1      38.705  29.173  30.664  1.00  0.00     0.014 A 
ATOM     10  C   UNL A   1      38.036  29.694  28.415  1.00  0.00     0.014 A 
ATOM     11  C   UNL A   1      40.011  28.986  30.233  1.00  0.00     0.010 A 
ATOM     12  C   UNL A   1      39.315  29.350  27.956  1.00  0.00     0.010 A 
ATOM     13  C   UNL A   1      40.333  29.043  28.870  1.00  0.00    -0.014 A 
BRANCH  13  14
ATOM     14  C   UNL A   1      41.725  28.728  28.450  1.00  0.00     0.031 A 
ATOM     15  C   UNL A   1      42.810  29.770  28.500  1.00  0.00     0.074 A 
ATOM     16  C   UNL A   1      42.020  27.464  28.082  1.00  0.00     0.049 A 
ATOM     17  N   UNL A   1      44.078  29.652  28.192  1.00  0.00    -0.248 NA
ATOM     18  C   UNL A   1      42.429  31.122  28.940  1.00  0.00     0.031 C 
ATOM     19  C   UNL A   1      41.050  26.368  27.984  1.00  0.00     0.029 A 
ATOM     20  N   UNL A   1      43.214  26.871  27.760  1.00  0.00    -0.354 N 
ATOM     21  C   UNL A   1      44.635  30.914  28.364  1.00  0.00     0.074 A 
ATOM     22  C   UNL A   1      43.564  31.790  28.790  1.00  0.00     0.031 C 
ATOM     23  C   UNL A   1      41.695  25.227  27.707  1.00  0.00     0.029 A 
ATOM     24  C   UNL A   1      43.109  25.522  27.518  1.00  0.00     0.049 A 
ATOM     25  H   UNL A   1      44.064  27.365  27.707  1.00  0.00     0.167 HD
ATOM     26  C   UNL A   1      45.922  31.302  28.190  1.00  0.00     0.037 A 
ATOM     27  C   UNL A   1      44.041  24.618  27.161  1.00  0.00     0.037 A 
ATOM     28  C   UNL A   1      46.987  30.414  27.799  1.00  0.00     0.049 A 
ATOM     29  C   UNL A   1      45.458  25.072  26.979  1.00  0.00     0.074 A 
ATOM     30  C   UNL A   1      48.329  30.705  27.620  1.00  0.00     0.029 A 
ATOM     31  N   UNL A   1      46.834  29.060  27.534  1.00  0.00    -0.354 N 
ATOM     32  N   UNL A   1      45.962  26.271  27.145  1.00  0.00    -0.248 NA
ATOM     33  C   UNL A   1      46.429  24.059  26.548  1.00  0.00     0.031 C 
ATOM     34  C   UNL A   1      48.979  29.535  27.211  1.00  0.00     0.029 A 
ATOM     35  C   UNL A   1      48.052  28.505  27.177  1.00  0.00     0.049 A 
ATOM     36  H   UNL A   1      45.984  28.566  27.590  1.00  0.00     0.167 HD
ATOM     37  C   UNL A   1      47.313  26.158  26.844  1.00  0.00     0.074 A 
ATOM     38  C   UNL A   1      47.550  24.768  26.506  1.00  0.00     0.031 C 
ATOM     39  C   UNL A   1      48.268  27.120  26.842  1.00  0.00     0.037 A 
BRANCH  26  40
ATOM     40  C   UNL A   1      46.245  32.758  28.394  1.00  0.00     0.058 A 
ATOM     41  C   UNL A   1      46.653  33.262  29.639  1.00  0.00     0.135 A 
ATOM     42  C   UNL A   1      46.171  33.658  27.318  1.00  0.00     0.135 A 
ATOM     43  F   UNL A   1      46.728  32.449  30.706  1.00  0.00    -0.206 F 
ATOM     44  C   UNL A   1      46.945  34.611  29.818  1.00  0.00     0.059 A 
ATOM     45  C   UNL A   1      46.481  35.007  27.469  1.00  0.00     0.059 A 
ATOM     46  F   UNL A   1      45.788  33.231  26.104  1.00  0.00    -0.206 F 
ATOM     47  C   UNL A   1      46.850  35.477  28.728  1.00  0.00     0.060 A 
BRANCH  47  48
ATOM     48  S   UNL A   1      47.217  37.228  28.978  1.00  0.00     0.124 S 
ATOM     49  O   UNL A   1      48.213  37.165  30.044  1.00  0.00    -0.237 OA
ATOM     50  O   UNL A   1      47.719  37.634  27.669  1.00  0.00    -0.237 OA
ATOM     51  O   UNL A   1      45.928  37.795  29.356  1.00  0.00    -0.744 OA
ENDBRANCH  47  48
ENDBRANCH  26  40
BRANCH  27  52
ATOM     52  C   UNL A   1      43.640  23.203  26.940  1.00  0.00     0.058 A 
ATOM     53  C   UNL A   1      43.359  22.353  28.017  1.00  0.00     0.135 A 
ATOM     54  C   UNL A   1      43.474  22.695  25.642  1.00  0.00     0.135 A 
ATOM     55  F   UNL A   1      43.508  22.792  29.277  1.00  0.00    -0.206 F 
ATOM     56  C   UNL A   1      42.923  21.046  27.817  1.00  0.00     0.059 A 
ATOM     57  C   UNL A   1      43.013  21.402  25.417  1.00  0.00     0.059 A 
ATOM     58  F   UNL A   1      43.712  23.476  24.578  1.00  0.00    -0.206 F 
ATOM     59  C   UNL A   1      42.746  20.583  26.512  1.00  0.00     0.060 A 
BRANCH  59  60
ATOM     60  S   UNL A   1      42.103  18.915  26.258  1.00  0.00     0.124 S 
ATOM     61  O   UNL A   1      42.207  18.355  27.601  1.00  0.00    -0.237 OA
ATOM     62  O   UNL A   1      40.748  19.176  25.779  1.00  0.00    -0.237 OA
ATOM     63  O   UNL A   1      43.012  18.353  25.265  1.00  0.00    -0.744 OA
ENDBRANCH  59  60
ENDBRANCH  27  52
BRANCH  39  64
ATOM     64  C   UNL A   1      49.661  26.693  26.480  1.00  0.00     0.058 A 
ATOM     65  C   UNL A   1      50.135  26.774  25.162  1.00  0.00     0.135 A 
ATOM     66  C   UNL A   1      50.543  26.237  27.472  1.00  0.00     0.135 A 
ATOM     67  F   UNL A   1      49.324  27.195  24.178  1.00  0.00    -0.206 F 
ATOM     68  C   UNL A   1      51.431  26.395  24.835  1.00  0.00     0.059 A 
ATOM     69  C   UNL A   1      51.851  25.875  27.171  1.00  0.00     0.059 A 
ATOM     70  F   UNL A   1      50.139  26.150  28.749  1.00  0.00    -0.206 F 
ATOM     71  C   UNL A   1      52.283  25.946  25.846  1.00  0.00     0.060 A 
BRANCH  71  72
ATOM     72  S   UNL A   1      53.975  25.487  25.416  1.00  0.00     0.124 S 
ATOM     73  O   UNL A   1      53.753  24.334  24.549  1.00  0.00    -0.237 OA
ATOM     74  O   UNL A   1      54.469  26.691  24.755  1.00  0.00    -0.237 OA
ATOM     75  O   UNL A   1      54.585  25.194  26.708  1.00  0.00    -0.744 OA
ENDBRANCH  71  72
ENDBRANCH  39  64
ENDBRANCH  13  14
ENDBRANCH   6   8
ENDBRANCH   3   4
ENDBRANCH   2   3
ENDBRANCH   1   2
BRANCH   1  76
ATOM     76  N   UNL A   1      34.379  28.969  25.698  1.00  0.00    -0.351 N 
ATOM     77  C   UNL A   1      33.885  28.257  24.640  1.00  0.00     0.281 C 
ATOM     78  H   UNL A   1      35.349  29.139  25.711  1.00  0.00     0.163 HD
ATOM     79  O   UNL A   1      34.427  28.515  23.553  1.00  0.00    -0.268 OA
BRANCH  77  80
ATOM     80  C   UNL A   1      32.870  27.038  24.769  1.00  0.00     0.176 C 
ATOM     81  C   UNL A   1      32.852  26.275  23.411  1.00  0.00     0.079 C 
ATOM     82  C   UNL A   1      31.382  27.246  25.190  1.00  0.00     0.093 C 
ATOM     83  C   UNL A   1      32.001  26.989  22.362  1.00  0.00     0.008 C 
ATOM     84  C   UNL A   1      30.376  27.794  24.153  1.00  0.00     0.053 C 
ATOM     85  C   UNL A   1      30.546  27.071  22.810  1.00  0.00     0.015 C 
BRANCH  80  86
ATOM     86  N   UNL A   1      33.438  26.131  25.837  1.00  0.00    -0.331 N 
ATOM     87  H   UNL A   1      32.820  26.180  26.647  1.00  0.00     0.347 HD
ATOM     88  H   UNL A   1      34.384  26.471  26.006  1.00  0.00     0.347 HD
BRANCH  86  89
ATOM     89  C   UNL A   1      33.590  24.712  25.474  1.00  0.00     0.183 C 
ATOM     90  C   UNL A   1      34.962  24.136  25.279  1.00  0.00     0.071 C 
ATOM     91  C   UNL A   1      34.173  23.779  26.504  1.00  0.00     0.071 C 
ENDBRANCH  86  89
ENDBRANCH  80  86
BRANCH  84  92
ATOM     92  S   UNL A   1      30.336  29.602  23.830  1.00  0.00    -0.156 SA
BRANCH  92  93
ATOM     93  C   UNL A   1      29.544  29.696  22.177  1.00  0.00     0.104 C 
BRANCH  93  94
ATOM     94  C   UNL A   1      28.111  30.221  22.110  1.00  0.00     0.149 C 
BRANCH  94  95
ATOM     95  C   UNL A   1      27.957  31.598  22.750  1.00  0.00     0.188 C 
BRANCH  95  96
ATOM     96  O   UNL A   1      27.776  32.587  21.739  1.00  0.00    -0.394 OA
ATOM     97  H   UNL A   1      27.398  33.388  22.133  1.00  0.00     0.210 HD
ENDBRANCH  95  96
ENDBRANCH  94  95
BRANCH  94  98
ATOM     98  O   UNL A   1      27.773  30.343  20.715  1.00  0.00    -0.390 OA
ATOM     99  H   UNL A   1      27.097  29.686  20.487  1.00  0.00     0.211 HD
ENDBRANCH  94  98
ENDBRANCH  93  94
ENDBRANCH  92  93
ENDBRANCH  84  92
ENDBRANCH  77  80
ENDBRANCH   1  76
TORSDOF 21
ENDMDL
