MODEL 1
REMARK VINA RESULT:     -13.7      0.000      0.000
REMARK SMILES C[N@@H+]1CCN(C(=O)c2cc(-n3cccn3)ccc2Cl)C[C@H]1C(=O)NCCCNC(=O)c1ccc(-c2c3nc(c(-c4c(F)cc(S(=O)(=O)[O-])cc4F)c4ccc([nH]4)c(-c4c(F)cc(S(=O)(=O)[O-])cc4F)c4nc(c(-c5c(F)cc(S(=O)(=O)[O-])cc5F)c5ccc2[nH]5)C=C4)C=C3)cc1
REMARK SMILES IDX 26 1 25 2 24 3 22 4 23 5 21 7 1 8 2 9 3 10 4 12 20 13 5 14
REMARK SMILES IDX 6 15 7 16 8 17 9 18 18 19 10 20 17 21 19 22 16 23 11 24
REMARK SMILES IDX 12 25 15 26 13 27 14 28 27 29 28 30 29 31 30 33 31 34 32 35
REMARK SMILES IDX 96 36 33 37 95 38 34 39 35 40 36 41 89 42 37 43 94 44 88 45
REMARK SMILES IDX 90 46 38 47 93 48 87 49 86 50 39 52 73 53 52 54 72 55 53 56
REMARK SMILES IDX 56 57 71 58 91 59 54 60 55 61 70 63 92 64 57 65 40 66 41 67
REMARK SMILES IDX 50 68 42 69 43 70 49 71 51 72 44 73 45 74 46 75 47 76 48 77
REMARK SMILES IDX 74 78 75 79 84 80 76 81 77 82 83 83 85 84 78 85 79 86 80 87
REMARK SMILES IDX 81 88 82 89 58 90 59 91 68 92 60 93 61 94 67 95 69 96 62 97
REMARK SMILES IDX 63 98 64 99 65 100 66 101
REMARK H PARENT 24 6 2 11 28 32 90 51 56 62
REMARK Flexibility Score: inf
ROOT
ATOM      1  C   UNL A   1      36.860  22.624  24.281  1.00  0.00     0.042 C 
ENDROOT
BRANCH   1   2
ATOM      2  C   UNL A   1      35.393  23.034  24.249  1.00  0.00     0.118 C 
BRANCH   2   3
ATOM      3  N   UNL A   1      34.844  23.166  22.908  1.00  0.00    -0.351 N 
ATOM      4  C   UNL A   1      33.537  23.237  22.510  1.00  0.00     0.280 C 
ATOM      5  O   UNL A   1      33.298  23.424  21.315  1.00  0.00    -0.268 OA
ATOM      6  H   UNL A   1      35.509  23.211  22.182  1.00  0.00     0.163 HD
BRANCH   4   7
ATOM      7  C   UNL A   1      32.397  23.148  23.533  1.00  0.00     0.293 C 
ATOM      8  C   UNL A   1      32.483  20.720  23.732  1.00  0.00     0.333 C 
ATOM      9  N   UNL A   1      32.588  21.992  24.462  1.00  0.00    -0.324 N 
ATOM     10  C   UNL A   1      31.566  22.045  25.527  1.00  0.00     0.284 C 
ATOM     11  H   UNL A   1      33.518  22.051  24.876  1.00  0.00     0.348 HD
ATOM     12  C   UNL A   1      31.585  23.380  26.290  1.00  0.00     0.181 C 
ATOM     13  C   UNL A   1      32.290  24.529  24.218  1.00  0.00     0.195 C 
ATOM     14  N   UNL A   1      31.423  24.531  25.400  1.00  0.00    -0.326 N 
BRANCH  14  15
ATOM     15  C   UNL A   1      30.719  25.639  25.854  1.00  0.00     0.255 C 
ATOM     16  O   UNL A   1      29.743  25.573  26.597  1.00  0.00    -0.269 OA
BRANCH  15  17
ATOM     17  C   UNL A   1      31.183  26.986  25.462  1.00  0.00     0.060 A 
ATOM     18  C   UNL A   1      32.238  27.550  26.198  1.00  0.00     0.043 A 
ATOM     19  C   UNL A   1      30.555  27.719  24.447  1.00  0.00     0.053 A 
ATOM     20  C   UNL A   1      32.646  28.860  25.920  1.00  0.00     0.065 A 
ATOM     21  C   UNL A   1      31.035  28.986  24.113  1.00  0.00     0.023 A 
ATOM     22  Cl  UNL A   1      29.174  27.139  23.584  1.00  0.00    -0.083 Cl
ATOM     23  C   UNL A   1      32.067  29.564  24.856  1.00  0.00     0.030 A 
BRANCH  20  24
ATOM     24  N   UNL A   1      33.612  29.492  26.745  1.00  0.00    -0.241 N 
ATOM     25  C   UNL A   1      34.775  28.931  27.230  1.00  0.00     0.115 A 
ATOM     26  N   UNL A   1      33.500  30.792  27.112  1.00  0.00    -0.177 NA
ATOM     27  C   UNL A   1      35.402  29.891  27.984  1.00  0.00     0.042 A 
ATOM     28  C   UNL A   1      34.550  31.003  27.908  1.00  0.00     0.135 A 
ENDBRANCH  20  24
ENDBRANCH  15  17
ENDBRANCH  14  15
ENDBRANCH   4   7
ENDBRANCH   2   3
ENDBRANCH   1   2
BRANCH   1  29
ATOM     29  C   UNL A   1      37.592  23.182  25.485  1.00  0.00     0.118 C 
BRANCH  29  30
ATOM     30  N   UNL A   1      38.396  22.174  26.183  1.00  0.00    -0.352 N 
ATOM     31  C   UNL A   1      39.601  22.357  26.845  1.00  0.00     0.251 C 
ATOM     32  H   UNL A   1      38.037  21.258  26.181  1.00  0.00     0.163 HD
ATOM     33  O   UNL A   1      40.312  21.421  27.136  1.00  0.00    -0.269 OA
BRANCH  31  34
ATOM     34  C   UNL A   1      39.988  23.745  27.163  1.00  0.00     0.039 A 
ATOM     35  C   UNL A   1      39.067  24.790  27.067  1.00  0.00     0.014 A 
ATOM     36  C   UNL A   1      41.259  23.946  27.687  1.00  0.00     0.014 A 
ATOM     37  C   UNL A   1      39.408  26.029  27.607  1.00  0.00     0.010 A 
ATOM     38  C   UNL A   1      41.517  25.107  28.371  1.00  0.00     0.010 A 
ATOM     39  C   UNL A   1      40.625  26.175  28.288  1.00  0.00    -0.014 A 
BRANCH  39  40
ATOM     40  C   UNL A   1      40.951  27.414  28.993  1.00  0.00     0.031 A 
ATOM     41  C   UNL A   1      42.061  28.231  28.411  1.00  0.00     0.074 A 
ATOM     42  C   UNL A   1      40.142  27.926  29.946  1.00  0.00     0.049 A 
ATOM     43  N   UNL A   1      43.191  28.557  28.951  1.00  0.00    -0.248 NA
ATOM     44  C   UNL A   1      41.936  28.663  27.008  1.00  0.00     0.031 C 
ATOM     45  C   UNL A   1      38.830  27.432  30.389  1.00  0.00     0.029 A 
ATOM     46  N   UNL A   1      40.262  29.093  30.632  1.00  0.00    -0.354 N 
ATOM     47  C   UNL A   1      43.834  29.402  28.042  1.00  0.00     0.074 A 
ATOM     48  C   UNL A   1      43.097  29.290  26.811  1.00  0.00     0.031 C 
ATOM     49  C   UNL A   1      38.176  28.411  31.048  1.00  0.00     0.029 A 
ATOM     50  C   UNL A   1      39.093  29.515  31.251  1.00  0.00     0.049 A 
ATOM     51  H   UNL A   1      41.106  29.596  30.687  1.00  0.00     0.167 HD
ATOM     52  C   UNL A   1      44.798  30.285  28.434  1.00  0.00     0.037 A 
ATOM     53  C   UNL A   1      38.876  30.701  31.865  1.00  0.00     0.037 A 
ATOM     54  C   UNL A   1      45.278  29.974  29.757  1.00  0.00     0.049 A 
ATOM     55  C   UNL A   1      40.208  31.274  32.183  1.00  0.00     0.074 A 
ATOM     56  C   UNL A   1      45.897  28.885  30.336  1.00  0.00     0.029 A 
ATOM     57  N   UNL A   1      44.807  30.735  30.799  1.00  0.00    -0.354 N 
ATOM     58  N   UNL A   1      41.051  30.739  33.026  1.00  0.00    -0.248 NA
ATOM     59  C   UNL A   1      40.792  32.202  31.228  1.00  0.00     0.031 C 
ATOM     60  C   UNL A   1      45.336  28.798  31.643  1.00  0.00     0.029 A 
ATOM     61  C   UNL A   1      44.458  29.872  31.805  1.00  0.00     0.049 A 
ATOM     62  H   UNL A   1      44.734  31.716  30.820  1.00  0.00     0.167 HD
ATOM     63  C   UNL A   1      42.302  30.931  32.455  1.00  0.00     0.074 A 
ATOM     64  C   UNL A   1      42.086  31.924  31.405  1.00  0.00     0.031 C 
ATOM     65  C   UNL A   1      43.335  30.073  32.698  1.00  0.00     0.037 A 
BRANCH  52  66
ATOM     66  C   UNL A   1      45.082  31.626  27.787  1.00  0.00     0.058 A 
ATOM     67  C   UNL A   1      46.359  31.873  27.232  1.00  0.00     0.135 A 
ATOM     68  C   UNL A   1      44.263  32.766  27.942  1.00  0.00     0.135 A 
ATOM     69  F   UNL A   1      47.225  30.867  27.030  1.00  0.00    -0.206 F 
ATOM     70  C   UNL A   1      46.818  33.161  26.945  1.00  0.00     0.059 A 
ATOM     71  C   UNL A   1      44.682  34.051  27.610  1.00  0.00     0.059 A 
ATOM     72  F   UNL A   1      43.056  32.707  28.515  1.00  0.00    -0.206 F 
ATOM     73  C   UNL A   1      45.977  34.247  27.161  1.00  0.00     0.060 A 
BRANCH  73  74
ATOM     74  S   UNL A   1      46.606  35.919  26.924  1.00  0.00     0.124 S 
ATOM     75  O   UNL A   1      47.095  35.851  25.552  1.00  0.00    -0.237 OA
ATOM     76  O   UNL A   1      45.411  36.728  27.140  1.00  0.00    -0.237 OA
ATOM     77  O   UNL A   1      47.632  36.038  27.956  1.00  0.00    -0.744 OA
ENDBRANCH  73  74
ENDBRANCH  52  66
BRANCH  53  78
ATOM     78  C   UNL A   1      37.614  31.482  31.903  1.00  0.00     0.058 A 
ATOM     79  C   UNL A   1      36.988  31.805  33.116  1.00  0.00     0.135 A 
ATOM     80  C   UNL A   1      37.131  32.143  30.753  1.00  0.00     0.135 A 
ATOM     81  F   UNL A   1      37.404  31.240  34.259  1.00  0.00    -0.206 F 
ATOM     82  C   UNL A   1      35.964  32.755  33.193  1.00  0.00     0.059 A 
ATOM     83  C   UNL A   1      36.106  33.087  30.804  1.00  0.00     0.059 A 
ATOM     84  F   UNL A   1      37.704  31.952  29.555  1.00  0.00    -0.206 F 
ATOM     85  C   UNL A   1      35.541  33.405  32.032  1.00  0.00     0.060 A 
BRANCH  85  86
ATOM     86  S   UNL A   1      34.331  34.743  32.156  1.00  0.00     0.124 S 
ATOM     87  O   UNL A   1      35.073  35.753  32.903  1.00  0.00    -0.237 OA
ATOM     88  O   UNL A   1      34.070  35.052  30.753  1.00  0.00    -0.237 OA
ATOM     89  O   UNL A   1      33.216  34.130  32.872  1.00  0.00    -0.744 OA
ENDBRANCH  85  86
ENDBRANCH  53  78
BRANCH  65  90
ATOM     90  C   UNL A   1      43.210  29.083  33.829  1.00  0.00     0.058 A 
ATOM     91  C   UNL A   1      43.445  29.389  35.181  1.00  0.00     0.135 A 
ATOM     92  C   UNL A   1      42.626  27.839  33.547  1.00  0.00     0.135 A 
ATOM     93  F   UNL A   1      43.912  30.590  35.545  1.00  0.00    -0.206 F 
ATOM     94  C   UNL A   1      43.127  28.493  36.204  1.00  0.00     0.059 A 
ATOM     95  C   UNL A   1      42.272  26.943  34.552  1.00  0.00     0.059 A 
ATOM     96  F   UNL A   1      42.320  27.512  32.280  1.00  0.00    -0.206 F 
ATOM     97  C   UNL A   1      42.530  27.275  35.879  1.00  0.00     0.060 A 
BRANCH  97  98
ATOM     98  S   UNL A   1      42.002  26.172  37.209  1.00  0.00     0.124 S 
ATOM     99  O   UNL A   1      40.681  26.697  37.538  1.00  0.00    -0.237 OA
ATOM    100  O   UNL A   1      42.022  24.862  36.565  1.00  0.00    -0.237 OA
ATOM    101  O   UNL A   1      43.023  26.364  38.238  1.00  0.00    -0.744 OA
ENDBRANCH  97  98
ENDBRANCH  65  90
ENDBRANCH  39  40
ENDBRANCH  31  34
ENDBRANCH  29  30
ENDBRANCH   1  29
TORSDOF 16
ENDMDL
MODEL 2
REMARK VINA RESULT:     -11.9      1.959      2.842
REMARK SMILES C[N@@H+]1CCN(C(=O)c2cc(-n3cccn3)ccc2Cl)C[C@H]1C(=O)NCCCNC(=O)c1ccc(-c2c3nc(c(-c4c(F)cc(S(=O)(=O)[O-])cc4F)c4ccc([nH]4)c(-c4c(F)cc(S(=O)(=O)[O-])cc4F)c4nc(c(-c5c(F)cc(S(=O)(=O)[O-])cc5F)c5ccc2[nH]5)C=C4)C=C3)cc1
REMARK SMILES IDX 26 1 25 2 24 3 22 4 23 5 21 7 1 8 2 9 3 10 4 12 20 13 5 14
REMARK SMILES IDX 6 15 7 16 8 17 9 18 18 19 10 20 17 21 19 22 16 23 11 24
REMARK SMILES IDX 12 25 15 26 13 27 14 28 27 29 28 30 29 31 30 33 31 34 32 35
REMARK SMILES IDX 96 36 33 37 95 38 34 39 35 40 36 41 89 42 37 43 94 44 88 45
REMARK SMILES IDX 90 46 38 47 93 48 87 49 86 50 39 52 73 53 52 54 72 55 53 56
REMARK SMILES IDX 56 57 71 58 91 59 54 60 55 61 70 63 92 64 57 65 40 66 41 67
REMARK SMILES IDX 50 68 42 69 43 70 49 71 51 72 44 73 45 74 46 75 47 76 48 77
REMARK SMILES IDX 74 78 75 79 84 80 76 81 77 82 83 83 85 84 78 85 79 86 80 87
REMARK SMILES IDX 81 88 82 89 58 90 59 91 68 92 60 93 61 94 67 95 69 96 62 97
REMARK SMILES IDX 63 98 64 99 65 100 66 101
REMARK H PARENT 24 6 2 11 28 32 90 51 56 62
REMARK Flexibility Score: inf
ROOT
ATOM      1  C   UNL A   1      37.224  22.812  26.046  1.00  0.00     0.042 C 
ENDROOT
BRANCH   1   2
ATOM      2  C   UNL A   1      36.523  22.902  24.697  1.00  0.00     0.118 C 
BRANCH   2   3
ATOM      3  N   UNL A   1      35.615  21.797  24.426  1.00  0.00    -0.351 N 
ATOM      4  C   UNL A   1      34.247  21.785  24.407  1.00  0.00     0.280 C 
ATOM      5  O   UNL A   1      33.675  20.744  24.078  1.00  0.00    -0.268 OA
ATOM      6  H   UNL A   1      36.047  20.934  24.229  1.00  0.00     0.163 HD
BRANCH   4   7
ATOM      7  C   UNL A   1      33.445  23.054  24.726  1.00  0.00     0.293 C 
ATOM      8  C   UNL A   1      33.750  22.893  27.139  1.00  0.00     0.333 C 
ATOM      9  N   UNL A   1      33.965  23.733  25.952  1.00  0.00    -0.324 N 
ATOM     10  C   UNL A   1      33.277  25.029  26.124  1.00  0.00     0.284 C 
ATOM     11  H   UNL A   1      34.967  23.889  25.844  1.00  0.00     0.348 HD
ATOM     12  C   UNL A   1      33.416  25.932  24.887  1.00  0.00     0.181 C 
ATOM     13  C   UNL A   1      33.437  23.923  23.449  1.00  0.00     0.195 C 
ATOM     14  N   UNL A   1      32.934  25.282  23.668  1.00  0.00    -0.326 N 
BRANCH  14  15
ATOM     15  C   UNL A   1      32.309  26.052  22.695  1.00  0.00     0.255 C 
ATOM     16  O   UNL A   1      32.806  26.309  21.602  1.00  0.00    -0.269 OA
BRANCH  15  17
ATOM     17  C   UNL A   1      30.951  26.570  22.960  1.00  0.00     0.060 A 
ATOM     18  C   UNL A   1      30.658  27.876  22.535  1.00  0.00     0.043 A 
ATOM     19  C   UNL A   1      30.001  25.827  23.674  1.00  0.00     0.053 A 
ATOM     20  C   UNL A   1      29.415  28.438  22.848  1.00  0.00     0.065 A 
ATOM     21  C   UNL A   1      28.731  26.361  23.893  1.00  0.00     0.023 A 
ATOM     22  Cl  UNL A   1      30.332  24.264  24.333  1.00  0.00    -0.083 Cl
ATOM     23  C   UNL A   1      28.440  27.668  23.496  1.00  0.00     0.030 A 
BRANCH  20  24
ATOM     24  N   UNL A   1      29.158  29.801  22.550  1.00  0.00    -0.241 N 
ATOM     25  C   UNL A   1      29.006  30.829  23.458  1.00  0.00     0.115 A 
ATOM     26  N   UNL A   1      29.083  30.254  21.275  1.00  0.00    -0.177 NA
ATOM     27  C   UNL A   1      28.767  31.972  22.738  1.00  0.00     0.042 A 
ATOM     28  C   UNL A   1      28.786  31.550  21.400  1.00  0.00     0.135 A 
ENDBRANCH  20  24
ENDBRANCH  15  17
ENDBRANCH  14  15
ENDBRANCH   4   7
ENDBRANCH   2   3
ENDBRANCH   1   2
BRANCH   1  29
ATOM     29  C   UNL A   1      38.529  23.582  26.074  1.00  0.00     0.118 C 
BRANCH  29  30
ATOM     30  N   UNL A   1      39.707  22.718  25.955  1.00  0.00    -0.352 N 
ATOM     31  C   UNL A   1      41.042  23.087  26.013  1.00  0.00     0.251 C 
ATOM     32  H   UNL A   1      39.527  21.760  25.816  1.00  0.00     0.163 HD
ATOM     33  O   UNL A   1      41.921  22.350  25.621  1.00  0.00    -0.269 OA
BRANCH  31  34
ATOM     34  C   UNL A   1      41.345  24.425  26.554  1.00  0.00     0.039 A 
ATOM     35  C   UNL A   1      40.812  25.577  25.971  1.00  0.00     0.014 A 
ATOM     36  C   UNL A   1      42.068  24.483  27.740  1.00  0.00     0.014 A 
ATOM     37  C   UNL A   1      40.926  26.784  26.658  1.00  0.00     0.010 A 
ATOM     38  C   UNL A   1      42.021  25.631  28.488  1.00  0.00     0.010 A 
ATOM     39  C   UNL A   1      41.506  26.801  27.934  1.00  0.00    -0.014 A 
BRANCH  39  40
ATOM     40  C   UNL A   1      41.511  28.019  28.745  1.00  0.00     0.031 A 
ATOM     41  C   UNL A   1      42.668  28.944  28.538  1.00  0.00     0.074 A 
ATOM     42  C   UNL A   1      40.422  28.418  29.437  1.00  0.00     0.049 A 
ATOM     43  N   UNL A   1      43.564  29.319  29.393  1.00  0.00    -0.248 NA
ATOM     44  C   UNL A   1      42.915  29.444  27.174  1.00  0.00     0.031 C 
ATOM     45  C   UNL A   1      39.084  27.808  29.464  1.00  0.00     0.029 A 
ATOM     46  N   UNL A   1      40.241  29.550  30.167  1.00  0.00    -0.354 N 
ATOM     47  C   UNL A   1      44.367  30.256  28.738  1.00  0.00     0.074 A 
ATOM     48  C   UNL A   1      44.027  30.162  27.343  1.00  0.00     0.031 C 
ATOM     49  C   UNL A   1      38.189  28.700  29.936  1.00  0.00     0.029 A 
ATOM     50  C   UNL A   1      38.913  29.853  30.433  1.00  0.00     0.049 A 
ATOM     51  H   UNL A   1      40.989  30.108  30.482  1.00  0.00     0.167 HD
ATOM     52  C   UNL A   1      45.101  31.182  29.422  1.00  0.00     0.037 A 
ATOM     53  C   UNL A   1      38.430  30.985  30.997  1.00  0.00     0.037 A 
ATOM     54  C   UNL A   1      45.205  30.833  30.816  1.00  0.00     0.049 A 
ATOM     55  C   UNL A   1      39.562  31.631  31.707  1.00  0.00     0.074 A 
ATOM     56  C   UNL A   1      45.722  29.759  31.514  1.00  0.00     0.029 A 
ATOM     57  N   UNL A   1      44.393  31.499  31.701  1.00  0.00    -0.354 N 
ATOM     58  N   UNL A   1      40.169  31.111  32.740  1.00  0.00    -0.248 NA
ATOM     59  C   UNL A   1      40.315  32.651  30.994  1.00  0.00     0.031 C 
ATOM     60  C   UNL A   1      44.818  29.559  32.598  1.00  0.00     0.029 A 
ATOM     61  C   UNL A   1      43.844  30.558  32.534  1.00  0.00     0.049 A 
ATOM     62  H   UNL A   1      44.234  32.470  31.733  1.00  0.00     0.167 HD
ATOM     63  C   UNL A   1      41.510  31.424  32.564  1.00  0.00     0.074 A 
ATOM     64  C   UNL A   1      41.522  32.456  31.530  1.00  0.00     0.031 C 
ATOM     65  C   UNL A   1      42.499  30.629  33.068  1.00  0.00     0.037 A 
BRANCH  52  66
ATOM     66  C   UNL A   1      45.445  32.574  28.930  1.00  0.00     0.058 A 
ATOM     67  C   UNL A   1      46.790  33.008  28.957  1.00  0.00     0.135 A 
ATOM     68  C   UNL A   1      44.490  33.591  28.709  1.00  0.00     0.135 A 
ATOM     69  F   UNL A   1      47.789  32.132  29.153  1.00  0.00    -0.206 F 
ATOM     70  C   UNL A   1      47.149  34.355  28.866  1.00  0.00     0.059 A 
ATOM     71  C   UNL A   1      44.831  34.932  28.560  1.00  0.00     0.059 A 
ATOM     72  F   UNL A   1      43.174  33.352  28.726  1.00  0.00    -0.206 F 
ATOM     73  C   UNL A   1      46.156  35.312  28.691  1.00  0.00     0.060 A 
BRANCH  73  74
ATOM     74  S   UNL A   1      46.595  37.060  28.710  1.00  0.00     0.124 S 
ATOM     75  O   UNL A   1      47.571  37.100  29.792  1.00  0.00    -0.237 OA
ATOM     76  O   UNL A   1      47.121  37.258  27.364  1.00  0.00    -0.237 OA
ATOM     77  O   UNL A   1      45.321  37.721  28.982  1.00  0.00    -0.744 OA
ENDBRANCH  73  74
ENDBRANCH  52  66
BRANCH  53  78
ATOM     78  C   UNL A   1      37.150  31.670  30.693  1.00  0.00     0.058 A 
ATOM     79  C   UNL A   1      36.123  31.764  31.644  1.00  0.00     0.135 A 
ATOM     80  C   UNL A   1      37.007  32.469  29.538  1.00  0.00     0.135 A 
ATOM     81  F   UNL A   1      36.194  31.056  32.782  1.00  0.00    -0.206 F 
ATOM     82  C   UNL A   1      35.033  32.626  31.480  1.00  0.00     0.059 A 
ATOM     83  C   UNL A   1      35.925  33.329  29.347  1.00  0.00     0.059 A 
ATOM     84  F   UNL A   1      37.964  32.501  28.598  1.00  0.00    -0.206 F 
ATOM     85  C   UNL A   1      34.952  33.418  30.334  1.00  0.00     0.060 A 
BRANCH  85  86
ATOM     86  S   UNL A   1      33.630  34.644  30.196  1.00  0.00     0.124 S 
ATOM     87  O   UNL A   1      34.363  35.833  29.773  1.00  0.00    -0.237 OA
ATOM     88  O   UNL A   1      32.756  34.044  29.193  1.00  0.00    -0.237 OA
ATOM     89  O   UNL A   1      33.075  34.701  31.546  1.00  0.00    -0.744 OA
ENDBRANCH  85  86
ENDBRANCH  53  78
BRANCH  65  90
ATOM     90  C   UNL A   1      42.138  29.571  34.080  1.00  0.00     0.058 A 
ATOM     91  C   UNL A   1      41.591  28.317  33.756  1.00  0.00     0.135 A 
ATOM     92  C   UNL A   1      42.562  29.760  35.404  1.00  0.00     0.135 A 
ATOM     93  F   UNL A   1      41.247  28.019  32.497  1.00  0.00    -0.206 F 
ATOM     94  C   UNL A   1      41.458  27.303  34.708  1.00  0.00     0.059 A 
ATOM     95  C   UNL A   1      42.468  28.754  36.362  1.00  0.00     0.059 A 
ATOM     96  F   UNL A   1      43.149  30.914  35.763  1.00  0.00    -0.206 F 
ATOM     97  C   UNL A   1      41.910  27.529  36.008  1.00  0.00     0.060 A 
BRANCH  97  98
ATOM     98  S   UNL A   1      41.856  26.177  37.205  1.00  0.00     0.124 S 
ATOM     99  O   UNL A   1      42.214  25.025  36.384  1.00  0.00    -0.237 OA
ATOM    100  O   UNL A   1      42.849  26.585  38.194  1.00  0.00    -0.237 OA
ATOM    101  O   UNL A   1      40.473  26.198  37.681  1.00  0.00    -0.744 OA
ENDBRANCH  97  98
ENDBRANCH  65  90
ENDBRANCH  39  40
ENDBRANCH  31  34
ENDBRANCH  29  30
ENDBRANCH   1  29
TORSDOF 16
ENDMDL
MODEL 3
REMARK VINA RESULT:     -11.9      5.159     11.869
REMARK SMILES C[N@@H+]1CCN(C(=O)c2cc(-n3cccn3)ccc2Cl)C[C@H]1C(=O)NCCCNC(=O)c1ccc(-c2c3nc(c(-c4c(F)cc(S(=O)(=O)[O-])cc4F)c4ccc([nH]4)c(-c4c(F)cc(S(=O)(=O)[O-])cc4F)c4nc(c(-c5c(F)cc(S(=O)(=O)[O-])cc5F)c5ccc2[nH]5)C=C4)C=C3)cc1
REMARK SMILES IDX 26 1 25 2 24 3 22 4 23 5 21 7 1 8 2 9 3 10 4 12 20 13 5 14
REMARK SMILES IDX 6 15 7 16 8 17 9 18 18 19 10 20 17 21 19 22 16 23 11 24
REMARK SMILES IDX 12 25 15 26 13 27 14 28 27 29 28 30 29 31 30 33 31 34 32 35
REMARK SMILES IDX 96 36 33 37 95 38 34 39 35 40 36 41 89 42 37 43 94 44 88 45
REMARK SMILES IDX 90 46 38 47 93 48 87 49 86 50 39 52 73 53 52 54 72 55 53 56
REMARK SMILES IDX 56 57 71 58 91 59 54 60 55 61 70 63 92 64 57 65 40 66 41 67
REMARK SMILES IDX 50 68 42 69 43 70 49 71 51 72 44 73 45 74 46 75 47 76 48 77
REMARK SMILES IDX 74 78 75 79 84 80 76 81 77 82 83 83 85 84 78 85 79 86 80 87
REMARK SMILES IDX 81 88 82 89 58 90 59 91 68 92 60 93 61 94 67 95 69 96 62 97
REMARK SMILES IDX 63 98 64 99 65 100 66 101
REMARK H PARENT 24 6 2 11 28 32 90 51 56 62
REMARK Flexibility Score: inf
ROOT
ATOM      1  C   UNL A   1      35.751  31.546  32.148  1.00  0.00     0.042 C 
ENDROOT
BRANCH   1   2
ATOM      2  C   UNL A   1      37.236  31.460  32.478  1.00  0.00     0.118 C 
BRANCH   2   3
ATOM      3  N   UNL A   1      37.533  30.688  33.676  1.00  0.00    -0.351 N 
ATOM      4  C   UNL A   1      38.239  31.053  34.789  1.00  0.00     0.280 C 
ATOM      5  O   UNL A   1      38.306  30.256  35.727  1.00  0.00    -0.268 OA
ATOM      6  H   UNL A   1      37.173  29.771  33.686  1.00  0.00     0.163 HD
BRANCH   4   7
ATOM      7  C   UNL A   1      38.881  32.443  34.893  1.00  0.00     0.293 C 
ATOM      8  C   UNL A   1      36.799  33.594  35.427  1.00  0.00     0.333 C 
ATOM      9  N   UNL A   1      38.164  33.300  35.887  1.00  0.00    -0.324 N 
ATOM     10  C   UNL A   1      38.911  34.560  36.077  1.00  0.00     0.284 C 
ATOM     11  H   UNL A   1      38.104  32.800  36.774  1.00  0.00     0.348 HD
ATOM     12  C   UNL A   1      40.369  34.316  36.503  1.00  0.00     0.181 C 
ATOM     13  C   UNL A   1      40.385  32.232  35.175  1.00  0.00     0.195 C 
ATOM     14  N   UNL A   1      41.087  33.460  35.558  1.00  0.00    -0.326 N 
BRANCH  14  15
ATOM     15  C   UNL A   1      42.437  33.695  35.328  1.00  0.00     0.255 C 
ATOM     16  O   UNL A   1      43.339  32.973  35.748  1.00  0.00    -0.269 OA
BRANCH  15  17
ATOM     17  C   UNL A   1      42.828  34.855  34.501  1.00  0.00     0.060 A 
ATOM     18  C   UNL A   1      42.660  34.748  33.111  1.00  0.00     0.043 A 
ATOM     19  C   UNL A   1      43.415  35.999  35.058  1.00  0.00     0.053 A 
ATOM     20  C   UNL A   1      43.103  35.786  32.282  1.00  0.00     0.065 A 
ATOM     21  C   UNL A   1      43.761  37.069  34.232  1.00  0.00     0.023 A 
ATOM     22  Cl  UNL A   1      43.764  36.150  36.744  1.00  0.00    -0.083 Cl
ATOM     23  C   UNL A   1      43.622  36.960  32.846  1.00  0.00     0.030 A 
BRANCH  20  24
ATOM     24  N   UNL A   1      43.070  35.632  30.873  1.00  0.00    -0.241 N 
ATOM     25  C   UNL A   1      42.391  34.662  30.165  1.00  0.00     0.115 A 
ATOM     26  N   UNL A   1      43.697  36.501  30.042  1.00  0.00    -0.177 NA
ATOM     27  C   UNL A   1      42.640  34.885  28.834  1.00  0.00     0.042 A 
ATOM     28  C   UNL A   1      43.483  36.006  28.821  1.00  0.00     0.135 A 
ENDBRANCH  20  24
ENDBRANCH  15  17
ENDBRANCH  14  15
ENDBRANCH   4   7
ENDBRANCH   2   3
ENDBRANCH   1   2
BRANCH   1  29
ATOM     29  C   UNL A   1      35.458  32.549  31.049  1.00  0.00     0.118 C 
BRANCH  29  30
ATOM     30  N   UNL A   1      34.567  32.019  30.014  1.00  0.00    -0.352 N 
ATOM     31  C   UNL A   1      34.918  31.427  28.810  1.00  0.00     0.251 C 
ATOM     32  H   UNL A   1      33.602  32.093  30.196  1.00  0.00     0.163 HD
ATOM     33  O   UNL A   1      34.115  31.287  27.914  1.00  0.00    -0.269 OA
BRANCH  31  34
ATOM     34  C   UNL A   1      36.320  30.992  28.661  1.00  0.00     0.039 A 
ATOM     35  C   UNL A   1      37.373  31.902  28.773  1.00  0.00     0.014 A 
ATOM     36  C   UNL A   1      36.553  29.628  28.539  1.00  0.00     0.014 A 
ATOM     37  C   UNL A   1      38.673  31.409  28.869  1.00  0.00     0.010 A 
ATOM     38  C   UNL A   1      37.807  29.144  28.811  1.00  0.00     0.010 A 
ATOM     39  C   UNL A   1      38.883  30.023  28.919  1.00  0.00    -0.014 A 
BRANCH  39  40
ATOM     40  C   UNL A   1      40.215  29.471  29.166  1.00  0.00     0.031 A 
ATOM     41  C   UNL A   1      40.610  29.317  30.600  1.00  0.00     0.074 A 
ATOM     42  C   UNL A   1      40.939  28.890  28.183  1.00  0.00     0.049 A 
ATOM     43  N   UNL A   1      41.592  29.877  31.231  1.00  0.00    -0.248 NA
ATOM     44  C   UNL A   1      39.740  28.507  31.471  1.00  0.00     0.031 C 
ATOM     45  C   UNL A   1      40.547  28.641  26.788  1.00  0.00     0.029 A 
ATOM     46  N   UNL A   1      42.145  28.269  28.264  1.00  0.00    -0.354 N 
ATOM     47  C   UNL A   1      41.591  29.338  32.520  1.00  0.00     0.074 A 
ATOM     48  C   UNL A   1      40.340  28.639  32.656  1.00  0.00     0.031 C 
ATOM     49  C   UNL A   1      41.360  27.708  26.249  1.00  0.00     0.029 A 
ATOM     50  C   UNL A   1      42.441  27.453  27.181  1.00  0.00     0.049 A 
ATOM     51  H   UNL A   1      42.757  28.388  29.026  1.00  0.00     0.167 HD
ATOM     52  C   UNL A   1      42.710  29.334  33.302  1.00  0.00     0.037 A 
ATOM     53  C   UNL A   1      43.486  26.602  27.061  1.00  0.00     0.037 A 
ATOM     54  C   UNL A   1      43.708  30.233  32.781  1.00  0.00     0.049 A 
ATOM     55  C   UNL A   1      44.505  27.025  28.053  1.00  0.00     0.074 A 
ATOM     56  C   UNL A   1      43.762  31.591  32.535  1.00  0.00     0.029 A 
ATOM     57  N   UNL A   1      44.755  29.685  32.080  1.00  0.00    -0.354 N 
ATOM     58  N   UNL A   1      45.142  28.165  28.005  1.00  0.00    -0.248 NA
ATOM     59  C   UNL A   1      44.496  26.375  29.354  1.00  0.00     0.031 C 
ATOM     60  C   UNL A   1      44.510  31.714  31.328  1.00  0.00     0.029 A 
ATOM     61  C   UNL A   1      44.921  30.436  30.946  1.00  0.00     0.049 A 
ATOM     62  H   UNL A   1      45.288  28.900  32.344  1.00  0.00     0.167 HD
ATOM     63  C   UNL A   1      45.250  28.573  29.328  1.00  0.00     0.074 A 
ATOM     64  C   UNL A   1      44.926  27.385  30.114  1.00  0.00     0.031 C 
ATOM     65  C   UNL A   1      45.320  29.895  29.662  1.00  0.00     0.037 A 
BRANCH  52  66
ATOM     66  C   UNL A   1      43.058  28.285  34.340  1.00  0.00     0.058 A 
ATOM     67  C   UNL A   1      43.284  28.681  35.678  1.00  0.00     0.135 A 
ATOM     68  C   UNL A   1      43.458  26.968  34.027  1.00  0.00     0.135 A 
ATOM     69  F   UNL A   1      42.939  29.909  36.098  1.00  0.00    -0.206 F 
ATOM     70  C   UNL A   1      43.942  27.866  36.603  1.00  0.00     0.059 A 
ATOM     71  C   UNL A   1      44.064  26.120  34.949  1.00  0.00     0.059 A 
ATOM     72  F   UNL A   1      43.375  26.470  32.788  1.00  0.00    -0.206 F 
ATOM     73  C   UNL A   1      44.349  26.593  36.219  1.00  0.00     0.060 A 
BRANCH  73  74
ATOM     74  S   UNL A   1      45.317  25.589  37.360  1.00  0.00     0.124 S 
ATOM     75  O   UNL A   1      46.429  26.483  37.659  1.00  0.00    -0.237 OA
ATOM     76  O   UNL A   1      44.368  25.360  38.445  1.00  0.00    -0.237 OA
ATOM     77  O   UNL A   1      45.649  24.409  36.567  1.00  0.00    -0.744 OA
ENDBRANCH  73  74
ENDBRANCH  52  66
BRANCH  53  78
ATOM     78  C   UNL A   1      43.507  25.290  26.368  1.00  0.00     0.058 A 
ATOM     79  C   UNL A   1      44.371  25.043  25.290  1.00  0.00     0.135 A 
ATOM     80  C   UNL A   1      42.853  24.165  26.915  1.00  0.00     0.135 A 
ATOM     81  F   UNL A   1      45.051  26.054  24.728  1.00  0.00    -0.206 F 
ATOM     82  C   UNL A   1      44.603  23.752  24.803  1.00  0.00     0.059 A 
ATOM     83  C   UNL A   1      43.060  22.870  26.441  1.00  0.00     0.059 A 
ATOM     84  F   UNL A   1      42.056  24.285  27.988  1.00  0.00    -0.206 F 
ATOM     85  C   UNL A   1      43.954  22.668  25.397  1.00  0.00     0.060 A 
BRANCH  85  86
ATOM     86  S   UNL A   1      44.373  20.988  24.874  1.00  0.00     0.124 S 
ATOM     87  O   UNL A   1      44.517  21.149  23.431  1.00  0.00    -0.237 OA
ATOM     88  O   UNL A   1      45.605  20.733  25.614  1.00  0.00    -0.237 OA
ATOM     89  O   UNL A   1      43.219  20.201  25.301  1.00  0.00    -0.744 OA
ENDBRANCH  85  86
ENDBRANCH  53  78
BRANCH  65  90
ATOM     90  C   UNL A   1      45.587  30.908  28.578  1.00  0.00     0.058 A 
ATOM     91  C   UNL A   1      44.587  31.617  27.890  1.00  0.00     0.135 A 
ATOM     92  C   UNL A   1      46.914  31.321  28.382  1.00  0.00     0.135 A 
ATOM     93  F   UNL A   1      43.290  31.350  28.091  1.00  0.00    -0.206 F 
ATOM     94  C   UNL A   1      44.892  32.681  27.038  1.00  0.00     0.059 A 
ATOM     95  C   UNL A   1      47.239  32.398  27.560  1.00  0.00     0.059 A 
ATOM     96  F   UNL A   1      47.910  30.723  29.056  1.00  0.00    -0.206 F 
ATOM     97  C   UNL A   1      46.222  33.070  26.887  1.00  0.00     0.060 A 
BRANCH  97  98
ATOM     98  S   UNL A   1      46.606  34.524  25.885  1.00  0.00     0.124 S 
ATOM     99  O   UNL A   1      48.005  34.296  25.537  1.00  0.00    -0.237 OA
ATOM    100  O   UNL A   1      45.652  34.415  24.786  1.00  0.00    -0.237 OA
ATOM    101  O   UNL A   1      46.364  35.641  26.798  1.00  0.00    -0.744 OA
ENDBRANCH  97  98
ENDBRANCH  65  90
ENDBRANCH  39  40
ENDBRANCH  31  34
ENDBRANCH  29  30
ENDBRANCH   1  29
TORSDOF 16
ENDMDL
