MODEL 1
REMARK VINA RESULT:     -11.2      0.000      0.000
REMARK SMILES Cc1ccc(CNC(=O)NC[C@@H](CC(C)C)C(=O)NCCCNC(=O)c2ccc(-c3c4nc(c(-c5c(F)cc(S(=O)(=O)[O-])cc5F)c5ccc([nH]5)c(-c5c(F)cc(S(=O)(=O)[O-])cc5F)c5nc(c(-c6c(F)cc(S(=O)(=O)[O-])cc6F)c6ccc3[nH]6)C=C5)C=C4)cc2)s1
REMARK SMILES IDX 20 1 19 2 17 3 18 4 12 6 11 7 10 8 7 9 8 10 9 12 6 14 5 15
REMARK SMILES IDX 1 16 2 17 3 18 92 19 4 20 13 21 14 22 15 23 16 24 21 25
REMARK SMILES IDX 22 26 23 27 24 28 25 30 26 31 27 32 91 33 28 34 90 35 29 36
REMARK SMILES IDX 30 37 31 38 84 39 32 40 89 41 83 42 85 43 33 44 88 45 82 46
REMARK SMILES IDX 81 47 34 49 68 50 47 51 67 52 48 53 51 54 66 55 86 56 49 57
REMARK SMILES IDX 50 58 65 60 87 61 52 62 35 63 36 64 45 65 37 66 38 67 44 68
REMARK SMILES IDX 46 69 39 70 40 71 41 72 42 73 43 74 69 75 70 76 79 77 71 78
REMARK SMILES IDX 72 79 78 80 80 81 73 82 74 83 75 84 76 85 77 86 53 87 54 88
REMARK SMILES IDX 63 89 55 90 56 91 62 92 64 93 57 94 58 95 59 96 60 97 61 98
REMARK H PARENT 19 5 7 11 10 13 23 29 85 48 51 59
REMARK Flexibility Score: inf
ROOT
ATOM      1  C   UNL A   1      34.909  22.644  23.888  1.00  0.00     0.117 C 
ENDROOT
BRANCH   1   2
ATOM      2  N   UNL A   1      34.719  22.193  25.256  1.00  0.00    -0.356 N 
ATOM      3  C   UNL A   1      33.774  21.401  25.821  1.00  0.00     0.224 C 
ATOM      4  O   UNL A   1      33.973  21.047  26.989  1.00  0.00    -0.275 OA
ATOM      5  H   UNL A   1      35.399  22.522  25.887  1.00  0.00     0.163 HD
BRANCH   3   6
ATOM      6  C   UNL A   1      32.529  20.927  25.088  1.00  0.00     0.098 C 
BRANCH   6   7
ATOM      7  C   UNL A   1      31.439  21.999  24.961  1.00  0.00     0.131 C 
BRANCH   7   8
ATOM      8  N   UNL A   1      30.665  22.143  26.186  1.00  0.00    -0.337 N 
ATOM      9  N   UNL A   1      31.063  24.356  26.905  1.00  0.00    -0.333 N 
ATOM     10  C   UNL A   1      30.359  23.219  26.927  1.00  0.00     0.315 C 
ATOM     11  H   UNL A   1      30.552  25.143  27.206  1.00  0.00     0.165 HD
ATOM     12  O   UNL A   1      29.375  23.148  27.666  1.00  0.00    -0.249 OA
ATOM     13  H   UNL A   1      30.300  21.298  26.533  1.00  0.00     0.165 HD
BRANCH   9  14
ATOM     14  C   UNL A   1      32.425  24.659  26.524  1.00  0.00     0.164 C 
BRANCH  14  15
ATOM     15  C   UNL A   1      32.492  25.967  25.794  1.00  0.00     0.024 A 
ATOM     16  C   UNL A   1      31.341  28.976  23.538  1.00  0.00     0.056 C 
ATOM     17  C   UNL A   1      32.009  27.964  24.407  1.00  0.00     0.002 A 
ATOM     18  C   UNL A   1      33.250  28.032  25.003  1.00  0.00     0.015 A 
ATOM     19  S   UNL A   1      31.218  26.492  24.769  1.00  0.00    -0.144 S 
ATOM     20  C   UNL A   1      33.528  26.885  25.800  1.00  0.00     0.017 A 
ENDBRANCH  14  15
ENDBRANCH   9  14
ENDBRANCH   7   8
ENDBRANCH   6   7
BRANCH   6  21
ATOM     21  C   UNL A   1      32.808  20.129  23.790  1.00  0.00     0.018 C 
BRANCH  21  22
ATOM     22  C   UNL A   1      32.579  18.603  23.808  1.00  0.00    -0.017 C 
ATOM     23  C   UNL A   1      32.460  18.022  22.393  1.00  0.00     0.007 C 
ATOM     24  C   UNL A   1      33.723  17.881  24.527  1.00  0.00     0.007 C 
ENDBRANCH  21  22
ENDBRANCH   6  21
ENDBRANCH   3   6
ENDBRANCH   1   2
BRANCH   1  25
ATOM     25  C   UNL A   1      36.330  23.088  23.605  1.00  0.00     0.042 C 
BRANCH  25  26
ATOM     26  C   UNL A   1      37.069  23.544  24.854  1.00  0.00     0.118 C 
BRANCH  26  27
ATOM     27  N   UNL A   1      38.150  22.642  25.242  1.00  0.00    -0.352 N 
ATOM     28  C   UNL A   1      39.284  22.867  25.992  1.00  0.00     0.251 C 
ATOM     29  H   UNL A   1      38.054  21.720  24.912  1.00  0.00     0.163 HD
ATOM     30  O   UNL A   1      40.161  22.014  26.038  1.00  0.00    -0.269 OA
BRANCH  28  31
ATOM     31  C   UNL A   1      39.450  24.150  26.709  1.00  0.00     0.039 A 
ATOM     32  C   UNL A   1      38.899  24.302  27.984  1.00  0.00     0.014 A 
ATOM     33  C   UNL A   1      40.170  25.193  26.131  1.00  0.00     0.014 A 
ATOM     34  C   UNL A   1      39.171  25.460  28.717  1.00  0.00     0.010 A 
ATOM     35  C   UNL A   1      40.545  26.280  26.907  1.00  0.00     0.010 A 
ATOM     36  C   UNL A   1      40.048  26.433  28.209  1.00  0.00    -0.014 A 
BRANCH  36  37
ATOM     37  C   UNL A   1      40.463  27.621  29.000  1.00  0.00     0.031 A 
ATOM     38  C   UNL A   1      41.786  27.611  29.723  1.00  0.00     0.074 A 
ATOM     39  C   UNL A   1      39.611  28.654  29.159  1.00  0.00     0.049 A 
ATOM     40  N   UNL A   1      42.261  28.469  30.588  1.00  0.00    -0.248 NA
ATOM     41  C   UNL A   1      42.669  26.457  29.483  1.00  0.00     0.031 C 
ATOM     42  C   UNL A   1      38.271  28.754  28.571  1.00  0.00     0.029 A 
ATOM     43  N   UNL A   1      39.737  29.817  29.877  1.00  0.00    -0.354 N 
ATOM     44  C   UNL A   1      43.467  27.935  31.027  1.00  0.00     0.074 A 
ATOM     45  C   UNL A   1      43.630  26.657  30.372  1.00  0.00     0.031 C 
ATOM     46  C   UNL A   1      37.718  29.926  28.922  1.00  0.00     0.029 A 
ATOM     47  C   UNL A   1      38.640  30.643  29.795  1.00  0.00     0.049 A 
ATOM     48  H   UNL A   1      40.540  30.039  30.403  1.00  0.00     0.167 HD
ATOM     49  C   UNL A   1      44.373  28.474  31.877  1.00  0.00     0.037 A 
ATOM     50  C   UNL A   1      38.405  31.842  30.361  1.00  0.00     0.037 A 
ATOM     51  C   UNL A   1      44.246  29.785  32.455  1.00  0.00     0.049 A 
ATOM     52  C   UNL A   1      39.457  32.448  31.251  1.00  0.00     0.074 A 
ATOM     53  C   UNL A   1      45.157  30.469  33.240  1.00  0.00     0.029 A 
ATOM     54  N   UNL A   1      43.149  30.616  32.294  1.00  0.00    -0.354 N 
ATOM     55  N   UNL A   1      40.623  31.957  31.598  1.00  0.00    -0.248 NA
ATOM     56  C   UNL A   1      39.165  33.770  31.821  1.00  0.00     0.031 C 
ATOM     57  C   UNL A   1      44.597  31.705  33.579  1.00  0.00     0.029 A 
ATOM     58  C   UNL A   1      43.354  31.803  32.976  1.00  0.00     0.049 A 
ATOM     59  H   UNL A   1      42.343  30.395  31.775  1.00  0.00     0.167 HD
ATOM     60  C   UNL A   1      41.215  32.924  32.402  1.00  0.00     0.074 A 
ATOM     61  C   UNL A   1      40.285  34.031  32.481  1.00  0.00     0.031 C 
ATOM     62  C   UNL A   1      42.422  32.900  33.021  1.00  0.00     0.037 A 
BRANCH  49  63
ATOM     63  C   UNL A   1      45.593  27.663  32.215  1.00  0.00     0.058 A 
ATOM     64  C   UNL A   1      46.767  27.741  31.448  1.00  0.00     0.135 A 
ATOM     65  C   UNL A   1      45.604  26.832  33.346  1.00  0.00     0.135 A 
ATOM     66  F   UNL A   1      46.804  28.507  30.345  1.00  0.00    -0.206 F 
ATOM     67  C   UNL A   1      47.901  27.009  31.778  1.00  0.00     0.059 A 
ATOM     68  C   UNL A   1      46.737  26.110  33.711  1.00  0.00     0.059 A 
ATOM     69  F   UNL A   1      44.508  26.718  34.112  1.00  0.00    -0.206 F 
ATOM     70  C   UNL A   1      47.877  26.196  32.913  1.00  0.00     0.060 A 
BRANCH  70  71
ATOM     71  S   UNL A   1      49.367  25.271  33.342  1.00  0.00     0.124 S 
ATOM     72  O   UNL A   1      49.889  24.935  32.021  1.00  0.00    -0.237 OA
ATOM     73  O   UNL A   1      50.138  26.252  34.097  1.00  0.00    -0.237 OA
ATOM     74  O   UNL A   1      48.855  24.146  34.119  1.00  0.00    -0.744 OA
ENDBRANCH  70  71
ENDBRANCH  49  63
BRANCH  50  75
ATOM     75  C   UNL A   1      37.138  32.570  30.085  1.00  0.00     0.058 A 
ATOM     76  C   UNL A   1      37.086  33.556  29.087  1.00  0.00     0.135 A 
ATOM     77  C   UNL A   1      35.967  32.315  30.813  1.00  0.00     0.135 A 
ATOM     78  F   UNL A   1      38.181  33.838  28.366  1.00  0.00    -0.206 F 
ATOM     79  C   UNL A   1      35.927  34.286  28.842  1.00  0.00     0.059 A 
ATOM     80  C   UNL A   1      34.788  33.015  30.571  1.00  0.00     0.059 A 
ATOM     81  F   UNL A   1      35.958  31.367  31.763  1.00  0.00    -0.206 F 
ATOM     82  C   UNL A   1      34.783  34.011  29.594  1.00  0.00     0.060 A 
BRANCH  82  83
ATOM     83  S   UNL A   1      33.279  34.951  29.258  1.00  0.00     0.124 S 
ATOM     84  O   UNL A   1      32.628  34.111  28.258  1.00  0.00    -0.237 OA
ATOM     85  O   UNL A   1      32.641  34.994  30.570  1.00  0.00    -0.237 OA
ATOM     86  O   UNL A   1      33.787  36.231  28.775  1.00  0.00    -0.744 OA
ENDBRANCH  82  83
ENDBRANCH  50  75
BRANCH  62  87
ATOM     87  C   UNL A   1      42.822  34.119  33.799  1.00  0.00     0.058 A 
ATOM     88  C   UNL A   1      42.648  34.195  35.189  1.00  0.00     0.135 A 
ATOM     89  C   UNL A   1      43.439  35.202  33.150  1.00  0.00     0.135 A 
ATOM     90  F   UNL A   1      42.057  33.188  35.852  1.00  0.00    -0.206 F 
ATOM     91  C   UNL A   1      43.055  35.312  35.909  1.00  0.00     0.059 A 
ATOM     92  C   UNL A   1      43.877  36.318  33.854  1.00  0.00     0.059 A 
ATOM     93  F   UNL A   1      43.638  35.171  31.823  1.00  0.00    -0.206 F 
ATOM     94  C   UNL A   1      43.670  36.368  35.232  1.00  0.00     0.060 A 
BRANCH  94  95
ATOM     95  S   UNL A   1      44.229  37.797  36.183  1.00  0.00     0.124 S 
ATOM     96  O   UNL A   1      43.354  37.736  37.348  1.00  0.00    -0.237 OA
ATOM     97  O   UNL A   1      45.633  37.482  36.427  1.00  0.00    -0.237 OA
ATOM     98  O   UNL A   1      43.995  38.918  35.278  1.00  0.00    -0.744 OA
ENDBRANCH  94  95
ENDBRANCH  62  87
ENDBRANCH  36  37
ENDBRANCH  28  31
ENDBRANCH  26  27
ENDBRANCH  25  26
ENDBRANCH   1  25
TORSDOF 19
ENDMDL
MODEL 2
REMARK VINA RESULT:     -10.9      3.029      9.341
REMARK SMILES Cc1ccc(CNC(=O)NC[C@@H](CC(C)C)C(=O)NCCCNC(=O)c2ccc(-c3c4nc(c(-c5c(F)cc(S(=O)(=O)[O-])cc5F)c5ccc([nH]5)c(-c5c(F)cc(S(=O)(=O)[O-])cc5F)c5nc(c(-c6c(F)cc(S(=O)(=O)[O-])cc6F)c6ccc3[nH]6)C=C5)C=C4)cc2)s1
REMARK SMILES IDX 20 1 19 2 17 3 18 4 12 6 11 7 10 8 7 9 8 10 9 12 6 14 5 15
REMARK SMILES IDX 1 16 2 17 3 18 92 19 4 20 13 21 14 22 15 23 16 24 21 25
REMARK SMILES IDX 22 26 23 27 24 28 25 30 26 31 27 32 91 33 28 34 90 35 29 36
REMARK SMILES IDX 30 37 31 38 84 39 32 40 89 41 83 42 85 43 33 44 88 45 82 46
REMARK SMILES IDX 81 47 34 49 68 50 47 51 67 52 48 53 51 54 66 55 86 56 49 57
REMARK SMILES IDX 50 58 65 60 87 61 52 62 35 63 36 64 45 65 37 66 38 67 44 68
REMARK SMILES IDX 46 69 39 70 40 71 41 72 42 73 43 74 69 75 70 76 79 77 71 78
REMARK SMILES IDX 72 79 78 80 80 81 73 82 74 83 75 84 76 85 77 86 53 87 54 88
REMARK SMILES IDX 63 89 55 90 56 91 62 92 64 93 57 94 58 95 59 96 60 97 61 98
REMARK H PARENT 19 5 7 11 10 13 23 29 85 48 51 59
REMARK Flexibility Score: inf
ROOT
ATOM      1  C   UNL A   1      32.464  26.753  25.079  1.00  0.00     0.117 C 
ENDROOT
BRANCH   1   2
ATOM      2  N   UNL A   1      33.141  26.711  23.795  1.00  0.00    -0.356 N 
ATOM      3  C   UNL A   1      33.560  25.672  23.031  1.00  0.00     0.224 C 
ATOM      4  O   UNL A   1      33.955  25.945  21.891  1.00  0.00    -0.275 OA
ATOM      5  H   UNL A   1      33.330  27.596  23.409  1.00  0.00     0.163 HD
BRANCH   3   6
ATOM      6  C   UNL A   1      33.543  24.225  23.499  1.00  0.00     0.098 C 
BRANCH   6   7
ATOM      7  C   UNL A   1      32.272  23.461  23.106  1.00  0.00     0.131 C 
BRANCH   7   8
ATOM      8  N   UNL A   1      31.470  23.097  24.266  1.00  0.00    -0.337 N 
ATOM      9  N   UNL A   1      32.250  20.962  24.903  1.00  0.00    -0.333 N 
ATOM     10  C   UNL A   1      31.584  22.095  25.151  1.00  0.00     0.315 C 
ATOM     11  H   UNL A   1      32.544  20.491  25.716  1.00  0.00     0.165 HD
ATOM     12  O   UNL A   1      31.044  22.235  26.250  1.00  0.00    -0.249 OA
ATOM     13  H   UNL A   1      30.705  23.694  24.429  1.00  0.00     0.165 HD
BRANCH   9  14
ATOM     14  C   UNL A   1      32.622  20.292  23.676  1.00  0.00     0.164 C 
BRANCH  14  15
ATOM     15  C   UNL A   1      32.834  18.827  23.917  1.00  0.00     0.024 A 
ATOM     16  C   UNL A   1      32.863  15.384  25.819  1.00  0.00     0.056 C 
ATOM     17  C   UNL A   1      32.962  16.554  24.898  1.00  0.00     0.002 A 
ATOM     18  C   UNL A   1      33.348  16.572  23.574  1.00  0.00     0.015 A 
ATOM     19  S   UNL A   1      32.572  18.122  25.459  1.00  0.00    -0.144 S 
ATOM     20  C   UNL A   1      33.274  17.878  23.010  1.00  0.00     0.017 A 
ENDBRANCH  14  15
ENDBRANCH   9  14
ENDBRANCH   7   8
ENDBRANCH   6   7
BRANCH   6  21
ATOM     21  C   UNL A   1      34.865  23.453  23.258  1.00  0.00     0.018 C 
BRANCH  21  22
ATOM     22  C   UNL A   1      35.767  23.153  24.473  1.00  0.00    -0.017 C 
ATOM     23  C   UNL A   1      35.120  23.592  25.793  1.00  0.00     0.007 C 
ATOM     24  C   UNL A   1      36.084  21.657  24.570  1.00  0.00     0.007 C 
ENDBRANCH  21  22
ENDBRANCH   6  21
ENDBRANCH   3   6
ENDBRANCH   1   2
BRANCH   1  25
ATOM     25  C   UNL A   1      33.422  26.892  26.246  1.00  0.00     0.042 C 
BRANCH  25  26
ATOM     26  C   UNL A   1      34.385  28.059  26.086  1.00  0.00     0.118 C 
BRANCH  26  27
ATOM     27  N   UNL A   1      33.851  29.318  26.600  1.00  0.00    -0.352 N 
ATOM     28  C   UNL A   1      34.367  30.205  27.519  1.00  0.00     0.251 C 
ATOM     29  H   UNL A   1      32.977  29.575  26.229  1.00  0.00     0.163 HD
ATOM     30  O   UNL A   1      33.664  31.110  27.951  1.00  0.00    -0.269 OA
BRANCH  28  31
ATOM     31  C   UNL A   1      35.756  30.041  28.002  1.00  0.00     0.039 A 
ATOM     32  C   UNL A   1      35.983  29.553  29.292  1.00  0.00     0.014 A 
ATOM     33  C   UNL A   1      36.832  30.344  27.172  1.00  0.00     0.014 A 
ATOM     34  C   UNL A   1      37.289  29.269  29.700  1.00  0.00     0.010 A 
ATOM     35  C   UNL A   1      38.111  29.940  27.529  1.00  0.00     0.010 A 
ATOM     36  C   UNL A   1      38.358  29.402  28.799  1.00  0.00    -0.014 A 
BRANCH  36  37
ATOM     37  C   UNL A   1      39.746  28.995  29.147  1.00  0.00     0.031 A 
ATOM     38  C   UNL A   1      40.671  29.985  29.807  1.00  0.00     0.074 A 
ATOM     39  C   UNL A   1      40.204  27.783  28.772  1.00  0.00     0.049 A 
ATOM     40  N   UNL A   1      41.953  29.886  30.045  1.00  0.00    -0.248 NA
ATOM     41  C   UNL A   1      40.090  31.279  30.204  1.00  0.00     0.031 C 
ATOM     42  C   UNL A   1      39.431  26.759  28.062  1.00  0.00     0.029 A 
ATOM     43  N   UNL A   1      41.442  27.208  28.923  1.00  0.00    -0.354 N 
ATOM     44  C   UNL A   1      42.336  31.115  30.570  1.00  0.00     0.074 A 
ATOM     45  C   UNL A   1      41.164  31.961  30.572  1.00  0.00     0.031 C 
ATOM     46  C   UNL A   1      40.199  25.674  27.874  1.00  0.00     0.029 A 
ATOM     47  C   UNL A   1      41.531  25.936  28.406  1.00  0.00     0.049 A 
ATOM     48  H   UNL A   1      42.197  27.665  29.361  1.00  0.00     0.167 HD
ATOM     49  C   UNL A   1      43.549  31.496  31.037  1.00  0.00     0.037 A 
ATOM     50  C   UNL A   1      42.570  25.081  28.364  1.00  0.00     0.037 A 
ATOM     51  C   UNL A   1      44.687  30.621  31.115  1.00  0.00     0.049 A 
ATOM     52  C   UNL A   1      43.889  25.506  28.949  1.00  0.00     0.074 A 
ATOM     53  C   UNL A   1      45.928  30.873  31.671  1.00  0.00     0.029 A 
ATOM     54  N   UNL A   1      44.716  29.319  30.640  1.00  0.00    -0.354 N 
ATOM     55  N   UNL A   1      44.212  26.650  29.506  1.00  0.00    -0.248 NA
ATOM     56  C   UNL A   1      44.983  24.526  28.906  1.00  0.00     0.031 C 
ATOM     57  C   UNL A   1      46.719  29.731  31.506  1.00  0.00     0.029 A 
ATOM     58  C   UNL A   1      45.958  28.758  30.879  1.00  0.00     0.049 A 
ATOM     59  H   UNL A   1      43.965  28.862  30.196  1.00  0.00     0.167 HD
ATOM     60  C   UNL A   1      45.537  26.514  29.905  1.00  0.00     0.074 A 
ATOM     61  C   UNL A   1      45.951  25.177  29.537  1.00  0.00     0.031 C 
ATOM     62  C   UNL A   1      46.340  27.416  30.523  1.00  0.00     0.037 A 
BRANCH  49  63
ATOM     63  C   UNL A   1      43.704  32.909  31.526  1.00  0.00     0.058 A 
ATOM     64  C   UNL A   1      44.253  33.915  30.714  1.00  0.00     0.135 A 
ATOM     65  C   UNL A   1      43.255  33.273  32.805  1.00  0.00     0.135 A 
ATOM     66  F   UNL A   1      44.714  33.617  29.488  1.00  0.00    -0.206 F 
ATOM     67  C   UNL A   1      44.371  35.226  31.160  1.00  0.00     0.059 A 
ATOM     68  C   UNL A   1      43.339  34.585  33.264  1.00  0.00     0.059 A 
ATOM     69  F   UNL A   1      42.725  32.350  33.623  1.00  0.00    -0.206 F 
ATOM     70  C   UNL A   1      43.910  35.552  32.437  1.00  0.00     0.060 A 
BRANCH  70  71
ATOM     71  S   UNL A   1      44.048  37.264  32.992  1.00  0.00     0.124 S 
ATOM     72  O   UNL A   1      43.135  37.273  34.130  1.00  0.00    -0.237 OA
ATOM     73  O   UNL A   1      45.466  37.375  33.317  1.00  0.00    -0.237 OA
ATOM     74  O   UNL A   1      43.611  38.034  31.831  1.00  0.00    -0.744 OA
ENDBRANCH  70  71
ENDBRANCH  49  63
BRANCH  50  75
ATOM     75  C   UNL A   1      42.405  23.724  27.778  1.00  0.00     0.058 A 
ATOM     76  C   UNL A   1      42.266  22.601  28.609  1.00  0.00     0.135 A 
ATOM     77  C   UNL A   1      42.401  23.515  26.391  1.00  0.00     0.135 A 
ATOM     78  F   UNL A   1      42.267  22.749  29.942  1.00  0.00    -0.206 F 
ATOM     79  C   UNL A   1      42.160  21.316  28.088  1.00  0.00     0.059 A 
ATOM     80  C   UNL A   1      42.271  22.241  25.844  1.00  0.00     0.059 A 
ATOM     81  F   UNL A   1      42.509  24.557  25.554  1.00  0.00    -0.206 F 
ATOM     82  C   UNL A   1      42.169  21.146  26.702  1.00  0.00     0.060 A 
BRANCH  82  83
ATOM     83  S   UNL A   1      42.013  19.476  26.033  1.00  0.00     0.124 S 
ATOM     84  O   UNL A   1      42.825  19.569  24.825  1.00  0.00    -0.237 OA
ATOM     85  O   UNL A   1      42.561  18.659  27.111  1.00  0.00    -0.237 OA
ATOM     86  O   UNL A   1      40.576  19.335  25.820  1.00  0.00    -0.744 OA
ENDBRANCH  82  83
ENDBRANCH  50  75
BRANCH  62  87
ATOM     87  C   UNL A   1      47.729  26.973  30.877  1.00  0.00     0.058 A 
ATOM     88  C   UNL A   1      48.010  26.330  32.091  1.00  0.00     0.135 A 
ATOM     89  C   UNL A   1      48.781  27.145  29.962  1.00  0.00     0.135 A 
ATOM     90  F   UNL A   1      47.039  26.150  33.001  1.00  0.00    -0.206 F 
ATOM     91  C   UNL A   1      49.292  25.890  32.398  1.00  0.00     0.059 A 
ATOM     92  C   UNL A   1      50.066  26.689  30.236  1.00  0.00     0.059 A 
ATOM     93  F   UNL A   1      48.560  27.743  28.781  1.00  0.00    -0.206 F 
ATOM     94  C   UNL A   1      50.313  26.072  31.463  1.00  0.00     0.060 A 
BRANCH  94  95
ATOM     95  S   UNL A   1      51.966  25.461  31.854  1.00  0.00     0.124 S 
ATOM     96  O   UNL A   1      51.728  24.027  31.975  1.00  0.00    -0.237 OA
ATOM     97  O   UNL A   1      52.740  25.879  30.689  1.00  0.00    -0.237 OA
ATOM     98  O   UNL A   1      52.296  26.151  33.097  1.00  0.00    -0.744 OA
ENDBRANCH  94  95
ENDBRANCH  62  87
ENDBRANCH  36  37
ENDBRANCH  28  31
ENDBRANCH  26  27
ENDBRANCH  25  26
ENDBRANCH   1  25
TORSDOF 19
ENDMDL
MODEL 3
REMARK VINA RESULT:     -10.8      2.977      9.084
REMARK SMILES Cc1ccc(CNC(=O)NC[C@@H](CC(C)C)C(=O)NCCCNC(=O)c2ccc(-c3c4nc(c(-c5c(F)cc(S(=O)(=O)[O-])cc5F)c5ccc([nH]5)c(-c5c(F)cc(S(=O)(=O)[O-])cc5F)c5nc(c(-c6c(F)cc(S(=O)(=O)[O-])cc6F)c6ccc3[nH]6)C=C5)C=C4)cc2)s1
REMARK SMILES IDX 20 1 19 2 17 3 18 4 12 6 11 7 10 8 7 9 8 10 9 12 6 14 5 15
REMARK SMILES IDX 1 16 2 17 3 18 92 19 4 20 13 21 14 22 15 23 16 24 21 25
REMARK SMILES IDX 22 26 23 27 24 28 25 30 26 31 27 32 91 33 28 34 90 35 29 36
REMARK SMILES IDX 30 37 31 38 84 39 32 40 89 41 83 42 85 43 33 44 88 45 82 46
REMARK SMILES IDX 81 47 34 49 68 50 47 51 67 52 48 53 51 54 66 55 86 56 49 57
REMARK SMILES IDX 50 58 65 60 87 61 52 62 35 63 36 64 45 65 37 66 38 67 44 68
REMARK SMILES IDX 46 69 39 70 40 71 41 72 42 73 43 74 69 75 70 76 79 77 71 78
REMARK SMILES IDX 72 79 78 80 80 81 73 82 74 83 75 84 76 85 77 86 53 87 54 88
REMARK SMILES IDX 63 89 55 90 56 91 62 92 64 93 57 94 58 95 59 96 60 97 61 98
REMARK H PARENT 19 5 7 11 10 13 23 29 85 48 51 59
REMARK Flexibility Score: inf
ROOT
ATOM      1  C   UNL A   1      32.122  26.759  26.526  1.00  0.00     0.117 C 
ENDROOT
BRANCH   1   2
ATOM      2  N   UNL A   1      32.993  26.385  25.425  1.00  0.00    -0.356 N 
ATOM      3  C   UNL A   1      32.723  26.010  24.150  1.00  0.00     0.224 C 
ATOM      4  O   UNL A   1      33.689  25.920  23.383  1.00  0.00    -0.275 OA
ATOM      5  H   UNL A   1      33.953  26.409  25.643  1.00  0.00     0.163 HD
BRANCH   3   6
ATOM      6  C   UNL A   1      31.320  25.726  23.638  1.00  0.00     0.098 C 
BRANCH   6   7
ATOM      7  C   UNL A   1      30.908  24.252  23.743  1.00  0.00     0.131 C 
BRANCH   7   8
ATOM      8  N   UNL A   1      30.315  23.939  25.036  1.00  0.00    -0.337 N 
ATOM      9  N   UNL A   1      31.977  22.728  26.194  1.00  0.00    -0.333 N 
ATOM     10  C   UNL A   1      30.843  23.436  26.162  1.00  0.00     0.315 C 
ATOM     11  H   UNL A   1      32.417  22.727  27.076  1.00  0.00     0.165 HD
ATOM     12  O   UNL A   1      30.245  23.644  27.220  1.00  0.00    -0.249 OA
ATOM     13  H   UNL A   1      29.351  24.130  25.093  1.00  0.00     0.165 HD
BRANCH   9  14
ATOM     14  C   UNL A   1      32.684  21.963  25.190  1.00  0.00     0.164 C 
BRANCH  14  15
ATOM     15  C   UNL A   1      34.064  22.514  24.982  1.00  0.00     0.024 A 
ATOM     16  C   UNL A   1      37.634  23.907  25.866  1.00  0.00     0.056 C 
ATOM     17  C   UNL A   1      36.350  23.424  25.279  1.00  0.00     0.002 A 
ATOM     18  C   UNL A   1      36.027  23.252  23.950  1.00  0.00     0.015 A 
ATOM     19  S   UNL A   1      35.044  23.008  26.302  1.00  0.00    -0.144 S 
ATOM     20  C   UNL A   1      34.713  22.728  23.779  1.00  0.00     0.017 A 
ENDBRANCH  14  15
ENDBRANCH   9  14
ENDBRANCH   7   8
ENDBRANCH   6   7
BRANCH   6  21
ATOM     21  C   UNL A   1      30.244  26.736  24.109  1.00  0.00     0.018 C 
BRANCH  21  22
ATOM     22  C   UNL A   1      30.032  28.019  23.278  1.00  0.00    -0.017 C 
ATOM     23  C   UNL A   1      28.545  28.330  23.068  1.00  0.00     0.007 C 
ATOM     24  C   UNL A   1      30.683  29.230  23.956  1.00  0.00     0.007 C 
ENDBRANCH  21  22
ENDBRANCH   6  21
ENDBRANCH   3   6
ENDBRANCH   1   2
BRANCH   1  25
ATOM     25  C   UNL A   1      32.427  28.137  27.078  1.00  0.00     0.042 C 
BRANCH  25  26
ATOM     26  C   UNL A   1      33.626  28.793  26.409  1.00  0.00     0.118 C 
BRANCH  26  27
ATOM     27  N   UNL A   1      33.702  30.231  26.652  1.00  0.00    -0.352 N 
ATOM     28  C   UNL A   1      34.577  30.968  27.419  1.00  0.00     0.251 C 
ATOM     29  H   UNL A   1      33.013  30.762  26.192  1.00  0.00     0.163 HD
ATOM     30  O   UNL A   1      34.347  32.150  27.638  1.00  0.00    -0.269 OA
BRANCH  28  31
ATOM     31  C   UNL A   1      35.773  30.319  28.000  1.00  0.00     0.039 A 
ATOM     32  C   UNL A   1      36.980  30.341  27.297  1.00  0.00     0.014 A 
ATOM     33  C   UNL A   1      35.707  29.711  29.252  1.00  0.00     0.014 A 
ATOM     34  C   UNL A   1      38.139  29.850  27.903  1.00  0.00     0.010 A 
ATOM     35  C   UNL A   1      36.878  29.346  29.901  1.00  0.00     0.010 A 
ATOM     36  C   UNL A   1      38.109  29.405  29.235  1.00  0.00    -0.014 A 
BRANCH  36  37
ATOM     37  C   UNL A   1      39.338  28.990  29.962  1.00  0.00     0.031 A 
ATOM     38  C   UNL A   1      39.749  29.724  31.213  1.00  0.00     0.074 A 
ATOM     39  C   UNL A   1      40.137  28.036  29.441  1.00  0.00     0.049 A 
ATOM     40  N   UNL A   1      40.857  29.627  31.901  1.00  0.00    -0.248 NA
ATOM     41  C   UNL A   1      38.814  30.738  31.730  1.00  0.00     0.031 C 
ATOM     42  C   UNL A   1      39.889  27.300  28.197  1.00  0.00     0.029 A 
ATOM     43  N   UNL A   1      41.332  27.528  29.886  1.00  0.00    -0.354 N 
ATOM     44  C   UNL A   1      40.772  30.597  32.894  1.00  0.00     0.074 A 
ATOM     45  C   UNL A   1      39.527  31.303  32.692  1.00  0.00     0.031 C 
ATOM     46  C   UNL A   1      40.879  26.414  28.001  1.00  0.00     0.029 A 
ATOM     47  C   UNL A   1      41.855  26.547  29.075  1.00  0.00     0.049 A 
ATOM     48  H   UNL A   1      41.775  27.839  30.709  1.00  0.00     0.167 HD
ATOM     49  C   UNL A   1      41.638  30.856  33.902  1.00  0.00     0.037 A 
ATOM     50  C   UNL A   1      42.994  25.838  29.186  1.00  0.00     0.037 A 
ATOM     51  C   UNL A   1      42.829  30.090  34.149  1.00  0.00     0.049 A 
ATOM     52  C   UNL A   1      43.907  26.101  30.353  1.00  0.00     0.074 A 
ATOM     53  C   UNL A   1      43.717  30.199  35.205  1.00  0.00     0.029 A 
ATOM     54  N   UNL A   1      43.290  29.062  33.341  1.00  0.00    -0.354 N 
ATOM     55  N   UNL A   1      43.773  26.976  31.322  1.00  0.00    -0.248 NA
ATOM     56  C   UNL A   1      45.123  25.280  30.445  1.00  0.00     0.031 C 
ATOM     57  C   UNL A   1      44.731  29.254  35.020  1.00  0.00     0.029 A 
ATOM     58  C   UNL A   1      44.455  28.535  33.868  1.00  0.00     0.049 A 
ATOM     59  H   UNL A   1      42.853  28.754  32.514  1.00  0.00     0.167 HD
ATOM     60  C   UNL A   1      44.871  26.789  32.154  1.00  0.00     0.074 A 
ATOM     61  C   UNL A   1      45.653  25.713  31.581  1.00  0.00     0.031 C 
ATOM     62  C   UNL A   1      45.204  27.448  33.291  1.00  0.00     0.037 A 
BRANCH  49  63
ATOM     63  C   UNL A   1      41.319  31.995  34.830  1.00  0.00     0.058 A 
ATOM     64  C   UNL A   1      41.821  33.287  34.612  1.00  0.00     0.135 A 
ATOM     65  C   UNL A   1      40.462  31.801  35.925  1.00  0.00     0.135 A 
ATOM     66  F   UNL A   1      42.660  33.524  33.589  1.00  0.00    -0.206 F 
ATOM     67  C   UNL A   1      41.504  34.343  35.458  1.00  0.00     0.059 A 
ATOM     68  C   UNL A   1      40.109  32.849  36.771  1.00  0.00     0.059 A 
ATOM     69  F   UNL A   1      39.957  30.584  36.181  1.00  0.00    -0.206 F 
ATOM     70  C   UNL A   1      40.645  34.115  36.535  1.00  0.00     0.060 A 
BRANCH  70  71
ATOM     71  S   UNL A   1      40.222  35.502  37.610  1.00  0.00     0.124 S 
ATOM     72  O   UNL A   1      41.439  35.633  38.405  1.00  0.00    -0.237 OA
ATOM     73  O   UNL A   1      39.972  36.574  36.653  1.00  0.00    -0.237 OA
ATOM     74  O   UNL A   1      39.048  35.024  38.334  1.00  0.00    -0.744 OA
ENDBRANCH  70  71
ENDBRANCH  49  63
BRANCH  50  75
ATOM     75  C   UNL A   1      43.327  24.786  28.188  1.00  0.00     0.058 A 
ATOM     76  C   UNL A   1      44.043  25.108  27.025  1.00  0.00     0.135 A 
ATOM     77  C   UNL A   1      42.928  23.453  28.362  1.00  0.00     0.135 A 
ATOM     78  F   UNL A   1      44.444  26.371  26.813  1.00  0.00    -0.206 F 
ATOM     79  C   UNL A   1      44.324  24.154  26.053  1.00  0.00     0.059 A 
ATOM     80  C   UNL A   1      43.219  22.474  27.416  1.00  0.00     0.059 A 
ATOM     81  F   UNL A   1      42.260  23.088  29.467  1.00  0.00    -0.206 F 
ATOM     82  C   UNL A   1      43.903  22.838  26.256  1.00  0.00     0.060 A 
BRANCH  82  83
ATOM     83  S   UNL A   1      44.288  21.601  24.997  1.00  0.00     0.124 S 
ATOM     84  O   UNL A   1      43.297  20.572  25.288  1.00  0.00    -0.237 OA
ATOM     85  O   UNL A   1      44.090  22.349  23.759  1.00  0.00    -0.237 OA
ATOM     86  O   UNL A   1      45.673  21.248  25.291  1.00  0.00    -0.744 OA
ENDBRANCH  82  83
ENDBRANCH  50  75
BRANCH  62  87
ATOM     87  C   UNL A   1      46.440  26.997  34.013  1.00  0.00     0.058 A 
ATOM     88  C   UNL A   1      47.690  27.585  33.771  1.00  0.00     0.135 A 
ATOM     89  C   UNL A   1      46.359  26.001  35.001  1.00  0.00     0.135 A 
ATOM     90  F   UNL A   1      47.818  28.535  32.831  1.00  0.00    -0.206 F 
ATOM     91  C   UNL A   1      48.824  27.187  34.468  1.00  0.00     0.059 A 
ATOM     92  C   UNL A   1      47.476  25.606  35.729  1.00  0.00     0.059 A 
ATOM     93  F   UNL A   1      45.183  25.416  35.277  1.00  0.00    -0.206 F 
ATOM     94  C   UNL A   1      48.706  26.198  35.447  1.00  0.00     0.060 A 
BRANCH  94  95
ATOM     95  S   UNL A   1      50.178  25.718  36.376  1.00  0.00     0.124 S 
ATOM     96  O   UNL A   1      49.765  24.437  36.938  1.00  0.00    -0.237 OA
ATOM     97  O   UNL A   1      51.199  25.654  35.335  1.00  0.00    -0.237 OA
ATOM     98  O   UNL A   1      50.341  26.804  37.337  1.00  0.00    -0.744 OA
ENDBRANCH  94  95
ENDBRANCH  62  87
ENDBRANCH  36  37
ENDBRANCH  28  31
ENDBRANCH  26  27
ENDBRANCH  25  26
ENDBRANCH   1  25
TORSDOF 19
ENDMDL
