MODEL 1
REMARK VINA RESULT:     -12.2      0.000      0.000
REMARK SMILES CC[C@]1(C(=O)NCCCNC(=O)c2ccc(-c3c4nc(c(-c5c(F)cc(S(=O)(=O)[O-])cc5F)c5ccc([nH]5)c(-c5c(F)cc(S(=O)(=O)[O-])cc5F)c5nc(c(-c6c(F)cc(S(=O)(=O)[O-])cc6F)c6ccc3[nH]6)C=C5)C=C4)cc2)CCC[N@@H+]([C@@H]2CCC[C@H](S(C)(=O)=O)C2)C1
REMARK SMILES IDX 8 1 7 2 6 3 4 4 5 5 3 7 79 8 93 9 80 10 82 11 81 12 2 14
REMARK SMILES IDX 1 15 83 16 84 17 92 18 85 19 87 20 86 21 88 22 89 23 90 24
REMARK SMILES IDX 91 25 9 26 10 27 11 28 12 30 13 31 14 32 78 33 15 34 77 35
REMARK SMILES IDX 16 36 17 37 18 38 71 39 19 40 76 41 70 42 72 43 20 44 75 45
REMARK SMILES IDX 69 46 68 47 21 49 55 50 34 51 54 52 35 53 38 54 53 55 73 56
REMARK SMILES IDX 36 57 37 58 52 60 74 61 39 62 22 63 23 64 32 65 24 66 25 67
REMARK SMILES IDX 31 68 33 69 26 70 27 71 28 72 29 73 30 74 56 75 57 76 66 77
REMARK SMILES IDX 58 78 59 79 65 80 67 81 60 82 61 83 62 84 63 85 64 86 40 87
REMARK SMILES IDX 41 88 50 89 42 90 43 91 49 92 51 93 44 94 45 95 46 96 47 97
REMARK SMILES IDX 48 98
REMARK H PARENT 6 6 82 13 10 29 72 48 38 59
REMARK Flexibility Score: inf
ROOT
ATOM      1  C   UNL A   1      38.856  22.608  26.442  1.00  0.00     0.042 C 
ENDROOT
BRANCH   1   2
ATOM      2  C   UNL A   1      37.750  23.526  25.938  1.00  0.00     0.117 C 
BRANCH   2   3
ATOM      3  N   UNL A   1      37.443  23.345  24.526  1.00  0.00    -0.355 N 
ATOM      4  C   UNL A   1      36.315  22.973  23.859  1.00  0.00     0.231 C 
ATOM      5  O   UNL A   1      36.396  23.019  22.626  1.00  0.00    -0.274 OA
ATOM      6  H   UNL A   1      38.207  23.531  23.933  1.00  0.00     0.163 HD
BRANCH   4   7
ATOM      7  C   UNL A   1      35.002  22.540  24.571  1.00  0.00     0.098 C 
ATOM      8  C   UNL A   1      35.338  21.563  25.722  1.00  0.00     0.028 C 
ATOM      9  C   UNL A   1      34.274  23.828  25.042  1.00  0.00     0.279 C 
ATOM     10  C   UNL A   1      34.330  21.535  26.865  1.00  0.00     0.063 C 
ATOM     11  N   UNL A   1      33.234  23.574  26.049  1.00  0.00    -0.332 N 
ATOM     12  C   UNL A   1      33.814  22.922  27.230  1.00  0.00     0.262 C 
ATOM     13  H   UNL A   1      32.562  22.909  25.665  1.00  0.00     0.348 HD
BRANCH   7  14
ATOM     14  C   UNL A   1      34.111  21.813  23.498  1.00  0.00     0.019 C 
ATOM     15  C   UNL A   1      32.833  22.502  23.037  1.00  0.00     0.005 C 
ENDBRANCH   7  14
BRANCH  11  16
ATOM     16  C   UNL A   1      32.407  24.763  26.329  1.00  0.00     0.185 C 
ATOM     17  C   UNL A   1      31.076  24.820  25.561  1.00  0.00     0.065 C 
ATOM     18  C   UNL A   1      33.255  26.032  26.126  1.00  0.00     0.084 C 
ATOM     19  C   UNL A   1      30.319  26.110  25.851  1.00  0.00     0.007 C 
ATOM     20  C   UNL A   1      32.473  27.337  26.314  1.00  0.00     0.114 C 
ATOM     21  C   UNL A   1      31.169  27.329  25.515  1.00  0.00     0.020 C 
BRANCH  20  22
ATOM     22  S   UNL A   1      33.545  28.719  25.846  1.00  0.00     0.150 S 
ATOM     23  C   UNL A   1      32.548  30.171  26.059  1.00  0.00     0.158 C 
ATOM     24  O   UNL A   1      34.612  28.800  26.823  1.00  0.00    -0.229 OA
ATOM     25  O   UNL A   1      33.844  28.615  24.429  1.00  0.00    -0.229 OA
ENDBRANCH  20  22
ENDBRANCH  11  16
ENDBRANCH   4   7
ENDBRANCH   2   3
ENDBRANCH   1   2
BRANCH   1  26
ATOM     26  C   UNL A   1      40.019  23.324  27.107  1.00  0.00     0.118 C 
BRANCH  26  27
ATOM     27  N   UNL A   1      40.888  23.984  26.146  1.00  0.00    -0.352 N 
ATOM     28  C   UNL A   1      41.353  25.276  26.107  1.00  0.00     0.251 C 
ATOM     29  H   UNL A   1      41.194  23.413  25.405  1.00  0.00     0.163 HD
ATOM     30  O   UNL A   1      41.899  25.677  25.082  1.00  0.00    -0.269 OA
BRANCH  28  31
ATOM     31  C   UNL A   1      41.195  26.187  27.268  1.00  0.00     0.039 A 
ATOM     32  C   UNL A   1      40.142  25.965  28.161  1.00  0.00     0.014 A 
ATOM     33  C   UNL A   1      42.033  27.289  27.453  1.00  0.00     0.014 A 
ATOM     34  C   UNL A   1      39.952  26.825  29.246  1.00  0.00     0.010 A 
ATOM     35  C   UNL A   1      41.910  28.080  28.592  1.00  0.00     0.010 A 
ATOM     36  C   UNL A   1      40.847  27.880  29.483  1.00  0.00    -0.014 A 
BRANCH  36  37
ATOM     37  C   UNL A   1      40.648  28.828  30.611  1.00  0.00     0.031 A 
ATOM     38  C   UNL A   1      41.491  28.698  31.856  1.00  0.00     0.074 A 
ATOM     39  C   UNL A   1      39.691  29.774  30.539  1.00  0.00     0.049 A 
ATOM     40  N   UNL A   1      41.437  29.385  32.968  1.00  0.00    -0.248 NA
ATOM     41  C   UNL A   1      42.509  27.633  31.863  1.00  0.00     0.031 C 
ATOM     42  C   UNL A   1      38.783  29.975  29.409  1.00  0.00     0.029 A 
ATOM     43  N   UNL A   1      39.319  30.742  31.438  1.00  0.00    -0.354 N 
ATOM     44  C   UNL A   1      42.397  28.827  33.807  1.00  0.00     0.074 A 
ATOM     45  C   UNL A   1      42.971  27.703  33.102  1.00  0.00     0.031 C 
ATOM     46  C   UNL A   1      37.977  31.018  29.671  1.00  0.00     0.029 A 
ATOM     47  C   UNL A   1      38.282  31.534  31.001  1.00  0.00     0.049 A 
ATOM     48  H   UNL A   1      39.752  30.857  32.315  1.00  0.00     0.167 HD
ATOM     49  C   UNL A   1      42.787  29.230  35.039  1.00  0.00     0.037 A 
ATOM     50  C   UNL A   1      37.648  32.557  31.607  1.00  0.00     0.037 A 
ATOM     51  C   UNL A   1      42.229  30.368  35.724  1.00  0.00     0.049 A 
ATOM     52  C   UNL A   1      38.098  32.988  32.978  1.00  0.00     0.074 A 
ATOM     53  C   UNL A   1      42.588  30.893  36.952  1.00  0.00     0.029 A 
ATOM     54  N   UNL A   1      41.198  31.157  35.236  1.00  0.00    -0.354 N 
ATOM     55  N   UNL A   1      39.046  32.484  33.732  1.00  0.00    -0.248 NA
ATOM     56  C   UNL A   1      37.400  34.134  33.576  1.00  0.00     0.031 C 
ATOM     57  C   UNL A   1      41.739  31.967  37.233  1.00  0.00     0.029 A 
ATOM     58  C   UNL A   1      40.894  32.154  36.149  1.00  0.00     0.049 A 
ATOM     59  H   UNL A   1      40.748  31.029  34.371  1.00  0.00     0.167 HD
ATOM     60  C   UNL A   1      39.085  33.276  34.875  1.00  0.00     0.074 A 
ATOM     61  C   UNL A   1      38.070  34.297  34.708  1.00  0.00     0.031 C 
ATOM     62  C   UNL A   1      39.892  33.173  35.961  1.00  0.00     0.037 A 
BRANCH  49  63
ATOM     63  C   UNL A   1      43.868  28.439  35.726  1.00  0.00     0.058 A 
ATOM     64  C   UNL A   1      45.231  28.723  35.531  1.00  0.00     0.135 A 
ATOM     65  C   UNL A   1      43.541  27.404  36.617  1.00  0.00     0.135 A 
ATOM     66  F   UNL A   1      45.606  29.689  34.678  1.00  0.00    -0.206 F 
ATOM     67  C   UNL A   1      46.227  27.989  36.167  1.00  0.00     0.059 A 
ATOM     68  C   UNL A   1      44.520  26.679  37.291  1.00  0.00     0.059 A 
ATOM     69  F   UNL A   1      42.256  27.087  36.843  1.00  0.00    -0.206 F 
ATOM     70  C   UNL A   1      45.861  26.970  37.047  1.00  0.00     0.060 A 
BRANCH  70  71
ATOM     71  S   UNL A   1      47.167  26.034  37.870  1.00  0.00     0.124 S 
ATOM     72  O   UNL A   1      46.495  24.764  38.132  1.00  0.00    -0.237 OA
ATOM     73  O   UNL A   1      48.212  25.998  36.852  1.00  0.00    -0.237 OA
ATOM     74  O   UNL A   1      47.470  26.837  39.050  1.00  0.00    -0.744 OA
ENDBRANCH  70  71
ENDBRANCH  49  63
BRANCH  50  75
ATOM     75  C   UNL A   1      36.539  33.263  30.909  1.00  0.00     0.058 A 
ATOM     76  C   UNL A   1      36.791  34.112  29.822  1.00  0.00     0.135 A 
ATOM     77  C   UNL A   1      35.203  33.101  31.312  1.00  0.00     0.135 A 
ATOM     78  F   UNL A   1      38.051  34.306  29.401  1.00  0.00    -0.206 F 
ATOM     79  C   UNL A   1      35.766  34.792  29.172  1.00  0.00     0.059 A 
ATOM     80  C   UNL A   1      34.158  33.746  30.660  1.00  0.00     0.059 A 
ATOM     81  F   UNL A   1      34.904  32.286  32.336  1.00  0.00    -0.206 F 
ATOM     82  C   UNL A   1      34.451  34.600  29.597  1.00  0.00     0.060 A 
BRANCH  82  83
ATOM     83  S   UNL A   1      33.125  35.455  28.720  1.00  0.00     0.124 S 
ATOM     84  O   UNL A   1      33.868  36.456  27.963  1.00  0.00    -0.237 OA
ATOM     85  O   UNL A   1      32.529  34.376  27.939  1.00  0.00    -0.237 OA
ATOM     86  O   UNL A   1      32.288  35.972  29.799  1.00  0.00    -0.744 OA
ENDBRANCH  82  83
ENDBRANCH  50  75
BRANCH  62  87
ATOM     87  C   UNL A   1      39.755  34.223  37.031  1.00  0.00     0.058 A 
ATOM     88  C   UNL A   1      39.031  33.996  38.212  1.00  0.00     0.135 A 
ATOM     89  C   UNL A   1      40.404  35.461  36.889  1.00  0.00     0.135 A 
ATOM     90  F   UNL A   1      38.389  32.832  38.399  1.00  0.00    -0.206 F 
ATOM     91  C   UNL A   1      38.926  34.971  39.199  1.00  0.00     0.059 A 
ATOM     92  C   UNL A   1      40.341  36.438  37.877  1.00  0.00     0.059 A 
ATOM     93  F   UNL A   1      41.121  35.726  35.786  1.00  0.00    -0.206 F 
ATOM     94  C   UNL A   1      39.587  36.189  39.022  1.00  0.00     0.060 A 
BRANCH  94  95
ATOM     95  S   UNL A   1      39.462  37.438  40.319  1.00  0.00     0.124 S 
ATOM     96  O   UNL A   1      40.864  37.795  40.520  1.00  0.00    -0.237 OA
ATOM     97  O   UNL A   1      38.631  38.459  39.691  1.00  0.00    -0.237 OA
ATOM     98  O   UNL A   1      38.834  36.720  41.424  1.00  0.00    -0.744 OA
ENDBRANCH  94  95
ENDBRANCH  62  87
ENDBRANCH  36  37
ENDBRANCH  28  31
ENDBRANCH  26  27
ENDBRANCH   1  26
TORSDOF 16
ENDMDL
MODEL 2
REMARK VINA RESULT:     -12.0      6.678     12.148
REMARK SMILES CC[C@]1(C(=O)NCCCNC(=O)c2ccc(-c3c4nc(c(-c5c(F)cc(S(=O)(=O)[O-])cc5F)c5ccc([nH]5)c(-c5c(F)cc(S(=O)(=O)[O-])cc5F)c5nc(c(-c6c(F)cc(S(=O)(=O)[O-])cc6F)c6ccc3[nH]6)C=C5)C=C4)cc2)CCC[N@@H+]([C@@H]2CCC[C@H](S(C)(=O)=O)C2)C1
REMARK SMILES IDX 8 1 7 2 6 3 4 4 5 5 3 7 79 8 93 9 80 10 82 11 81 12 2 14
REMARK SMILES IDX 1 15 83 16 84 17 92 18 85 19 87 20 86 21 88 22 89 23 90 24
REMARK SMILES IDX 91 25 9 26 10 27 11 28 12 30 13 31 14 32 78 33 15 34 77 35
REMARK SMILES IDX 16 36 17 37 18 38 71 39 19 40 76 41 70 42 72 43 20 44 75 45
REMARK SMILES IDX 69 46 68 47 21 49 55 50 34 51 54 52 35 53 38 54 53 55 73 56
REMARK SMILES IDX 36 57 37 58 52 60 74 61 39 62 22 63 23 64 32 65 24 66 25 67
REMARK SMILES IDX 31 68 33 69 26 70 27 71 28 72 29 73 30 74 56 75 57 76 66 77
REMARK SMILES IDX 58 78 59 79 65 80 67 81 60 82 61 83 62 84 63 85 64 86 40 87
REMARK SMILES IDX 41 88 50 89 42 90 43 91 49 92 51 93 44 94 45 95 46 96 47 97
REMARK SMILES IDX 48 98
REMARK H PARENT 6 6 82 13 10 29 72 48 38 59
REMARK Flexibility Score: inf
ROOT
ATOM      1  C   UNL A   1      33.839  29.887  27.222  1.00  0.00     0.042 C 
ENDROOT
BRANCH   1   2
ATOM      2  C   UNL A   1      33.420  28.798  26.241  1.00  0.00     0.117 C 
BRANCH   2   3
ATOM      3  N   UNL A   1      34.012  28.948  24.919  1.00  0.00    -0.355 N 
ATOM      4  C   UNL A   1      33.784  28.337  23.722  1.00  0.00     0.231 C 
ATOM      5  O   UNL A   1      34.424  28.796  22.769  1.00  0.00    -0.274 OA
ATOM      6  H   UNL A   1      34.720  29.631  24.882  1.00  0.00     0.163 HD
BRANCH   4   7
ATOM      7  C   UNL A   1      32.780  27.164  23.536  1.00  0.00     0.098 C 
ATOM      8  C   UNL A   1      32.805  26.694  22.062  1.00  0.00     0.028 C 
ATOM      9  C   UNL A   1      33.162  26.051  24.549  1.00  0.00     0.279 C 
ATOM     10  C   UNL A   1      32.403  25.241  21.838  1.00  0.00     0.063 C 
ATOM     11  N   UNL A   1      32.558  24.748  24.237  1.00  0.00    -0.332 N 
ATOM     12  C   UNL A   1      32.966  24.302  22.899  1.00  0.00     0.262 C 
ATOM     13  H   UNL A   1      31.545  24.857  24.198  1.00  0.00     0.348 HD
BRANCH   7  14
ATOM     14  C   UNL A   1      31.352  27.716  23.895  1.00  0.00     0.019 C 
ATOM     15  C   UNL A   1      30.492  28.273  22.768  1.00  0.00     0.005 C 
ENDBRANCH   7  14
BRANCH  11  16
ATOM     16  C   UNL A   1      32.747  23.758  25.314  1.00  0.00     0.185 C 
ATOM     17  C   UNL A   1      34.007  23.968  26.171  1.00  0.00     0.065 C 
ATOM     18  C   UNL A   1      32.673  22.339  24.721  1.00  0.00     0.084 C 
ATOM     19  C   UNL A   1      34.166  22.865  27.211  1.00  0.00     0.007 C 
ATOM     20  C   UNL A   1      32.935  21.226  25.742  1.00  0.00     0.114 C 
ATOM     21  C   UNL A   1      34.206  21.493  26.548  1.00  0.00     0.020 C 
BRANCH  20  22
ATOM     22  S   UNL A   1      33.014  19.647  24.859  1.00  0.00     0.150 S 
ATOM     23  C   UNL A   1      32.398  19.994  23.231  1.00  0.00     0.158 C 
ATOM     24  O   UNL A   1      34.412  19.295  24.708  1.00  0.00    -0.229 OA
ATOM     25  O   UNL A   1      32.080  18.723  25.476  1.00  0.00    -0.229 OA
ENDBRANCH  20  22
ENDBRANCH  11  16
ENDBRANCH   4   7
ENDBRANCH   2   3
ENDBRANCH   1   2
BRANCH   1  26
ATOM     26  C   UNL A   1      35.186  29.657  27.884  1.00  0.00     0.118 C 
BRANCH  26  27
ATOM     27  N   UNL A   1      35.326  30.393  29.130  1.00  0.00    -0.352 N 
ATOM     28  C   UNL A   1      36.399  30.512  29.979  1.00  0.00     0.251 C 
ATOM     29  H   UNL A   1      34.522  30.887  29.410  1.00  0.00     0.163 HD
ATOM     30  O   UNL A   1      36.222  31.008  31.089  1.00  0.00    -0.269 OA
BRANCH  28  31
ATOM     31  C   UNL A   1      37.750  30.044  29.582  1.00  0.00     0.039 A 
ATOM     32  C   UNL A   1      38.644  29.642  30.581  1.00  0.00     0.014 A 
ATOM     33  C   UNL A   1      38.167  30.053  28.250  1.00  0.00     0.014 A 
ATOM     34  C   UNL A   1      39.933  29.225  30.238  1.00  0.00     0.010 A 
ATOM     35  C   UNL A   1      39.411  29.535  27.900  1.00  0.00     0.010 A 
ATOM     36  C   UNL A   1      40.323  29.150  28.892  1.00  0.00    -0.014 A 
BRANCH  36  37
ATOM     37  C   UNL A   1      41.699  28.740  28.504  1.00  0.00     0.031 A 
ATOM     38  C   UNL A   1      42.800  29.770  28.453  1.00  0.00     0.074 A 
ATOM     39  C   UNL A   1      41.952  27.462  28.161  1.00  0.00     0.049 A 
ATOM     40  N   UNL A   1      44.049  29.630  28.088  1.00  0.00    -0.248 NA
ATOM     41  C   UNL A   1      42.443  31.148  28.834  1.00  0.00     0.031 C 
ATOM     42  C   UNL A   1      40.964  26.382  28.129  1.00  0.00     0.029 A 
ATOM     43  N   UNL A   1      43.118  26.855  27.767  1.00  0.00    -0.354 N 
ATOM     44  C   UNL A   1      44.616  30.898  28.179  1.00  0.00     0.074 A 
ATOM     45  C   UNL A   1      43.561  31.805  28.568  1.00  0.00     0.031 C 
ATOM     46  C   UNL A   1      41.571  25.241  27.763  1.00  0.00     0.029 A 
ATOM     47  C   UNL A   1      42.979  25.514  27.496  1.00  0.00     0.049 A 
ATOM     48  H   UNL A   1      43.974  27.335  27.685  1.00  0.00     0.167 HD
ATOM     49  C   UNL A   1      45.903  31.268  27.985  1.00  0.00     0.037 A 
ATOM     50  C   UNL A   1      43.885  24.609  27.075  1.00  0.00     0.037 A 
ATOM     51  C   UNL A   1      46.955  30.353  27.625  1.00  0.00     0.049 A 
ATOM     52  C   UNL A   1      45.311  25.043  26.865  1.00  0.00     0.074 A 
ATOM     53  C   UNL A   1      48.303  30.615  27.455  1.00  0.00     0.029 A 
ATOM     54  N   UNL A   1      46.777  28.998  27.382  1.00  0.00    -0.354 N 
ATOM     55  N   UNL A   1      45.841  26.235  27.012  1.00  0.00    -0.248 NA
ATOM     56  C   UNL A   1      46.266  24.008  26.446  1.00  0.00     0.031 C 
ATOM     57  C   UNL A   1      48.932  29.431  27.058  1.00  0.00     0.029 A 
ATOM     58  C   UNL A   1      47.988  28.416  27.045  1.00  0.00     0.049 A 
ATOM     59  H   UNL A   1      45.919  28.522  27.441  1.00  0.00     0.167 HD
ATOM     60  C   UNL A   1      47.198  26.084  26.740  1.00  0.00     0.074 A 
ATOM     61  C   UNL A   1      47.406  24.684  26.430  1.00  0.00     0.031 C 
ATOM     62  C   UNL A   1      48.183  27.017  26.754  1.00  0.00     0.037 A 
BRANCH  49  63
ATOM     63  C   UNL A   1      46.248  32.723  28.162  1.00  0.00     0.058 A 
ATOM     64  C   UNL A   1      46.719  33.230  29.385  1.00  0.00     0.135 A 
ATOM     65  C   UNL A   1      46.140  33.619  27.086  1.00  0.00     0.135 A 
ATOM     66  F   UNL A   1      46.828  32.425  30.454  1.00  0.00    -0.206 F 
ATOM     67  C   UNL A   1      47.036  34.575  29.544  1.00  0.00     0.059 A 
ATOM     68  C   UNL A   1      46.484  34.962  27.212  1.00  0.00     0.059 A 
ATOM     69  F   UNL A   1      45.696  33.193  25.892  1.00  0.00    -0.206 F 
ATOM     70  C   UNL A   1      46.916  35.434  28.450  1.00  0.00     0.060 A 
BRANCH  70  71
ATOM     71  S   UNL A   1      47.340  37.174  28.673  1.00  0.00     0.124 S 
ATOM     72  O   UNL A   1      47.462  37.623  27.289  1.00  0.00    -0.237 OA
ATOM     73  O   UNL A   1      46.185  37.684  29.404  1.00  0.00    -0.237 OA
ATOM     74  O   UNL A   1      48.588  37.128  29.428  1.00  0.00    -0.744 OA
ENDBRANCH  70  71
ENDBRANCH  49  63
BRANCH  50  75
ATOM     75  C   UNL A   1      43.476  23.194  26.852  1.00  0.00     0.058 A 
ATOM     76  C   UNL A   1      43.378  22.664  25.557  1.00  0.00     0.135 A 
ATOM     77  C   UNL A   1      43.179  22.343  27.928  1.00  0.00     0.135 A 
ATOM     78  F   UNL A   1      43.646  23.439  24.494  1.00  0.00    -0.206 F 
ATOM     79  C   UNL A   1      42.980  21.350  25.333  1.00  0.00     0.059 A 
ATOM     80  C   UNL A   1      42.807  21.016  27.732  1.00  0.00     0.059 A 
ATOM     81  F   UNL A   1      43.274  22.794  29.189  1.00  0.00    -0.206 F 
ATOM     82  C   UNL A   1      42.699  20.532  26.429  1.00  0.00     0.060 A 
BRANCH  82  83
ATOM     83  S   UNL A   1      42.224  18.817  26.128  1.00  0.00     0.124 S 
ATOM     84  O   UNL A   1      43.148  18.436  25.066  1.00  0.00    -0.237 OA
ATOM     85  O   UNL A   1      42.458  18.202  27.430  1.00  0.00    -0.237 OA
ATOM     86  O   UNL A   1      40.821  18.922  25.737  1.00  0.00    -0.744 OA
ENDBRANCH  82  83
ENDBRANCH  50  75
BRANCH  62  87
ATOM     87  C   UNL A   1      49.587  26.549  26.483  1.00  0.00     0.058 A 
ATOM     88  C   UNL A   1      50.387  25.969  27.480  1.00  0.00     0.135 A 
ATOM     89  C   UNL A   1      50.121  26.641  25.187  1.00  0.00     0.135 A 
ATOM     90  F   UNL A   1      49.927  25.860  28.737  1.00  0.00    -0.206 F 
ATOM     91  C   UNL A   1      51.678  25.527  27.210  1.00  0.00     0.059 A 
ATOM     92  C   UNL A   1      51.397  26.175  24.886  1.00  0.00     0.059 A 
ATOM     93  F   UNL A   1      49.396  27.174  24.192  1.00  0.00    -0.206 F 
ATOM     94  C   UNL A   1      52.174  25.634  25.909  1.00  0.00     0.060 A 
BRANCH  94  95
ATOM     95  S   UNL A   1      53.842  25.036  25.566  1.00  0.00     0.124 S 
ATOM     96  O   UNL A   1      53.600  23.621  25.303  1.00  0.00    -0.237 OA
ATOM     97  O   UNL A   1      54.230  25.839  24.411  1.00  0.00    -0.237 OA
ATOM     98  O   UNL A   1      54.569  25.330  26.798  1.00  0.00    -0.744 OA
ENDBRANCH  94  95
ENDBRANCH  62  87
ENDBRANCH  36  37
ENDBRANCH  28  31
ENDBRANCH  26  27
ENDBRANCH   1  26
TORSDOF 16
ENDMDL
MODEL 3
REMARK VINA RESULT:     -11.9      6.562     12.015
REMARK SMILES CC[C@]1(C(=O)NCCCNC(=O)c2ccc(-c3c4nc(c(-c5c(F)cc(S(=O)(=O)[O-])cc5F)c5ccc([nH]5)c(-c5c(F)cc(S(=O)(=O)[O-])cc5F)c5nc(c(-c6c(F)cc(S(=O)(=O)[O-])cc6F)c6ccc3[nH]6)C=C5)C=C4)cc2)CCC[N@@H+]([C@@H]2CCC[C@H](S(C)(=O)=O)C2)C1
REMARK SMILES IDX 8 1 7 2 6 3 4 4 5 5 3 7 79 8 93 9 80 10 82 11 81 12 2 14
REMARK SMILES IDX 1 15 83 16 84 17 92 18 85 19 87 20 86 21 88 22 89 23 90 24
REMARK SMILES IDX 91 25 9 26 10 27 11 28 12 30 13 31 14 32 78 33 15 34 77 35
REMARK SMILES IDX 16 36 17 37 18 38 71 39 19 40 76 41 70 42 72 43 20 44 75 45
REMARK SMILES IDX 69 46 68 47 21 49 55 50 34 51 54 52 35 53 38 54 53 55 73 56
REMARK SMILES IDX 36 57 37 58 52 60 74 61 39 62 22 63 23 64 32 65 24 66 25 67
REMARK SMILES IDX 31 68 33 69 26 70 27 71 28 72 29 73 30 74 56 75 57 76 66 77
REMARK SMILES IDX 58 78 59 79 65 80 67 81 60 82 61 83 62 84 63 85 64 86 40 87
REMARK SMILES IDX 41 88 50 89 42 90 43 91 49 92 51 93 44 94 45 95 46 96 47 97
REMARK SMILES IDX 48 98
REMARK H PARENT 6 6 82 13 10 29 72 48 38 59
REMARK Flexibility Score: inf
ROOT
ATOM      1  C   UNL A   1      34.685  28.961  27.449  1.00  0.00     0.042 C 
ENDROOT
BRANCH   1   2
ATOM      2  C   UNL A   1      33.571  28.864  26.414  1.00  0.00     0.117 C 
BRANCH   2   3
ATOM      3  N   UNL A   1      34.032  29.056  25.046  1.00  0.00    -0.355 N 
ATOM      4  C   UNL A   1      33.658  28.514  23.853  1.00  0.00     0.231 C 
ATOM      5  O   UNL A   1      34.218  28.994  22.860  1.00  0.00    -0.274 OA
ATOM      6  H   UNL A   1      34.762  29.713  24.967  1.00  0.00     0.163 HD
BRANCH   4   7
ATOM      7  C   UNL A   1      32.592  27.390  23.719  1.00  0.00     0.098 C 
ATOM      8  C   UNL A   1      32.278  27.154  22.222  1.00  0.00     0.028 C 
ATOM      9  C   UNL A   1      33.139  26.131  24.445  1.00  0.00     0.279 C 
ATOM     10  C   UNL A   1      31.780  25.755  21.877  1.00  0.00     0.063 C 
ATOM     11  N   UNL A   1      32.431  24.896  24.081  1.00  0.00    -0.332 N 
ATOM     12  C   UNL A   1      32.521  24.660  22.635  1.00  0.00     0.262 C 
ATOM     13  H   UNL A   1      31.438  25.016  24.283  1.00  0.00     0.348 HD
BRANCH   7  14
ATOM     14  C   UNL A   1      31.299  27.888  24.462  1.00  0.00     0.019 C 
ATOM     15  C   UNL A   1      30.558  29.089  23.889  1.00  0.00     0.005 C 
ENDBRANCH   7  14
BRANCH  11  16
ATOM     16  C   UNL A   1      32.809  23.750  24.930  1.00  0.00     0.185 C 
ATOM     17  C   UNL A   1      32.643  23.982  26.441  1.00  0.00     0.065 C 
ATOM     18  C   UNL A   1      34.231  23.291  24.561  1.00  0.00     0.084 C 
ATOM     19  C   UNL A   1      33.123  22.781  27.247  1.00  0.00     0.007 C 
ATOM     20  C   UNL A   1      34.761  22.150  25.437  1.00  0.00     0.114 C 
ATOM     21  C   UNL A   1      34.575  22.452  26.924  1.00  0.00     0.020 C 
BRANCH  20  22
ATOM     22  S   UNL A   1      36.500  21.866  25.017  1.00  0.00     0.150 S 
ATOM     23  C   UNL A   1      36.722  22.621  23.427  1.00  0.00     0.158 C 
ATOM     24  O   UNL A   1      37.309  22.621  25.953  1.00  0.00    -0.229 OA
ATOM     25  O   UNL A   1      36.708  20.440  24.841  1.00  0.00    -0.229 OA
ENDBRANCH  20  22
ENDBRANCH  11  16
ENDBRANCH   4   7
ENDBRANCH   2   3
ENDBRANCH   1   2
BRANCH   1  26
ATOM     26  C   UNL A   1      35.238  30.360  27.655  1.00  0.00     0.118 C 
BRANCH  26  27
ATOM     27  N   UNL A   1      35.285  30.739  29.058  1.00  0.00    -0.352 N 
ATOM     28  C   UNL A   1      36.267  30.548  29.999  1.00  0.00     0.251 C 
ATOM     29  H   UNL A   1      34.485  31.210  29.386  1.00  0.00     0.163 HD
ATOM     30  O   UNL A   1      36.001  30.757  31.180  1.00  0.00    -0.269 OA
BRANCH  28  31
ATOM     31  C   UNL A   1      37.624  30.088  29.614  1.00  0.00     0.039 A 
ATOM     32  C   UNL A   1      38.495  29.647  30.616  1.00  0.00     0.014 A 
ATOM     33  C   UNL A   1      38.068  30.141  28.291  1.00  0.00     0.014 A 
ATOM     34  C   UNL A   1      39.789  29.236  30.286  1.00  0.00     0.010 A 
ATOM     35  C   UNL A   1      39.318  29.630  27.950  1.00  0.00     0.010 A 
ATOM     36  C   UNL A   1      40.207  29.205  28.946  1.00  0.00    -0.014 A 
BRANCH  36  37
ATOM     37  C   UNL A   1      41.589  28.803  28.573  1.00  0.00     0.031 A 
ATOM     38  C   UNL A   1      42.687  29.837  28.544  1.00  0.00     0.074 A 
ATOM     39  C   UNL A   1      41.850  27.528  28.223  1.00  0.00     0.049 A 
ATOM     40  N   UNL A   1      43.941  29.703  28.193  1.00  0.00    -0.248 NA
ATOM     41  C   UNL A   1      42.321  31.211  28.930  1.00  0.00     0.031 C 
ATOM     42  C   UNL A   1      40.866  26.446  28.170  1.00  0.00     0.029 A 
ATOM     43  N   UNL A   1      43.023  26.928  27.839  1.00  0.00    -0.354 N 
ATOM     44  C   UNL A   1      44.503  30.972  28.301  1.00  0.00     0.074 A 
ATOM     45  C   UNL A   1      43.441  31.873  28.684  1.00  0.00     0.031 C 
ATOM     46  C   UNL A   1      41.481  25.309  27.803  1.00  0.00     0.029 A 
ATOM     47  C   UNL A   1      42.892  25.588  27.556  1.00  0.00     0.049 A 
ATOM     48  H   UNL A   1      43.879  27.411  27.772  1.00  0.00     0.167 HD
ATOM     49  C   UNL A   1      45.792  31.347  28.127  1.00  0.00     0.037 A 
ATOM     50  C   UNL A   1      43.805  24.689  27.139  1.00  0.00     0.037 A 
ATOM     51  C   UNL A   1      46.851  30.438  27.773  1.00  0.00     0.049 A 
ATOM     52  C   UNL A   1      45.233  25.129  26.951  1.00  0.00     0.074 A 
ATOM     53  C   UNL A   1      48.200  30.705  27.622  1.00  0.00     0.029 A 
ATOM     54  N   UNL A   1      46.680  29.084  27.517  1.00  0.00    -0.354 N 
ATOM     55  N   UNL A   1      45.757  26.321  27.113  1.00  0.00    -0.248 NA
ATOM     56  C   UNL A   1      46.196  24.100  26.536  1.00  0.00     0.031 C 
ATOM     57  C   UNL A   1      48.838  29.526  27.224  1.00  0.00     0.029 A 
ATOM     58  C   UNL A   1      47.897  28.508  27.191  1.00  0.00     0.049 A 
ATOM     59  H   UNL A   1      45.822  28.605  27.561  1.00  0.00     0.167 HD
ATOM     60  C   UNL A   1      47.117  26.176  26.858  1.00  0.00     0.074 A 
ATOM     61  C   UNL A   1      47.334  24.780  26.539  1.00  0.00     0.031 C 
ATOM     62  C   UNL A   1      48.099  27.112  26.892  1.00  0.00     0.037 A 
BRANCH  49  63
ATOM     63  C   UNL A   1      46.130  32.802  28.319  1.00  0.00     0.058 A 
ATOM     64  C   UNL A   1      46.529  33.311  29.566  1.00  0.00     0.135 A 
ATOM     65  C   UNL A   1      46.089  33.695  27.235  1.00  0.00     0.135 A 
ATOM     66  F   UNL A   1      46.571  32.510  30.643  1.00  0.00    -0.206 F 
ATOM     67  C   UNL A   1      46.840  34.655  29.740  1.00  0.00     0.059 A 
ATOM     68  C   UNL A   1      46.429  35.037  27.378  1.00  0.00     0.059 A 
ATOM     69  F   UNL A   1      45.715  33.265  26.019  1.00  0.00    -0.206 F 
ATOM     70  C   UNL A   1      46.789  35.511  28.638  1.00  0.00     0.060 A 
BRANCH  70  71
ATOM     71  S   UNL A   1      47.203  37.251  28.880  1.00  0.00     0.124 S 
ATOM     72  O   UNL A   1      46.892  37.430  30.295  1.00  0.00    -0.237 OA
ATOM     73  O   UNL A   1      48.621  37.283  28.535  1.00  0.00    -0.237 OA
ATOM     74  O   UNL A   1      46.317  37.945  27.951  1.00  0.00    -0.744 OA
ENDBRANCH  70  71
ENDBRANCH  49  63
BRANCH  50  75
ATOM     75  C   UNL A   1      43.403  23.276  26.900  1.00  0.00     0.058 A 
ATOM     76  C   UNL A   1      43.129  22.409  27.967  1.00  0.00     0.135 A 
ATOM     77  C   UNL A   1      43.281  22.763  25.598  1.00  0.00     0.135 A 
ATOM     78  F   UNL A   1      43.237  22.849  29.232  1.00  0.00    -0.206 F 
ATOM     79  C   UNL A   1      42.770  21.082  27.759  1.00  0.00     0.059 A 
ATOM     80  C   UNL A   1      42.893  21.448  25.362  1.00  0.00     0.059 A 
ATOM     81  F   UNL A   1      43.514  23.554  24.538  1.00  0.00    -0.206 F 
ATOM     82  C   UNL A   1      42.651  20.611  26.450  1.00  0.00     0.060 A 
BRANCH  82  83
ATOM     83  S   UNL A   1      42.144  18.898  26.190  1.00  0.00     0.124 S 
ATOM     84  O   UNL A   1      42.340  18.327  27.518  1.00  0.00    -0.237 OA
ATOM     85  O   UNL A   1      40.759  19.051  25.759  1.00  0.00    -0.237 OA
ATOM     86  O   UNL A   1      43.064  18.428  25.159  1.00  0.00    -0.744 OA
ENDBRANCH  82  83
ENDBRANCH  50  75
BRANCH  62  87
ATOM     87  C   UNL A   1      49.509  26.651  26.634  1.00  0.00     0.058 A 
ATOM     88  C   UNL A   1      50.342  26.185  27.664  1.00  0.00     0.135 A 
ATOM     89  C   UNL A   1      50.014  26.629  25.324  1.00  0.00     0.135 A 
ATOM     90  F   UNL A   1      49.911  26.187  28.935  1.00  0.00    -0.206 F 
ATOM     91  C   UNL A   1      51.637  25.748  27.408  1.00  0.00     0.059 A 
ATOM     92  C   UNL A   1      51.294  26.164  25.040  1.00  0.00     0.059 A 
ATOM     93  F   UNL A   1      49.256  27.049  24.299  1.00  0.00    -0.206 F 
ATOM     94  C   UNL A   1      52.104  25.740  26.092  1.00  0.00     0.060 A 
BRANCH  94  95
ATOM     95  S   UNL A   1      53.778  25.148  25.771  1.00  0.00     0.124 S 
ATOM     96  O   UNL A   1      54.205  26.041  24.697  1.00  0.00    -0.237 OA
ATOM     97  O   UNL A   1      54.432  25.348  27.060  1.00  0.00    -0.237 OA
ATOM     98  O   UNL A   1      53.579  23.754  25.384  1.00  0.00    -0.744 OA
ENDBRANCH  94  95
ENDBRANCH  62  87
ENDBRANCH  36  37
ENDBRANCH  28  31
ENDBRANCH  26  27
ENDBRANCH   1  26
TORSDOF 16
ENDMDL
