MODEL 1
REMARK VINA RESULT:     -12.1      0.000      0.000
REMARK SMILES Cc1c(Br)c(C)c2c(c1Br)O[C@H](C(F)(F)F)C(C(=O)NCCCNC(=O)c1ccc(-c3c4nc(c(-c5c(F)cc(S(=O)(=O)[O-])cc5F)c5ccc([nH]5)c(-c5c(F)cc(S(=O)(=O)[O-])cc5F)c5nc(c(-c6c(F)cc(S(=O)(=O)[O-])cc6F)c6ccc3[nH]6)C=C5)C=C4)cc1)=C2
REMARK SMILES IDX 23 1 22 2 21 3 20 4 18 5 19 6 17 8 1 9 2 10 3 11 9 12 4 13
REMARK SMILES IDX 5 14 8 15 10 16 6 17 7 18 11 19 93 20 12 21 13 22 14 23
REMARK SMILES IDX 15 24 16 25 24 26 25 27 26 29 27 30 28 31 92 32 29 33 91 34
REMARK SMILES IDX 30 35 31 36 32 37 85 38 33 39 90 40 84 41 86 42 34 43 89 44
REMARK SMILES IDX 83 45 82 46 35 48 69 49 48 50 68 51 49 52 52 53 67 54 87 55
REMARK SMILES IDX 50 56 51 57 66 59 88 60 53 61 36 62 37 63 46 64 38 65 39 66
REMARK SMILES IDX 45 67 47 68 40 69 41 70 42 71 43 72 44 73 70 74 71 75 80 76
REMARK SMILES IDX 72 77 73 78 79 79 81 80 74 81 75 82 76 83 77 84 78 85 54 86
REMARK SMILES IDX 55 87 64 88 56 89 57 90 63 91 65 92 58 93 59 94 60 95 61 96
REMARK SMILES IDX 62 97
REMARK H PARENT 20 7 24 28 86 47 52 58
REMARK Flexibility Score: inf
ROOT
ATOM      1  C   UNL A   1      34.075  28.341  26.162  1.00  0.00     0.118 C 
ENDROOT
BRANCH   1   2
ATOM      2  C   UNL A   1      33.939  28.352  24.645  1.00  0.00     0.042 C 
BRANCH   2   3
ATOM      3  C   UNL A   1      32.910  27.345  24.157  1.00  0.00     0.118 C 
BRANCH   3   4
ATOM      4  N   UNL A   1      32.019  26.915  25.225  1.00  0.00    -0.352 N 
ATOM      5  C   UNL A   1      31.724  25.760  25.866  1.00  0.00     0.251 C 
ATOM      6  O   UNL A   1      30.876  25.853  26.759  1.00  0.00    -0.270 OA
ATOM      7  H   UNL A   1      31.487  27.666  25.574  1.00  0.00     0.163 HD
BRANCH   5   8
ATOM      8  C   UNL A   1      32.349  24.438  25.576  1.00  0.00     0.067 C 
ATOM      9  C   UNL A   1      36.218  19.200  24.796  1.00  0.00     0.047 C 
ATOM     10  C   UNL A   1      35.579  20.540  25.075  1.00  0.00    -0.019 A 
ATOM     11  C   UNL A   1      36.365  21.685  25.376  1.00  0.00     0.025 A 
ATOM     12  C   UNL A   1      34.185  20.701  24.987  1.00  0.00     0.064 A 
ATOM     13  Br  UNL A   1      38.278  21.510  25.376  1.00  0.00    -0.050 Br
ATOM     14  C   UNL A   1      35.773  22.947  25.646  1.00  0.00    -0.026 A 
ATOM     15  C   UNL A   1      33.590  21.944  25.247  1.00  0.00     0.142 A 
ATOM     16  Br  UNL A   1      33.043  19.257  24.453  1.00  0.00    -0.046 Br
ATOM     17  C   UNL A   1      36.589  24.173  25.993  1.00  0.00     0.046 C 
ATOM     18  C   UNL A   1      34.363  23.062  25.586  1.00  0.00     0.022 A 
ATOM     19  O   UNL A   1      32.222  22.002  25.208  1.00  0.00    -0.474 OA
ATOM     20  C   UNL A   1      33.653  24.316  25.881  1.00  0.00     0.026 C 
ATOM     21  C   UNL A   1      31.621  23.290  24.953  1.00  0.00     0.314 C 
BRANCH  21  22
ATOM     22  C   UNL A   1      31.399  23.474  23.439  1.00  0.00     0.429 C 
ATOM     23  F   UNL A   1      30.178  24.011  23.197  1.00  0.00    -0.167 F 
ATOM     24  F   UNL A   1      32.305  24.310  22.878  1.00  0.00    -0.167 F 
ATOM     25  F   UNL A   1      31.474  22.308  22.757  1.00  0.00    -0.167 F 
ENDBRANCH  21  22
ENDBRANCH   5   8
ENDBRANCH   3   4
ENDBRANCH   2   3
ENDBRANCH   1   2
BRANCH   1  26
ATOM     26  N   UNL A   1      33.746  29.642  26.741  1.00  0.00    -0.352 N 
ATOM     27  C   UNL A   1      34.396  30.368  27.706  1.00  0.00     0.251 C 
ATOM     28  H   UNL A   1      32.931  30.062  26.383  1.00  0.00     0.163 HD
ATOM     29  O   UNL A   1      33.809  31.290  28.272  1.00  0.00    -0.269 OA
BRANCH  27  30
ATOM     30  C   UNL A   1      35.790  30.045  28.058  1.00  0.00     0.039 A 
ATOM     31  C   UNL A   1      36.081  29.527  29.322  1.00  0.00     0.014 A 
ATOM     32  C   UNL A   1      36.816  30.278  27.139  1.00  0.00     0.014 A 
ATOM     33  C   UNL A   1      37.398  29.187  29.638  1.00  0.00     0.010 A 
ATOM     34  C   UNL A   1      38.103  29.843  27.414  1.00  0.00     0.010 A 
ATOM     35  C   UNL A   1      38.411  29.314  28.673  1.00  0.00    -0.014 A 
BRANCH  35  36
ATOM     36  C   UNL A   1      39.814  28.936  28.967  1.00  0.00     0.031 A 
ATOM     37  C   UNL A   1      40.737  29.940  29.599  1.00  0.00     0.074 A 
ATOM     38  C   UNL A   1      40.264  27.719  28.607  1.00  0.00     0.049 A 
ATOM     39  N   UNL A   1      42.011  29.830  29.873  1.00  0.00    -0.248 NA
ATOM     40  C   UNL A   1      40.163  31.253  29.937  1.00  0.00     0.031 C 
ATOM     41  C   UNL A   1      39.467  26.684  27.946  1.00  0.00     0.029 A 
ATOM     42  N   UNL A   1      41.502  27.147  28.745  1.00  0.00    -0.354 N 
ATOM     43  C   UNL A   1      42.388  31.058  30.404  1.00  0.00     0.074 A 
ATOM     44  C   UNL A   1      41.230  31.920  30.346  1.00  0.00     0.031 C 
ATOM     45  C   UNL A   1      40.226  25.590  27.771  1.00  0.00     0.029 A 
ATOM     46  C   UNL A   1      41.571  25.859  28.268  1.00  0.00     0.049 A 
ATOM     47  H   UNL A   1      42.270  27.614  29.147  1.00  0.00     0.167 HD
ATOM     48  C   UNL A   1      43.582  31.422  30.928  1.00  0.00     0.037 A 
ATOM     49  C   UNL A   1      42.603  24.995  28.239  1.00  0.00     0.037 A 
ATOM     50  C   UNL A   1      44.719  30.544  31.003  1.00  0.00     0.049 A 
ATOM     51  C   UNL A   1      43.927  25.422  28.811  1.00  0.00     0.074 A 
ATOM     52  C   UNL A   1      45.961  30.792  31.557  1.00  0.00     0.029 A 
ATOM     53  N   UNL A   1      44.752  29.247  30.507  1.00  0.00    -0.354 N 
ATOM     54  N   UNL A   1      44.253  26.569  29.360  1.00  0.00    -0.248 NA
ATOM     55  C   UNL A   1      45.021  24.444  28.761  1.00  0.00     0.031 C 
ATOM     56  C   UNL A   1      46.761  29.662  31.353  1.00  0.00     0.029 A 
ATOM     57  C   UNL A   1      46.001  28.690  30.719  1.00  0.00     0.049 A 
ATOM     58  H   UNL A   1      43.997  28.792  30.069  1.00  0.00     0.167 HD
ATOM     59  C   UNL A   1      45.586  26.445  29.737  1.00  0.00     0.074 A 
ATOM     60  C   UNL A   1      45.998  25.106  29.367  1.00  0.00     0.031 C 
ATOM     61  C   UNL A   1      46.393  27.356  30.335  1.00  0.00     0.037 A 
BRANCH  48  62
ATOM     62  C   UNL A   1      43.707  32.821  31.466  1.00  0.00     0.058 A 
ATOM     63  C   UNL A   1      44.111  33.890  30.650  1.00  0.00     0.135 A 
ATOM     64  C   UNL A   1      43.406  33.102  32.809  1.00  0.00     0.135 A 
ATOM     65  F   UNL A   1      44.429  33.676  29.363  1.00  0.00    -0.206 F 
ATOM     66  C   UNL A   1      44.251  35.179  31.154  1.00  0.00     0.059 A 
ATOM     67  C   UNL A   1      43.507  34.390  33.327  1.00  0.00     0.059 A 
ATOM     68  F   UNL A   1      43.017  32.118  33.636  1.00  0.00    -0.206 F 
ATOM     69  C   UNL A   1      43.946  35.419  32.494  1.00  0.00     0.060 A 
BRANCH  69  70
ATOM     70  S   UNL A   1      44.142  37.097  33.130  1.00  0.00     0.124 S 
ATOM     71  O   UNL A   1      42.871  37.296  33.822  1.00  0.00    -0.237 OA
ATOM     72  O   UNL A   1      45.316  36.968  33.988  1.00  0.00    -0.237 OA
ATOM     73  O   UNL A   1      44.332  37.898  31.926  1.00  0.00    -0.744 OA
ENDBRANCH  69  70
ENDBRANCH  48  62
BRANCH  49  74
ATOM     74  C   UNL A   1      42.397  23.629  27.690  1.00  0.00     0.058 A 
ATOM     75  C   UNL A   1      42.465  23.394  26.309  1.00  0.00     0.135 A 
ATOM     76  C   UNL A   1      42.201  22.523  28.533  1.00  0.00     0.135 A 
ATOM     77  F   UNL A   1      42.644  24.420  25.462  1.00  0.00    -0.206 F 
ATOM     78  C   UNL A   1      42.354  22.112  25.780  1.00  0.00     0.059 A 
ATOM     79  C   UNL A   1      42.109  21.228  28.029  1.00  0.00     0.059 A 
ATOM     80  F   UNL A   1      42.145  22.692  29.862  1.00  0.00    -0.206 F 
ATOM     81  C   UNL A   1      42.188  21.033  26.651  1.00  0.00     0.060 A 
BRANCH  81  82
ATOM     82  S   UNL A   1      42.136  19.366  25.957  1.00  0.00     0.124 S 
ATOM     83  O   UNL A   1      42.962  19.517  24.765  1.00  0.00    -0.237 OA
ATOM     84  O   UNL A   1      42.712  18.571  27.036  1.00  0.00    -0.237 OA
ATOM     85  O   UNL A   1      40.713  19.147  25.714  1.00  0.00    -0.744 OA
ENDBRANCH  81  82
ENDBRANCH  49  74
BRANCH  61  86
ATOM     86  C   UNL A   1      47.806  26.941  30.634  1.00  0.00     0.058 A 
ATOM     87  C   UNL A   1      48.863  27.269  29.772  1.00  0.00     0.135 A 
ATOM     88  C   UNL A   1      48.117  26.285  31.836  1.00  0.00     0.135 A 
ATOM     89  F   UNL A   1      48.618  27.891  28.608  1.00  0.00    -0.206 F 
ATOM     90  C   UNL A   1      50.179  26.950  30.085  1.00  0.00     0.059 A 
ATOM     91  C   UNL A   1      49.429  25.982  32.183  1.00  0.00     0.059 A 
ATOM     92  F   UNL A   1      47.144  25.960  32.702  1.00  0.00    -0.206 F 
ATOM     93  C   UNL A   1      50.454  26.313  31.298  1.00  0.00     0.060 A 
BRANCH  93  94
ATOM     94  S   UNL A   1      52.173  25.952  31.710  1.00  0.00     0.124 S 
ATOM     95  O   UNL A   1      52.836  26.174  30.430  1.00  0.00    -0.237 OA
ATOM     96  O   UNL A   1      52.455  26.936  32.750  1.00  0.00    -0.237 OA
ATOM     97  O   UNL A   1      52.132  24.564  32.162  1.00  0.00    -0.744 OA
ENDBRANCH  93  94
ENDBRANCH  61  86
ENDBRANCH  35  36
ENDBRANCH  27  30
ENDBRANCH   1  26
TORSDOF 14
ENDMDL
MODEL 2
REMARK VINA RESULT:     -11.8      3.223      9.287
REMARK SMILES Cc1c(Br)c(C)c2c(c1Br)O[C@H](C(F)(F)F)C(C(=O)NCCCNC(=O)c1ccc(-c3c4nc(c(-c5c(F)cc(S(=O)(=O)[O-])cc5F)c5ccc([nH]5)c(-c5c(F)cc(S(=O)(=O)[O-])cc5F)c5nc(c(-c6c(F)cc(S(=O)(=O)[O-])cc6F)c6ccc3[nH]6)C=C5)C=C4)cc1)=C2
REMARK SMILES IDX 23 1 22 2 21 3 20 4 18 5 19 6 17 8 1 9 2 10 3 11 9 12 4 13
REMARK SMILES IDX 5 14 8 15 10 16 6 17 7 18 11 19 93 20 12 21 13 22 14 23
REMARK SMILES IDX 15 24 16 25 24 26 25 27 26 29 27 30 28 31 92 32 29 33 91 34
REMARK SMILES IDX 30 35 31 36 32 37 85 38 33 39 90 40 84 41 86 42 34 43 89 44
REMARK SMILES IDX 83 45 82 46 35 48 69 49 48 50 68 51 49 52 52 53 67 54 87 55
REMARK SMILES IDX 50 56 51 57 66 59 88 60 53 61 36 62 37 63 46 64 38 65 39 66
REMARK SMILES IDX 45 67 47 68 40 69 41 70 42 71 43 72 44 73 70 74 71 75 80 76
REMARK SMILES IDX 72 77 73 78 79 79 81 80 74 81 75 82 76 83 77 84 78 85 54 86
REMARK SMILES IDX 55 87 64 88 56 89 57 90 63 91 65 92 58 93 59 94 60 95 61 96
REMARK SMILES IDX 62 97
REMARK H PARENT 20 7 24 28 86 47 52 58
REMARK Flexibility Score: inf
ROOT
ATOM      1  C   UNL A   1      36.292  24.014  25.403  1.00  0.00     0.118 C 
ENDROOT
BRANCH   1   2
ATOM      2  C   UNL A   1      35.046  23.844  26.263  1.00  0.00     0.042 C 
BRANCH   2   3
ATOM      3  C   UNL A   1      33.908  23.190  25.496  1.00  0.00     0.118 C 
BRANCH   3   4
ATOM      4  N   UNL A   1      34.038  23.383  24.059  1.00  0.00    -0.352 N 
ATOM      5  C   UNL A   1      33.674  24.314  23.147  1.00  0.00     0.251 C 
ATOM      6  O   UNL A   1      34.011  24.075  21.983  1.00  0.00    -0.270 OA
ATOM      7  H   UNL A   1      34.518  22.635  23.637  1.00  0.00     0.163 HD
BRANCH   5   8
ATOM      8  C   UNL A   1      32.929  25.569  23.456  1.00  0.00     0.067 C 
ATOM      9  C   UNL A   1      30.760  31.397  25.539  1.00  0.00     0.047 C 
ATOM     10  C   UNL A   1      31.501  30.118  25.229  1.00  0.00    -0.019 A 
ATOM     11  C   UNL A   1      32.665  29.745  25.953  1.00  0.00     0.025 A 
ATOM     12  C   UNL A   1      31.021  29.232  24.249  1.00  0.00     0.064 A 
ATOM     13  Br  UNL A   1      33.262  30.884  27.380  1.00  0.00    -0.050 Br
ATOM     14  C   UNL A   1      33.372  28.548  25.665  1.00  0.00    -0.026 A 
ATOM     15  C   UNL A   1      31.708  28.044  23.960  1.00  0.00     0.142 A 
ATOM     16  Br  UNL A   1      29.384  29.568  23.309  1.00  0.00    -0.046 Br
ATOM     17  C   UNL A   1      34.627  28.144  26.407  1.00  0.00     0.046 C 
ATOM     18  C   UNL A   1      32.881  27.698  24.645  1.00  0.00     0.022 A 
ATOM     19  O   UNL A   1      31.215  27.267  22.945  1.00  0.00    -0.474 OA
ATOM     20  C   UNL A   1      33.558  26.454  24.250  1.00  0.00     0.026 C 
ATOM     21  C   UNL A   1      31.549  25.863  22.964  1.00  0.00     0.314 C 
BRANCH  21  22
ATOM     22  C   UNL A   1      30.463  25.076  23.724  1.00  0.00     0.429 C 
ATOM     23  F   UNL A   1      29.285  25.745  23.701  1.00  0.00    -0.167 F 
ATOM     24  F   UNL A   1      30.225  23.858  23.181  1.00  0.00    -0.167 F 
ATOM     25  F   UNL A   1      30.787  24.865  25.021  1.00  0.00    -0.167 F 
ENDBRANCH  21  22
ENDBRANCH   5   8
ENDBRANCH   3   4
ENDBRANCH   2   3
ENDBRANCH   1   2
BRANCH   1  26
ATOM     26  N   UNL A   1      37.226  22.904  25.584  1.00  0.00    -0.352 N 
ATOM     27  C   UNL A   1      38.525  22.907  26.024  1.00  0.00     0.251 C 
ATOM     28  H   UNL A   1      36.867  22.018  25.354  1.00  0.00     0.163 HD
ATOM     29  O   UNL A   1      39.237  21.924  25.824  1.00  0.00    -0.269 OA
BRANCH  27  30
ATOM     30  C   UNL A   1      39.060  24.083  26.735  1.00  0.00     0.039 A 
ATOM     31  C   UNL A   1      39.858  25.001  26.048  1.00  0.00     0.014 A 
ATOM     32  C   UNL A   1      38.788  24.262  28.093  1.00  0.00     0.014 A 
ATOM     33  C   UNL A   1      40.331  26.132  26.716  1.00  0.00     0.010 A 
ATOM     34  C   UNL A   1      39.169  25.436  28.725  1.00  0.00     0.010 A 
ATOM     35  C   UNL A   1      39.962  26.372  28.050  1.00  0.00    -0.014 A 
BRANCH  35  36
ATOM     36  C   UNL A   1      40.425  27.577  28.778  1.00  0.00     0.031 A 
ATOM     37  C   UNL A   1      41.803  27.599  29.378  1.00  0.00     0.074 A 
ATOM     38  C   UNL A   1      39.584  28.614  28.951  1.00  0.00     0.049 A 
ATOM     39  N   UNL A   1      42.370  28.525  30.107  1.00  0.00    -0.248 NA
ATOM     40  C   UNL A   1      42.645  26.411  29.158  1.00  0.00     0.031 C 
ATOM     41  C   UNL A   1      38.208  28.679  28.451  1.00  0.00     0.029 A 
ATOM     42  N   UNL A   1      39.760  29.811  29.594  1.00  0.00    -0.354 N 
ATOM     43  C   UNL A   1      43.624  28.026  30.438  1.00  0.00     0.074 A 
ATOM     44  C   UNL A   1      43.708  26.690  29.895  1.00  0.00     0.031 C 
ATOM     45  C   UNL A   1      37.680  29.870  28.774  1.00  0.00     0.029 A 
ATOM     46  C   UNL A   1      38.661  30.635  29.536  1.00  0.00     0.049 A 
ATOM     47  H   UNL A   1      40.595  30.058  30.054  1.00  0.00     0.167 HD
ATOM     48  C   UNL A   1      44.630  28.642  31.104  1.00  0.00     0.037 A 
ATOM     49  C   UNL A   1      38.470  31.869  30.041  1.00  0.00     0.037 A 
ATOM     50  C   UNL A   1      44.542  29.982  31.618  1.00  0.00     0.049 A 
ATOM     51  C   UNL A   1      39.593  32.531  30.791  1.00  0.00     0.074 A 
ATOM     52  C   UNL A   1      45.515  30.721  32.264  1.00  0.00     0.029 A 
ATOM     53  N   UNL A   1      43.411  30.785  31.543  1.00  0.00    -0.354 N 
ATOM     54  N   UNL A   1      40.794  32.068  31.049  1.00  0.00    -0.248 NA
ATOM     55  C   UNL A   1      39.339  33.878  31.318  1.00  0.00     0.031 C 
ATOM     56  C   UNL A   1      44.958  31.954  32.623  1.00  0.00     0.029 A 
ATOM     57  C   UNL A   1      43.654  32.003  32.154  1.00  0.00     0.049 A 
ATOM     58  H   UNL A   1      42.562  30.525  31.117  1.00  0.00     0.167 HD
ATOM     59  C   UNL A   1      41.446  33.073  31.755  1.00  0.00     0.074 A 
ATOM     60  C   UNL A   1      40.510  34.174  31.868  1.00  0.00     0.031 C 
ATOM     61  C   UNL A   1      42.703  33.084  32.261  1.00  0.00     0.037 A 
BRANCH  48  62
ATOM     62  C   UNL A   1      45.907  27.871  31.299  1.00  0.00     0.058 A 
ATOM     63  C   UNL A   1      46.096  27.028  32.407  1.00  0.00     0.135 A 
ATOM     64  C   UNL A   1      46.950  27.963  30.364  1.00  0.00     0.135 A 
ATOM     65  F   UNL A   1      45.139  26.916  33.342  1.00  0.00    -0.206 F 
ATOM     66  C   UNL A   1      47.286  26.335  32.601  1.00  0.00     0.059 A 
ATOM     67  C   UNL A   1      48.138  27.253  30.520  1.00  0.00     0.059 A 
ATOM     68  F   UNL A   1      46.826  28.755  29.287  1.00  0.00    -0.206 F 
ATOM     69  C   UNL A   1      48.301  26.454  31.652  1.00  0.00     0.060 A 
BRANCH  69  70
ATOM     70  S   UNL A   1      49.841  25.553  31.926  1.00  0.00     0.124 S 
ATOM     71  O   UNL A   1      50.738  26.629  32.339  1.00  0.00    -0.237 OA
ATOM     72  O   UNL A   1      49.464  24.607  32.971  1.00  0.00    -0.237 OA
ATOM     73  O   UNL A   1      50.128  24.964  30.623  1.00  0.00    -0.744 OA
ENDBRANCH  69  70
ENDBRANCH  48  62
BRANCH  49  74
ATOM     74  C   UNL A   1      37.177  32.564  29.803  1.00  0.00     0.058 A 
ATOM     75  C   UNL A   1      36.059  32.290  30.603  1.00  0.00     0.135 A 
ATOM     76  C   UNL A   1      37.052  33.563  28.824  1.00  0.00     0.135 A 
ATOM     77  F   UNL A   1      36.126  31.339  31.547  1.00  0.00    -0.206 F 
ATOM     78  C   UNL A   1      34.863  32.985  30.448  1.00  0.00     0.059 A 
ATOM     79  C   UNL A   1      35.874  34.287  28.666  1.00  0.00     0.059 A 
ATOM     80  F   UNL A   1      38.098  33.875  28.044  1.00  0.00    -0.206 F 
ATOM     81  C   UNL A   1      34.785  33.991  29.484  1.00  0.00     0.060 A 
BRANCH  81  82
ATOM     82  S   UNL A   1      33.257  34.946  29.357  1.00  0.00     0.124 S 
ATOM     83  O   UNL A   1      32.756  34.884  30.725  1.00  0.00    -0.237 OA
ATOM     84  O   UNL A   1      33.748  36.246  28.914  1.00  0.00    -0.237 OA
ATOM     85  O   UNL A   1      32.480  34.205  28.367  1.00  0.00    -0.744 OA
ENDBRANCH  81  82
ENDBRANCH  49  74
BRANCH  61  86
ATOM     86  C   UNL A   1      43.151  34.324  32.983  1.00  0.00     0.058 A 
ATOM     87  C   UNL A   1      43.715  35.408  32.294  1.00  0.00     0.135 A 
ATOM     88  C   UNL A   1      42.935  34.463  34.364  1.00  0.00     0.135 A 
ATOM     89  F   UNL A   1      43.947  35.324  30.975  1.00  0.00    -0.206 F 
ATOM     90  C   UNL A   1      44.060  36.584  32.951  1.00  0.00     0.059 A 
ATOM     91  C   UNL A   1      43.247  35.639  35.036  1.00  0.00     0.059 A 
ATOM     92  F   UNL A   1      42.387  33.459  35.068  1.00  0.00    -0.206 F 
ATOM     93  C   UNL A   1      43.815  36.693  34.322  1.00  0.00     0.060 A 
BRANCH  93  94
ATOM     94  S   UNL A   1      44.224  38.245  35.148  1.00  0.00     0.124 S 
ATOM     95  O   UNL A   1      43.752  37.990  36.504  1.00  0.00    -0.237 OA
ATOM     96  O   UNL A   1      45.673  38.311  34.982  1.00  0.00    -0.237 OA
ATOM     97  O   UNL A   1      43.467  39.242  34.396  1.00  0.00    -0.744 OA
ENDBRANCH  93  94
ENDBRANCH  61  86
ENDBRANCH  35  36
ENDBRANCH  27  30
ENDBRANCH   1  26
TORSDOF 14
ENDMDL
MODEL 3
REMARK VINA RESULT:     -11.8      2.829      3.736
REMARK SMILES Cc1c(Br)c(C)c2c(c1Br)O[C@H](C(F)(F)F)C(C(=O)NCCCNC(=O)c1ccc(-c3c4nc(c(-c5c(F)cc(S(=O)(=O)[O-])cc5F)c5ccc([nH]5)c(-c5c(F)cc(S(=O)(=O)[O-])cc5F)c5nc(c(-c6c(F)cc(S(=O)(=O)[O-])cc6F)c6ccc3[nH]6)C=C5)C=C4)cc1)=C2
REMARK SMILES IDX 23 1 22 2 21 3 20 4 18 5 19 6 17 8 1 9 2 10 3 11 9 12 4 13
REMARK SMILES IDX 5 14 8 15 10 16 6 17 7 18 11 19 93 20 12 21 13 22 14 23
REMARK SMILES IDX 15 24 16 25 24 26 25 27 26 29 27 30 28 31 92 32 29 33 91 34
REMARK SMILES IDX 30 35 31 36 32 37 85 38 33 39 90 40 84 41 86 42 34 43 89 44
REMARK SMILES IDX 83 45 82 46 35 48 69 49 48 50 68 51 49 52 52 53 67 54 87 55
REMARK SMILES IDX 50 56 51 57 66 59 88 60 53 61 36 62 37 63 46 64 38 65 39 66
REMARK SMILES IDX 45 67 47 68 40 69 41 70 42 71 43 72 44 73 70 74 71 75 80 76
REMARK SMILES IDX 72 77 73 78 79 79 81 80 74 81 75 82 76 83 77 84 78 85 54 86
REMARK SMILES IDX 55 87 64 88 56 89 57 90 63 91 65 92 58 93 59 94 60 95 61 96
REMARK SMILES IDX 62 97
REMARK H PARENT 20 7 24 28 86 47 52 58
REMARK Flexibility Score: inf
ROOT
ATOM      1  C   UNL A   1      35.209  29.844  27.631  1.00  0.00     0.118 C 
ENDROOT
BRANCH   1   2
ATOM      2  C   UNL A   1      34.006  28.955  27.344  1.00  0.00     0.042 C 
BRANCH   2   3
ATOM      3  C   UNL A   1      33.100  29.546  26.276  1.00  0.00     0.118 C 
BRANCH   3   4
ATOM      4  N   UNL A   1      33.582  29.257  24.932  1.00  0.00    -0.352 N 
ATOM      5  C   UNL A   1      33.710  28.170  24.137  1.00  0.00     0.251 C 
ATOM      6  O   UNL A   1      34.177  28.388  23.014  1.00  0.00    -0.270 OA
ATOM      7  H   UNL A   1      33.900  30.073  24.482  1.00  0.00     0.163 HD
BRANCH   5   8
ATOM      8  C   UNL A   1      33.324  26.781  24.518  1.00  0.00     0.067 C 
ATOM      9  C   UNL A   1      32.964  20.437  26.141  1.00  0.00     0.047 C 
ATOM     10  C   UNL A   1      33.343  21.844  25.744  1.00  0.00    -0.019 A 
ATOM     11  C   UNL A   1      34.646  22.151  25.268  1.00  0.00     0.025 A 
ATOM     12  C   UNL A   1      32.393  22.879  25.780  1.00  0.00     0.064 A 
ATOM     13  Br  UNL A   1      35.920  20.724  25.094  1.00  0.00    -0.050 Br
ATOM     14  C   UNL A   1      35.014  23.472  24.898  1.00  0.00    -0.026 A 
ATOM     15  C   UNL A   1      32.744  24.186  25.411  1.00  0.00     0.142 A 
ATOM     16  Br  UNL A   1      30.570  22.548  26.272  1.00  0.00    -0.046 Br
ATOM     17  C   UNL A   1      36.403  23.826  24.413  1.00  0.00     0.046 C 
ATOM     18  C   UNL A   1      34.041  24.497  24.984  1.00  0.00     0.022 A 
ATOM     19  O   UNL A   1      31.780  25.152  25.539  1.00  0.00    -0.474 OA
ATOM     20  C   UNL A   1      34.332  25.901  24.655  1.00  0.00     0.026 C 
ATOM     21  C   UNL A   1      31.913  26.333  24.720  1.00  0.00     0.314 C 
BRANCH  21  22
ATOM     22  C   UNL A   1      31.153  26.138  23.393  1.00  0.00     0.429 C 
ATOM     23  F   UNL A   1      30.743  27.331  22.897  1.00  0.00    -0.167 F 
ATOM     24  F   UNL A   1      31.919  25.566  22.433  1.00  0.00    -0.167 F 
ATOM     25  F   UNL A   1      30.058  25.356  23.531  1.00  0.00    -0.167 F 
ENDBRANCH  21  22
ENDBRANCH   5   8
ENDBRANCH   3   4
ENDBRANCH   2   3
ENDBRANCH   1   2
BRANCH   1  26
ATOM     26  N   UNL A   1      35.258  30.247  29.034  1.00  0.00    -0.352 N 
ATOM     27  C   UNL A   1      36.222  30.024  29.983  1.00  0.00     0.251 C 
ATOM     28  H   UNL A   1      34.478  30.759  29.347  1.00  0.00     0.163 HD
ATOM     29  O   UNL A   1      35.951  30.179  31.174  1.00  0.00    -0.269 OA
BRANCH  27  30
ATOM     30  C   UNL A   1      37.575  29.604  29.575  1.00  0.00     0.039 A 
ATOM     31  C   UNL A   1      38.008  29.843  28.270  1.00  0.00     0.014 A 
ATOM     32  C   UNL A   1      38.408  28.949  30.486  1.00  0.00     0.014 A 
ATOM     33  C   UNL A   1      39.303  29.477  27.899  1.00  0.00     0.010 A 
ATOM     34  C   UNL A   1      39.726  28.682  30.149  1.00  0.00     0.010 A 
ATOM     35  C   UNL A   1      40.180  28.923  28.846  1.00  0.00    -0.014 A 
BRANCH  35  36
ATOM     36  C   UNL A   1      41.570  28.549  28.492  1.00  0.00     0.031 A 
ATOM     37  C   UNL A   1      42.647  29.598  28.500  1.00  0.00     0.074 A 
ATOM     38  C   UNL A   1      41.842  27.289  28.103  1.00  0.00     0.049 A 
ATOM     39  N   UNL A   1      43.904  29.491  28.158  1.00  0.00    -0.248 NA
ATOM     40  C   UNL A   1      42.253  30.955  28.916  1.00  0.00     0.031 C 
ATOM     41  C   UNL A   1      40.863  26.203  28.013  1.00  0.00     0.029 A 
ATOM     42  N   UNL A   1      43.020  26.708  27.711  1.00  0.00    -0.354 N 
ATOM     43  C   UNL A   1      44.444  30.764  28.309  1.00  0.00     0.074 A 
ATOM     44  C   UNL A   1      43.364  31.640  28.701  1.00  0.00     0.031 C 
ATOM     45  C   UNL A   1      41.489  25.079  27.630  1.00  0.00     0.029 A 
ATOM     46  C   UNL A   1      42.901  25.373  27.407  1.00  0.00     0.049 A 
ATOM     47  H   UNL A   1      43.870  27.201  27.652  1.00  0.00     0.167 HD
ATOM     48  C   UNL A   1      45.732  31.158  28.168  1.00  0.00     0.037 A 
ATOM     49  C   UNL A   1      43.829  24.487  26.996  1.00  0.00     0.037 A 
ATOM     50  C   UNL A   1      46.801  30.269  27.802  1.00  0.00     0.049 A 
ATOM     51  C   UNL A   1      45.251  24.947  26.831  1.00  0.00     0.074 A 
ATOM     52  C   UNL A   1      48.149  30.551  27.679  1.00  0.00     0.029 A 
ATOM     53  N   UNL A   1      46.642  28.923  27.499  1.00  0.00    -0.354 N 
ATOM     54  N   UNL A   1      45.757  26.142  27.030  1.00  0.00    -0.248 NA
ATOM     55  C   UNL A   1      46.228  23.944  26.387  1.00  0.00     0.031 C 
ATOM     56  C   UNL A   1      48.799  29.386  27.255  1.00  0.00     0.029 A 
ATOM     57  C   UNL A   1      47.864  28.366  27.165  1.00  0.00     0.049 A 
ATOM     58  H   UNL A   1      45.786  28.437  27.520  1.00  0.00     0.167 HD
ATOM     59  C   UNL A   1      47.115  26.032  26.752  1.00  0.00     0.074 A 
ATOM     60  C   UNL A   1      47.352  24.649  26.387  1.00  0.00     0.031 C 
ATOM     61  C   UNL A   1      48.076  26.987  26.796  1.00  0.00     0.037 A 
BRANCH  48  62
ATOM     62  C   UNL A   1      46.045  32.607  28.424  1.00  0.00     0.058 A 
ATOM     63  C   UNL A   1      46.389  33.071  29.704  1.00  0.00     0.135 A 
ATOM     64  C   UNL A   1      46.017  33.542  27.377  1.00  0.00     0.135 A 
ATOM     65  F   UNL A   1      46.414  32.225  30.746  1.00  0.00    -0.206 F 
ATOM     66  C   UNL A   1      46.654  34.415  29.945  1.00  0.00     0.059 A 
ATOM     67  C   UNL A   1      46.310  34.886  27.588  1.00  0.00     0.059 A 
ATOM     68  F   UNL A   1      45.693  33.155  26.132  1.00  0.00    -0.206 F 
ATOM     69  C   UNL A   1      46.612  35.315  28.880  1.00  0.00     0.060 A 
BRANCH  69  70
ATOM     70  S   UNL A   1      46.951  37.056  29.215  1.00  0.00     0.124 S 
ATOM     71  O   UNL A   1      47.021  37.604  27.863  1.00  0.00    -0.237 OA
ATOM     72  O   UNL A   1      45.786  37.453  30.000  1.00  0.00    -0.237 OA
ATOM     73  O   UNL A   1      48.214  37.024  29.944  1.00  0.00    -0.744 OA
ENDBRANCH  69  70
ENDBRANCH  48  62
BRANCH  49  74
ATOM     74  C   UNL A   1      43.437  23.071  26.766  1.00  0.00     0.058 A 
ATOM     75  C   UNL A   1      43.410  22.538  25.470  1.00  0.00     0.135 A 
ATOM     76  C   UNL A   1      43.153  22.207  27.836  1.00  0.00     0.135 A 
ATOM     77  F   UNL A   1      43.668  23.326  24.414  1.00  0.00    -0.206 F 
ATOM     78  C   UNL A   1      43.122  21.196  25.239  1.00  0.00     0.059 A 
ATOM     79  C   UNL A   1      42.884  20.856  27.631  1.00  0.00     0.059 A 
ATOM     80  F   UNL A   1      43.182  22.664  29.097  1.00  0.00    -0.206 F 
ATOM     81  C   UNL A   1      42.873  20.360  26.329  1.00  0.00     0.060 A 
BRANCH  81  82
ATOM     82  S   UNL A   1      42.592  18.603  26.019  1.00  0.00     0.124 S 
ATOM     83  O   UNL A   1      41.167  18.582  25.710  1.00  0.00    -0.237 OA
ATOM     84  O   UNL A   1      43.492  18.346  24.900  1.00  0.00    -0.237 OA
ATOM     85  O   UNL A   1      42.973  17.975  27.281  1.00  0.00    -0.744 OA
ENDBRANCH  81  82
ENDBRANCH  49  74
BRANCH  61  86
ATOM     86  C   UNL A   1      49.480  26.577  26.445  1.00  0.00     0.058 A 
ATOM     87  C   UNL A   1      50.313  25.946  27.381  1.00  0.00     0.135 A 
ATOM     88  C   UNL A   1      49.963  26.738  25.136  1.00  0.00     0.135 A 
ATOM     89  F   UNL A   1      49.900  25.773  28.646  1.00  0.00    -0.206 F 
ATOM     90  C   UNL A   1      51.584  25.501  27.035  1.00  0.00     0.059 A 
ATOM     91  C   UNL A   1      51.219  26.275  24.761  1.00  0.00     0.059 A 
ATOM     92  F   UNL A   1      49.200  27.324  24.200  1.00  0.00    -0.206 F 
ATOM     93  C   UNL A   1      52.025  25.662  25.719  1.00  0.00     0.060 A 
BRANCH  93  94
ATOM     94  S   UNL A   1      53.657  25.032  25.277  1.00  0.00     0.124 S 
ATOM     95  O   UNL A   1      53.822  25.562  23.928  1.00  0.00    -0.237 OA
ATOM     96  O   UNL A   1      54.508  25.629  26.301  1.00  0.00    -0.237 OA
ATOM     97  O   UNL A   1      53.500  23.583  25.366  1.00  0.00    -0.744 OA
ENDBRANCH  93  94
ENDBRANCH  61  86
ENDBRANCH  35  36
ENDBRANCH  27  30
ENDBRANCH   1  26
TORSDOF 14
ENDMDL
