MODEL 1
REMARK VINA RESULT:     -12.1      0.000      0.000
REMARK SMILES COc1cccc(Cn2c(=O)c(=O)n(CC(=O)NCCCNC(=O)c3ccc(-c4c5nc(c(-c6c(F)cc(S(=O)(=O)[O-])cc6F)c6ccc([nH]6)c(-c6c(F)cc(S(=O)(=O)[O-])cc6F)c6nc(c(-c7c(F)cc(S(=O)(=O)[O-])cc7F)c7ccc4[nH]7)C=C6)C=C5)cc3)c3ccccc32)c1
REMARK SMILES IDX 19 1 18 2 16 3 17 4 15 6 14 7 9 8 10 9 96 10 11 11 12 12
REMARK SMILES IDX 91 13 95 14 13 15 92 16 94 17 93 18 8 19 7 20 3 21 4 22
REMARK SMILES IDX 97 23 5 24 6 25 2 26 1 27 20 28 21 29 22 30 23 31 24 33
REMARK SMILES IDX 25 34 26 35 90 36 27 37 89 38 28 39 29 40 30 41 83 42 31 43
REMARK SMILES IDX 88 44 82 45 84 46 32 47 87 48 81 49 80 50 33 52 67 53 46 54
REMARK SMILES IDX 66 55 47 56 50 57 65 58 85 59 48 60 49 61 64 63 86 64 51 65
REMARK SMILES IDX 34 66 35 67 44 68 36 69 37 70 43 71 45 72 38 73 39 74 40 75
REMARK SMILES IDX 41 76 42 77 68 78 69 79 78 80 70 81 71 82 77 83 79 84 72 85
REMARK SMILES IDX 73 86 74 87 75 88 76 89 52 90 53 91 62 92 54 93 55 94 61 95
REMARK SMILES IDX 63 96 56 97 57 98 58 99 59 100 60 101
REMARK H PARENT 18 5 22 32 84 51 50 62
REMARK Flexibility Score: inf
ROOT
ATOM      1  C   UNL A   1      31.711  28.906  25.414  1.00  0.00     0.117 C 
ENDROOT
BRANCH   1   2
ATOM      2  N   UNL A   1      31.568  29.421  24.069  1.00  0.00    -0.354 N 
ATOM      3  C   UNL A   1      30.959  28.904  22.971  1.00  0.00     0.240 C 
ATOM      4  O   UNL A   1      30.950  29.626  21.965  1.00  0.00    -0.273 OA
ATOM      5  H   UNL A   1      31.985  30.302  23.924  1.00  0.00     0.163 HD
BRANCH   3   6
ATOM      6  C   UNL A   1      30.104  27.631  22.974  1.00  0.00     0.226 C 
BRANCH   6   7
ATOM      7  N   UNL A   1      30.606  26.266  23.013  1.00  0.00    -0.293 N 
ATOM      8  N   UNL A   1      31.925  23.782  23.033  1.00  0.00    -0.298 N 
ATOM      9  C   UNL A   1      32.482  24.838  22.337  1.00  0.00     0.317 A 
ATOM     10  C   UNL A   1      31.140  24.141  24.161  1.00  0.00     0.068 A 
ATOM     11  O   UNL A   1      33.648  24.929  21.986  1.00  0.00    -0.263 OA
ATOM     12  C   UNL A   1      31.466  25.916  21.977  1.00  0.00     0.317 A 
ATOM     13  C   UNL A   1      30.517  25.426  24.175  1.00  0.00     0.069 A 
ATOM     14  C   UNL A   1      31.127  23.343  25.313  1.00  0.00     0.028 A 
ATOM     15  O   UNL A   1      31.518  26.449  20.879  1.00  0.00    -0.263 OA
ATOM     16  C   UNL A   1      29.852  25.843  25.333  1.00  0.00     0.028 A 
ATOM     17  C   UNL A   1      30.527  23.817  26.481  1.00  0.00     0.002 A 
ATOM     18  C   UNL A   1      29.883  25.053  26.487  1.00  0.00     0.002 A 
BRANCH   8  19
ATOM     19  C   UNL A   1      32.265  22.425  22.605  1.00  0.00     0.162 C 
BRANCH  19  20
ATOM     20  C   UNL A   1      33.143  21.779  23.690  1.00  0.00    -0.024 A 
ATOM     21  C   UNL A   1      35.406  21.560  24.554  1.00  0.00     0.119 A 
ATOM     22  C   UNL A   1      35.124  20.274  24.992  1.00  0.00     0.046 A 
ATOM     23  C   UNL A   1      34.397  22.347  24.005  1.00  0.00     0.052 A 
ATOM     24  C   UNL A   1      33.835  19.762  24.853  1.00  0.00     0.004 A 
ATOM     25  C   UNL A   1      32.857  20.493  24.169  1.00  0.00     0.006 A 
BRANCH  21  26
ATOM     26  O   UNL A   1      36.722  21.892  24.374  1.00  0.00    -0.497 OA
ATOM     27  C   UNL A   1      36.918  23.231  23.953  1.00  0.00     0.278 C 
ENDBRANCH  21  26
ENDBRANCH  19  20
ENDBRANCH   8  19
ENDBRANCH   6   7
ENDBRANCH   3   6
ENDBRANCH   1   2
BRANCH   1  28
ATOM     28  C   UNL A   1      33.010  28.123  25.583  1.00  0.00     0.042 C 
BRANCH  28  29
ATOM     29  C   UNL A   1      33.651  28.299  26.960  1.00  0.00     0.118 C 
BRANCH  29  30
ATOM     30  N   UNL A   1      33.584  29.676  27.424  1.00  0.00    -0.352 N 
ATOM     31  C   UNL A   1      34.517  30.438  28.079  1.00  0.00     0.251 C 
ATOM     32  H   UNL A   1      32.732  30.135  27.237  1.00  0.00     0.163 HD
ATOM     33  O   UNL A   1      34.169  31.521  28.548  1.00  0.00    -0.269 OA
BRANCH  31  34
ATOM     34  C   UNL A   1      35.919  29.985  28.242  1.00  0.00     0.039 A 
ATOM     35  C   UNL A   1      36.307  29.479  29.489  1.00  0.00     0.014 A 
ATOM     36  C   UNL A   1      36.874  30.133  27.232  1.00  0.00     0.014 A 
ATOM     37  C   UNL A   1      37.636  29.116  29.719  1.00  0.00     0.010 A 
ATOM     38  C   UNL A   1      38.188  29.713  27.441  1.00  0.00     0.010 A 
ATOM     39  C   UNL A   1      38.587  29.225  28.693  1.00  0.00    -0.014 A 
BRANCH  39  40
ATOM     40  C   UNL A   1      40.012  28.888  28.940  1.00  0.00     0.031 A 
ATOM     41  C   UNL A   1      40.927  29.912  29.560  1.00  0.00     0.074 A 
ATOM     42  C   UNL A   1      40.482  27.675  28.590  1.00  0.00     0.049 A 
ATOM     43  N   UNL A   1      42.208  29.830  29.811  1.00  0.00    -0.248 NA
ATOM     44  C   UNL A   1      40.327  31.205  29.923  1.00  0.00     0.031 C 
ATOM     45  C   UNL A   1      39.694  26.614  27.958  1.00  0.00     0.029 A 
ATOM     46  N   UNL A   1      41.733  27.129  28.714  1.00  0.00    -0.354 N 
ATOM     47  C   UNL A   1      42.568  31.061  30.349  1.00  0.00     0.074 A 
ATOM     48  C   UNL A   1      41.382  31.888  30.342  1.00  0.00     0.031 C 
ATOM     49  C   UNL A   1      40.475  25.538  27.773  1.00  0.00     0.029 A 
ATOM     50  C   UNL A   1      41.823  25.841  28.244  1.00  0.00     0.049 A 
ATOM     51  H   UNL A   1      42.496  27.614  29.104  1.00  0.00     0.167 HD
ATOM     52  C   UNL A   1      43.772  31.456  30.829  1.00  0.00     0.037 A 
ATOM     53  C   UNL A   1      42.874  25.001  28.200  1.00  0.00     0.037 A 
ATOM     54  C   UNL A   1      44.939  30.614  30.864  1.00  0.00     0.049 A 
ATOM     55  C   UNL A   1      44.198  25.460  28.747  1.00  0.00     0.074 A 
ATOM     56  C   UNL A   1      46.198  30.905  31.356  1.00  0.00     0.029 A 
ATOM     57  N   UNL A   1      44.982  29.309  30.396  1.00  0.00    -0.354 N 
ATOM     58  N   UNL A   1      44.512  26.618  29.277  1.00  0.00    -0.248 NA
ATOM     59  C   UNL A   1      45.308  24.499  28.696  1.00  0.00     0.031 C 
ATOM     60  C   UNL A   1      47.012  29.782  31.164  1.00  0.00     0.029 A 
ATOM     61  C   UNL A   1      46.249  28.781  30.583  1.00  0.00     0.049 A 
ATOM     62  H   UNL A   1      44.225  28.829  29.989  1.00  0.00     0.167 HD
ATOM     63  C   UNL A   1      45.848  26.516  29.646  1.00  0.00     0.074 A 
ATOM     64  C   UNL A   1      46.279  25.179  29.288  1.00  0.00     0.031 C 
ATOM     65  C   UNL A   1      46.648  27.443  30.229  1.00  0.00     0.037 A 
BRANCH  52  66
ATOM     66  C   UNL A   1      43.880  32.856  31.370  1.00  0.00     0.058 A 
ATOM     67  C   UNL A   1      44.292  33.925  30.558  1.00  0.00     0.135 A 
ATOM     68  C   UNL A   1      43.544  33.139  32.703  1.00  0.00     0.135 A 
ATOM     69  F   UNL A   1      44.642  33.707  29.280  1.00  0.00    -0.206 F 
ATOM     70  C   UNL A   1      44.393  35.220  31.055  1.00  0.00     0.059 A 
ATOM     71  C   UNL A   1      43.614  34.432  33.216  1.00  0.00     0.059 A 
ATOM     72  F   UNL A   1      43.146  32.154  33.524  1.00  0.00    -0.206 F 
ATOM     73  C   UNL A   1      44.055  35.464  32.387  1.00  0.00     0.060 A 
BRANCH  73  74
ATOM     74  S   UNL A   1      44.187  37.150  33.019  1.00  0.00     0.124 S 
ATOM     75  O   UNL A   1      43.588  37.012  34.342  1.00  0.00    -0.237 OA
ATOM     76  O   UNL A   1      45.628  37.381  32.997  1.00  0.00    -0.237 OA
ATOM     77  O   UNL A   1      43.416  37.934  32.058  1.00  0.00    -0.744 OA
ENDBRANCH  73  74
ENDBRANCH  52  66
BRANCH  53  78
ATOM     78  C   UNL A   1      42.712  23.632  27.644  1.00  0.00     0.058 A 
ATOM     79  C   UNL A   1      42.407  22.548  28.480  1.00  0.00     0.135 A 
ATOM     80  C   UNL A   1      42.854  23.380  26.271  1.00  0.00     0.135 A 
ATOM     81  F   UNL A   1      42.264  22.739  29.800  1.00  0.00    -0.206 F 
ATOM     82  C   UNL A   1      42.268  21.257  27.979  1.00  0.00     0.059 A 
ATOM     83  C   UNL A   1      42.698  22.102  25.744  1.00  0.00     0.059 A 
ATOM     84  F   UNL A   1      43.126  24.386  25.427  1.00  0.00    -0.206 F 
ATOM     85  C   UNL A   1      42.418  21.044  26.608  1.00  0.00     0.060 A 
BRANCH  85  86
ATOM     86  S   UNL A   1      42.199  19.373  25.958  1.00  0.00     0.124 S 
ATOM     87  O   UNL A   1      42.677  18.562  27.071  1.00  0.00    -0.237 OA
ATOM     88  O   UNL A   1      40.763  19.325  25.703  1.00  0.00    -0.237 OA
ATOM     89  O   UNL A   1      43.039  19.368  24.764  1.00  0.00    -0.744 OA
ENDBRANCH  85  86
ENDBRANCH  53  78
BRANCH  65  90
ATOM     90  C   UNL A   1      48.057  27.032  30.543  1.00  0.00     0.058 A 
ATOM     91  C   UNL A   1      49.111  27.291  29.656  1.00  0.00     0.135 A 
ATOM     92  C   UNL A   1      48.359  26.414  31.767  1.00  0.00     0.135 A 
ATOM     93  F   UNL A   1      48.870  27.874  28.472  1.00  0.00    -0.206 F 
ATOM     94  C   UNL A   1      50.420  26.932  29.962  1.00  0.00     0.059 A 
ATOM     95  C   UNL A   1      49.662  26.066  32.103  1.00  0.00     0.059 A 
ATOM     96  F   UNL A   1      47.384  26.153  32.653  1.00  0.00    -0.206 F 
ATOM     97  C   UNL A   1      50.685  26.319  31.189  1.00  0.00     0.060 A 
BRANCH  97  98
ATOM     98  S   UNL A   1      52.391  25.887  31.590  1.00  0.00     0.124 S 
ATOM     99  O   UNL A   1      53.019  25.919  30.274  1.00  0.00    -0.237 OA
ATOM    100  O   UNL A   1      52.780  26.955  32.505  1.00  0.00    -0.237 OA
ATOM    101  O   UNL A   1      52.271  24.564  32.197  1.00  0.00    -0.744 OA
ENDBRANCH  97  98
ENDBRANCH  65  90
ENDBRANCH  39  40
ENDBRANCH  31  34
ENDBRANCH  29  30
ENDBRANCH  28  29
ENDBRANCH   1  28
TORSDOF 17
ENDMDL
MODEL 2
REMARK VINA RESULT:     -12.1      4.743     10.471
REMARK SMILES COc1cccc(Cn2c(=O)c(=O)n(CC(=O)NCCCNC(=O)c3ccc(-c4c5nc(c(-c6c(F)cc(S(=O)(=O)[O-])cc6F)c6ccc([nH]6)c(-c6c(F)cc(S(=O)(=O)[O-])cc6F)c6nc(c(-c7c(F)cc(S(=O)(=O)[O-])cc7F)c7ccc4[nH]7)C=C6)C=C5)cc3)c3ccccc32)c1
REMARK SMILES IDX 19 1 18 2 16 3 17 4 15 6 14 7 9 8 10 9 96 10 11 11 12 12
REMARK SMILES IDX 91 13 95 14 13 15 92 16 94 17 93 18 8 19 7 20 3 21 4 22
REMARK SMILES IDX 97 23 5 24 6 25 2 26 1 27 20 28 21 29 22 30 23 31 24 33
REMARK SMILES IDX 25 34 26 35 90 36 27 37 89 38 28 39 29 40 30 41 83 42 31 43
REMARK SMILES IDX 88 44 82 45 84 46 32 47 87 48 81 49 80 50 33 52 67 53 46 54
REMARK SMILES IDX 66 55 47 56 50 57 65 58 85 59 48 60 49 61 64 63 86 64 51 65
REMARK SMILES IDX 34 66 35 67 44 68 36 69 37 70 43 71 45 72 38 73 39 74 40 75
REMARK SMILES IDX 41 76 42 77 68 78 69 79 78 80 70 81 71 82 77 83 79 84 72 85
REMARK SMILES IDX 73 86 74 87 75 88 76 89 52 90 53 91 62 92 54 93 55 94 61 95
REMARK SMILES IDX 63 96 56 97 57 98 58 99 59 100 60 101
REMARK H PARENT 18 5 22 32 84 51 50 62
REMARK Flexibility Score: inf
ROOT
ATOM      1  C   UNL A   1      36.343  22.444  25.409  1.00  0.00     0.117 C 
ENDROOT
BRANCH   1   2
ATOM      2  N   UNL A   1      35.700  22.494  26.705  1.00  0.00    -0.354 N 
ATOM      3  C   UNL A   1      34.391  22.445  27.057  1.00  0.00     0.240 C 
ATOM      4  O   UNL A   1      34.155  22.446  28.273  1.00  0.00    -0.273 OA
ATOM      5  H   UNL A   1      36.322  22.579  27.464  1.00  0.00     0.163 HD
BRANCH   3   6
ATOM      6  C   UNL A   1      33.242  22.155  26.084  1.00  0.00     0.226 C 
BRANCH   6   7
ATOM      7  N   UNL A   1      32.323  23.138  25.531  1.00  0.00    -0.293 N 
ATOM      8  N   UNL A   1      30.673  25.274  24.739  1.00  0.00    -0.298 N 
ATOM      9  C   UNL A   1      31.079  25.186  26.057  1.00  0.00     0.317 A 
ATOM     10  C   UNL A   1      31.570  24.721  23.786  1.00  0.00     0.068 A 
ATOM     11  O   UNL A   1      31.079  26.096  26.869  1.00  0.00    -0.263 OA
ATOM     12  C   UNL A   1      31.504  23.777  26.456  1.00  0.00     0.317 A 
ATOM     13  C   UNL A   1      32.447  23.675  24.204  1.00  0.00     0.069 A 
ATOM     14  C   UNL A   1      31.729  25.307  22.523  1.00  0.00     0.028 A 
ATOM     15  O   UNL A   1      31.188  23.341  27.553  1.00  0.00    -0.263 OA
ATOM     16  C   UNL A   1      33.423  23.215  23.313  1.00  0.00     0.028 A 
ATOM     17  C   UNL A   1      32.763  24.884  21.685  1.00  0.00     0.002 A 
ATOM     18  C   UNL A   1      33.596  23.836  22.073  1.00  0.00     0.002 A 
BRANCH   8  19
ATOM     19  C   UNL A   1      29.432  25.993  24.453  1.00  0.00     0.162 C 
BRANCH  19  20
ATOM     20  C   UNL A   1      29.792  27.385  23.910  1.00  0.00    -0.024 A 
ATOM     21  C   UNL A   1      30.873  29.505  24.416  1.00  0.00     0.119 A 
ATOM     22  C   UNL A   1      29.986  30.168  23.580  1.00  0.00     0.046 A 
ATOM     23  C   UNL A   1      30.848  28.115  24.498  1.00  0.00     0.052 A 
ATOM     24  C   UNL A   1      29.049  29.441  22.847  1.00  0.00     0.004 A 
ATOM     25  C   UNL A   1      28.924  28.060  23.040  1.00  0.00     0.006 A 
BRANCH  21  26
ATOM     26  O   UNL A   1      31.517  30.246  25.371  1.00  0.00    -0.497 OA
ATOM     27  C   UNL A   1      32.837  29.806  25.637  1.00  0.00     0.278 C 
ENDBRANCH  21  26
ENDBRANCH  19  20
ENDBRANCH   8  19
ENDBRANCH   6   7
ENDBRANCH   3   6
ENDBRANCH   1   2
BRANCH   1  28
ATOM     28  C   UNL A   1      37.298  23.617  25.206  1.00  0.00     0.042 C 
BRANCH  28  29
ATOM     29  C   UNL A   1      38.162  23.917  26.431  1.00  0.00     0.118 C 
BRANCH  29  30
ATOM     30  N   UNL A   1      39.583  23.887  26.119  1.00  0.00    -0.352 N 
ATOM     31  C   UNL A   1      40.595  24.727  26.510  1.00  0.00     0.251 C 
ATOM     32  H   UNL A   1      39.863  23.146  25.534  1.00  0.00     0.163 HD
ATOM     33  O   UNL A   1      41.692  24.620  25.964  1.00  0.00    -0.269 OA
BRANCH  31  34
ATOM     34  C   UNL A   1      40.394  25.756  27.558  1.00  0.00     0.039 A 
ATOM     35  C   UNL A   1      41.238  26.873  27.555  1.00  0.00     0.014 A 
ATOM     36  C   UNL A   1      39.463  25.600  28.589  1.00  0.00     0.014 A 
ATOM     37  C   UNL A   1      41.145  27.830  28.568  1.00  0.00     0.010 A 
ATOM     38  C   UNL A   1      39.327  26.585  29.568  1.00  0.00     0.010 A 
ATOM     39  C   UNL A   1      40.183  27.695  29.581  1.00  0.00    -0.014 A 
BRANCH  39  40
ATOM     40  C   UNL A   1      40.105  28.679  30.690  1.00  0.00     0.031 A 
ATOM     41  C   UNL A   1      41.023  28.543  31.877  1.00  0.00     0.074 A 
ATOM     42  C   UNL A   1      39.203  29.677  30.636  1.00  0.00     0.049 A 
ATOM     43  N   UNL A   1      41.079  29.268  32.965  1.00  0.00    -0.248 NA
ATOM     44  C   UNL A   1      41.988  27.433  31.846  1.00  0.00     0.031 C 
ATOM     45  C   UNL A   1      38.244  29.892  29.549  1.00  0.00     0.029 A 
ATOM     46  N   UNL A   1      38.940  30.697  31.514  1.00  0.00    -0.354 N 
ATOM     47  C   UNL A   1      42.074  28.695  33.750  1.00  0.00     0.074 A 
ATOM     48  C   UNL A   1      42.560  27.534  33.037  1.00  0.00     0.031 C 
ATOM     49  C   UNL A   1      37.517  30.989  29.815  1.00  0.00     0.029 A 
ATOM     50  C   UNL A   1      37.934  31.537  31.100  1.00  0.00     0.049 A 
ATOM     51  H   UNL A   1      39.426  30.816  32.362  1.00  0.00     0.167 HD
ATOM     52  C   UNL A   1      42.556  29.113  34.946  1.00  0.00     0.037 A 
ATOM     53  C   UNL A   1      37.411  32.627  31.693  1.00  0.00     0.037 A 
ATOM     54  C   UNL A   1      42.090  30.289  35.633  1.00  0.00     0.049 A 
ATOM     55  C   UNL A   1      37.969  33.077  33.016  1.00  0.00     0.074 A 
ATOM     56  C   UNL A   1      42.529  30.819  36.832  1.00  0.00     0.029 A 
ATOM     57  N   UNL A   1      41.083  31.125  35.170  1.00  0.00    -0.354 N 
ATOM     58  N   UNL A   1      38.928  32.538  33.730  1.00  0.00    -0.248 NA
ATOM     59  C   UNL A   1      37.379  34.284  33.610  1.00  0.00     0.031 C 
ATOM     60  C   UNL A   1      41.772  31.964  37.107  1.00  0.00     0.029 A 
ATOM     61  C   UNL A   1      40.883  32.164  36.062  1.00  0.00     0.049 A 
ATOM     62  H   UNL A   1      40.584  30.996  34.331  1.00  0.00     0.167 HD
ATOM     63  C   UNL A   1      39.075  33.354  34.846  1.00  0.00     0.074 A 
ATOM     64  C   UNL A   1      38.112  34.429  34.706  1.00  0.00     0.031 C 
ATOM     65  C   UNL A   1      39.928  33.228  35.892  1.00  0.00     0.037 A 
BRANCH  52  66
ATOM     66  C   UNL A   1      43.654  28.302  35.577  1.00  0.00     0.058 A 
ATOM     67  C   UNL A   1      45.006  28.551  35.289  1.00  0.00     0.135 A 
ATOM     68  C   UNL A   1      43.358  27.285  36.498  1.00  0.00     0.135 A 
ATOM     69  F   UNL A   1      45.344  29.500  34.403  1.00  0.00    -0.206 F 
ATOM     70  C   UNL A   1      46.024  27.803  35.872  1.00  0.00     0.059 A 
ATOM     71  C   UNL A   1      44.362  26.540  37.112  1.00  0.00     0.059 A 
ATOM     72  F   UNL A   1      42.083  27.004  36.808  1.00  0.00    -0.206 F 
ATOM     73  C   UNL A   1      45.692  26.796  36.780  1.00  0.00     0.060 A 
BRANCH  73  74
ATOM     74  S   UNL A   1      47.024  25.835  37.531  1.00  0.00     0.124 S 
ATOM     75  O   UNL A   1      47.484  25.043  36.395  1.00  0.00    -0.237 OA
ATOM     76  O   UNL A   1      47.940  26.875  37.991  1.00  0.00    -0.237 OA
ATOM     77  O   UNL A   1      46.349  25.088  38.587  1.00  0.00    -0.744 OA
ENDBRANCH  73  74
ENDBRANCH  52  66
BRANCH  53  78
ATOM     78  C   UNL A   1      36.319  33.386  31.029  1.00  0.00     0.058 A 
ATOM     79  C   UNL A   1      36.559  34.110  29.852  1.00  0.00     0.135 A 
ATOM     80  C   UNL A   1      35.017  33.398  31.551  1.00  0.00     0.135 A 
ATOM     81  F   UNL A   1      37.789  34.130  29.317  1.00  0.00    -0.206 F 
ATOM     82  C   UNL A   1      35.552  34.839  29.226  1.00  0.00     0.059 A 
ATOM     83  C   UNL A   1      33.989  34.102  30.931  1.00  0.00     0.059 A 
ATOM     84  F   UNL A   1      34.731  32.705  32.664  1.00  0.00    -0.206 F 
ATOM     85  C   UNL A   1      34.270  34.830  29.776  1.00  0.00     0.060 A 
BRANCH  85  86
ATOM     86  S   UNL A   1      32.958  35.746  28.938  1.00  0.00     0.124 S 
ATOM     87  O   UNL A   1      32.349  34.703  28.121  1.00  0.00    -0.237 OA
ATOM     88  O   UNL A   1      32.156  36.232  30.056  1.00  0.00    -0.237 OA
ATOM     89  O   UNL A   1      33.688  36.777  28.207  1.00  0.00    -0.744 OA
ENDBRANCH  85  86
ENDBRANCH  53  78
BRANCH  65  90
ATOM     90  C   UNL A   1      39.879  34.294  36.948  1.00  0.00     0.058 A 
ATOM     91  C   UNL A   1      40.524  35.527  36.775  1.00  0.00     0.135 A 
ATOM     92  C   UNL A   1      39.138  34.095  38.123  1.00  0.00     0.135 A 
ATOM     93  F   UNL A   1      41.249  35.762  35.670  1.00  0.00    -0.206 F 
ATOM     94  C   UNL A   1      40.455  36.523  37.745  1.00  0.00     0.059 A 
ATOM     95  C   UNL A   1      39.037  35.083  39.096  1.00  0.00     0.059 A 
ATOM     96  F   UNL A   1      38.496  32.934  38.329  1.00  0.00    -0.206 F 
ATOM     97  C   UNL A   1      39.709  36.291  38.902  1.00  0.00     0.060 A 
BRANCH  97  98
ATOM     98  S   UNL A   1      39.598  37.601  40.138  1.00  0.00     0.124 S 
ATOM     99  O   UNL A   1      40.959  38.129  40.128  1.00  0.00    -0.237 OA
ATOM    100  O   UNL A   1      38.573  38.476  39.580  1.00  0.00    -0.237 OA
ATOM    101  O   UNL A   1      39.210  36.888  41.352  1.00  0.00    -0.744 OA
ENDBRANCH  97  98
ENDBRANCH  65  90
ENDBRANCH  39  40
ENDBRANCH  31  34
ENDBRANCH  29  30
ENDBRANCH  28  29
ENDBRANCH   1  28
TORSDOF 17
ENDMDL
MODEL 3
REMARK VINA RESULT:     -12.0      4.638     10.244
REMARK SMILES COc1cccc(Cn2c(=O)c(=O)n(CC(=O)NCCCNC(=O)c3ccc(-c4c5nc(c(-c6c(F)cc(S(=O)(=O)[O-])cc6F)c6ccc([nH]6)c(-c6c(F)cc(S(=O)(=O)[O-])cc6F)c6nc(c(-c7c(F)cc(S(=O)(=O)[O-])cc7F)c7ccc4[nH]7)C=C6)C=C5)cc3)c3ccccc32)c1
REMARK SMILES IDX 19 1 18 2 16 3 17 4 15 6 14 7 9 8 10 9 96 10 11 11 12 12
REMARK SMILES IDX 91 13 95 14 13 15 92 16 94 17 93 18 8 19 7 20 3 21 4 22
REMARK SMILES IDX 97 23 5 24 6 25 2 26 1 27 20 28 21 29 22 30 23 31 24 33
REMARK SMILES IDX 25 34 26 35 90 36 27 37 89 38 28 39 29 40 30 41 83 42 31 43
REMARK SMILES IDX 88 44 82 45 84 46 32 47 87 48 81 49 80 50 33 52 67 53 46 54
REMARK SMILES IDX 66 55 47 56 50 57 65 58 85 59 48 60 49 61 64 63 86 64 51 65
REMARK SMILES IDX 34 66 35 67 44 68 36 69 37 70 43 71 45 72 38 73 39 74 40 75
REMARK SMILES IDX 41 76 42 77 68 78 69 79 78 80 70 81 71 82 77 83 79 84 72 85
REMARK SMILES IDX 73 86 74 87 75 88 76 89 52 90 53 91 62 92 54 93 55 94 61 95
REMARK SMILES IDX 63 96 56 97 57 98 58 99 59 100 60 101
REMARK H PARENT 18 5 22 32 84 51 50 62
REMARK Flexibility Score: inf
ROOT
ATOM      1  C   UNL A   1      37.934  22.043  25.661  1.00  0.00     0.117 C 
ENDROOT
BRANCH   1   2
ATOM      2  N   UNL A   1      37.518  22.180  24.281  1.00  0.00    -0.354 N 
ATOM      3  C   UNL A   1      36.624  23.016  23.695  1.00  0.00     0.240 C 
ATOM      4  O   UNL A   1      36.533  22.934  22.462  1.00  0.00    -0.273 OA
ATOM      5  H   UNL A   1      37.962  21.559  23.659  1.00  0.00     0.163 HD
BRANCH   3   6
ATOM      6  C   UNL A   1      35.923  24.177  24.411  1.00  0.00     0.226 C 
BRANCH   6   7
ATOM      7  N   UNL A   1      34.503  24.258  24.717  1.00  0.00    -0.293 N 
ATOM      8  N   UNL A   1      31.703  24.220  24.981  1.00  0.00    -0.298 N 
ATOM      9  C   UNL A   1      32.264  24.144  23.720  1.00  0.00     0.317 A 
ATOM     10  C   UNL A   1      32.491  23.681  26.033  1.00  0.00     0.068 A 
ATOM     11  O   UNL A   1      31.710  23.737  22.712  1.00  0.00    -0.263 OA
ATOM     12  C   UNL A   1      33.690  24.682  23.670  1.00  0.00     0.317 A 
ATOM     13  C   UNL A   1      33.909  23.649  25.874  1.00  0.00     0.069 A 
ATOM     14  C   UNL A   1      31.891  23.024  27.116  1.00  0.00     0.028 A 
ATOM     15  O   UNL A   1      34.047  25.352  22.713  1.00  0.00    -0.263 OA
ATOM     16  C   UNL A   1      34.684  23.002  26.843  1.00  0.00     0.028 A 
ATOM     17  C   UNL A   1      32.682  22.317  28.025  1.00  0.00     0.002 A 
ATOM     18  C   UNL A   1      34.070  22.317  27.896  1.00  0.00     0.002 A 
BRANCH   8  19
ATOM     19  C   UNL A   1      30.346  24.754  25.094  1.00  0.00     0.162 C 
BRANCH  19  20
ATOM     20  C   UNL A   1      30.409  26.281  24.926  1.00  0.00    -0.024 A 
ATOM     21  C   UNL A   1      30.103  28.131  23.377  1.00  0.00     0.119 A 
ATOM     22  C   UNL A   1      31.089  28.855  24.031  1.00  0.00     0.046 A 
ATOM     23  C   UNL A   1      29.688  26.901  23.881  1.00  0.00     0.052 A 
ATOM     24  C   UNL A   1      31.686  28.333  25.178  1.00  0.00     0.004 A 
ATOM     25  C   UNL A   1      31.378  27.035  25.602  1.00  0.00     0.006 A 
BRANCH  21  26
ATOM     26  O   UNL A   1      29.803  28.490  22.090  1.00  0.00    -0.497 OA
ATOM     27  C   UNL A   1      29.932  29.880  21.843  1.00  0.00     0.278 C 
ENDBRANCH  21  26
ENDBRANCH  19  20
ENDBRANCH   8  19
ENDBRANCH   6   7
ENDBRANCH   3   6
ENDBRANCH   1   2
BRANCH   1  28
ATOM     28  C   UNL A   1      38.384  23.376  26.251  1.00  0.00     0.042 C 
BRANCH  28  29
ATOM     29  C   UNL A   1      39.740  23.304  26.953  1.00  0.00     0.118 C 
BRANCH  29  30
ATOM     30  N   UNL A   1      40.816  23.818  26.120  1.00  0.00    -0.352 N 
ATOM     31  C   UNL A   1      41.531  24.984  26.213  1.00  0.00     0.251 C 
ATOM     32  H   UNL A   1      41.072  23.235  25.368  1.00  0.00     0.163 HD
ATOM     33  O   UNL A   1      42.265  25.301  25.279  1.00  0.00    -0.269 OA
BRANCH  31  34
ATOM     34  C   UNL A   1      41.431  25.868  27.400  1.00  0.00     0.039 A 
ATOM     35  C   UNL A   1      40.253  25.824  28.156  1.00  0.00     0.014 A 
ATOM     36  C   UNL A   1      42.423  26.796  27.726  1.00  0.00     0.014 A 
ATOM     37  C   UNL A   1      40.075  26.694  29.234  1.00  0.00     0.010 A 
ATOM     38  C   UNL A   1      42.273  27.624  28.839  1.00  0.00     0.010 A 
ATOM     39  C   UNL A   1      41.088  27.598  29.587  1.00  0.00    -0.014 A 
BRANCH  39  40
ATOM     40  C   UNL A   1      40.892  28.561  30.701  1.00  0.00     0.031 A 
ATOM     41  C   UNL A   1      41.763  28.474  31.927  1.00  0.00     0.074 A 
ATOM     42  C   UNL A   1      39.925  29.494  30.615  1.00  0.00     0.049 A 
ATOM     43  N   UNL A   1      41.719  29.187  33.023  1.00  0.00    -0.248 NA
ATOM     44  C   UNL A   1      42.804  27.434  31.930  1.00  0.00     0.031 C 
ATOM     45  C   UNL A   1      39.003  29.655  29.488  1.00  0.00     0.029 A 
ATOM     46  N   UNL A   1      39.553  30.482  31.490  1.00  0.00    -0.354 N 
ATOM     47  C   UNL A   1      42.716  28.675  33.847  1.00  0.00     0.074 A 
ATOM     48  C   UNL A   1      43.313  27.560  33.146  1.00  0.00     0.031 C 
ATOM     49  C   UNL A   1      38.189  30.696  29.730  1.00  0.00     0.029 A 
ATOM     50  C   UNL A   1      38.509  31.256  31.039  1.00  0.00     0.049 A 
ATOM     51  H   UNL A   1      39.991  30.624  32.360  1.00  0.00     0.167 HD
ATOM     52  C   UNL A   1      43.113  29.111  35.067  1.00  0.00     0.037 A 
ATOM     53  C   UNL A   1      37.885  32.299  31.617  1.00  0.00     0.037 A 
ATOM     54  C   UNL A   1      42.535  30.243  35.743  1.00  0.00     0.049 A 
ATOM     55  C   UNL A   1      38.351  32.770  32.968  1.00  0.00     0.074 A 
ATOM     56  C   UNL A   1      42.883  30.788  36.966  1.00  0.00     0.029 A 
ATOM     57  N   UNL A   1      41.494  31.012  35.243  1.00  0.00    -0.354 N 
ATOM     58  N   UNL A   1      39.312  32.290  33.720  1.00  0.00    -0.248 NA
ATOM     59  C   UNL A   1      37.652  33.926  33.546  1.00  0.00     0.031 C 
ATOM     60  C   UNL A   1      42.035  31.873  37.218  1.00  0.00     0.029 A 
ATOM     61  C   UNL A   1      41.183  32.024  36.135  1.00  0.00     0.049 A 
ATOM     62  H   UNL A   1      41.043  30.860  34.382  1.00  0.00     0.167 HD
ATOM     63  C   UNL A   1      39.351  33.101  34.849  1.00  0.00     0.074 A 
ATOM     64  C   UNL A   1      38.323  34.108  34.675  1.00  0.00     0.031 C 
ATOM     65  C   UNL A   1      40.163  33.021  35.931  1.00  0.00     0.037 A 
BRANCH  52  66
ATOM     66  C   UNL A   1      44.236  28.370  35.740  1.00  0.00     0.058 A 
ATOM     67  C   UNL A   1      43.987  27.302  36.616  1.00  0.00     0.135 A 
ATOM     68  C   UNL A   1      45.574  28.711  35.488  1.00  0.00     0.135 A 
ATOM     69  F   UNL A   1      42.725  26.945  36.905  1.00  0.00    -0.206 F 
ATOM     70  C   UNL A   1      45.023  26.614  37.239  1.00  0.00     0.059 A 
ATOM     71  C   UNL A   1      46.628  28.021  36.082  1.00  0.00     0.059 A 
ATOM     72  F   UNL A   1      45.870  29.726  34.660  1.00  0.00    -0.206 F 
ATOM     73  C   UNL A   1      46.342  26.983  36.968  1.00  0.00     0.060 A 
BRANCH  73  74
ATOM     74  S   UNL A   1      47.677  26.080  37.782  1.00  0.00     0.124 S 
ATOM     75  O   UNL A   1      48.562  25.797  36.656  1.00  0.00    -0.237 OA
ATOM     76  O   UNL A   1      48.173  27.056  38.748  1.00  0.00    -0.237 OA
ATOM     77  O   UNL A   1      47.002  24.921  38.357  1.00  0.00    -0.744 OA
ENDBRANCH  73  74
ENDBRANCH  52  66
BRANCH  53  78
ATOM     78  C   UNL A   1      36.774  32.988  30.910  1.00  0.00     0.058 A 
ATOM     79  C   UNL A   1      35.437  32.715  31.234  1.00  0.00     0.135 A 
ATOM     80  C   UNL A   1      37.024  33.933  29.904  1.00  0.00     0.135 A 
ATOM     81  F   UNL A   1      35.148  31.817  32.188  1.00  0.00    -0.206 F 
ATOM     82  C   UNL A   1      34.384  33.338  30.571  1.00  0.00     0.059 A 
ATOM     83  C   UNL A   1      35.989  34.585  29.242  1.00  0.00     0.059 A 
ATOM     84  F   UNL A   1      38.286  34.244  29.571  1.00  0.00    -0.206 F 
ATOM     85  C   UNL A   1      34.671  34.272  29.574  1.00  0.00     0.060 A 
BRANCH  85  86
ATOM     86  S   UNL A   1      33.301  35.106  28.743  1.00  0.00     0.124 S 
ATOM     87  O   UNL A   1      32.525  35.591  29.878  1.00  0.00    -0.237 OA
ATOM     88  O   UNL A   1      33.989  36.124  27.957  1.00  0.00    -0.237 OA
ATOM     89  O   UNL A   1      32.685  34.037  27.964  1.00  0.00    -0.744 OA
ENDBRANCH  85  86
ENDBRANCH  53  78
BRANCH  65  90
ATOM     90  C   UNL A   1      39.993  34.068  36.994  1.00  0.00     0.058 A 
ATOM     91  C   UNL A   1      40.679  35.290  36.936  1.00  0.00     0.135 A 
ATOM     92  C   UNL A   1      39.097  33.862  38.055  1.00  0.00     0.135 A 
ATOM     93  F   UNL A   1      41.550  35.530  35.944  1.00  0.00    -0.206 F 
ATOM     94  C   UNL A   1      40.498  36.268  37.909  1.00  0.00     0.059 A 
ATOM     95  C   UNL A   1      38.884  34.834  39.026  1.00  0.00     0.059 A 
ATOM     96  F   UNL A   1      38.411  32.712  38.148  1.00  0.00    -0.206 F 
ATOM     97  C   UNL A   1      39.598  36.031  38.950  1.00  0.00     0.060 A 
BRANCH  97  98
ATOM     98  S   UNL A   1      39.347  37.319  40.188  1.00  0.00     0.124 S 
ATOM     99  O   UNL A   1      40.715  37.765  40.430  1.00  0.00    -0.237 OA
ATOM    100  O   UNL A   1      38.485  38.266  39.488  1.00  0.00    -0.237 OA
ATOM    101  O   UNL A   1      38.714  36.606  41.295  1.00  0.00    -0.744 OA
ENDBRANCH  97  98
ENDBRANCH  65  90
ENDBRANCH  39  40
ENDBRANCH  31  34
ENDBRANCH  29  30
ENDBRANCH  28  29
ENDBRANCH   1  28
TORSDOF 17
ENDMDL
