MODEL 1
REMARK VINA RESULT:     -11.9      0.000      0.000
REMARK SMILES N#C/C(=C/c1cccc(OCC(=O)NCCCNC(=O)c2ccc(-c3c4nc(c(-c5c(F)cc(S(=O)(=O)[O-])cc5F)c5ccc([nH]5)c(-c5c(F)cc(S(=O)(=O)[O-])cc5F)c5nc(c(-c6c(F)cc(S(=O)(=O)[O-])cc6F)c6ccc3[nH]6)C=C5)C=C4)cc2)c1)c1nc2ccccc2[nH]1
REMARK SMILES IDX 15 1 14 2 12 3 13 4 11 6 10 7 9 8 5 9 6 10 87 11 7 12 8 13
REMARK SMILES IDX 4 14 3 15 2 16 1 17 88 18 89 19 96 20 90 21 95 22 91 24
REMARK SMILES IDX 94 25 92 26 93 27 16 28 17 29 18 30 19 31 20 33 21 34 22 35
REMARK SMILES IDX 86 36 23 37 85 38 24 39 25 40 26 41 79 42 27 43 84 44 78 45
REMARK SMILES IDX 80 46 28 47 83 48 77 49 76 50 29 52 63 53 42 54 62 55 43 56
REMARK SMILES IDX 46 57 61 58 81 59 44 60 45 61 60 63 82 64 47 65 30 66 31 67
REMARK SMILES IDX 40 68 32 69 33 70 39 71 41 72 34 73 35 74 36 75 37 76 38 77
REMARK SMILES IDX 64 78 65 79 74 80 66 81 67 82 73 83 75 84 68 85 69 86 70 87
REMARK SMILES IDX 71 88 72 89 48 90 49 91 58 92 50 93 51 94 57 95 59 96 52 97
REMARK SMILES IDX 53 98 54 99 55 100 56 101
REMARK H PARENT 14 5 96 23 18 32 80 51 46 62
REMARK Flexibility Score: inf
ROOT
ATOM      1  C   UNL A   1      32.803  28.906  24.734  1.00  0.00     0.117 C 
ENDROOT
BRANCH   1   2
ATOM      2  N   UNL A   1      31.605  29.462  24.133  1.00  0.00    -0.353 N 
ATOM      3  C   UNL A   1      30.728  28.834  23.289  1.00  0.00     0.257 C 
ATOM      4  O   UNL A   1      29.607  29.314  23.096  1.00  0.00    -0.271 OA
ATOM      5  H   UNL A   1      31.399  30.399  24.357  1.00  0.00     0.163 HD
BRANCH   3   6
ATOM      6  C   UNL A   1      31.130  27.513  22.625  1.00  0.00     0.329 C 
BRANCH   6   7
ATOM      7  O   UNL A   1      30.910  26.340  23.392  1.00  0.00    -0.484 OA
BRANCH   7   8
ATOM      8  C   UNL A   1      31.602  25.208  23.049  1.00  0.00     0.120 A 
ATOM      9  C   UNL A   1      32.202  22.851  23.147  1.00  0.00    -0.021 A 
ATOM     10  C   UNL A   1      33.100  23.039  22.092  1.00  0.00     0.008 A 
ATOM     11  C   UNL A   1      31.474  23.948  23.638  1.00  0.00     0.054 A 
ATOM     12  C   UNL A   1      33.252  24.302  21.520  1.00  0.00     0.004 A 
ATOM     13  C   UNL A   1      32.502  25.378  21.996  1.00  0.00     0.046 A 
BRANCH   9  14
ATOM     14  C   UNL A   1      32.031  21.506  23.722  1.00  0.00     0.031 C 
ATOM     15  C   UNL A   1      32.923  20.863  24.504  1.00  0.00     0.095 C 
BRANCH  15  16
ATOM     16  C   UNL A   1      32.601  19.475  25.033  1.00  0.00     0.103 C 
ATOM     17  N   UNL A   1      32.334  18.324  25.472  1.00  0.00    -0.192 NA
ENDBRANCH  15  16
BRANCH  15  18
ATOM     18  C   UNL A   1      34.139  21.471  24.928  1.00  0.00     0.149 A 
ATOM     19  N   UNL A   1      34.375  22.678  25.404  1.00  0.00    -0.228 NA
ATOM     20  N   UNL A   1      35.311  20.750  24.845  1.00  0.00    -0.337 N 
ATOM     21  C   UNL A   1      35.732  22.748  25.598  1.00  0.00     0.089 A 
ATOM     22  C   UNL A   1      36.347  21.556  25.246  1.00  0.00     0.066 A 
ATOM     23  H   UNL A   1      35.391  19.815  24.550  1.00  0.00     0.168 HD
ATOM     24  C   UNL A   1      36.518  23.811  26.058  1.00  0.00     0.030 A 
ATOM     25  C   UNL A   1      37.729  21.359  25.299  1.00  0.00     0.028 A 
ATOM     26  C   UNL A   1      37.910  23.651  26.104  1.00  0.00     0.002 A 
ATOM     27  C   UNL A   1      38.502  22.445  25.726  1.00  0.00     0.002 A 
ENDBRANCH  15  18
ENDBRANCH   9  14
ENDBRANCH   7   8
ENDBRANCH   6   7
ENDBRANCH   3   6
ENDBRANCH   1   2
BRANCH   1  28
ATOM     28  C   UNL A   1      32.591  28.177  26.059  1.00  0.00     0.042 C 
BRANCH  28  29
ATOM     29  C   UNL A   1      33.555  28.505  27.199  1.00  0.00     0.118 C 
BRANCH  29  30
ATOM     30  N   UNL A   1      33.507  29.876  27.685  1.00  0.00    -0.352 N 
ATOM     31  C   UNL A   1      34.508  30.640  28.243  1.00  0.00     0.251 C 
ATOM     32  H   UNL A   1      32.633  30.322  27.603  1.00  0.00     0.163 HD
ATOM     33  O   UNL A   1      34.269  31.783  28.602  1.00  0.00    -0.269 OA
BRANCH  31  34
ATOM     34  C   UNL A   1      35.859  30.066  28.449  1.00  0.00     0.039 A 
ATOM     35  C   UNL A   1      36.754  30.075  27.375  1.00  0.00     0.014 A 
ATOM     36  C   UNL A   1      36.248  29.526  29.678  1.00  0.00     0.014 A 
ATOM     37  C   UNL A   1      38.066  29.628  27.558  1.00  0.00     0.010 A 
ATOM     38  C   UNL A   1      37.570  29.116  29.870  1.00  0.00     0.010 A 
ATOM     39  C   UNL A   1      38.497  29.188  28.820  1.00  0.00    -0.014 A 
BRANCH  39  40
ATOM     40  C   UNL A   1      39.933  28.897  29.071  1.00  0.00     0.031 A 
ATOM     41  C   UNL A   1      40.857  29.946  29.624  1.00  0.00     0.074 A 
ATOM     42  C   UNL A   1      40.419  27.685  28.734  1.00  0.00     0.049 A 
ATOM     43  N   UNL A   1      42.139  29.863  29.874  1.00  0.00    -0.248 NA
ATOM     44  C   UNL A   1      40.270  31.262  29.917  1.00  0.00     0.031 C 
ATOM     45  C   UNL A   1      39.638  26.599  28.137  1.00  0.00     0.029 A 
ATOM     46  N   UNL A   1      41.685  27.164  28.833  1.00  0.00    -0.354 N 
ATOM     47  C   UNL A   1      42.516  31.113  30.350  1.00  0.00     0.074 A 
ATOM     48  C   UNL A   1      41.333  31.948  30.317  1.00  0.00     0.031 C 
ATOM     49  C   UNL A   1      40.436  25.540  27.935  1.00  0.00     0.029 A 
ATOM     50  C   UNL A   1      41.791  25.876  28.362  1.00  0.00     0.049 A 
ATOM     51  H   UNL A   1      42.447  27.666  29.205  1.00  0.00     0.167 HD
ATOM     52  C   UNL A   1      43.733  31.521  30.786  1.00  0.00     0.037 A 
ATOM     53  C   UNL A   1      42.857  25.058  28.277  1.00  0.00     0.037 A 
ATOM     54  C   UNL A   1      44.906  30.685  30.828  1.00  0.00     0.049 A 
ATOM     55  C   UNL A   1      44.194  25.531  28.777  1.00  0.00     0.074 A 
ATOM     56  C   UNL A   1      46.167  30.995  31.308  1.00  0.00     0.029 A 
ATOM     57  N   UNL A   1      44.967  29.378  30.369  1.00  0.00    -0.354 N 
ATOM     58  N   UNL A   1      44.513  26.692  29.294  1.00  0.00    -0.248 NA
ATOM     59  C   UNL A   1      45.311  24.581  28.692  1.00  0.00     0.031 C 
ATOM     60  C   UNL A   1      46.999  29.887  31.108  1.00  0.00     0.029 A 
ATOM     61  C   UNL A   1      46.247  28.874  30.538  1.00  0.00     0.049 A 
ATOM     62  H   UNL A   1      44.212  28.880  29.979  1.00  0.00     0.167 HD
ATOM     63  C   UNL A   1      45.862  26.605  29.617  1.00  0.00     0.074 A 
ATOM     64  C   UNL A   1      46.296  25.274  29.247  1.00  0.00     0.031 C 
ATOM     65  C   UNL A   1      46.666  27.544  30.173  1.00  0.00     0.037 A 
BRANCH  52  66
ATOM     66  C   UNL A   1      43.862  32.940  31.266  1.00  0.00     0.058 A 
ATOM     67  C   UNL A   1      44.241  33.974  30.396  1.00  0.00     0.135 A 
ATOM     68  C   UNL A   1      43.554  33.280  32.593  1.00  0.00     0.135 A 
ATOM     69  F   UNL A   1      44.556  33.703  29.119  1.00  0.00    -0.206 F 
ATOM     70  C   UNL A   1      44.335  35.292  30.830  1.00  0.00     0.059 A 
ATOM     71  C   UNL A   1      43.619  34.596  33.044  1.00  0.00     0.059 A 
ATOM     72  F   UNL A   1      43.182  32.329  33.465  1.00  0.00    -0.206 F 
ATOM     73  C   UNL A   1      44.024  35.593  32.158  1.00  0.00     0.060 A 
BRANCH  73  74
ATOM     74  S   UNL A   1      44.145  37.309  32.706  1.00  0.00     0.124 S 
ATOM     75  O   UNL A   1      43.152  37.344  33.774  1.00  0.00    -0.237 OA
ATOM     76  O   UNL A   1      45.537  37.405  33.134  1.00  0.00    -0.237 OA
ATOM     77  O   UNL A   1      43.808  38.072  31.509  1.00  0.00    -0.744 OA
ENDBRANCH  73  74
ENDBRANCH  52  66
BRANCH  53  78
ATOM     78  C   UNL A   1      42.697  23.692  27.714  1.00  0.00     0.058 A 
ATOM     79  C   UNL A   1      42.490  22.587  28.553  1.00  0.00     0.135 A 
ATOM     80  C   UNL A   1      42.732  23.467  26.329  1.00  0.00     0.135 A 
ATOM     81  F   UNL A   1      42.453  22.754  29.884  1.00  0.00    -0.206 F 
ATOM     82  C   UNL A   1      42.339  21.303  28.042  1.00  0.00     0.059 A 
ATOM     83  C   UNL A   1      42.562  22.195  25.793  1.00  0.00     0.059 A 
ATOM     84  F   UNL A   1      42.909  24.494  25.485  1.00  0.00    -0.206 F 
ATOM     85  C   UNL A   1      42.376  21.117  26.658  1.00  0.00     0.060 A 
BRANCH  85  86
ATOM     86  S   UNL A   1      42.129  19.454  25.998  1.00  0.00     0.124 S 
ATOM     87  O   UNL A   1      40.686  19.430  25.796  1.00  0.00    -0.237 OA
ATOM     88  O   UNL A   1      42.944  19.477  24.788  1.00  0.00    -0.237 OA
ATOM     89  O   UNL A   1      42.632  18.594  27.066  1.00  0.00    -0.744 OA
ENDBRANCH  85  86
ENDBRANCH  53  78
BRANCH  65  90
ATOM     90  C   UNL A   1      48.094  27.159  30.443  1.00  0.00     0.058 A 
ATOM     91  C   UNL A   1      49.129  27.506  29.561  1.00  0.00     0.135 A 
ATOM     92  C   UNL A   1      48.435  26.476  31.622  1.00  0.00     0.135 A 
ATOM     93  F   UNL A   1      48.854  28.151  28.417  1.00  0.00    -0.206 F 
ATOM     94  C   UNL A   1      50.454  27.175  29.831  1.00  0.00     0.059 A 
ATOM     95  C   UNL A   1      49.756  26.154  31.921  1.00  0.00     0.059 A 
ATOM     96  F   UNL A   1      47.483  26.127  32.500  1.00  0.00    -0.206 F 
ATOM     97  C   UNL A   1      50.757  26.499  31.014  1.00  0.00     0.060 A 
BRANCH  97  98
ATOM     98  S   UNL A   1      52.483  26.108  31.374  1.00  0.00     0.124 S 
ATOM     99  O   UNL A   1      52.363  24.789  31.987  1.00  0.00    -0.237 OA
ATOM    100  O   UNL A   1      53.096  26.138  30.049  1.00  0.00    -0.237 OA
ATOM    101  O   UNL A   1      52.894  27.184  32.271  1.00  0.00    -0.744 OA
ENDBRANCH  97  98
ENDBRANCH  65  90
ENDBRANCH  39  40
ENDBRANCH  31  34
ENDBRANCH  29  30
ENDBRANCH  28  29
ENDBRANCH   1  28
TORSDOF 18
ENDMDL
MODEL 2
REMARK VINA RESULT:     -11.7      0.468      8.087
REMARK SMILES N#C/C(=C/c1cccc(OCC(=O)NCCCNC(=O)c2ccc(-c3c4nc(c(-c5c(F)cc(S(=O)(=O)[O-])cc5F)c5ccc([nH]5)c(-c5c(F)cc(S(=O)(=O)[O-])cc5F)c5nc(c(-c6c(F)cc(S(=O)(=O)[O-])cc6F)c6ccc3[nH]6)C=C5)C=C4)cc2)c1)c1nc2ccccc2[nH]1
REMARK SMILES IDX 15 1 14 2 12 3 13 4 11 6 10 7 9 8 5 9 6 10 87 11 7 12 8 13
REMARK SMILES IDX 4 14 3 15 2 16 1 17 88 18 89 19 96 20 90 21 95 22 91 24
REMARK SMILES IDX 94 25 92 26 93 27 16 28 17 29 18 30 19 31 20 33 21 34 22 35
REMARK SMILES IDX 86 36 23 37 85 38 24 39 25 40 26 41 79 42 27 43 84 44 78 45
REMARK SMILES IDX 80 46 28 47 83 48 77 49 76 50 29 52 63 53 42 54 62 55 43 56
REMARK SMILES IDX 46 57 61 58 81 59 44 60 45 61 60 63 82 64 47 65 30 66 31 67
REMARK SMILES IDX 40 68 32 69 33 70 39 71 41 72 34 73 35 74 36 75 37 76 38 77
REMARK SMILES IDX 64 78 65 79 74 80 66 81 67 82 73 83 75 84 68 85 69 86 70 87
REMARK SMILES IDX 71 88 72 89 48 90 49 91 58 92 50 93 51 94 57 95 59 96 52 97
REMARK SMILES IDX 53 98 54 99 55 100 56 101
REMARK H PARENT 14 5 96 23 18 32 80 51 46 62
REMARK Flexibility Score: inf
ROOT
ATOM      1  C   UNL A   1      32.816  29.138  24.588  1.00  0.00     0.117 C 
ENDROOT
BRANCH   1   2
ATOM      2  N   UNL A   1      31.525  29.528  24.052  1.00  0.00    -0.353 N 
ATOM      3  C   UNL A   1      30.651  28.751  23.337  1.00  0.00     0.257 C 
ATOM      4  O   UNL A   1      29.476  29.106  23.206  1.00  0.00    -0.271 OA
ATOM      5  H   UNL A   1      31.244  30.456  24.221  1.00  0.00     0.163 HD
BRANCH   3   6
ATOM      6  C   UNL A   1      31.131  27.422  22.744  1.00  0.00     0.329 C 
BRANCH   6   7
ATOM      7  O   UNL A   1      31.129  26.311  23.626  1.00  0.00    -0.484 OA
BRANCH   7   8
ATOM      8  C   UNL A   1      31.757  25.164  23.217  1.00  0.00     0.120 A 
ATOM      9  C   UNL A   1      32.286  22.788  23.239  1.00  0.00    -0.021 A 
ATOM     10  C   UNL A   1      33.108  22.964  22.122  1.00  0.00     0.008 A 
ATOM     11  C   UNL A   1      31.633  23.899  23.797  1.00  0.00     0.054 A 
ATOM     12  C   UNL A   1      33.258  24.230  21.557  1.00  0.00     0.004 A 
ATOM     13  C   UNL A   1      32.581  25.322  22.102  1.00  0.00     0.046 A 
BRANCH   9  14
ATOM     14  C   UNL A   1      32.116  21.440  23.808  1.00  0.00     0.031 C 
ATOM     15  C   UNL A   1      33.012  20.790  24.578  1.00  0.00     0.095 C 
BRANCH  15  16
ATOM     16  C   UNL A   1      32.690  19.399  25.101  1.00  0.00     0.103 C 
ATOM     17  N   UNL A   1      32.422  18.246  25.536  1.00  0.00    -0.192 NA
ENDBRANCH  15  16
BRANCH  15  18
ATOM     18  C   UNL A   1      34.233  21.391  24.995  1.00  0.00     0.149 A 
ATOM     19  N   UNL A   1      34.476  22.593  25.481  1.00  0.00    -0.228 NA
ATOM     20  N   UNL A   1      35.403  20.669  24.894  1.00  0.00    -0.337 N 
ATOM     21  C   UNL A   1      35.835  22.659  25.662  1.00  0.00     0.089 A 
ATOM     22  C   UNL A   1      36.444  21.469  25.292  1.00  0.00     0.066 A 
ATOM     23  H   UNL A   1      35.478  19.737  24.587  1.00  0.00     0.168 HD
ATOM     24  C   UNL A   1      36.628  23.715  26.125  1.00  0.00     0.030 A 
ATOM     25  C   UNL A   1      37.826  21.270  25.329  1.00  0.00     0.028 A 
ATOM     26  C   UNL A   1      38.020  23.553  26.155  1.00  0.00     0.002 A 
ATOM     27  C   UNL A   1      38.606  22.350  25.759  1.00  0.00     0.002 A 
ENDBRANCH  15  18
ENDBRANCH   9  14
ENDBRANCH   7   8
ENDBRANCH   6   7
ENDBRANCH   3   6
ENDBRANCH   1   2
BRANCH   1  28
ATOM     28  C   UNL A   1      32.774  28.396  25.921  1.00  0.00     0.042 C 
BRANCH  28  29
ATOM     29  C   UNL A   1      33.897  28.683  26.917  1.00  0.00     0.118 C 
BRANCH  29  30
ATOM     30  N   UNL A   1      33.798  29.951  27.624  1.00  0.00    -0.352 N 
ATOM     31  C   UNL A   1      34.764  30.634  28.331  1.00  0.00     0.251 C 
ATOM     32  H   UNL A   1      32.914  30.384  27.593  1.00  0.00     0.163 HD
ATOM     33  O   UNL A   1      34.484  31.694  28.868  1.00  0.00    -0.269 OA
BRANCH  31  34
ATOM     34  C   UNL A   1      36.125  30.066  28.476  1.00  0.00     0.039 A 
ATOM     35  C   UNL A   1      36.992  30.133  27.381  1.00  0.00     0.014 A 
ATOM     36  C   UNL A   1      36.550  29.475  29.669  1.00  0.00     0.014 A 
ATOM     37  C   UNL A   1      38.312  29.693  27.512  1.00  0.00     0.010 A 
ATOM     38  C   UNL A   1      37.880  29.070  29.809  1.00  0.00     0.010 A 
ATOM     39  C   UNL A   1      38.780  29.200  28.741  1.00  0.00    -0.014 A 
BRANCH  39  40
ATOM     40  C   UNL A   1      40.225  28.914  28.943  1.00  0.00     0.031 A 
ATOM     41  C   UNL A   1      40.811  27.575  28.590  1.00  0.00     0.074 A 
ATOM     42  C   UNL A   1      41.001  29.859  29.511  1.00  0.00     0.049 A 
ATOM     43  N   UNL A   1      42.043  27.156  28.730  1.00  0.00    -0.248 NA
ATOM     44  C   UNL A   1      39.894  26.574  28.026  1.00  0.00     0.031 C 
ATOM     45  C   UNL A   1      40.539  31.178  29.949  1.00  0.00     0.029 A 
ATOM     46  N   UNL A   1      42.337  29.854  29.828  1.00  0.00    -0.354 N 
ATOM     47  C   UNL A   1      42.053  25.843  28.275  1.00  0.00     0.074 A 
ATOM     48  C   UNL A   1      40.692  25.524  27.892  1.00  0.00     0.031 C 
ATOM     49  C   UNL A   1      41.575  31.859  30.465  1.00  0.00     0.029 A 
ATOM     50  C   UNL A   1      42.767  31.018  30.421  1.00  0.00     0.049 A 
ATOM     51  H   UNL A   1      42.931  29.089  29.649  1.00  0.00     0.167 HD
ATOM     52  C   UNL A   1      43.100  24.989  28.175  1.00  0.00     0.037 A 
ATOM     53  C   UNL A   1      43.983  31.371  30.882  1.00  0.00     0.037 A 
ATOM     54  C   UNL A   1      44.454  25.313  28.549  1.00  0.00     0.049 A 
ATOM     55  C   UNL A   1      45.130  30.409  30.750  1.00  0.00     0.074 A 
ATOM     56  C   UNL A   1      45.590  24.530  28.428  1.00  0.00     0.029 A 
ATOM     57  N   UNL A   1      44.856  26.511  29.118  1.00  0.00    -0.354 N 
ATOM     58  N   UNL A   1      45.134  29.198  30.247  1.00  0.00    -0.248 NA
ATOM     59  C   UNL A   1      46.440  30.863  31.238  1.00  0.00     0.031 C 
ATOM     60  C   UNL A   1      46.673  25.243  28.956  1.00  0.00     0.029 A 
ATOM     61  C   UNL A   1      46.219  26.484  29.371  1.00  0.00     0.049 A 
ATOM     62  H   UNL A   1      44.261  27.271  29.315  1.00  0.00     0.167 HD
ATOM     63  C   UNL A   1      46.448  28.755  30.337  1.00  0.00     0.074 A 
ATOM     64  C   UNL A   1      47.214  29.831  30.932  1.00  0.00     0.031 C 
ATOM     65  C   UNL A   1      46.972  27.564  29.957  1.00  0.00     0.037 A 
BRANCH  52  66
ATOM     66  C   UNL A   1      42.829  23.613  27.631  1.00  0.00     0.058 A 
ATOM     67  C   UNL A   1      42.930  23.337  26.259  1.00  0.00     0.135 A 
ATOM     68  C   UNL A   1      42.514  22.550  28.493  1.00  0.00     0.135 A 
ATOM     69  F   UNL A   1      43.218  24.319  25.390  1.00  0.00    -0.206 F 
ATOM     70  C   UNL A   1      42.706  22.060  25.756  1.00  0.00     0.059 A 
ATOM     71  C   UNL A   1      42.308  21.259  28.014  1.00  0.00     0.059 A 
ATOM     72  F   UNL A   1      42.408  22.760  29.815  1.00  0.00    -0.206 F 
ATOM     73  C   UNL A   1      42.393  21.027  26.643  1.00  0.00     0.060 A 
BRANCH  73  74
ATOM     74  S   UNL A   1      42.110  19.373  25.976  1.00  0.00     0.124 S 
ATOM     75  O   UNL A   1      42.579  18.533  27.072  1.00  0.00    -0.237 OA
ATOM     76  O   UNL A   1      40.669  19.368  25.748  1.00  0.00    -0.237 OA
ATOM     77  O   UNL A   1      42.931  19.348  24.769  1.00  0.00    -0.744 OA
ENDBRANCH  73  74
ENDBRANCH  52  66
BRANCH  53  78
ATOM     78  C   UNL A   1      44.181  32.712  31.492  1.00  0.00     0.058 A 
ATOM     79  C   UNL A   1      44.547  33.813  30.705  1.00  0.00     0.135 A 
ATOM     80  C   UNL A   1      43.994  32.920  32.867  1.00  0.00     0.135 A 
ATOM     81  F   UNL A   1      44.741  33.660  29.387  1.00  0.00    -0.206 F 
ATOM     82  C   UNL A   1      44.738  35.073  31.261  1.00  0.00     0.059 A 
ATOM     83  C   UNL A   1      44.158  34.175  33.443  1.00  0.00     0.059 A 
ATOM     84  F   UNL A   1      43.626  31.901  33.658  1.00  0.00    -0.206 F 
ATOM     85  C   UNL A   1      44.540  35.245  32.633  1.00  0.00     0.060 A 
BRANCH  85  86
ATOM     86  S   UNL A   1      44.739  36.895  33.340  1.00  0.00     0.124 S 
ATOM     87  O   UNL A   1      46.186  37.063  33.288  1.00  0.00    -0.237 OA
ATOM     88  O   UNL A   1      43.966  37.721  32.419  1.00  0.00    -0.237 OA
ATOM     89  O   UNL A   1      44.166  36.756  34.675  1.00  0.00    -0.744 OA
ENDBRANCH  85  86
ENDBRANCH  53  78
BRANCH  65  90
ATOM     90  C   UNL A   1      48.450  27.367  30.146  1.00  0.00     0.058 A 
ATOM     91  C   UNL A   1      48.967  26.711  31.274  1.00  0.00     0.135 A 
ATOM     92  C   UNL A   1      49.356  27.799  29.163  1.00  0.00     0.135 A 
ATOM     93  F   UNL A   1      48.144  26.288  32.245  1.00  0.00    -0.206 F 
ATOM     94  C   UNL A   1      50.334  26.503  31.430  1.00  0.00     0.059 A 
ATOM     95  C   UNL A   1      50.725  27.582  29.289  1.00  0.00     0.059 A 
ATOM     96  F   UNL A   1      48.912  28.426  28.064  1.00  0.00    -0.206 F 
ATOM     97  C   UNL A   1      51.206  26.942  30.431  1.00  0.00     0.060 A 
BRANCH  97  98
ATOM     98  S   UNL A   1      52.974  26.633  30.623  1.00  0.00     0.124 S 
ATOM     99  O   UNL A   1      53.359  26.272  29.262  1.00  0.00    -0.237 OA
ATOM    100  O   UNL A   1      53.469  27.921  31.100  1.00  0.00    -0.237 OA
ATOM    101  O   UNL A   1      53.024  25.550  31.600  1.00  0.00    -0.744 OA
ENDBRANCH  97  98
ENDBRANCH  65  90
ENDBRANCH  39  40
ENDBRANCH  31  34
ENDBRANCH  29  30
ENDBRANCH  28  29
ENDBRANCH   1  28
TORSDOF 18
ENDMDL
MODEL 3
REMARK VINA RESULT:     -11.3      4.906     10.467
REMARK SMILES N#C/C(=C/c1cccc(OCC(=O)NCCCNC(=O)c2ccc(-c3c4nc(c(-c5c(F)cc(S(=O)(=O)[O-])cc5F)c5ccc([nH]5)c(-c5c(F)cc(S(=O)(=O)[O-])cc5F)c5nc(c(-c6c(F)cc(S(=O)(=O)[O-])cc6F)c6ccc3[nH]6)C=C5)C=C4)cc2)c1)c1nc2ccccc2[nH]1
REMARK SMILES IDX 15 1 14 2 12 3 13 4 11 6 10 7 9 8 5 9 6 10 87 11 7 12 8 13
REMARK SMILES IDX 4 14 3 15 2 16 1 17 88 18 89 19 96 20 90 21 95 22 91 24
REMARK SMILES IDX 94 25 92 26 93 27 16 28 17 29 18 30 19 31 20 33 21 34 22 35
REMARK SMILES IDX 86 36 23 37 85 38 24 39 25 40 26 41 79 42 27 43 84 44 78 45
REMARK SMILES IDX 80 46 28 47 83 48 77 49 76 50 29 52 63 53 42 54 62 55 43 56
REMARK SMILES IDX 46 57 61 58 81 59 44 60 45 61 60 63 82 64 47 65 30 66 31 67
REMARK SMILES IDX 40 68 32 69 33 70 39 71 41 72 34 73 35 74 36 75 37 76 38 77
REMARK SMILES IDX 64 78 65 79 74 80 66 81 67 82 73 83 75 84 68 85 69 86 70 87
REMARK SMILES IDX 71 88 72 89 48 90 49 91 58 92 50 93 51 94 57 95 59 96 52 97
REMARK SMILES IDX 53 98 54 99 55 100 56 101
REMARK H PARENT 14 5 96 23 18 32 80 51 46 62
REMARK Flexibility Score: inf
ROOT
ATOM      1  C   UNL A   1      41.070  22.105  27.175  1.00  0.00     0.117 C 
ENDROOT
BRANCH   1   2
ATOM      2  N   UNL A   1      40.789  20.843  26.516  1.00  0.00    -0.353 N 
ATOM      3  C   UNL A   1      39.619  20.460  25.914  1.00  0.00     0.257 C 
ATOM      4  O   UNL A   1      39.610  19.499  25.140  1.00  0.00    -0.271 OA
ATOM      5  H   UNL A   1      41.522  20.186  26.500  1.00  0.00     0.163 HD
BRANCH   3   6
ATOM      6  C   UNL A   1      38.338  21.260  26.173  1.00  0.00     0.329 C 
BRANCH   6   7
ATOM      7  O   UNL A   1      38.186  22.452  25.421  1.00  0.00    -0.484 OA
BRANCH   7   8
ATOM      8  C   UNL A   1      36.952  22.726  24.891  1.00  0.00     0.120 A 
ATOM      9  C   UNL A   1      34.566  23.207  24.941  1.00  0.00    -0.021 A 
ATOM     10  C   UNL A   1      34.572  23.363  23.551  1.00  0.00     0.008 A 
ATOM     11  C   UNL A   1      35.757  22.862  25.602  1.00  0.00     0.054 A 
ATOM     12  C   UNL A   1      35.757  23.199  22.835  1.00  0.00     0.004 A 
ATOM     13  C   UNL A   1      36.941  22.886  23.505  1.00  0.00     0.046 A 
BRANCH   9  14
ATOM     14  C   UNL A   1      33.313  23.410  25.687  1.00  0.00     0.031 C 
ATOM     15  C   UNL A   1      32.358  22.481  25.894  1.00  0.00     0.095 C 
BRANCH  15  16
ATOM     16  C   UNL A   1      31.117  22.838  26.696  1.00  0.00     0.103 C 
ATOM     17  N   UNL A   1      30.088  23.135  27.361  1.00  0.00    -0.192 NA
ENDBRANCH  15  16
BRANCH  15  18
ATOM     18  C   UNL A   1      32.501  21.134  25.455  1.00  0.00     0.149 A 
ATOM     19  N   UNL A   1      32.891  20.055  26.105  1.00  0.00    -0.228 NA
ATOM     20  N   UNL A   1      32.218  20.826  24.141  1.00  0.00    -0.337 N 
ATOM     21  C   UNL A   1      32.893  19.039  25.184  1.00  0.00     0.089 A 
ATOM     22  C   UNL A   1      32.486  19.495  23.939  1.00  0.00     0.066 A 
ATOM     23  H   UNL A   1      31.880  21.454  23.463  1.00  0.00     0.168 HD
ATOM     24  C   UNL A   1      33.252  17.694  25.332  1.00  0.00     0.030 A 
ATOM     25  C   UNL A   1      32.437  18.685  22.802  1.00  0.00     0.028 A 
ATOM     26  C   UNL A   1      33.233  16.861  24.206  1.00  0.00     0.002 A 
ATOM     27  C   UNL A   1      32.835  17.353  22.961  1.00  0.00     0.002 A 
ENDBRANCH  15  18
ENDBRANCH   9  14
ENDBRANCH   7   8
ENDBRANCH   6   7
ENDBRANCH   3   6
ENDBRANCH   1   2
BRANCH   1  28
ATOM     28  C   UNL A   1      42.530  22.329  27.562  1.00  0.00     0.042 C 
BRANCH  28  29
ATOM     29  C   UNL A   1      43.253  23.508  26.911  1.00  0.00     0.118 C 
BRANCH  29  30
ATOM     30  N   UNL A   1      42.502  24.215  25.884  1.00  0.00    -0.352 N 
ATOM     31  C   UNL A   1      41.811  25.403  25.970  1.00  0.00     0.251 C 
ATOM     32  H   UNL A   1      42.487  23.781  25.000  1.00  0.00     0.163 HD
ATOM     33  O   UNL A   1      41.229  25.837  24.988  1.00  0.00    -0.269 OA
BRANCH  31  34
ATOM     34  C   UNL A   1      41.736  26.132  27.259  1.00  0.00     0.039 A 
ATOM     35  C   UNL A   1      42.684  27.127  27.514  1.00  0.00     0.014 A 
ATOM     36  C   UNL A   1      40.749  25.847  28.206  1.00  0.00     0.014 A 
ATOM     37  C   UNL A   1      42.588  27.898  28.676  1.00  0.00     0.010 A 
ATOM     38  C   UNL A   1      40.631  26.643  29.348  1.00  0.00     0.010 A 
ATOM     39  C   UNL A   1      41.533  27.693  29.581  1.00  0.00    -0.014 A 
BRANCH  39  40
ATOM     40  C   UNL A   1      41.312  28.630  30.712  1.00  0.00     0.031 A 
ATOM     41  C   UNL A   1      42.130  28.541  31.971  1.00  0.00     0.074 A 
ATOM     42  C   UNL A   1      40.315  29.533  30.623  1.00  0.00     0.049 A 
ATOM     43  N   UNL A   1      42.046  29.264  33.059  1.00  0.00    -0.248 NA
ATOM     44  C   UNL A   1      43.164  27.497  32.020  1.00  0.00     0.031 C 
ATOM     45  C   UNL A   1      39.413  29.683  29.478  1.00  0.00     0.029 A 
ATOM     46  N   UNL A   1      39.882  30.487  31.510  1.00  0.00    -0.354 N 
ATOM     47  C   UNL A   1      43.009  28.762  33.925  1.00  0.00     0.074 A 
ATOM     48  C   UNL A   1      43.641  27.648  33.248  1.00  0.00     0.031 C 
ATOM     49  C   UNL A   1      38.546  30.677  29.726  1.00  0.00     0.029 A 
ATOM     50  C   UNL A   1      38.809  31.217  31.056  1.00  0.00     0.049 A 
ATOM     51  H   UNL A   1      40.301  30.635  32.389  1.00  0.00     0.167 HD
ATOM     52  C   UNL A   1      43.344  29.199  35.163  1.00  0.00     0.037 A 
ATOM     53  C   UNL A   1      38.110  32.207  31.644  1.00  0.00     0.037 A 
ATOM     54  C   UNL A   1      42.720  30.315  35.830  1.00  0.00     0.049 A 
ATOM     55  C   UNL A   1      38.507  32.681  33.014  1.00  0.00     0.074 A 
ATOM     56  C   UNL A   1      43.033  30.866  37.062  1.00  0.00     0.029 A 
ATOM     57  N   UNL A   1      41.655  31.047  35.327  1.00  0.00    -0.354 N 
ATOM     58  N   UNL A   1      39.472  32.242  33.786  1.00  0.00    -0.248 NA
ATOM     59  C   UNL A   1      37.731  33.788  33.588  1.00  0.00     0.031 C 
ATOM     60  C   UNL A   1      42.135  31.909  37.318  1.00  0.00     0.029 A 
ATOM     61  C   UNL A   1      41.288  32.033  36.230  1.00  0.00     0.049 A 
ATOM     62  H   UNL A   1      41.223  30.890  34.457  1.00  0.00     0.167 HD
ATOM     63  C   UNL A   1      39.432  33.035  34.927  1.00  0.00     0.074 A 
ATOM     64  C   UNL A   1      38.357  33.986  34.740  1.00  0.00     0.031 C 
ATOM     65  C   UNL A   1      40.220  32.980  36.029  1.00  0.00     0.037 A 
BRANCH  52  66
ATOM     66  C   UNL A   1      44.446  28.474  35.885  1.00  0.00     0.058 A 
ATOM     67  C   UNL A   1      44.172  27.400  36.746  1.00  0.00     0.135 A 
ATOM     68  C   UNL A   1      45.790  28.820  35.675  1.00  0.00     0.135 A 
ATOM     69  F   UNL A   1      42.904  27.033  36.990  1.00  0.00    -0.206 F 
ATOM     70  C   UNL A   1      45.192  26.710  37.394  1.00  0.00     0.059 A 
ATOM     71  C   UNL A   1      46.827  28.129  36.295  1.00  0.00     0.059 A 
ATOM     72  F   UNL A   1      46.106  29.838  34.858  1.00  0.00    -0.206 F 
ATOM     73  C   UNL A   1      46.517  27.083  37.163  1.00  0.00     0.060 A 
BRANCH  73  74
ATOM     74  S   UNL A   1      47.830  26.175  38.007  1.00  0.00     0.124 S 
ATOM     75  O   UNL A   1      47.401  26.269  39.398  1.00  0.00    -0.237 OA
ATOM     76  O   UNL A   1      47.732  24.849  37.404  1.00  0.00    -0.237 OA
ATOM     77  O   UNL A   1      49.035  26.925  37.668  1.00  0.00    -0.744 OA
ENDBRANCH  73  74
ENDBRANCH  52  66
BRANCH  53  78
ATOM     78  C   UNL A   1      36.971  32.836  30.923  1.00  0.00     0.058 A 
ATOM     79  C   UNL A   1      35.646  32.502  31.241  1.00  0.00     0.135 A 
ATOM     80  C   UNL A   1      37.185  33.790  29.917  1.00  0.00     0.135 A 
ATOM     81  F   UNL A   1      35.395  31.592  32.193  1.00  0.00    -0.206 F 
ATOM     82  C   UNL A   1      34.571  33.080  30.575  1.00  0.00     0.059 A 
ATOM     83  C   UNL A   1      36.125  34.397  29.252  1.00  0.00     0.059 A 
ATOM     84  F   UNL A   1      38.434  34.155  29.590  1.00  0.00    -0.206 F 
ATOM     85  C   UNL A   1      34.821  34.029  29.581  1.00  0.00     0.060 A 
BRANCH  85  86
ATOM     86  S   UNL A   1      33.419  34.813  28.756  1.00  0.00     0.124 S 
ATOM     87  O   UNL A   1      33.029  33.784  27.800  1.00  0.00    -0.237 OA
ATOM     88  O   UNL A   1      32.496  35.039  29.864  1.00  0.00    -0.237 OA
ATOM     89  O   UNL A   1      34.004  36.021  28.183  1.00  0.00    -0.744 OA
ENDBRANCH  85  86
ENDBRANCH  53  78
BRANCH  65  90
ATOM     90  C   UNL A   1      39.968  33.993  37.110  1.00  0.00     0.058 A 
ATOM     91  C   UNL A   1      40.499  35.291  37.041  1.00  0.00     0.135 A 
ATOM     92  C   UNL A   1      39.146  33.676  38.204  1.00  0.00     0.135 A 
ATOM     93  F   UNL A   1      41.297  35.640  36.021  1.00  0.00    -0.206 F 
ATOM     94  C   UNL A   1      40.237  36.235  38.029  1.00  0.00     0.059 A 
ATOM     95  C   UNL A   1      38.854  34.612  39.192  1.00  0.00     0.059 A 
ATOM     96  F   UNL A   1      38.610  32.451  38.313  1.00  0.00    -0.206 F 
ATOM     97  C   UNL A   1      39.412  35.886  39.101  1.00  0.00     0.060 A 
BRANCH  97  98
ATOM     98  S   UNL A   1      39.046  37.131  40.357  1.00  0.00     0.124 S 
ATOM     99  O   UNL A   1      38.466  38.200  39.550  1.00  0.00    -0.237 OA
ATOM    100  O   UNL A   1      38.119  36.427  41.238  1.00  0.00    -0.237 OA
ATOM    101  O   UNL A   1      40.354  37.420  40.937  1.00  0.00    -0.744 OA
ENDBRANCH  97  98
ENDBRANCH  65  90
ENDBRANCH  39  40
ENDBRANCH  31  34
ENDBRANCH  29  30
ENDBRANCH  28  29
ENDBRANCH   1  28
TORSDOF 18
ENDMDL
