MODEL 1
REMARK VINA RESULT:     -12.4      0.000      0.000
REMARK SMILES Nc1nc(N2CCOC[C@H]2C(=O)NCCCNC(=O)c2ccc(-c3c4nc(c(-c5c(F)cc(S(=O)(=O)[O-])cc5F)c5ccc([nH]5)c(-c5c(F)cc(S(=O)(=O)[O-])cc5F)c5nc(c(-c6c(F)cc(S(=O)(=O)[O-])cc6F)c6ccc3[nH]6)C=C5)C=C4)cc2)ccc1[N+](=O)[O-]
REMARK SMILES IDX 15 1 14 2 13 3 11 4 12 5 10 7 5 8 6 9 7 10 9 11 8 12 4 13
REMARK SMILES IDX 2 14 3 15 88 16 87 17 86 18 1 19 89 22 90 23 91 24 16 25
REMARK SMILES IDX 17 26 18 27 19 29 20 30 21 31 85 32 22 33 84 34 23 35 24 36
REMARK SMILES IDX 25 37 78 38 26 39 83 40 77 41 79 42 27 43 82 44 76 45 75 46
REMARK SMILES IDX 28 48 62 49 41 50 61 51 42 52 45 53 60 54 80 55 43 56 44 57
REMARK SMILES IDX 59 59 81 60 46 61 29 62 30 63 39 64 31 65 32 66 38 67 40 68
REMARK SMILES IDX 33 69 34 70 35 71 36 72 37 73 63 74 64 75 73 76 65 77 66 78
REMARK SMILES IDX 72 79 74 80 67 81 68 82 69 83 70 84 71 85 47 86 48 87 57 88
REMARK SMILES IDX 49 89 50 90 56 91 58 92 51 93 52 94 53 95 54 96 55 97
REMARK H PARENT 13 6 1 20 1 21 17 28 79 47 45 58
REMARK Flexibility Score: inf
ROOT
ATOM      1  C   UNL A   1      38.608  22.653  26.085  1.00  0.00     0.042 C 
ENDROOT
BRANCH   1   2
ATOM      2  C   UNL A   1      37.370  23.466  25.723  1.00  0.00     0.117 C 
BRANCH   2   3
ATOM      3  N   UNL A   1      36.283  23.244  26.653  1.00  0.00    -0.354 N 
ATOM      4  C   UNL A   1      34.948  23.040  26.484  1.00  0.00     0.245 C 
ATOM      5  O   UNL A   1      34.323  22.828  27.536  1.00  0.00    -0.273 OA
ATOM      6  H   UNL A   1      36.566  23.240  27.597  1.00  0.00     0.163 HD
BRANCH   4   7
ATOM      7  C   UNL A   1      34.213  22.962  25.124  1.00  0.00     0.199 C 
ATOM      8  N   UNL A   1      33.119  21.969  25.009  1.00  0.00    -0.340 N 
ATOM      9  C   UNL A   1      31.753  22.421  25.247  1.00  0.00     0.147 C 
ATOM     10  C   UNL A   1      31.489  23.732  24.508  1.00  0.00     0.181 C 
ATOM     11  C   UNL A   1      33.788  24.336  24.562  1.00  0.00     0.195 C 
ATOM     12  O   UNL A   1      32.441  24.742  24.863  1.00  0.00    -0.377 OA
BRANCH   8  13
ATOM     13  C   UNL A   1      33.410  20.666  24.668  1.00  0.00     0.132 A 
ATOM     14  C   UNL A   1      34.935  18.876  24.671  1.00  0.00     0.204 A 
ATOM     15  N   UNL A   1      34.640  20.176  24.932  1.00  0.00    -0.207 NA
ATOM     16  C   UNL A   1      34.006  18.027  24.081  1.00  0.00     0.311 A 
ATOM     17  C   UNL A   1      32.755  18.533  23.734  1.00  0.00     0.093 A 
ATOM     18  C   UNL A   1      32.467  19.861  24.030  1.00  0.00     0.054 A 
BRANCH  14  19
ATOM     19  N   UNL A   1      36.243  18.530  24.953  1.00  0.00    -0.378 N 
ATOM     20  H   UNL A   1      36.971  19.166  24.768  1.00  0.00     0.158 HD
ATOM     21  H   UNL A   1      36.446  17.647  25.338  1.00  0.00     0.158 HD
ENDBRANCH  14  19
BRANCH  16  22
ATOM     22  N   UNL A   1      34.287  16.619  23.830  1.00  0.00     0.066 N 
ATOM     23  O   UNL A   1      34.697  15.940  24.784  1.00  0.00    -0.258 OA
ATOM     24  O   UNL A   1      34.136  16.178  22.680  1.00  0.00    -0.258 OA
ENDBRANCH  16  22
ENDBRANCH   8  13
ENDBRANCH   4   7
ENDBRANCH   2   3
ENDBRANCH   1   2
BRANCH   1  25
ATOM     25  C   UNL A   1      39.636  23.433  26.890  1.00  0.00     0.118 C 
BRANCH  25  26
ATOM     26  N   UNL A   1      40.660  24.023  26.040  1.00  0.00    -0.352 N 
ATOM     27  C   UNL A   1      41.268  25.254  26.086  1.00  0.00     0.251 C 
ATOM     28  H   UNL A   1      40.971  23.441  25.308  1.00  0.00     0.163 HD
ATOM     29  O   UNL A   1      41.958  25.603  25.130  1.00  0.00    -0.269 OA
BRANCH  27  30
ATOM     30  C   UNL A   1      41.099  26.165  27.245  1.00  0.00     0.039 A 
ATOM     31  C   UNL A   1      40.087  25.888  28.170  1.00  0.00     0.014 A 
ATOM     32  C   UNL A   1      41.875  27.315  27.405  1.00  0.00     0.014 A 
ATOM     33  C   UNL A   1      39.883  26.737  29.261  1.00  0.00     0.010 A 
ATOM     34  C   UNL A   1      41.742  28.102  28.548  1.00  0.00     0.010 A 
ATOM     35  C   UNL A   1      40.724  27.841  29.474  1.00  0.00    -0.014 A 
BRANCH  35  36
ATOM     36  C   UNL A   1      40.520  28.744  30.638  1.00  0.00     0.031 A 
ATOM     37  C   UNL A   1      41.368  28.594  31.877  1.00  0.00     0.074 A 
ATOM     38  C   UNL A   1      39.550  29.678  30.592  1.00  0.00     0.049 A 
ATOM     39  N   UNL A   1      41.347  29.297  32.981  1.00  0.00    -0.248 NA
ATOM     40  C   UNL A   1      42.342  27.491  31.892  1.00  0.00     0.031 C 
ATOM     41  C   UNL A   1      38.611  29.869  29.483  1.00  0.00     0.029 A 
ATOM     42  N   UNL A   1      39.192  30.646  31.497  1.00  0.00    -0.354 N 
ATOM     43  C   UNL A   1      42.286  28.711  33.824  1.00  0.00     0.074 A 
ATOM     44  C   UNL A   1      42.815  27.559  33.127  1.00  0.00     0.031 C 
ATOM     45  C   UNL A   1      37.814  30.914  29.757  1.00  0.00     0.029 A 
ATOM     46  C   UNL A   1      38.165  31.451  31.067  1.00  0.00     0.049 A 
ATOM     47  H   UNL A   1      39.631  30.754  32.372  1.00  0.00     0.167 HD
ATOM     48  C   UNL A   1      42.695  29.112  35.051  1.00  0.00     0.037 A 
ATOM     49  C   UNL A   1      37.581  32.513  31.656  1.00  0.00     0.037 A 
ATOM     50  C   UNL A   1      42.194  30.284  35.719  1.00  0.00     0.049 A 
ATOM     51  C   UNL A   1      38.098  32.983  32.987  1.00  0.00     0.074 A 
ATOM     52  C   UNL A   1      42.590  30.823  36.931  1.00  0.00     0.029 A 
ATOM     53  N   UNL A   1      41.189  31.105  35.227  1.00  0.00    -0.354 N 
ATOM     54  N   UNL A   1      39.043  32.463  33.734  1.00  0.00    -0.248 NA
ATOM     55  C   UNL A   1      37.484  34.194  33.547  1.00  0.00     0.031 C 
ATOM     56  C   UNL A   1      41.800  31.950  37.188  1.00  0.00     0.029 A 
ATOM     57  C   UNL A   1      40.944  32.139  36.115  1.00  0.00     0.049 A 
ATOM     58  H   UNL A   1      40.719  30.972  34.372  1.00  0.00     0.167 HD
ATOM     59  C   UNL A   1      39.155  33.298  34.840  1.00  0.00     0.074 A 
ATOM     60  C   UNL A   1      38.192  34.364  34.656  1.00  0.00     0.031 C 
ATOM     61  C   UNL A   1      39.980  33.192  35.912  1.00  0.00     0.037 A 
BRANCH  48  62
ATOM     62  C   UNL A   1      43.743  28.282  35.744  1.00  0.00     0.058 A 
ATOM     63  C   UNL A   1      43.399  27.240  36.620  1.00  0.00     0.135 A 
ATOM     64  C   UNL A   1      45.108  28.518  35.514  1.00  0.00     0.135 A 
ATOM     65  F   UNL A   1      42.110  26.980  36.890  1.00  0.00    -0.206 F 
ATOM     66  C   UNL A   1      44.369  26.484  37.271  1.00  0.00     0.059 A 
ATOM     67  C   UNL A   1      46.097  27.754  36.132  1.00  0.00     0.059 A 
ATOM     68  F   UNL A   1      45.496  29.500  34.687  1.00  0.00    -0.206 F 
ATOM     69  C   UNL A   1      45.716  26.752  37.022  1.00  0.00     0.060 A 
BRANCH  69  70
ATOM     70  S   UNL A   1      46.964  25.763  37.875  1.00  0.00     0.124 S 
ATOM     71  O   UNL A   1      48.116  26.659  37.842  1.00  0.00    -0.237 OA
ATOM     72  O   UNL A   1      46.359  25.559  39.187  1.00  0.00    -0.237 OA
ATOM     73  O   UNL A   1      47.074  24.566  37.046  1.00  0.00    -0.744 OA
ENDBRANCH  69  70
ENDBRANCH  48  62
BRANCH  49  74
ATOM     74  C   UNL A   1      36.481  33.232  30.959  1.00  0.00     0.058 A 
ATOM     75  C   UNL A   1      35.144  33.060  31.349  1.00  0.00     0.135 A 
ATOM     76  C   UNL A   1      36.746  34.130  29.914  1.00  0.00     0.135 A 
ATOM     77  F   UNL A   1      34.840  32.211  32.342  1.00  0.00    -0.206 F 
ATOM     78  C   UNL A   1      34.108  33.742  30.721  1.00  0.00     0.059 A 
ATOM     79  C   UNL A   1      35.729  34.841  29.286  1.00  0.00     0.059 A 
ATOM     80  F   UNL A   1      38.010  34.347  29.518  1.00  0.00    -0.206 F 
ATOM     81  C   UNL A   1      34.412  34.634  29.691  1.00  0.00     0.060 A 
BRANCH  81  82
ATOM     82  S   UNL A   1      33.066  35.566  28.925  1.00  0.00     0.124 S 
ATOM     83  O   UNL A   1      32.369  36.089  30.094  1.00  0.00    -0.237 OA
ATOM     84  O   UNL A   1      33.789  36.546  28.121  1.00  0.00    -0.237 OA
ATOM     85  O   UNL A   1      32.348  34.549  28.163  1.00  0.00    -0.744 OA
ENDBRANCH  81  82
ENDBRANCH  49  74
BRANCH  61  86
ATOM     86  C   UNL A   1      39.896  34.276  36.950  1.00  0.00     0.058 A 
ATOM     87  C   UNL A   1      39.155  34.111  38.130  1.00  0.00     0.135 A 
ATOM     88  C   UNL A   1      40.584  35.486  36.768  1.00  0.00     0.135 A 
ATOM     89  F   UNL A   1      38.477  32.973  38.350  1.00  0.00    -0.206 F 
ATOM     90  C   UNL A   1      39.066  35.125  39.078  1.00  0.00     0.059 A 
ATOM     91  C   UNL A   1      40.532  36.503  37.717  1.00  0.00     0.059 A 
ATOM     92  F   UNL A   1      41.319  35.689  35.664  1.00  0.00    -0.206 F 
ATOM     93  C   UNL A   1      39.754  36.320  38.859  1.00  0.00     0.060 A 
BRANCH  93  94
ATOM     94  S   UNL A   1      39.634  37.631  40.095  1.00  0.00     0.124 S 
ATOM     95  O   UNL A   1      41.009  38.115  40.141  1.00  0.00    -0.237 OA
ATOM     96  O   UNL A   1      38.661  38.540  39.495  1.00  0.00    -0.237 OA
ATOM     97  O   UNL A   1      39.173  36.929  41.289  1.00  0.00    -0.744 OA
ENDBRANCH  93  94
ENDBRANCH  61  86
ENDBRANCH  35  36
ENDBRANCH  27  30
ENDBRANCH  25  26
ENDBRANCH   1  25
TORSDOF 16
ENDMDL
MODEL 2
REMARK VINA RESULT:     -12.2      1.581      3.501
REMARK SMILES Nc1nc(N2CCOC[C@H]2C(=O)NCCCNC(=O)c2ccc(-c3c4nc(c(-c5c(F)cc(S(=O)(=O)[O-])cc5F)c5ccc([nH]5)c(-c5c(F)cc(S(=O)(=O)[O-])cc5F)c5nc(c(-c6c(F)cc(S(=O)(=O)[O-])cc6F)c6ccc3[nH]6)C=C5)C=C4)cc2)ccc1[N+](=O)[O-]
REMARK SMILES IDX 15 1 14 2 13 3 11 4 12 5 10 7 5 8 6 9 7 10 9 11 8 12 4 13
REMARK SMILES IDX 2 14 3 15 88 16 87 17 86 18 1 19 89 22 90 23 91 24 16 25
REMARK SMILES IDX 17 26 18 27 19 29 20 30 21 31 85 32 22 33 84 34 23 35 24 36
REMARK SMILES IDX 25 37 78 38 26 39 83 40 77 41 79 42 27 43 82 44 76 45 75 46
REMARK SMILES IDX 28 48 62 49 41 50 61 51 42 52 45 53 60 54 80 55 43 56 44 57
REMARK SMILES IDX 59 59 81 60 46 61 29 62 30 63 39 64 31 65 32 66 38 67 40 68
REMARK SMILES IDX 33 69 34 70 35 71 36 72 37 73 63 74 64 75 73 76 65 77 66 78
REMARK SMILES IDX 72 79 74 80 67 81 68 82 69 83 70 84 71 85 47 86 48 87 57 88
REMARK SMILES IDX 49 89 50 90 56 91 58 92 51 93 52 94 53 95 54 96 55 97
REMARK H PARENT 13 6 1 20 1 21 17 28 79 47 45 58
REMARK Flexibility Score: inf
ROOT
ATOM      1  C   UNL A   1      38.480  23.231  26.455  1.00  0.00     0.042 C 
ENDROOT
BRANCH   1   2
ATOM      2  C   UNL A   1      38.116  21.990  25.647  1.00  0.00     0.117 C 
BRANCH   2   3
ATOM      3  N   UNL A   1      37.644  22.326  24.320  1.00  0.00    -0.354 N 
ATOM      4  C   UNL A   1      36.405  22.573  23.814  1.00  0.00     0.245 C 
ATOM      5  O   UNL A   1      36.393  22.888  22.614  1.00  0.00    -0.273 OA
ATOM      6  H   UNL A   1      38.363  22.387  23.649  1.00  0.00     0.163 HD
BRANCH   4   7
ATOM      7  C   UNL A   1      35.085  22.583  24.625  1.00  0.00     0.199 C 
ATOM      8  N   UNL A   1      33.878  23.095  23.934  1.00  0.00    -0.340 N 
ATOM      9  C   UNL A   1      32.990  22.131  23.296  1.00  0.00     0.147 C 
ATOM     10  C   UNL A   1      32.725  20.951  24.231  1.00  0.00     0.181 C 
ATOM     11  C   UNL A   1      34.793  21.256  25.361  1.00  0.00     0.195 C 
ATOM     12  O   UNL A   1      33.942  20.332  24.662  1.00  0.00    -0.377 OA
BRANCH   8  13
ATOM     13  C   UNL A   1      33.616  24.448  23.928  1.00  0.00     0.132 A 
ATOM     14  C   UNL A   1      32.717  26.320  22.825  1.00  0.00     0.204 A 
ATOM     15  N   UNL A   1      33.051  25.003  22.834  1.00  0.00    -0.207 NA
ATOM     16  C   UNL A   1      32.990  27.144  23.910  1.00  0.00     0.311 A 
ATOM     17  C   UNL A   1      33.638  26.606  25.020  1.00  0.00     0.093 A 
ATOM     18  C   UNL A   1      33.952  25.251  25.017  1.00  0.00     0.054 A 
BRANCH  14  19
ATOM     19  N   UNL A   1      32.189  26.755  21.625  1.00  0.00    -0.378 N 
ATOM     20  H   UNL A   1      32.750  27.262  20.995  1.00  0.00     0.158 HD
ATOM     21  H   UNL A   1      31.250  26.559  21.401  1.00  0.00     0.158 HD
ENDBRANCH  14  19
BRANCH  16  22
ATOM     22  N   UNL A   1      32.603  28.550  23.937  1.00  0.00     0.066 N 
ATOM     23  O   UNL A   1      31.732  28.887  24.754  1.00  0.00    -0.258 OA
ATOM     24  O   UNL A   1      33.133  29.328  23.129  1.00  0.00    -0.258 OA
ENDBRANCH  16  22
ENDBRANCH   8  13
ENDBRANCH   4   7
ENDBRANCH   2   3
ENDBRANCH   1   2
BRANCH   1  25
ATOM     25  C   UNL A   1      39.899  23.208  27.002  1.00  0.00     0.118 C 
BRANCH  25  26
ATOM     26  N   UNL A   1      40.833  23.901  26.126  1.00  0.00    -0.352 N 
ATOM     27  C   UNL A   1      41.304  25.191  26.154  1.00  0.00     0.251 C 
ATOM     28  H   UNL A   1      41.188  23.352  25.389  1.00  0.00     0.163 HD
ATOM     29  O   UNL A   1      41.928  25.607  25.180  1.00  0.00    -0.269 OA
BRANCH  27  30
ATOM     30  C   UNL A   1      41.063  26.086  27.313  1.00  0.00     0.039 A 
ATOM     31  C   UNL A   1      41.870  27.219  27.460  1.00  0.00     0.014 A 
ATOM     32  C   UNL A   1      40.103  25.799  28.286  1.00  0.00     0.014 A 
ATOM     33  C   UNL A   1      41.688  28.072  28.552  1.00  0.00     0.010 A 
ATOM     34  C   UNL A   1      39.851  26.704  29.316  1.00  0.00     0.010 A 
ATOM     35  C   UNL A   1      40.661  27.836  29.479  1.00  0.00    -0.014 A 
BRANCH  35  36
ATOM     36  C   UNL A   1      40.454  28.744  30.638  1.00  0.00     0.031 A 
ATOM     37  C   UNL A   1      41.295  28.598  31.881  1.00  0.00     0.074 A 
ATOM     38  C   UNL A   1      39.485  29.680  30.584  1.00  0.00     0.049 A 
ATOM     39  N   UNL A   1      41.271  29.305  32.983  1.00  0.00    -0.248 NA
ATOM     40  C   UNL A   1      42.268  27.493  31.905  1.00  0.00     0.031 C 
ATOM     41  C   UNL A   1      38.552  29.869  29.471  1.00  0.00     0.029 A 
ATOM     42  N   UNL A   1      39.126  30.652  31.484  1.00  0.00    -0.354 N 
ATOM     43  C   UNL A   1      42.205  28.720  33.832  1.00  0.00     0.074 A 
ATOM     44  C   UNL A   1      42.735  27.565  33.143  1.00  0.00     0.031 C 
ATOM     45  C   UNL A   1      37.756  30.916  29.736  1.00  0.00     0.029 A 
ATOM     46  C   UNL A   1      38.102  31.458  31.046  1.00  0.00     0.049 A 
ATOM     47  H   UNL A   1      39.561  30.763  32.360  1.00  0.00     0.167 HD
ATOM     48  C   UNL A   1      42.609  29.125  35.059  1.00  0.00     0.037 A 
ATOM     49  C   UNL A   1      37.518  32.523  31.628  1.00  0.00     0.037 A 
ATOM     50  C   UNL A   1      42.108  30.301  35.721  1.00  0.00     0.049 A 
ATOM     51  C   UNL A   1      38.029  32.997  32.960  1.00  0.00     0.074 A 
ATOM     52  C   UNL A   1      42.499  30.844  36.932  1.00  0.00     0.029 A 
ATOM     53  N   UNL A   1      41.106  31.122  35.221  1.00  0.00    -0.354 N 
ATOM     54  N   UNL A   1      38.970  32.479  33.713  1.00  0.00    -0.248 NA
ATOM     55  C   UNL A   1      37.415  34.212  33.512  1.00  0.00     0.031 C 
ATOM     56  C   UNL A   1      41.711  31.974  37.181  1.00  0.00     0.029 A 
ATOM     57  C   UNL A   1      40.859  32.161  36.103  1.00  0.00     0.049 A 
ATOM     58  H   UNL A   1      40.641  30.987  34.364  1.00  0.00     0.167 HD
ATOM     59  C   UNL A   1      39.079  33.318  34.816  1.00  0.00     0.074 A 
ATOM     60  C   UNL A   1      38.119  34.385  34.623  1.00  0.00     0.031 C 
ATOM     61  C   UNL A   1      39.899  33.214  35.892  1.00  0.00     0.037 A 
BRANCH  48  62
ATOM     62  C   UNL A   1      43.652  28.297  35.760  1.00  0.00     0.058 A 
ATOM     63  C   UNL A   1      45.026  28.508  35.553  1.00  0.00     0.135 A 
ATOM     64  C   UNL A   1      43.278  27.291  36.666  1.00  0.00     0.135 A 
ATOM     65  F   UNL A   1      45.442  29.444  34.686  1.00  0.00    -0.206 F 
ATOM     66  C   UNL A   1      45.988  27.731  36.189  1.00  0.00     0.059 A 
ATOM     67  C   UNL A   1      44.224  26.520  37.337  1.00  0.00     0.059 A 
ATOM     68  F   UNL A   1      41.980  27.044  36.904  1.00  0.00    -0.206 F 
ATOM     69  C   UNL A   1      45.577  26.736  37.078  1.00  0.00     0.060 A 
BRANCH  69  70
ATOM     70  S   UNL A   1      46.838  25.735  37.896  1.00  0.00     0.124 S 
ATOM     71  O   UNL A   1      46.791  24.509  37.105  1.00  0.00    -0.237 OA
ATOM     72  O   UNL A   1      48.037  26.548  37.733  1.00  0.00    -0.237 OA
ATOM     73  O   UNL A   1      46.344  25.619  39.265  1.00  0.00    -0.744 OA
ENDBRANCH  69  70
ENDBRANCH  48  62
BRANCH  49  74
ATOM     74  C   UNL A   1      36.422  33.241  30.924  1.00  0.00     0.058 A 
ATOM     75  C   UNL A   1      35.097  33.163  31.377  1.00  0.00     0.135 A 
ATOM     76  C   UNL A   1      36.683  34.048  29.805  1.00  0.00     0.135 A 
ATOM     77  F   UNL A   1      34.797  32.403  32.442  1.00  0.00    -0.206 F 
ATOM     78  C   UNL A   1      34.067  33.846  30.741  1.00  0.00     0.059 A 
ATOM     79  C   UNL A   1      35.672  34.760  29.166  1.00  0.00     0.059 A 
ATOM     80  F   UNL A   1      37.937  34.174  29.345  1.00  0.00    -0.206 F 
ATOM     81  C   UNL A   1      34.366  34.646  29.637  1.00  0.00     0.060 A 
BRANCH  81  82
ATOM     82  S   UNL A   1      33.032  35.583  28.857  1.00  0.00     0.124 S 
ATOM     83  O   UNL A   1      33.774  36.635  28.173  1.00  0.00    -0.237 OA
ATOM     84  O   UNL A   1      32.410  34.578  28.001  1.00  0.00    -0.237 OA
ATOM     85  O   UNL A   1      32.221  36.016  29.991  1.00  0.00    -0.744 OA
ENDBRANCH  81  82
ENDBRANCH  49  74
BRANCH  61  86
ATOM     86  C   UNL A   1      39.813  34.302  36.926  1.00  0.00     0.058 A 
ATOM     87  C   UNL A   1      38.932  34.217  38.014  1.00  0.00     0.135 A 
ATOM     88  C   UNL A   1      40.638  35.434  36.833  1.00  0.00     0.135 A 
ATOM     89  F   UNL A   1      38.119  33.156  38.146  1.00  0.00    -0.206 F 
ATOM     90  C   UNL A   1      38.843  35.236  38.957  1.00  0.00     0.059 A 
ATOM     91  C   UNL A   1      40.586  36.453  37.781  1.00  0.00     0.059 A 
ATOM     92  F   UNL A   1      41.508  35.558  35.819  1.00  0.00    -0.206 F 
ATOM     93  C   UNL A   1      39.671  36.353  38.828  1.00  0.00     0.060 A 
BRANCH  93  94
ATOM     94  S   UNL A   1      39.550  37.670  40.056  1.00  0.00     0.124 S 
ATOM     95  O   UNL A   1      40.811  38.377  39.851  1.00  0.00    -0.237 OA
ATOM     96  O   UNL A   1      38.348  38.384  39.634  1.00  0.00    -0.237 OA
ATOM     97  O   UNL A   1      39.432  36.947  41.318  1.00  0.00    -0.744 OA
ENDBRANCH  93  94
ENDBRANCH  61  86
ENDBRANCH  35  36
ENDBRANCH  27  30
ENDBRANCH  25  26
ENDBRANCH   1  25
TORSDOF 16
ENDMDL
MODEL 3
REMARK VINA RESULT:     -12.2      4.188     10.212
REMARK SMILES Nc1nc(N2CCOC[C@H]2C(=O)NCCCNC(=O)c2ccc(-c3c4nc(c(-c5c(F)cc(S(=O)(=O)[O-])cc5F)c5ccc([nH]5)c(-c5c(F)cc(S(=O)(=O)[O-])cc5F)c5nc(c(-c6c(F)cc(S(=O)(=O)[O-])cc6F)c6ccc3[nH]6)C=C5)C=C4)cc2)ccc1[N+](=O)[O-]
REMARK SMILES IDX 15 1 14 2 13 3 11 4 12 5 10 7 5 8 6 9 7 10 9 11 8 12 4 13
REMARK SMILES IDX 2 14 3 15 88 16 87 17 86 18 1 19 89 22 90 23 91 24 16 25
REMARK SMILES IDX 17 26 18 27 19 29 20 30 21 31 85 32 22 33 84 34 23 35 24 36
REMARK SMILES IDX 25 37 78 38 26 39 83 40 77 41 79 42 27 43 82 44 76 45 75 46
REMARK SMILES IDX 28 48 62 49 41 50 61 51 42 52 45 53 60 54 80 55 43 56 44 57
REMARK SMILES IDX 59 59 81 60 46 61 29 62 30 63 39 64 31 65 32 66 38 67 40 68
REMARK SMILES IDX 33 69 34 70 35 71 36 72 37 73 63 74 64 75 73 76 65 77 66 78
REMARK SMILES IDX 72 79 74 80 67 81 68 82 69 83 70 84 71 85 47 86 48 87 57 88
REMARK SMILES IDX 49 89 50 90 56 91 58 92 51 93 52 94 53 95 54 96 55 97
REMARK H PARENT 13 6 1 20 1 21 17 28 79 47 45 58
REMARK Flexibility Score: inf
ROOT
ATOM      1  C   UNL A   1      33.913  27.331  25.663  1.00  0.00     0.042 C 
ENDROOT
BRANCH   1   2
ATOM      2  C   UNL A   1      33.307  25.950  25.440  1.00  0.00     0.117 C 
BRANCH   2   3
ATOM      3  N   UNL A   1      31.992  25.832  26.035  1.00  0.00    -0.354 N 
ATOM      4  C   UNL A   1      30.743  25.721  25.505  1.00  0.00     0.245 C 
ATOM      5  O   UNL A   1      29.839  25.582  26.344  1.00  0.00    -0.273 OA
ATOM      6  H   UNL A   1      32.004  25.833  27.020  1.00  0.00     0.163 HD
BRANCH   4   7
ATOM      7  C   UNL A   1      30.406  25.660  23.995  1.00  0.00     0.199 C 
ATOM      8  N   UNL A   1      30.860  26.799  23.161  1.00  0.00    -0.340 N 
ATOM      9  C   UNL A   1      32.130  26.671  22.456  1.00  0.00     0.147 C 
ATOM     10  C   UNL A   1      32.221  25.311  21.764  1.00  0.00     0.181 C 
ATOM     11  C   UNL A   1      30.744  24.306  23.333  1.00  0.00     0.195 C 
ATOM     12  O   UNL A   1      32.027  24.233  22.687  1.00  0.00    -0.377 OA
BRANCH   8  13
ATOM     13  C   UNL A   1      30.074  27.926  23.057  1.00  0.00     0.132 A 
ATOM     14  C   UNL A   1      27.931  28.893  23.047  1.00  0.00     0.204 A 
ATOM     15  N   UNL A   1      28.731  27.795  23.078  1.00  0.00    -0.207 NA
ATOM     16  C   UNL A   1      28.462  30.173  22.943  1.00  0.00     0.311 A 
ATOM     17  C   UNL A   1      29.844  30.325  22.847  1.00  0.00     0.093 A 
ATOM     18  C   UNL A   1      30.645  29.189  22.902  1.00  0.00     0.054 A 
BRANCH  14  19
ATOM     19  N   UNL A   1      26.580  28.603  23.030  1.00  0.00    -0.378 N 
ATOM     20  H   UNL A   1      25.969  29.137  22.475  1.00  0.00     0.158 HD
ATOM     21  H   UNL A   1      26.230  27.860  23.575  1.00  0.00     0.158 HD
ENDBRANCH  14  19
BRANCH  16  22
ATOM     22  N   UNL A   1      27.625  31.367  22.950  1.00  0.00     0.066 N 
ATOM     23  O   UNL A   1      26.835  31.504  23.897  1.00  0.00    -0.258 OA
ATOM     24  O   UNL A   1      27.717  32.164  22.004  1.00  0.00    -0.258 OA
ENDBRANCH  16  22
ENDBRANCH   8  13
ENDBRANCH   4   7
ENDBRANCH   2   3
ENDBRANCH   1   2
BRANCH   1  25
ATOM     25  C   UNL A   1      33.468  27.990  26.960  1.00  0.00     0.118 C 
BRANCH  25  26
ATOM     26  N   UNL A   1      33.410  29.440  26.842  1.00  0.00    -0.352 N 
ATOM     27  C   UNL A   1      34.234  30.417  27.348  1.00  0.00     0.251 C 
ATOM     28  H   UNL A   1      32.654  29.779  26.311  1.00  0.00     0.163 HD
ATOM     29  O   UNL A   1      33.861  31.587  27.288  1.00  0.00    -0.269 OA
BRANCH  27  30
ATOM     30  C   UNL A   1      35.540  30.091  27.972  1.00  0.00     0.039 A 
ATOM     31  C   UNL A   1      35.558  29.686  29.311  1.00  0.00     0.014 A 
ATOM     32  C   UNL A   1      36.747  30.235  27.285  1.00  0.00     0.014 A 
ATOM     33  C   UNL A   1      36.772  29.393  29.939  1.00  0.00     0.010 A 
ATOM     34  C   UNL A   1      37.947  29.842  27.878  1.00  0.00     0.010 A 
ATOM     35  C   UNL A   1      37.977  29.446  29.222  1.00  0.00    -0.014 A 
BRANCH  35  36
ATOM     36  C   UNL A   1      39.272  29.126  29.879  1.00  0.00     0.031 A 
ATOM     37  C   UNL A   1      39.706  29.877  31.113  1.00  0.00     0.074 A 
ATOM     38  C   UNL A   1      40.073  28.182  29.346  1.00  0.00     0.049 A 
ATOM     39  N   UNL A   1      40.790  29.727  31.831  1.00  0.00    -0.248 NA
ATOM     40  C   UNL A   1      38.826  30.959  31.583  1.00  0.00     0.031 C 
ATOM     41  C   UNL A   1      39.802  27.443  28.110  1.00  0.00     0.029 A 
ATOM     42  N   UNL A   1      41.275  27.678  29.775  1.00  0.00    -0.354 N 
ATOM     43  C   UNL A   1      40.730  30.704  32.821  1.00  0.00     0.074 A 
ATOM     44  C   UNL A   1      39.535  31.479  32.574  1.00  0.00     0.031 C 
ATOM     45  C   UNL A   1      40.788  26.554  27.904  1.00  0.00     0.029 A 
ATOM     46  C   UNL A   1      41.771  26.677  28.975  1.00  0.00     0.049 A 
ATOM     47  H   UNL A   1      41.738  28.003  30.581  1.00  0.00     0.167 HD
ATOM     48  C   UNL A   1      41.575  30.917  33.858  1.00  0.00     0.037 A 
ATOM     49  C   UNL A   1      42.886  25.930  29.098  1.00  0.00     0.037 A 
ATOM     50  C   UNL A   1      42.739  30.114  34.121  1.00  0.00     0.049 A 
ATOM     51  C   UNL A   1      43.772  26.137  30.295  1.00  0.00     0.074 A 
ATOM     52  C   UNL A   1      43.623  30.196  35.183  1.00  0.00     0.029 A 
ATOM     53  N   UNL A   1      43.180  29.073  33.315  1.00  0.00    -0.354 N 
ATOM     54  N   UNL A   1      43.656  27.013  31.265  1.00  0.00    -0.248 NA
ATOM     55  C   UNL A   1      44.929  25.241  30.426  1.00  0.00     0.031 C 
ATOM     56  C   UNL A   1      44.617  29.227  35.002  1.00  0.00     0.029 A 
ATOM     57  C   UNL A   1      44.328  28.512  33.850  1.00  0.00     0.049 A 
ATOM     58  H   UNL A   1      42.741  28.777  32.485  1.00  0.00     0.167 HD
ATOM     59  C   UNL A   1      44.710  26.758  32.135  1.00  0.00     0.074 A 
ATOM     60  C   UNL A   1      45.442  25.636  31.584  1.00  0.00     0.031 C 
ATOM     61  C   UNL A   1      45.041  27.395  33.286  1.00  0.00     0.037 A 
BRANCH  48  62
ATOM     62  C   UNL A   1      41.261  32.056  34.790  1.00  0.00     0.058 A 
ATOM     63  C   UNL A   1      41.822  33.332  34.613  1.00  0.00     0.135 A 
ATOM     64  C   UNL A   1      40.374  31.879  35.864  1.00  0.00     0.135 A 
ATOM     65  F   UNL A   1      42.690  33.556  33.613  1.00  0.00    -0.206 F 
ATOM     66  C   UNL A   1      41.543  34.380  35.485  1.00  0.00     0.059 A 
ATOM     67  C   UNL A   1      40.056  32.921  36.732  1.00  0.00     0.059 A 
ATOM     68  F   UNL A   1      39.807  30.682  36.083  1.00  0.00    -0.206 F 
ATOM     69  C   UNL A   1      40.661  34.163  36.544  1.00  0.00     0.060 A 
BRANCH  69  70
ATOM     70  S   UNL A   1      40.309  35.532  37.668  1.00  0.00     0.124 S 
ATOM     71  O   UNL A   1      41.588  35.677  38.356  1.00  0.00    -0.237 OA
ATOM     72  O   UNL A   1      39.959  36.610  36.749  1.00  0.00    -0.237 OA
ATOM     73  O   UNL A   1      39.209  35.027  38.485  1.00  0.00    -0.744 OA
ENDBRANCH  69  70
ENDBRANCH  48  62
BRANCH  49  74
ATOM     74  C   UNL A   1      43.190  24.884  28.086  1.00  0.00     0.058 A 
ATOM     75  C   UNL A   1      43.887  25.196  26.909  1.00  0.00     0.135 A 
ATOM     76  C   UNL A   1      42.820  23.545  28.290  1.00  0.00     0.135 A 
ATOM     77  F   UNL A   1      44.260  26.462  26.668  1.00  0.00    -0.206 F 
ATOM     78  C   UNL A   1      44.196  24.224  25.965  1.00  0.00     0.059 A 
ATOM     79  C   UNL A   1      43.139  22.550  27.371  1.00  0.00     0.059 A 
ATOM     80  F   UNL A   1      42.171  23.190  29.410  1.00  0.00    -0.206 F 
ATOM     81  C   UNL A   1      43.821  22.901  26.207  1.00  0.00     0.060 A 
BRANCH  81  82
ATOM     82  S   UNL A   1      44.285  21.633  25.007  1.00  0.00     0.124 S 
ATOM     83  O   UNL A   1      44.109  22.344  23.746  1.00  0.00    -0.237 OA
ATOM     84  O   UNL A   1      45.662  21.338  25.388  1.00  0.00    -0.237 OA
ATOM     85  O   UNL A   1      43.328  20.562  25.267  1.00  0.00    -0.744 OA
ENDBRANCH  81  82
ENDBRANCH  49  74
BRANCH  61  86
ATOM     86  C   UNL A   1      46.232  26.869  34.040  1.00  0.00     0.058 A 
ATOM     87  C   UNL A   1      46.105  25.862  35.008  1.00  0.00     0.135 A 
ATOM     88  C   UNL A   1      47.516  27.368  33.772  1.00  0.00     0.135 A 
ATOM     89  F   UNL A   1      44.897  25.354  35.302  1.00  0.00    -0.206 F 
ATOM     90  C   UNL A   1      47.208  25.393  35.715  1.00  0.00     0.059 A 
ATOM     91  C   UNL A   1      48.637  26.893  34.448  1.00  0.00     0.059 A 
ATOM     92  F   UNL A   1      47.694  28.322  32.845  1.00  0.00    -0.206 F 
ATOM     93  C   UNL A   1      48.468  25.920  35.431  1.00  0.00     0.060 A 
BRANCH  93  94
ATOM     94  S   UNL A   1      49.894  25.305  36.353  1.00  0.00     0.124 S 
ATOM     95  O   UNL A   1      49.380  24.045  36.880  1.00  0.00    -0.237 OA
ATOM     96  O   UNL A   1      50.914  25.189  35.315  1.00  0.00    -0.237 OA
ATOM     97  O   UNL A   1      50.133  26.351  37.344  1.00  0.00    -0.744 OA
ENDBRANCH  93  94
ENDBRANCH  61  86
ENDBRANCH  35  36
ENDBRANCH  27  30
ENDBRANCH  25  26
ENDBRANCH   1  25
TORSDOF 16
ENDMDL
