MODEL 1
REMARK VINA RESULT:     -12.3      0.000      0.000
REMARK SMILES C[C@@H]1CC[C@@](C(=O)NCCCNC(=O)c2ccc(-c3c4nc(c(-c5c(F)cc(S(=O)(=O)[O-])cc5F)c5ccc([nH]5)c(-c5c(F)cc(S(=O)(=O)[O-])cc5F)c5nc(c(-c6c(F)cc(S(=O)(=O)[O-])cc6F)c6ccc3[nH]6)C=C5)C=C4)cc2)([C@@H]2CCC[C@H](S(C)(=O)=O)C2)C1
REMARK SMILES IDX 10 1 9 2 8 3 6 4 7 5 5 7 1 8 2 9 3 10 91 11 4 12 81 13 82 14
REMARK SMILES IDX 90 15 83 16 85 17 84 18 86 19 87 20 88 21 89 22 11 23 12 24
REMARK SMILES IDX 13 25 14 27 15 28 16 29 80 30 17 31 79 32 18 33 19 34 20 35
REMARK SMILES IDX 73 36 21 37 78 38 72 39 74 40 22 41 77 42 71 43 70 44 23 46
REMARK SMILES IDX 57 47 36 48 56 49 37 50 40 51 55 52 75 53 38 54 39 55 54 57
REMARK SMILES IDX 76 58 41 59 24 60 25 61 34 62 26 63 27 64 33 65 35 66 28 67
REMARK SMILES IDX 29 68 30 69 31 70 32 71 58 72 59 73 68 74 60 75 61 76 67 77
REMARK SMILES IDX 69 78 62 79 63 80 64 81 65 82 66 83 42 84 43 85 52 86 44 87
REMARK SMILES IDX 45 88 51 89 53 90 46 91 47 92 48 93 49 94 50 95
REMARK H PARENT 8 6 12 26 74 45 40 56
REMARK Flexibility Score: inf
ROOT
ATOM      1  C   UNL A   1      32.260  28.012  27.384  1.00  0.00     0.042 C 
ENDROOT
BRANCH   1   2
ATOM      2  C   UNL A   1      31.935  26.973  26.327  1.00  0.00     0.117 C 
BRANCH   2   3
ATOM      3  N   UNL A   1      31.288  25.794  26.864  1.00  0.00    -0.356 N 
ATOM      4  C   UNL A   1      31.299  24.488  26.495  1.00  0.00     0.226 C 
ATOM      5  O   UNL A   1      30.850  23.707  27.344  1.00  0.00    -0.274 OA
ATOM      6  H   UNL A   1      30.728  25.975  27.653  1.00  0.00     0.163 HD
BRANCH   4   7
ATOM      7  C   UNL A   1      31.929  23.948  25.176  1.00  0.00     0.052 C 
ATOM      8  C   UNL A   1      31.099  26.694  23.008  1.00  0.00     0.007 C 
ATOM      9  C   UNL A   1      31.851  25.363  23.110  1.00  0.00    -0.013 C 
ATOM     10  C   UNL A   1      30.989  24.120  22.887  1.00  0.00     0.004 C 
ATOM     11  C   UNL A   1      32.554  25.174  24.456  1.00  0.00     0.020 C 
ATOM     12  C   UNL A   1      30.919  23.331  24.193  1.00  0.00     0.017 C 
BRANCH   7  13
ATOM     13  C   UNL A   1      33.045  22.886  25.571  1.00  0.00     0.006 C 
ATOM     14  C   UNL A   1      34.474  23.270  25.118  1.00  0.00     0.005 C 
ATOM     15  C   UNL A   1      32.719  21.457  25.049  1.00  0.00     0.024 C 
ATOM     16  C   UNL A   1      35.506  22.236  25.559  1.00  0.00     0.002 C 
ATOM     17  C   UNL A   1      33.766  20.416  25.474  1.00  0.00     0.108 C 
ATOM     18  C   UNL A   1      35.168  20.844  25.043  1.00  0.00     0.020 C 
BRANCH  17  19
ATOM     19  S   UNL A   1      33.322  18.797  24.803  1.00  0.00     0.150 S 
ATOM     20  C   UNL A   1      32.382  19.155  23.338  1.00  0.00     0.158 C 
ATOM     21  O   UNL A   1      34.542  18.148  24.357  1.00  0.00    -0.229 OA
ATOM     22  O   UNL A   1      32.430  18.137  25.735  1.00  0.00    -0.229 OA
ENDBRANCH  17  19
ENDBRANCH   7  13
ENDBRANCH   4   7
ENDBRANCH   2   3
ENDBRANCH   1   2
BRANCH   1  23
ATOM     23  C   UNL A   1      33.600  28.690  27.150  1.00  0.00     0.118 C 
BRANCH  23  24
ATOM     24  N   UNL A   1      33.632  30.062  27.657  1.00  0.00    -0.352 N 
ATOM     25  C   UNL A   1      34.603  30.740  28.356  1.00  0.00     0.251 C 
ATOM     26  H   UNL A   1      32.822  30.587  27.467  1.00  0.00     0.163 HD
ATOM     27  O   UNL A   1      34.333  31.817  28.881  1.00  0.00    -0.269 OA
BRANCH  25  28
ATOM     28  C   UNL A   1      35.958  30.165  28.492  1.00  0.00     0.039 A 
ATOM     29  C   UNL A   1      36.834  30.183  27.403  1.00  0.00     0.014 A 
ATOM     30  C   UNL A   1      36.365  29.609  29.703  1.00  0.00     0.014 A 
ATOM     31  C   UNL A   1      38.150  29.736  27.564  1.00  0.00     0.010 A 
ATOM     32  C   UNL A   1      37.700  29.284  29.895  1.00  0.00     0.010 A 
ATOM     33  C   UNL A   1      38.608  29.336  28.828  1.00  0.00    -0.014 A 
BRANCH  33  34
ATOM     34  C   UNL A   1      40.017  28.938  29.092  1.00  0.00     0.031 A 
ATOM     35  C   UNL A   1      40.984  29.972  29.611  1.00  0.00     0.074 A 
ATOM     36  C   UNL A   1      40.454  27.712  28.741  1.00  0.00     0.049 A 
ATOM     37  N   UNL A   1      42.289  29.929  29.671  1.00  0.00    -0.248 NA
ATOM     38  C   UNL A   1      40.405  31.246  30.072  1.00  0.00     0.031 C 
ATOM     39  C   UNL A   1      39.627  26.637  28.189  1.00  0.00     0.029 A 
ATOM     40  N   UNL A   1      41.717  27.171  28.770  1.00  0.00    -0.354 N 
ATOM     41  C   UNL A   1      42.686  31.185  30.115  1.00  0.00     0.074 A 
ATOM     42  C   UNL A   1      41.490  31.980  30.272  1.00  0.00     0.031 C 
ATOM     43  C   UNL A   1      40.398  25.562  27.951  1.00  0.00     0.029 A 
ATOM     44  C   UNL A   1      41.781  25.888  28.279  1.00  0.00     0.049 A 
ATOM     45  H   UNL A   1      42.502  27.658  29.110  1.00  0.00     0.167 HD
ATOM     46  C   UNL A   1      43.936  31.628  30.386  1.00  0.00     0.037 A 
ATOM     47  C   UNL A   1      42.839  25.073  28.095  1.00  0.00     0.037 A 
ATOM     48  C   UNL A   1      45.110  30.801  30.306  1.00  0.00     0.049 A 
ATOM     49  C   UNL A   1      44.215  25.573  28.450  1.00  0.00     0.074 A 
ATOM     50  C   UNL A   1      46.412  31.121  30.645  1.00  0.00     0.029 A 
ATOM     51  N   UNL A   1      45.118  29.482  29.874  1.00  0.00    -0.354 N 
ATOM     52  N   UNL A   1      44.570  26.750  28.909  1.00  0.00    -0.248 NA
ATOM     53  C   UNL A   1      45.335  24.639  28.265  1.00  0.00     0.031 C 
ATOM     54  C   UNL A   1      47.214  30.006  30.390  1.00  0.00     0.029 A 
ATOM     55  C   UNL A   1      46.405  28.977  29.935  1.00  0.00     0.049 A 
ATOM     56  H   UNL A   1      44.327  28.982  29.571  1.00  0.00     0.167 HD
ATOM     57  C   UNL A   1      45.943  26.682  29.109  1.00  0.00     0.074 A 
ATOM     58  C   UNL A   1      46.359  25.352  28.714  1.00  0.00     0.031 C 
ATOM     59  C   UNL A   1      46.786  27.633  29.581  1.00  0.00     0.037 A 
BRANCH  46  60
ATOM     60  C   UNL A   1      44.102  33.061  30.810  1.00  0.00     0.058 A 
ATOM     61  C   UNL A   1      44.077  33.441  32.160  1.00  0.00     0.135 A 
ATOM     62  C   UNL A   1      44.333  34.063  29.853  1.00  0.00     0.135 A 
ATOM     63  F   UNL A   1      43.843  32.527  33.117  1.00  0.00    -0.206 F 
ATOM     64  C   UNL A   1      44.248  34.766  32.547  1.00  0.00     0.059 A 
ATOM     65  C   UNL A   1      44.537  35.390  30.219  1.00  0.00     0.059 A 
ATOM     66  F   UNL A   1      44.366  33.757  28.547  1.00  0.00    -0.206 F 
ATOM     67  C   UNL A   1      44.479  35.734  31.569  1.00  0.00     0.060 A 
BRANCH  67  68
ATOM     68  S   UNL A   1      44.718  37.445  32.090  1.00  0.00     0.124 S 
ATOM     69  O   UNL A   1      43.716  37.571  33.143  1.00  0.00    -0.237 OA
ATOM     70  O   UNL A   1      46.108  37.446  32.535  1.00  0.00    -0.237 OA
ATOM     71  O   UNL A   1      44.453  38.210  30.875  1.00  0.00    -0.744 OA
ENDBRANCH  67  68
ENDBRANCH  46  60
BRANCH  47  72
ATOM     72  C   UNL A   1      42.643  23.693  27.578  1.00  0.00     0.058 A 
ATOM     73  C   UNL A   1      42.512  22.612  28.462  1.00  0.00     0.135 A 
ATOM     74  C   UNL A   1      42.578  23.421  26.203  1.00  0.00     0.135 A 
ATOM     75  F   UNL A   1      42.571  22.819  29.787  1.00  0.00    -0.206 F 
ATOM     76  C   UNL A   1      42.347  21.309  28.006  1.00  0.00     0.059 A 
ATOM     77  C   UNL A   1      42.389  22.129  25.720  1.00  0.00     0.059 A 
ATOM     78  F   UNL A   1      42.677  24.422  25.314  1.00  0.00    -0.206 F 
ATOM     79  C   UNL A   1      42.287  21.077  26.630  1.00  0.00     0.060 A 
BRANCH  79  80
ATOM     80  S   UNL A   1      42.039  19.385  26.048  1.00  0.00     0.124 S 
ATOM     81  O   UNL A   1      42.901  19.351  24.872  1.00  0.00    -0.237 OA
ATOM     82  O   UNL A   1      42.486  18.597  27.192  1.00  0.00    -0.237 OA
ATOM     83  O   UNL A   1      40.604  19.330  25.783  1.00  0.00    -0.744 OA
ENDBRANCH  79  80
ENDBRANCH  47  72
BRANCH  59  84
ATOM     84  C   UNL A   1      48.226  27.263  29.775  1.00  0.00     0.058 A 
ATOM     85  C   UNL A   1      49.192  27.499  28.788  1.00  0.00     0.135 A 
ATOM     86  C   UNL A   1      48.660  26.769  31.017  1.00  0.00     0.135 A 
ATOM     87  F   UNL A   1      48.825  27.963  27.582  1.00  0.00    -0.206 F 
ATOM     88  C   UNL A   1      50.541  27.262  29.023  1.00  0.00     0.059 A 
ATOM     89  C   UNL A   1      50.006  26.545  31.283  1.00  0.00     0.059 A 
ATOM     90  F   UNL A   1      47.773  26.534  31.998  1.00  0.00    -0.206 F 
ATOM     91  C   UNL A   1      50.939  26.796  30.279  1.00  0.00     0.060 A 
BRANCH  91  92
ATOM     92  S   UNL A   1      52.702  26.574  30.602  1.00  0.00     0.124 S 
ATOM     93  O   UNL A   1      52.691  25.463  31.547  1.00  0.00    -0.237 OA
ATOM     94  O   UNL A   1      53.228  26.272  29.274  1.00  0.00    -0.237 OA
ATOM     95  O   UNL A   1      53.112  27.863  31.152  1.00  0.00    -0.744 OA
ENDBRANCH  91  92
ENDBRANCH  59  84
ENDBRANCH  33  34
ENDBRANCH  25  28
ENDBRANCH  23  24
ENDBRANCH   1  23
TORSDOF 15
ENDMDL
MODEL 2
REMARK VINA RESULT:     -12.3      5.185     10.688
REMARK SMILES C[C@@H]1CC[C@@](C(=O)NCCCNC(=O)c2ccc(-c3c4nc(c(-c5c(F)cc(S(=O)(=O)[O-])cc5F)c5ccc([nH]5)c(-c5c(F)cc(S(=O)(=O)[O-])cc5F)c5nc(c(-c6c(F)cc(S(=O)(=O)[O-])cc6F)c6ccc3[nH]6)C=C5)C=C4)cc2)([C@@H]2CCC[C@H](S(C)(=O)=O)C2)C1
REMARK SMILES IDX 10 1 9 2 8 3 6 4 7 5 5 7 1 8 2 9 3 10 91 11 4 12 81 13 82 14
REMARK SMILES IDX 90 15 83 16 85 17 84 18 86 19 87 20 88 21 89 22 11 23 12 24
REMARK SMILES IDX 13 25 14 27 15 28 16 29 80 30 17 31 79 32 18 33 19 34 20 35
REMARK SMILES IDX 73 36 21 37 78 38 72 39 74 40 22 41 77 42 71 43 70 44 23 46
REMARK SMILES IDX 57 47 36 48 56 49 37 50 40 51 55 52 75 53 38 54 39 55 54 57
REMARK SMILES IDX 76 58 41 59 24 60 25 61 34 62 26 63 27 64 33 65 35 66 28 67
REMARK SMILES IDX 29 68 30 69 31 70 32 71 58 72 59 73 68 74 60 75 61 76 67 77
REMARK SMILES IDX 69 78 62 79 63 80 64 81 65 82 66 83 42 84 43 85 52 86 44 87
REMARK SMILES IDX 45 88 51 89 53 90 46 91 47 92 48 93 49 94 50 95
REMARK H PARENT 8 6 12 26 74 45 40 56
REMARK Flexibility Score: inf
ROOT
ATOM      1  C   UNL A   1      37.660  22.918  25.946  1.00  0.00     0.042 C 
ENDROOT
BRANCH   1   2
ATOM      2  C   UNL A   1      36.205  23.278  25.707  1.00  0.00     0.117 C 
BRANCH   2   3
ATOM      3  N   UNL A   1      35.332  22.882  26.793  1.00  0.00    -0.356 N 
ATOM      4  C   UNL A   1      33.995  22.665  26.868  1.00  0.00     0.226 C 
ATOM      5  O   UNL A   1      33.624  22.072  27.890  1.00  0.00    -0.274 OA
ATOM      6  H   UNL A   1      35.802  22.744  27.647  1.00  0.00     0.163 HD
BRANCH   4   7
ATOM      7  C   UNL A   1      32.981  23.001  25.735  1.00  0.00     0.052 C 
ATOM      8  C   UNL A   1      32.511  19.689  24.418  1.00  0.00     0.007 C 
ATOM      9  C   UNL A   1      32.050  21.146  24.331  1.00  0.00    -0.013 C 
ATOM     10  C   UNL A   1      32.918  22.043  23.448  1.00  0.00     0.004 C 
ATOM     11  C   UNL A   1      31.963  21.830  25.697  1.00  0.00     0.020 C 
ATOM     12  C   UNL A   1      33.600  23.087  24.329  1.00  0.00     0.017 C 
BRANCH   7  13
ATOM     13  C   UNL A   1      32.265  24.370  26.114  1.00  0.00     0.006 C 
ATOM     14  C   UNL A   1      30.856  24.541  25.497  1.00  0.00     0.005 C 
ATOM     15  C   UNL A   1      33.127  25.614  25.753  1.00  0.00     0.024 C 
ATOM     16  C   UNL A   1      30.203  25.851  25.927  1.00  0.00     0.002 C 
ATOM     17  C   UNL A   1      32.464  26.937  26.167  1.00  0.00     0.108 C 
ATOM     18  C   UNL A   1      31.064  27.056  25.569  1.00  0.00     0.020 C 
BRANCH  17  19
ATOM     19  S   UNL A   1      33.520  28.323  25.685  1.00  0.00     0.150 S 
ATOM     20  C   UNL A   1      32.424  29.720  25.604  1.00  0.00     0.158 C 
ATOM     21  O   UNL A   1      34.439  28.587  26.777  1.00  0.00    -0.229 OA
ATOM     22  O   UNL A   1      34.013  28.086  24.343  1.00  0.00    -0.229 OA
ENDBRANCH  17  19
ENDBRANCH   7  13
ENDBRANCH   4   7
ENDBRANCH   2   3
ENDBRANCH   1   2
BRANCH   1  23
ATOM     23  C   UNL A   1      38.544  24.141  26.136  1.00  0.00     0.118 C 
BRANCH  23  24
ATOM     24  N   UNL A   1      39.968  23.808  26.144  1.00  0.00    -0.352 N 
ATOM     25  C   UNL A   1      41.043  24.473  26.686  1.00  0.00     0.251 C 
ATOM     26  H   UNL A   1      40.195  22.968  25.684  1.00  0.00     0.163 HD
ATOM     27  O   UNL A   1      42.184  24.131  26.382  1.00  0.00    -0.269 OA
BRANCH  25  28
ATOM     28  C   UNL A   1      40.828  25.605  27.611  1.00  0.00     0.039 A 
ATOM     29  C   UNL A   1      39.817  25.533  28.573  1.00  0.00     0.014 A 
ATOM     30  C   UNL A   1      41.630  26.740  27.528  1.00  0.00     0.014 A 
ATOM     31  C   UNL A   1      39.684  26.559  29.516  1.00  0.00     0.010 A 
ATOM     32  C   UNL A   1      41.578  27.694  28.534  1.00  0.00     0.010 A 
ATOM     33  C   UNL A   1      40.601  27.621  29.537  1.00  0.00    -0.014 A 
BRANCH  33  34
ATOM     34  C   UNL A   1      40.576  28.694  30.565  1.00  0.00     0.031 A 
ATOM     35  C   UNL A   1      41.497  28.590  31.754  1.00  0.00     0.074 A 
ATOM     36  C   UNL A   1      39.647  29.670  30.507  1.00  0.00     0.049 A 
ATOM     37  N   UNL A   1      41.474  29.254  32.880  1.00  0.00    -0.248 NA
ATOM     38  C   UNL A   1      42.551  27.562  31.687  1.00  0.00     0.031 C 
ATOM     39  C   UNL A   1      38.671  29.855  29.431  1.00  0.00     0.029 A 
ATOM     40  N   UNL A   1      39.353  30.678  31.392  1.00  0.00    -0.354 N 
ATOM     41  C   UNL A   1      42.464  28.684  33.672  1.00  0.00     0.074 A 
ATOM     42  C   UNL A   1      43.042  27.596  32.916  1.00  0.00     0.031 C 
ATOM     43  C   UNL A   1      37.902  30.922  29.709  1.00  0.00     0.029 A 
ATOM     44  C   UNL A   1      38.290  31.462  31.007  1.00  0.00     0.049 A 
ATOM     45  H   UNL A   1      39.857  30.825  32.225  1.00  0.00     0.167 HD
ATOM     46  C   UNL A   1      42.866  29.047  34.913  1.00  0.00     0.037 A 
ATOM     47  C   UNL A   1      37.685  32.487  31.638  1.00  0.00     0.037 A 
ATOM     48  C   UNL A   1      42.340  30.183  35.620  1.00  0.00     0.049 A 
ATOM     49  C   UNL A   1      38.183  32.904  32.996  1.00  0.00     0.074 A 
ATOM     50  C   UNL A   1      42.739  30.695  36.841  1.00  0.00     0.029 A 
ATOM     51  N   UNL A   1      41.314  30.994  35.159  1.00  0.00    -0.354 N 
ATOM     52  N   UNL A   1      39.149  32.381  33.715  1.00  0.00    -0.248 NA
ATOM     53  C   UNL A   1      37.515  34.049  33.632  1.00  0.00     0.031 C 
ATOM     54  C   UNL A   1      41.934  31.799  37.134  1.00  0.00     0.029 A 
ATOM     55  C   UNL A   1      41.064  32.001  36.074  1.00  0.00     0.049 A 
ATOM     56  H   UNL A   1      40.836  30.872  34.307  1.00  0.00     0.167 HD
ATOM     57  C   UNL A   1      39.232  33.159  34.863  1.00  0.00     0.074 A 
ATOM     58  C   UNL A   1      38.215  34.184  34.750  1.00  0.00     0.031 C 
ATOM     59  C   UNL A   1      40.077  33.039  35.916  1.00  0.00     0.037 A 
BRANCH  46  60
ATOM     60  C   UNL A   1      43.935  28.226  35.578  1.00  0.00     0.058 A 
ATOM     61  C   UNL A   1      45.300  28.500  35.398  1.00  0.00     0.135 A 
ATOM     62  C   UNL A   1      43.590  27.175  36.445  1.00  0.00     0.135 A 
ATOM     63  F   UNL A   1      45.689  29.482  34.567  1.00  0.00    -0.206 F 
ATOM     64  C   UNL A   1      46.284  27.747  36.030  1.00  0.00     0.059 A 
ATOM     65  C   UNL A   1      44.556  26.429  37.112  1.00  0.00     0.059 A 
ATOM     66  F   UNL A   1      42.299  26.868  36.654  1.00  0.00    -0.206 F 
ATOM     67  C   UNL A   1      45.902  26.714  36.886  1.00  0.00     0.060 A 
BRANCH  67  68
ATOM     68  S   UNL A   1      47.192  25.760  37.713  1.00  0.00     0.124 S 
ATOM     69  O   UNL A   1      48.006  25.330  36.581  1.00  0.00    -0.237 OA
ATOM     70  O   UNL A   1      47.801  26.753  38.592  1.00  0.00    -0.237 OA
ATOM     71  O   UNL A   1      46.449  24.701  38.391  1.00  0.00    -0.744 OA
ENDBRANCH  67  68
ENDBRANCH  46  60
BRANCH  47  72
ATOM     72  C   UNL A   1      36.561  33.212  30.986  1.00  0.00     0.058 A 
ATOM     73  C   UNL A   1      36.799  34.059  29.893  1.00  0.00     0.135 A 
ATOM     74  C   UNL A   1      35.238  33.076  31.429  1.00  0.00     0.135 A 
ATOM     75  F   UNL A   1      38.049  34.227  29.433  1.00  0.00    -0.206 F 
ATOM     76  C   UNL A   1      35.770  34.764  29.277  1.00  0.00     0.059 A 
ATOM     77  C   UNL A   1      34.186  33.751  30.814  1.00  0.00     0.059 A 
ATOM     78  F   UNL A   1      34.953  32.262  32.457  1.00  0.00    -0.206 F 
ATOM     79  C   UNL A   1      34.465  34.603  29.746  1.00  0.00     0.060 A 
BRANCH  79  80
ATOM     80  S   UNL A   1      33.131  35.497  28.917  1.00  0.00     0.124 S 
ATOM     81  O   UNL A   1      32.502  34.432  28.145  1.00  0.00    -0.237 OA
ATOM     82  O   UNL A   1      32.360  36.012  30.043  1.00  0.00    -0.237 OA
ATOM     83  O   UNL A   1      33.840  36.508  28.138  1.00  0.00    -0.744 OA
ENDBRANCH  79  80
ENDBRANCH  47  72
BRANCH  59  84
ATOM     84  C   UNL A   1      40.003  34.075  36.999  1.00  0.00     0.058 A 
ATOM     85  C   UNL A   1      40.626  35.325  36.871  1.00  0.00     0.135 A 
ATOM     86  C   UNL A   1      39.200  33.850  38.129  1.00  0.00     0.135 A 
ATOM     87  F   UNL A   1      41.410  35.583  35.813  1.00  0.00    -0.206 F 
ATOM     88  C   UNL A   1      40.453  36.319  37.827  1.00  0.00     0.059 A 
ATOM     89  C   UNL A   1      38.995  34.838  39.085  1.00  0.00     0.059 A 
ATOM     90  F   UNL A   1      38.576  32.672  38.291  1.00  0.00    -0.206 F 
ATOM     91  C   UNL A   1      39.626  36.070  38.925  1.00  0.00     0.060 A 
BRANCH  91  92
ATOM     92  S   UNL A   1      39.340  37.399  40.113  1.00  0.00     0.124 S 
ATOM     93  O   UNL A   1      38.808  36.663  41.256  1.00  0.00    -0.237 OA
ATOM     94  O   UNL A   1      40.677  37.957  40.286  1.00  0.00    -0.237 OA
ATOM     95  O   UNL A   1      38.388  38.269  39.429  1.00  0.00    -0.744 OA
ENDBRANCH  91  92
ENDBRANCH  59  84
ENDBRANCH  33  34
ENDBRANCH  25  28
ENDBRANCH  23  24
ENDBRANCH   1  23
TORSDOF 15
ENDMDL
MODEL 3
REMARK VINA RESULT:     -12.3      5.078     10.419
REMARK SMILES C[C@@H]1CC[C@@](C(=O)NCCCNC(=O)c2ccc(-c3c4nc(c(-c5c(F)cc(S(=O)(=O)[O-])cc5F)c5ccc([nH]5)c(-c5c(F)cc(S(=O)(=O)[O-])cc5F)c5nc(c(-c6c(F)cc(S(=O)(=O)[O-])cc6F)c6ccc3[nH]6)C=C5)C=C4)cc2)([C@@H]2CCC[C@H](S(C)(=O)=O)C2)C1
REMARK SMILES IDX 10 1 9 2 8 3 6 4 7 5 5 7 1 8 2 9 3 10 91 11 4 12 81 13 82 14
REMARK SMILES IDX 90 15 83 16 85 17 84 18 86 19 87 20 88 21 89 22 11 23 12 24
REMARK SMILES IDX 13 25 14 27 15 28 16 29 80 30 17 31 79 32 18 33 19 34 20 35
REMARK SMILES IDX 73 36 21 37 78 38 72 39 74 40 22 41 77 42 71 43 70 44 23 46
REMARK SMILES IDX 57 47 36 48 56 49 37 50 40 51 55 52 75 53 38 54 39 55 54 57
REMARK SMILES IDX 76 58 41 59 24 60 25 61 34 62 26 63 27 64 33 65 35 66 28 67
REMARK SMILES IDX 29 68 30 69 31 70 32 71 58 72 59 73 68 74 60 75 61 76 67 77
REMARK SMILES IDX 69 78 62 79 63 80 64 81 65 82 66 83 42 84 43 85 52 86 44 87
REMARK SMILES IDX 45 88 51 89 53 90 46 91 47 92 48 93 49 94 50 95
REMARK H PARENT 8 6 12 26 74 45 40 56
REMARK Flexibility Score: inf
ROOT
ATOM      1  C   UNL A   1      37.432  22.968  25.668  1.00  0.00     0.042 C 
ENDROOT
BRANCH   1   2
ATOM      2  C   UNL A   1      35.978  23.368  25.496  1.00  0.00     0.117 C 
BRANCH   2   3
ATOM      3  N   UNL A   1      35.173  23.119  26.674  1.00  0.00    -0.356 N 
ATOM      4  C   UNL A   1      33.833  23.063  26.880  1.00  0.00     0.226 C 
ATOM      5  O   UNL A   1      33.496  22.556  27.957  1.00  0.00    -0.274 OA
ATOM      6  H   UNL A   1      35.703  22.957  27.488  1.00  0.00     0.163 HD
BRANCH   4   7
ATOM      7  C   UNL A   1      32.760  23.475  25.828  1.00  0.00     0.052 C 
ATOM      8  C   UNL A   1      32.127  26.824  26.971  1.00  0.00     0.007 C 
ATOM      9  C   UNL A   1      31.818  25.796  25.879  1.00  0.00    -0.013 C 
ATOM     10  C   UNL A   1      30.706  24.805  26.224  1.00  0.00     0.004 C 
ATOM     11  C   UNL A   1      33.037  24.962  25.479  1.00  0.00     0.020 C 
ATOM     12  C   UNL A   1      31.309  23.407  26.336  1.00  0.00     0.017 C 
BRANCH   7  13
ATOM     13  C   UNL A   1      32.949  22.543  24.552  1.00  0.00     0.006 C 
ATOM     14  C   UNL A   1      32.001  22.879  23.376  1.00  0.00     0.005 C 
ATOM     15  C   UNL A   1      32.811  21.031  24.893  1.00  0.00     0.024 C 
ATOM     16  C   UNL A   1      32.255  21.982  22.168  1.00  0.00     0.002 C 
ATOM     17  C   UNL A   1      33.047  20.124  23.675  1.00  0.00     0.108 C 
ATOM     18  C   UNL A   1      32.120  20.507  22.522  1.00  0.00     0.020 C 
BRANCH  17  19
ATOM     19  S   UNL A   1      32.840  18.394  24.156  1.00  0.00     0.150 S 
ATOM     20  C   UNL A   1      34.479  17.835  24.555  1.00  0.00     0.158 C 
ATOM     21  O   UNL A   1      32.083  18.360  25.394  1.00  0.00    -0.229 OA
ATOM     22  O   UNL A   1      32.400  17.641  22.998  1.00  0.00    -0.229 OA
ENDBRANCH  17  19
ENDBRANCH   7  13
ENDBRANCH   4   7
ENDBRANCH   2   3
ENDBRANCH   1   2
BRANCH   1  23
ATOM     23  C   UNL A   1      38.255  24.033  26.373  1.00  0.00     0.118 C 
BRANCH  23  24
ATOM     24  N   UNL A   1      39.694  23.836  26.200  1.00  0.00    -0.352 N 
ATOM     25  C   UNL A   1      40.762  24.606  26.601  1.00  0.00     0.251 C 
ATOM     26  H   UNL A   1      39.940  23.016  25.715  1.00  0.00     0.163 HD
ATOM     27  O   UNL A   1      41.881  24.370  26.154  1.00  0.00    -0.269 OA
BRANCH  25  28
ATOM     28  C   UNL A   1      40.559  25.724  27.546  1.00  0.00     0.039 A 
ATOM     29  C   UNL A   1      39.632  25.596  28.585  1.00  0.00     0.014 A 
ATOM     30  C   UNL A   1      41.289  26.901  27.407  1.00  0.00     0.014 A 
ATOM     31  C   UNL A   1      39.518  26.611  29.540  1.00  0.00     0.010 A 
ATOM     32  C   UNL A   1      41.265  27.849  28.419  1.00  0.00     0.010 A 
ATOM     33  C   UNL A   1      40.375  27.721  29.495  1.00  0.00    -0.014 A 
BRANCH  33  34
ATOM     34  C   UNL A   1      40.373  28.791  30.528  1.00  0.00     0.031 A 
ATOM     35  C   UNL A   1      41.300  28.668  31.711  1.00  0.00     0.074 A 
ATOM     36  C   UNL A   1      39.458  29.780  30.480  1.00  0.00     0.049 A 
ATOM     37  N   UNL A   1      41.295  29.327  32.839  1.00  0.00    -0.248 NA
ATOM     38  C   UNL A   1      42.338  27.625  31.631  1.00  0.00     0.031 C 
ATOM     39  C   UNL A   1      38.477  29.985  29.412  1.00  0.00     0.029 A 
ATOM     40  N   UNL A   1      39.185  30.789  31.372  1.00  0.00    -0.354 N 
ATOM     41  C   UNL A   1      42.282  28.739  33.622  1.00  0.00     0.074 A 
ATOM     42  C   UNL A   1      42.838  27.646  32.858  1.00  0.00     0.031 C 
ATOM     43  C   UNL A   1      37.726  31.061  29.699  1.00  0.00     0.029 A 
ATOM     44  C   UNL A   1      38.131  31.590  30.997  1.00  0.00     0.049 A 
ATOM     45  H   UNL A   1      39.696  30.925  32.202  1.00  0.00     0.167 HD
ATOM     46  C   UNL A   1      42.698  29.091  34.861  1.00  0.00     0.037 A 
ATOM     47  C   UNL A   1      37.545  32.622  31.637  1.00  0.00     0.037 A 
ATOM     48  C   UNL A   1      42.193  30.231  35.577  1.00  0.00     0.049 A 
ATOM     49  C   UNL A   1      38.059  33.025  32.993  1.00  0.00     0.074 A 
ATOM     50  C   UNL A   1      42.608  30.732  36.798  1.00  0.00     0.029 A 
ATOM     51  N   UNL A   1      41.175  31.060  35.126  1.00  0.00    -0.354 N 
ATOM     52  N   UNL A   1      39.021  32.485  33.703  1.00  0.00    -0.248 NA
ATOM     53  C   UNL A   1      37.412  34.177  33.639  1.00  0.00     0.031 C 
ATOM     54  C   UNL A   1      41.821  31.847  37.100  1.00  0.00     0.029 A 
ATOM     55  C   UNL A   1      40.947  32.066  36.048  1.00  0.00     0.049 A 
ATOM     56  H   UNL A   1      40.690  30.948  34.278  1.00  0.00     0.167 HD
ATOM     57  C   UNL A   1      39.124  33.257  34.854  1.00  0.00     0.074 A 
ATOM     58  C   UNL A   1      38.122  34.297  34.753  1.00  0.00     0.031 C 
ATOM     59  C   UNL A   1      39.974  33.119  35.901  1.00  0.00     0.037 A 
BRANCH  46  60
ATOM     60  C   UNL A   1      43.759  28.251  35.515  1.00  0.00     0.058 A 
ATOM     61  C   UNL A   1      45.126  28.501  35.321  1.00  0.00     0.135 A 
ATOM     62  C   UNL A   1      43.403  27.207  36.387  1.00  0.00     0.135 A 
ATOM     63  F   UNL A   1      45.523  29.476  34.486  1.00  0.00    -0.206 F 
ATOM     64  C   UNL A   1      46.103  27.731  35.943  1.00  0.00     0.059 A 
ATOM     65  C   UNL A   1      44.363  26.444  37.044  1.00  0.00     0.059 A 
ATOM     66  F   UNL A   1      42.110  26.923  36.609  1.00  0.00    -0.206 F 
ATOM     67  C   UNL A   1      45.712  26.705  36.804  1.00  0.00     0.060 A 
BRANCH  67  68
ATOM     68  S   UNL A   1      46.993  25.729  37.618  1.00  0.00     0.124 S 
ATOM     69  O   UNL A   1      46.821  26.128  39.012  1.00  0.00    -0.237 OA
ATOM     70  O   UNL A   1      46.596  24.362  37.297  1.00  0.00    -0.237 OA
ATOM     71  O   UNL A   1      48.225  26.186  36.981  1.00  0.00    -0.744 OA
ENDBRANCH  67  68
ENDBRANCH  46  60
BRANCH  47  72
ATOM     72  C   UNL A   1      36.428  33.366  30.995  1.00  0.00     0.058 A 
ATOM     73  C   UNL A   1      36.664  34.180  29.877  1.00  0.00     0.135 A 
ATOM     74  C   UNL A   1      35.112  33.280  31.474  1.00  0.00     0.135 A 
ATOM     75  F   UNL A   1      37.906  34.298  29.383  1.00  0.00    -0.206 F 
ATOM     76  C   UNL A   1      35.642  34.901  29.270  1.00  0.00     0.059 A 
ATOM     77  C   UNL A   1      34.067  33.973  30.869  1.00  0.00     0.059 A 
ATOM     78  F   UNL A   1      34.829  32.499  32.528  1.00  0.00    -0.206 F 
ATOM     79  C   UNL A   1      34.345  34.792  29.775  1.00  0.00     0.060 A 
BRANCH  79  80
ATOM     80  S   UNL A   1      33.018  35.708  28.958  1.00  0.00     0.124 S 
ATOM     81  O   UNL A   1      33.773  36.694  28.192  1.00  0.00    -0.237 OA
ATOM     82  O   UNL A   1      32.358  34.664  28.181  1.00  0.00    -0.237 OA
ATOM     83  O   UNL A   1      32.239  36.235  30.074  1.00  0.00    -0.744 OA
ENDBRANCH  79  80
ENDBRANCH  47  72
BRANCH  59  84
ATOM     84  C   UNL A   1      39.923  34.152  36.988  1.00  0.00     0.058 A 
ATOM     85  C   UNL A   1      40.590  35.379  36.876  1.00  0.00     0.135 A 
ATOM     86  C   UNL A   1      39.099  33.949  38.108  1.00  0.00     0.135 A 
ATOM     87  F   UNL A   1      41.396  35.616  35.828  1.00  0.00    -0.206 F 
ATOM     88  C   UNL A   1      40.441  36.375  37.834  1.00  0.00     0.059 A 
ATOM     89  C   UNL A   1      38.916  34.938  39.067  1.00  0.00     0.059 A 
ATOM     90  F   UNL A   1      38.433  32.792  38.255  1.00  0.00    -0.206 F 
ATOM     91  C   UNL A   1      39.592  36.148  38.921  1.00  0.00     0.060 A 
BRANCH  91  92
ATOM     92  S   UNL A   1      39.337  37.480  40.113  1.00  0.00     0.124 S 
ATOM     93  O   UNL A   1      38.838  36.746  41.272  1.00  0.00    -0.237 OA
ATOM     94  O   UNL A   1      40.678  38.041  40.247  1.00  0.00    -0.237 OA
ATOM     95  O   UNL A   1      38.366  38.347  39.453  1.00  0.00    -0.744 OA
ENDBRANCH  91  92
ENDBRANCH  59  84
ENDBRANCH  33  34
ENDBRANCH  25  28
ENDBRANCH  23  24
ENDBRANCH   1  23
TORSDOF 15
ENDMDL
