MODEL 1
REMARK VINA RESULT:     -13.0      0.000      0.000
REMARK SMILES CC1=C[C@H](C)[C@H](CN2C[C@]34C=C[C@@H](O3)[C@H](C(=O)NCCCNC(=O)c3ccc(-c5c6nc(c(-c7c(F)cc(S(=O)(=O)[O-])cc7F)c7ccc([nH]7)c(-c7c(F)cc(S(=O)(=O)[O-])cc7F)c7nc(c(-c8c(F)cc(S(=O)(=O)[O-])cc8F)c8ccc5[nH]8)C=C7)C=C6)cc3)[C@@H]4C2=O)[C@H](C)C1
REMARK SMILES IDX 20 1 19 2 18 3 16 4 17 5 15 7 8 8 9 9 92 10 10 11 91 12
REMARK SMILES IDX 93 13 11 14 14 15 12 16 13 17 7 18 6 19 1 20 2 21 3 22 96 23
REMARK SMILES IDX 4 24 94 25 5 26 95 27 21 28 22 29 23 30 24 32 25 33 26 34
REMARK SMILES IDX 90 35 27 36 89 37 28 38 29 39 30 40 83 41 31 42 88 43 82 44
REMARK SMILES IDX 84 45 32 46 87 47 81 48 80 49 33 51 67 52 46 53 66 54 47 55
REMARK SMILES IDX 50 56 65 57 85 58 48 59 49 60 64 62 86 63 51 64 34 65 35 66
REMARK SMILES IDX 44 67 36 68 37 69 43 70 45 71 38 72 39 73 40 74 41 75 42 76
REMARK SMILES IDX 68 77 69 78 78 79 70 80 71 81 77 82 79 83 72 84 73 85 74 86
REMARK SMILES IDX 75 87 76 88 52 89 53 90 62 91 54 92 55 93 61 94 63 95 56 96
REMARK SMILES IDX 57 97 58 98 59 99 60 100
REMARK H PARENT 18 6 22 31 84 50 50 61
REMARK Flexibility Score: inf
ROOT
ATOM      1  C   UNL A   1      37.809  23.494  25.651  1.00  0.00     0.042 C 
ENDROOT
BRANCH   1   2
ATOM      2  C   UNL A   1      37.026  22.196  25.490  1.00  0.00     0.117 C 
BRANCH   2   3
ATOM      3  N   UNL A   1      36.244  21.965  24.271  1.00  0.00    -0.356 N 
ATOM      4  C   UNL A   1      34.999  22.588  24.154  1.00  0.00     0.227 C 
ATOM      5  O   UNL A   1      34.941  23.773  23.828  1.00  0.00    -0.275 OA
ATOM      6  H   UNL A   1      36.588  21.384  23.554  1.00  0.00     0.163 HD
BRANCH   4   7
ATOM      7  C   UNL A   1      33.732  21.726  24.271  1.00  0.00     0.127 C 
ATOM      8  N   UNL A   1      31.794  24.517  24.895  1.00  0.00    -0.339 N 
ATOM      9  C   UNL A   1      32.468  23.742  25.858  1.00  0.00     0.160 C 
ATOM     10  C   UNL A   1      31.564  23.640  23.856  1.00  0.00     0.230 C 
ATOM     11  C   UNL A   1      31.883  22.245  25.825  1.00  0.00     0.117 C 
ATOM     12  C   UNL A   1      32.238  22.291  24.247  1.00  0.00     0.132 C 
ATOM     13  O   UNL A   1      30.795  23.803  22.934  1.00  0.00    -0.274 OA
ATOM     14  C   UNL A   1      32.714  22.080  27.124  1.00  0.00     0.009 C 
ATOM     15  O   UNL A   1      32.224  20.810  25.631  1.00  0.00    -0.360 OA
ATOM     16  C   UNL A   1      33.836  21.395  26.887  1.00  0.00     0.004 C 
ATOM     17  C   UNL A   1      33.669  20.845  25.525  1.00  0.00     0.155 C 
BRANCH   8  18
ATOM     18  C   UNL A   1      31.276  25.864  25.264  1.00  0.00     0.124 C 
BRANCH  18  19
ATOM     19  C   UNL A   1      32.221  26.803  26.115  1.00  0.00     0.018 C 
ATOM     20  C   UNL A   1      34.038  30.666  27.246  1.00  0.00     0.039 C 
ATOM     21  C   UNL A   1      33.705  29.202  27.072  1.00  0.00    -0.077 C 
ATOM     22  C   UNL A   1      34.311  28.406  26.161  1.00  0.00    -0.025 C 
ATOM     23  C   UNL A   1      32.386  28.776  27.660  1.00  0.00     0.034 C 
ATOM     24  C   UNL A   1      33.701  27.095  25.602  1.00  0.00     0.014 C 
ATOM     25  C   UNL A   1      31.567  28.129  26.537  1.00  0.00    -0.005 C 
ATOM     26  C   UNL A   1      33.839  27.103  24.069  1.00  0.00     0.012 C 
ATOM     27  C   UNL A   1      31.492  29.149  25.403  1.00  0.00     0.008 C 
ENDBRANCH  18  19
ENDBRANCH   8  18
ENDBRANCH   4   7
ENDBRANCH   2   3
ENDBRANCH   1   2
BRANCH   1  28
ATOM     28  C   UNL A   1      38.931  23.440  26.712  1.00  0.00     0.118 C 
BRANCH  28  29
ATOM     29  N   UNL A   1      40.305  23.668  26.261  1.00  0.00    -0.352 N 
ATOM     30  C   UNL A   1      41.205  24.684  26.535  1.00  0.00     0.251 C 
ATOM     31  H   UNL A   1      40.651  22.975  25.653  1.00  0.00     0.163 HD
ATOM     32  O   UNL A   1      42.335  24.643  26.057  1.00  0.00    -0.269 OA
BRANCH  30  33
ATOM     33  C   UNL A   1      40.803  25.842  27.363  1.00  0.00     0.039 A 
ATOM     34  C   UNL A   1      39.862  25.669  28.385  1.00  0.00     0.014 A 
ATOM     35  C   UNL A   1      41.404  27.083  27.173  1.00  0.00     0.014 A 
ATOM     36  C   UNL A   1      39.656  26.693  29.315  1.00  0.00     0.010 A 
ATOM     37  C   UNL A   1      41.288  28.051  28.159  1.00  0.00     0.010 A 
ATOM     38  C   UNL A   1      40.437  27.858  29.257  1.00  0.00    -0.014 A 
BRANCH  38  39
ATOM     39  C   UNL A   1      40.432  28.879  30.338  1.00  0.00     0.031 A 
ATOM     40  C   UNL A   1      41.326  28.696  31.534  1.00  0.00     0.074 A 
ATOM     41  C   UNL A   1      39.523  29.876  30.309  1.00  0.00     0.049 A 
ATOM     42  N   UNL A   1      41.330  29.343  32.670  1.00  0.00    -0.248 NA
ATOM     43  C   UNL A   1      42.313  27.604  31.464  1.00  0.00     0.031 C 
ATOM     44  C   UNL A   1      38.555  30.114  29.232  1.00  0.00     0.029 A 
ATOM     45  N   UNL A   1      39.238  30.863  31.222  1.00  0.00    -0.354 N 
ATOM     46  C   UNL A   1      42.288  28.717  33.458  1.00  0.00     0.074 A 
ATOM     47  C   UNL A   1      42.806  27.604  32.694  1.00  0.00     0.031 C 
ATOM     48  C   UNL A   1      37.801  31.183  29.539  1.00  0.00     0.029 A 
ATOM     49  C   UNL A   1      38.189  31.675  30.855  1.00  0.00     0.049 A 
ATOM     50  H   UNL A   1      39.738  30.977  32.063  1.00  0.00     0.167 HD
ATOM     51  C   UNL A   1      42.711  29.054  34.698  1.00  0.00     0.037 A 
ATOM     52  C   UNL A   1      37.594  32.690  31.513  1.00  0.00     0.037 A 
ATOM     53  C   UNL A   1      42.222  30.196  35.422  1.00  0.00     0.049 A 
ATOM     54  C   UNL A   1      38.107  33.068  32.877  1.00  0.00     0.074 A 
ATOM     55  C   UNL A   1      42.642  30.679  36.648  1.00  0.00     0.029 A 
ATOM     56  N   UNL A   1      41.210  31.037  34.983  1.00  0.00    -0.354 N 
ATOM     57  N   UNL A   1      39.063  32.506  33.579  1.00  0.00    -0.248 NA
ATOM     58  C   UNL A   1      37.470  34.215  33.539  1.00  0.00     0.031 C 
ATOM     59  C   UNL A   1      41.851  31.785  36.973  1.00  0.00     0.029 A 
ATOM     60  C   UNL A   1      40.979  32.026  35.922  1.00  0.00     0.049 A 
ATOM     61  H   UNL A   1      40.728  30.945  34.130  1.00  0.00     0.167 HD
ATOM     62  C   UNL A   1      39.168  33.253  34.746  1.00  0.00     0.074 A 
ATOM     63  C   UNL A   1      38.180  34.308  34.657  1.00  0.00     0.031 C 
ATOM     64  C   UNL A   1      40.008  33.085  35.796  1.00  0.00     0.037 A 
BRANCH  51  65
ATOM     65  C   UNL A   1      43.760  28.192  35.346  1.00  0.00     0.058 A 
ATOM     66  C   UNL A   1      45.131  28.426  35.157  1.00  0.00     0.135 A 
ATOM     67  C   UNL A   1      43.389  27.146  36.208  1.00  0.00     0.135 A 
ATOM     68  F   UNL A   1      45.543  29.400  34.329  1.00  0.00    -0.206 F 
ATOM     69  C   UNL A   1      46.096  27.642  35.778  1.00  0.00     0.059 A 
ATOM     70  C   UNL A   1      44.337  26.369  36.865  1.00  0.00     0.059 A 
ATOM     71  F   UNL A   1      42.092  26.875  36.421  1.00  0.00    -0.206 F 
ATOM     72  C   UNL A   1      45.690  26.617  36.634  1.00  0.00     0.060 A 
BRANCH  72  73
ATOM     73  S   UNL A   1      46.957  25.625  37.451  1.00  0.00     0.124 S 
ATOM     74  O   UNL A   1      48.086  25.792  36.542  1.00  0.00    -0.237 OA
ATOM     75  O   UNL A   1      47.083  26.288  38.746  1.00  0.00    -0.237 OA
ATOM     76  O   UNL A   1      46.372  24.289  37.488  1.00  0.00    -0.744 OA
ENDBRANCH  72  73
ENDBRANCH  51  65
BRANCH  52  77
ATOM     77  C   UNL A   1      36.456  33.426  30.891  1.00  0.00     0.058 A 
ATOM     78  C   UNL A   1      36.663  34.291  29.804  1.00  0.00     0.135 A 
ATOM     79  C   UNL A   1      35.142  33.278  31.363  1.00  0.00     0.135 A 
ATOM     80  F   UNL A   1      37.899  34.470  29.317  1.00  0.00    -0.206 F 
ATOM     81  C   UNL A   1      35.615  35.002  29.226  1.00  0.00     0.059 A 
ATOM     82  C   UNL A   1      34.074  33.956  30.782  1.00  0.00     0.059 A 
ATOM     83  F   UNL A   1      34.884  32.449  32.385  1.00  0.00    -0.206 F 
ATOM     84  C   UNL A   1      34.322  34.827  29.723  1.00  0.00     0.060 A 
BRANCH  84  85
ATOM     85  S   UNL A   1      32.966  35.731  28.946  1.00  0.00     0.124 S 
ATOM     86  O   UNL A   1      32.186  36.146  30.106  1.00  0.00    -0.237 OA
ATOM     87  O   UNL A   1      33.672  36.795  28.238  1.00  0.00    -0.237 OA
ATOM     88  O   UNL A   1      32.340  34.728  28.090  1.00  0.00    -0.744 OA
ENDBRANCH  84  85
ENDBRANCH  52  77
BRANCH  64  89
ATOM     89  C   UNL A   1      39.949  34.089  36.911  1.00  0.00     0.058 A 
ATOM     90  C   UNL A   1      40.674  35.288  36.866  1.00  0.00     0.135 A 
ATOM     91  C   UNL A   1      39.066  33.891  37.986  1.00  0.00     0.135 A 
ATOM     92  F   UNL A   1      41.535  35.521  35.864  1.00  0.00    -0.206 F 
ATOM     93  C   UNL A   1      40.528  36.258  37.852  1.00  0.00     0.059 A 
ATOM     94  C   UNL A   1      38.885  34.858  38.967  1.00  0.00     0.059 A 
ATOM     95  F   UNL A   1      38.344  32.762  38.068  1.00  0.00    -0.206 F 
ATOM     96  C   UNL A   1      39.622  36.038  38.892  1.00  0.00     0.060 A 
BRANCH  96  97
ATOM     97  S   UNL A   1      39.384  37.340  40.120  1.00  0.00     0.124 S 
ATOM     98  O   UNL A   1      38.815  36.593  41.235  1.00  0.00    -0.237 OA
ATOM     99  O   UNL A   1      40.744  37.834  40.316  1.00  0.00    -0.237 OA
ATOM    100  O   UNL A   1      38.475  38.271  39.458  1.00  0.00    -0.744 OA
ENDBRANCH  96  97
ENDBRANCH  64  89
ENDBRANCH  38  39
ENDBRANCH  30  33
ENDBRANCH  28  29
ENDBRANCH   1  28
TORSDOF 15
ENDMDL
MODEL 2
REMARK VINA RESULT:     -13.0      6.304     11.963
REMARK SMILES CC1=C[C@H](C)[C@H](CN2C[C@]34C=C[C@@H](O3)[C@H](C(=O)NCCCNC(=O)c3ccc(-c5c6nc(c(-c7c(F)cc(S(=O)(=O)[O-])cc7F)c7ccc([nH]7)c(-c7c(F)cc(S(=O)(=O)[O-])cc7F)c7nc(c(-c8c(F)cc(S(=O)(=O)[O-])cc8F)c8ccc5[nH]8)C=C7)C=C6)cc3)[C@@H]4C2=O)[C@H](C)C1
REMARK SMILES IDX 20 1 19 2 18 3 16 4 17 5 15 7 8 8 9 9 92 10 10 11 91 12
REMARK SMILES IDX 93 13 11 14 14 15 12 16 13 17 7 18 6 19 1 20 2 21 3 22 96 23
REMARK SMILES IDX 4 24 94 25 5 26 95 27 21 28 22 29 23 30 24 32 25 33 26 34
REMARK SMILES IDX 90 35 27 36 89 37 28 38 29 39 30 40 83 41 31 42 88 43 82 44
REMARK SMILES IDX 84 45 32 46 87 47 81 48 80 49 33 51 67 52 46 53 66 54 47 55
REMARK SMILES IDX 50 56 65 57 85 58 48 59 49 60 64 62 86 63 51 64 34 65 35 66
REMARK SMILES IDX 44 67 36 68 37 69 43 70 45 71 38 72 39 73 40 74 41 75 42 76
REMARK SMILES IDX 68 77 69 78 78 79 70 80 71 81 77 82 79 83 72 84 73 85 74 86
REMARK SMILES IDX 75 87 76 88 52 89 53 90 62 91 54 92 55 93 61 94 63 95 56 96
REMARK SMILES IDX 57 97 58 98 59 99 60 100
REMARK H PARENT 18 6 22 31 84 50 50 61
REMARK Flexibility Score: inf
ROOT
ATOM      1  C   UNL A   1      34.000  31.588  27.830  1.00  0.00     0.042 C 
ENDROOT
BRANCH   1   2
ATOM      2  C   UNL A   1      33.135  30.681  26.964  1.00  0.00     0.117 C 
BRANCH   2   3
ATOM      3  N   UNL A   1      32.647  29.408  27.505  1.00  0.00    -0.356 N 
ATOM      4  C   UNL A   1      32.695  28.277  26.687  1.00  0.00     0.227 C 
ATOM      5  O   UNL A   1      33.759  27.675  26.544  1.00  0.00    -0.275 OA
ATOM      6  H   UNL A   1      32.294  29.353  28.423  1.00  0.00     0.163 HD
BRANCH   4   7
ATOM      7  C   UNL A   1      31.378  27.719  26.125  1.00  0.00     0.127 C 
ATOM      8  N   UNL A   1      32.733  24.552  25.869  1.00  0.00    -0.339 N 
ATOM      9  C   UNL A   1      32.783  25.558  24.886  1.00  0.00     0.160 C 
ATOM     10  C   UNL A   1      31.597  24.845  26.595  1.00  0.00     0.230 C 
ATOM     11  C   UNL A   1      31.283  25.921  24.434  1.00  0.00     0.117 C 
ATOM     12  C   UNL A   1      31.018  26.168  26.011  1.00  0.00     0.132 C 
ATOM     13  O   UNL A   1      31.028  24.106  27.369  1.00  0.00    -0.274 OA
ATOM     14  C   UNL A   1      32.001  26.716  23.313  1.00  0.00     0.009 C 
ATOM     15  O   UNL A   1      30.276  27.010  24.323  1.00  0.00    -0.360 OA
ATOM     16  C   UNL A   1      31.987  28.025  23.576  1.00  0.00     0.004 C 
ATOM     17  C   UNL A   1      31.042  28.181  24.701  1.00  0.00     0.155 C 
BRANCH   8  18
ATOM     18  C   UNL A   1      33.631  23.369  25.760  1.00  0.00     0.124 C 
BRANCH  18  19
ATOM     19  C   UNL A   1      32.985  22.000  25.301  1.00  0.00     0.018 C 
ATOM     20  C   UNL A   1      33.046  17.955  23.530  1.00  0.00     0.039 C 
ATOM     21  C   UNL A   1      32.645  19.300  24.089  1.00  0.00    -0.077 C 
ATOM     22  C   UNL A   1      32.382  20.378  23.314  1.00  0.00    -0.025 C 
ATOM     23  C   UNL A   1      32.957  19.501  25.549  1.00  0.00     0.034 C 
ATOM     24  C   UNL A   1      32.458  21.847  23.805  1.00  0.00     0.014 C 
ATOM     25  C   UNL A   1      33.820  20.762  25.667  1.00  0.00    -0.005 C 
ATOM     26  C   UNL A   1      33.256  22.668  22.776  1.00  0.00     0.012 C 
ATOM     27  C   UNL A   1      35.025  20.558  24.749  1.00  0.00     0.008 C 
ENDBRANCH  18  19
ENDBRANCH   8  18
ENDBRANCH   4   7
ENDBRANCH   2   3
ENDBRANCH   1   2
BRANCH   1  28
ATOM     28  C   UNL A   1      35.119  30.859  28.607  1.00  0.00     0.118 C 
BRANCH  28  29
ATOM     29  N   UNL A   1      35.447  31.350  29.947  1.00  0.00    -0.352 N 
ATOM     30  C   UNL A   1      36.595  31.232  30.712  1.00  0.00     0.251 C 
ATOM     31  H   UNL A   1      34.722  31.854  30.382  1.00  0.00     0.163 HD
ATOM     32  O   UNL A   1      36.648  31.767  31.816  1.00  0.00    -0.269 OA
BRANCH  30  33
ATOM     33  C   UNL A   1      37.740  30.430  30.232  1.00  0.00     0.039 A 
ATOM     34  C   UNL A   1      38.101  30.478  28.880  1.00  0.00     0.014 A 
ATOM     35  C   UNL A   1      38.499  29.683  31.128  1.00  0.00     0.014 A 
ATOM     36  C   UNL A   1      39.313  29.915  28.468  1.00  0.00     0.010 A 
ATOM     37  C   UNL A   1      39.752  29.229  30.744  1.00  0.00     0.010 A 
ATOM     38  C   UNL A   1      40.188  29.366  29.417  1.00  0.00    -0.014 A 
BRANCH  38  39
ATOM     39  C   UNL A   1      41.579  28.962  29.084  1.00  0.00     0.031 A 
ATOM     40  C   UNL A   1      42.661  30.006  29.026  1.00  0.00     0.074 A 
ATOM     41  C   UNL A   1      41.829  27.695  28.691  1.00  0.00     0.049 A 
ATOM     42  N   UNL A   1      43.878  29.910  28.561  1.00  0.00    -0.248 NA
ATOM     43  C   UNL A   1      42.309  31.353  29.509  1.00  0.00     0.031 C 
ATOM     44  C   UNL A   1      40.843  26.610  28.639  1.00  0.00     0.029 A 
ATOM     45  N   UNL A   1      42.982  27.106  28.230  1.00  0.00    -0.354 N 
ATOM     46  C   UNL A   1      44.422  31.186  28.660  1.00  0.00     0.074 A 
ATOM     47  C   UNL A   1      43.385  32.050  29.178  1.00  0.00     0.031 C 
ATOM     48  C   UNL A   1      41.436  25.490  28.193  1.00  0.00     0.029 A 
ATOM     49  C   UNL A   1      42.828  25.785  27.872  1.00  0.00     0.049 A 
ATOM     50  H   UNL A   1      43.840  27.585  28.161  1.00  0.00     0.167 HD
ATOM     51  C   UNL A   1      45.679  31.591  28.366  1.00  0.00     0.037 A 
ATOM     52  C   UNL A   1      43.703  24.915  27.329  1.00  0.00     0.037 A 
ATOM     53  C   UNL A   1      46.712  30.707  27.903  1.00  0.00     0.049 A 
ATOM     54  C   UNL A   1      45.105  25.383  27.044  1.00  0.00     0.074 A 
ATOM     55  C   UNL A   1      48.042  30.995  27.656  1.00  0.00     0.029 A 
ATOM     56  N   UNL A   1      46.534  29.359  27.622  1.00  0.00    -0.354 N 
ATOM     57  N   UNL A   1      45.621  26.578  27.210  1.00  0.00    -0.248 NA
ATOM     58  C   UNL A   1      46.046  24.392  26.504  1.00  0.00     0.031 C 
ATOM     59  C   UNL A   1      48.657  29.833  27.181  1.00  0.00     0.029 A 
ATOM     60  C   UNL A   1      47.725  28.807  27.188  1.00  0.00     0.049 A 
ATOM     61  H   UNL A   1      45.685  28.869  27.718  1.00  0.00     0.167 HD
ATOM     62  C   UNL A   1      46.955  26.472  26.833  1.00  0.00     0.074 A 
ATOM     63  C   UNL A   1      47.167  25.097  26.430  1.00  0.00     0.031 C 
ATOM     64  C   UNL A   1      47.918  27.425  26.822  1.00  0.00     0.037 A 
BRANCH  51  65
ATOM     65  C   UNL A   1      46.012  33.047  28.548  1.00  0.00     0.058 A 
ATOM     66  C   UNL A   1      46.506  33.547  29.763  1.00  0.00     0.135 A 
ATOM     67  C   UNL A   1      45.882  33.947  27.476  1.00  0.00     0.135 A 
ATOM     68  F   UNL A   1      46.633  32.737  30.827  1.00  0.00    -0.206 F 
ATOM     69  C   UNL A   1      46.836  34.889  29.918  1.00  0.00     0.059 A 
ATOM     70  C   UNL A   1      46.236  35.286  27.599  1.00  0.00     0.059 A 
ATOM     71  F   UNL A   1      45.410  33.524  26.293  1.00  0.00    -0.206 F 
ATOM     72  C   UNL A   1      46.702  35.751  28.828  1.00  0.00     0.060 A 
BRANCH  72  73
ATOM     73  S   UNL A   1      47.159  37.483  29.041  1.00  0.00     0.124 S 
ATOM     74  O   UNL A   1      47.418  37.541  30.476  1.00  0.00    -0.237 OA
ATOM     75  O   UNL A   1      48.332  37.603  28.181  1.00  0.00    -0.237 OA
ATOM     76  O   UNL A   1      45.975  38.206  28.587  1.00  0.00    -0.744 OA
ENDBRANCH  72  73
ENDBRANCH  51  65
BRANCH  52  77
ATOM     77  C   UNL A   1      43.284  23.517  27.028  1.00  0.00     0.058 A 
ATOM     78  C   UNL A   1      43.160  22.563  28.051  1.00  0.00     0.135 A 
ATOM     79  C   UNL A   1      42.996  23.104  25.717  1.00  0.00     0.135 A 
ATOM     80  F   UNL A   1      43.427  22.905  29.320  1.00  0.00    -0.206 F 
ATOM     81  C   UNL A   1      42.792  21.247  27.784  1.00  0.00     0.059 A 
ATOM     82  C   UNL A   1      42.598  21.801  25.430  1.00  0.00     0.059 A 
ATOM     83  F   UNL A   1      43.078  23.978  24.703  1.00  0.00    -0.206 F 
ATOM     84  C   UNL A   1      42.513  20.876  26.468  1.00  0.00     0.060 A 
BRANCH  84  85
ATOM     85  S   UNL A   1      42.007  19.174  26.137  1.00  0.00     0.124 S 
ATOM     86  O   UNL A   1      40.575  19.332  25.909  1.00  0.00    -0.237 OA
ATOM     87  O   UNL A   1      42.807  18.839  24.963  1.00  0.00    -0.237 OA
ATOM     88  O   UNL A   1      42.379  18.470  27.361  1.00  0.00    -0.744 OA
ENDBRANCH  84  85
ENDBRANCH  52  77
BRANCH  64  89
ATOM     89  C   UNL A   1      49.306  27.016  26.422  1.00  0.00     0.058 A 
ATOM     90  C   UNL A   1      50.195  26.426  27.332  1.00  0.00     0.135 A 
ATOM     91  C   UNL A   1      49.708  27.119  25.080  1.00  0.00     0.135 A 
ATOM     92  F   UNL A   1      49.860  26.311  28.627  1.00  0.00    -0.206 F 
ATOM     93  C   UNL A   1      51.438  25.953  26.925  1.00  0.00     0.059 A 
ATOM     94  C   UNL A   1      50.934  26.628  24.647  1.00  0.00     0.059 A 
ATOM     95  F   UNL A   1      48.889  27.669  24.169  1.00  0.00    -0.206 F 
ATOM     96  C   UNL A   1      51.793  26.048  25.578  1.00  0.00     0.060 A 
BRANCH  96  97
ATOM     97  S   UNL A   1      53.375  25.357  25.051  1.00  0.00     0.124 S 
ATOM     98  O   UNL A   1      53.379  25.679  23.629  1.00  0.00    -0.237 OA
ATOM     99  O   UNL A   1      54.327  26.099  25.872  1.00  0.00    -0.237 OA
ATOM    100  O   UNL A   1      53.251  23.938  25.373  1.00  0.00    -0.744 OA
ENDBRANCH  96  97
ENDBRANCH  64  89
ENDBRANCH  38  39
ENDBRANCH  30  33
ENDBRANCH  28  29
ENDBRANCH   1  28
TORSDOF 15
ENDMDL
MODEL 3
REMARK VINA RESULT:     -12.9      5.165     12.294
REMARK SMILES CC1=C[C@H](C)[C@H](CN2C[C@]34C=C[C@@H](O3)[C@H](C(=O)NCCCNC(=O)c3ccc(-c5c6nc(c(-c7c(F)cc(S(=O)(=O)[O-])cc7F)c7ccc([nH]7)c(-c7c(F)cc(S(=O)(=O)[O-])cc7F)c7nc(c(-c8c(F)cc(S(=O)(=O)[O-])cc8F)c8ccc5[nH]8)C=C7)C=C6)cc3)[C@@H]4C2=O)[C@H](C)C1
REMARK SMILES IDX 20 1 19 2 18 3 16 4 17 5 15 7 8 8 9 9 92 10 10 11 91 12
REMARK SMILES IDX 93 13 11 14 14 15 12 16 13 17 7 18 6 19 1 20 2 21 3 22 96 23
REMARK SMILES IDX 4 24 94 25 5 26 95 27 21 28 22 29 23 30 24 32 25 33 26 34
REMARK SMILES IDX 90 35 27 36 89 37 28 38 29 39 30 40 83 41 31 42 88 43 82 44
REMARK SMILES IDX 84 45 32 46 87 47 81 48 80 49 33 51 67 52 46 53 66 54 47 55
REMARK SMILES IDX 50 56 65 57 85 58 48 59 49 60 64 62 86 63 51 64 34 65 35 66
REMARK SMILES IDX 44 67 36 68 37 69 43 70 45 71 38 72 39 73 40 74 41 75 42 76
REMARK SMILES IDX 68 77 69 78 78 79 70 80 71 81 77 82 79 83 72 84 73 85 74 86
REMARK SMILES IDX 75 87 76 88 52 89 53 90 62 91 54 92 55 93 61 94 63 95 56 96
REMARK SMILES IDX 57 97 58 98 59 99 60 100
REMARK H PARENT 18 6 22 31 84 50 50 61
REMARK Flexibility Score: inf
ROOT
ATOM      1  C   UNL A   1      35.047  32.913  28.000  1.00  0.00     0.042 C 
ENDROOT
BRANCH   1   2
ATOM      2  C   UNL A   1      35.436  34.093  28.882  1.00  0.00     0.117 C 
BRANCH   2   3
ATOM      3  N   UNL A   1      36.825  34.240  29.328  1.00  0.00    -0.356 N 
ATOM      4  C   UNL A   1      37.206  33.634  30.528  1.00  0.00     0.227 C 
ATOM      5  O   UNL A   1      37.449  32.428  30.548  1.00  0.00    -0.275 OA
ATOM      6  H   UNL A   1      37.474  34.755  28.794  1.00  0.00     0.163 HD
BRANCH   4   7
ATOM      7  C   UNL A   1      37.472  34.526  31.750  1.00  0.00     0.127 C 
ATOM      8  N   UNL A   1      39.067  31.938  33.392  1.00  0.00    -0.339 N 
ATOM      9  C   UNL A   1      37.688  32.220  33.427  1.00  0.00     0.160 C 
ATOM     10  C   UNL A   1      39.654  33.159  33.130  1.00  0.00     0.230 C 
ATOM     11  C   UNL A   1      37.469  33.677  34.070  1.00  0.00     0.117 C 
ATOM     12  C   UNL A   1      38.497  34.181  32.926  1.00  0.00     0.132 C 
ATOM     13  O   UNL A   1      40.826  33.437  33.265  1.00  0.00    -0.274 OA
ATOM     14  C   UNL A   1      35.978  33.254  34.084  1.00  0.00     0.009 C 
ATOM     15  O   UNL A   1      36.903  35.034  33.844  1.00  0.00    -0.360 OA
ATOM     16  C   UNL A   1      35.306  33.848  33.095  1.00  0.00     0.004 C 
ATOM     17  C   UNL A   1      36.225  34.879  32.571  1.00  0.00     0.155 C 
BRANCH   8  18
ATOM     18  C   UNL A   1      39.563  30.618  33.870  1.00  0.00     0.124 C 
BRANCH  18  19
ATOM     19  C   UNL A   1      40.826  30.004  33.144  1.00  0.00     0.018 C 
ATOM     20  C   UNL A   1      44.253  27.247  32.750  1.00  0.00     0.039 C 
ATOM     21  C   UNL A   1      43.261  28.377  32.600  1.00  0.00    -0.077 C 
ATOM     22  C   UNL A   1      43.428  29.593  33.171  1.00  0.00    -0.025 C 
ATOM     23  C   UNL A   1      41.889  27.961  32.142  1.00  0.00     0.034 C 
ATOM     24  C   UNL A   1      42.273  30.583  33.470  1.00  0.00     0.014 C 
ATOM     25  C   UNL A   1      40.882  28.468  33.181  1.00  0.00    -0.005 C 
ATOM     26  C   UNL A   1      42.428  31.097  34.914  1.00  0.00     0.012 C 
ATOM     27  C   UNL A   1      41.329  27.916  34.533  1.00  0.00     0.008 C 
ENDBRANCH  18  19
ENDBRANCH   8  18
ENDBRANCH   4   7
ENDBRANCH   2   3
ENDBRANCH   1   2
BRANCH   1  28
ATOM     28  C   UNL A   1      33.976  31.981  28.608  1.00  0.00     0.118 C 
BRANCH  28  29
ATOM     29  N   UNL A   1      33.775  30.673  27.980  1.00  0.00    -0.352 N 
ATOM     30  C   UNL A   1      34.631  29.600  27.802  1.00  0.00     0.251 C 
ATOM     31  H   UNL A   1      32.870  30.533  27.619  1.00  0.00     0.163 HD
ATOM     32  O   UNL A   1      34.219  28.575  27.265  1.00  0.00    -0.269 OA
BRANCH  30  33
ATOM     33  C   UNL A   1      36.048  29.691  28.213  1.00  0.00     0.039 A 
ATOM     34  C   UNL A   1      36.417  29.329  29.514  1.00  0.00     0.014 A 
ATOM     35  C   UNL A   1      37.023  30.070  27.295  1.00  0.00     0.014 A 
ATOM     36  C   UNL A   1      37.770  29.187  29.835  1.00  0.00     0.010 A 
ATOM     37  C   UNL A   1      38.357  29.817  27.577  1.00  0.00     0.010 A 
ATOM     38  C   UNL A   1      38.746  29.344  28.839  1.00  0.00    -0.014 A 
BRANCH  38  39
ATOM     39  C   UNL A   1      40.173  28.986  29.053  1.00  0.00     0.031 A 
ATOM     40  C   UNL A   1      41.149  30.050  29.475  1.00  0.00     0.074 A 
ATOM     41  C   UNL A   1      40.606  27.750  28.724  1.00  0.00     0.049 A 
ATOM     42  N   UNL A   1      42.454  30.005  29.517  1.00  0.00    -0.248 NA
ATOM     43  C   UNL A   1      40.583  31.357  29.851  1.00  0.00     0.031 C 
ATOM     44  C   UNL A   1      39.762  26.654  28.237  1.00  0.00     0.029 A 
ATOM     45  N   UNL A   1      41.871  27.212  28.719  1.00  0.00    -0.354 N 
ATOM     46  C   UNL A   1      42.865  31.280  29.885  1.00  0.00     0.074 A 
ATOM     47  C   UNL A   1      41.674  32.093  30.002  1.00  0.00     0.031 C 
ATOM     48  C   UNL A   1      40.526  25.576  27.999  1.00  0.00     0.029 A 
ATOM     49  C   UNL A   1      41.920  25.914  28.262  1.00  0.00     0.049 A 
ATOM     50  H   UNL A   1      42.668  27.709  29.015  1.00  0.00     0.167 HD
ATOM     51  C   UNL A   1      44.120  31.726  30.126  1.00  0.00     0.037 A 
ATOM     52  C   UNL A   1      42.972  25.095  28.058  1.00  0.00     0.037 A 
ATOM     53  C   UNL A   1      45.287  30.889  30.057  1.00  0.00     0.049 A 
ATOM     54  C   UNL A   1      44.355  25.604  28.367  1.00  0.00     0.074 A 
ATOM     55  C   UNL A   1      46.595  31.215  30.362  1.00  0.00     0.029 A 
ATOM     56  N   UNL A   1      45.286  29.560  29.659  1.00  0.00    -0.354 N 
ATOM     57  N   UNL A   1      44.718  26.795  28.782  1.00  0.00    -0.248 NA
ATOM     58  C   UNL A   1      45.470  24.665  28.186  1.00  0.00     0.031 C 
ATOM     59  C   UNL A   1      47.393  30.097  30.105  1.00  0.00     0.029 A 
ATOM     60  C   UNL A   1      46.573  29.056  29.696  1.00  0.00     0.049 A 
ATOM     61  H   UNL A   1      44.487  29.050  29.392  1.00  0.00     0.167 HD
ATOM     62  C   UNL A   1      46.096  26.736  28.949  1.00  0.00     0.074 A 
ATOM     63  C   UNL A   1      46.504  25.393  28.591  1.00  0.00     0.031 C 
ATOM     64  C   UNL A   1      46.949  27.704  29.363  1.00  0.00     0.037 A 
BRANCH  51  65
ATOM     65  C   UNL A   1      44.297  33.172  30.498  1.00  0.00     0.058 A 
ATOM     66  C   UNL A   1      44.321  34.188  29.529  1.00  0.00     0.135 A 
ATOM     67  C   UNL A   1      44.395  33.554  31.846  1.00  0.00     0.135 A 
ATOM     68  F   UNL A   1      44.250  33.880  28.223  1.00  0.00    -0.206 F 
ATOM     69  C   UNL A   1      44.461  35.526  29.880  1.00  0.00     0.059 A 
ATOM     70  C   UNL A   1      44.503  34.889  32.222  1.00  0.00     0.059 A 
ATOM     71  F   UNL A   1      44.382  32.624  32.814  1.00  0.00    -0.206 F 
ATOM     72  C   UNL A   1      44.546  35.868  31.231  1.00  0.00     0.060 A 
BRANCH  72  73
ATOM     73  S   UNL A   1      44.702  37.611  31.669  1.00  0.00     0.124 S 
ATOM     74  O   UNL A   1      46.146  37.804  31.583  1.00  0.00    -0.237 OA
ATOM     75  O   UNL A   1      43.913  38.264  30.628  1.00  0.00    -0.237 OA
ATOM     76  O   UNL A   1      44.138  37.676  33.013  1.00  0.00    -0.744 OA
ENDBRANCH  72  73
ENDBRANCH  51  65
BRANCH  52  77
ATOM     77  C   UNL A   1      42.760  23.711  27.546  1.00  0.00     0.058 A 
ATOM     78  C   UNL A   1      42.594  22.632  28.429  1.00  0.00     0.135 A 
ATOM     79  C   UNL A   1      42.714  23.438  26.170  1.00  0.00     0.135 A 
ATOM     80  F   UNL A   1      42.633  22.838  29.754  1.00  0.00    -0.206 F 
ATOM     81  C   UNL A   1      42.418  21.330  27.967  1.00  0.00     0.059 A 
ATOM     82  C   UNL A   1      42.509  22.149  25.685  1.00  0.00     0.059 A 
ATOM     83  F   UNL A   1      42.846  24.434  25.282  1.00  0.00    -0.206 F 
ATOM     84  C   UNL A   1      42.377  21.099  26.591  1.00  0.00     0.060 A 
BRANCH  84  85
ATOM     85  S   UNL A   1      42.116  19.411  26.004  1.00  0.00     0.124 S 
ATOM     86  O   UNL A   1      40.683  19.412  25.733  1.00  0.00    -0.237 OA
ATOM     87  O   UNL A   1      42.988  19.356  24.834  1.00  0.00    -0.237 OA
ATOM     88  O   UNL A   1      42.546  18.593  27.134  1.00  0.00    -0.744 OA
ENDBRANCH  84  85
ENDBRANCH  52  77
BRANCH  64  89
ATOM     89  C   UNL A   1      48.399  27.344  29.516  1.00  0.00     0.058 A 
ATOM     90  C   UNL A   1      49.344  27.646  28.525  1.00  0.00     0.135 A 
ATOM     91  C   UNL A   1      48.860  26.787  30.720  1.00  0.00     0.135 A 
ATOM     92  F   UNL A   1      48.953  28.172  27.354  1.00  0.00    -0.206 F 
ATOM     93  C   UNL A   1      50.699  27.406  28.722  1.00  0.00     0.059 A 
ATOM     94  C   UNL A   1      50.213  26.565  30.949  1.00  0.00     0.059 A 
ATOM     95  F   UNL A   1      47.994  26.489  31.702  1.00  0.00    -0.206 F 
ATOM     96  C   UNL A   1      51.125  26.876  29.943  1.00  0.00     0.060 A 
BRANCH  96  97
ATOM     97  S   UNL A   1      52.894  26.645  30.214  1.00  0.00     0.124 S 
ATOM     98  O   UNL A   1      52.902  25.639  31.270  1.00  0.00    -0.237 OA
ATOM     99  O   UNL A   1      53.353  26.193  28.904  1.00  0.00    -0.237 OA
ATOM    100  O   UNL A   1      53.354  27.973  30.609  1.00  0.00    -0.744 OA
ENDBRANCH  96  97
ENDBRANCH  64  89
ENDBRANCH  38  39
ENDBRANCH  30  33
ENDBRANCH  28  29
ENDBRANCH   1  28
TORSDOF 15
ENDMDL
