MODEL 1
REMARK VINA RESULT:     -11.0      0.000      0.000
REMARK SMILES C[C@H]1SCCC[C@@]1(C(=O)NCCCNC(=O)c1ccc(-c2c3nc(c(-c4c(F)cc(S(=O)(=O)[O-])cc4F)c4ccc([nH]4)c(-c4c(F)cc(S(=O)(=O)[O-])cc4F)c4nc(c(-c5c(F)cc(S(=O)(=O)[O-])cc5F)c5ccc2[nH]5)C=C4)C=C3)cc1)[NH+]1CCCC1
REMARK SMILES IDX 13 1 12 2 11 3 10 4 8 5 9 6 7 8 1 9 2 10 3 11 4 12 6 13 5 14
REMARK SMILES IDX 83 15 84 16 87 17 85 19 86 20 14 21 15 22 16 24 17 25 18 26
REMARK SMILES IDX 82 27 19 28 81 29 20 30 21 31 22 32 75 33 23 34 80 35 74 36
REMARK SMILES IDX 76 37 24 38 79 39 73 40 72 41 25 43 59 44 38 45 58 46 39 47
REMARK SMILES IDX 42 48 57 49 77 50 40 51 41 52 56 54 78 55 43 56 26 57 27 58
REMARK SMILES IDX 36 59 28 60 29 61 35 62 37 63 30 64 31 65 32 66 33 67 34 68
REMARK SMILES IDX 60 69 61 70 70 71 62 72 63 73 69 74 71 75 64 76 65 77 66 78
REMARK SMILES IDX 67 79 68 80 44 81 45 82 54 83 46 84 47 85 53 86 55 87 48 88
REMARK SMILES IDX 49 89 50 90 51 91 52 92
REMARK H PARENT 10 7 83 18 14 23 76 42 42 53
REMARK Flexibility Score: inf
ROOT
ATOM      1  C   UNL A   1      33.858  27.832  26.739  1.00  0.00     0.118 C 
ENDROOT
BRANCH   1   2
ATOM      2  C   UNL A   1      33.835  27.514  25.243  1.00  0.00     0.042 C 
BRANCH   2   3
ATOM      3  C   UNL A   1      32.629  26.664  24.852  1.00  0.00     0.118 C 
BRANCH   3   4
ATOM      4  N   UNL A   1      32.212  25.815  25.954  1.00  0.00    -0.351 N 
ATOM      5  C   UNL A   1      32.149  24.491  26.221  1.00  0.00     0.282 C 
ATOM      6  O   UNL A   1      31.421  24.259  27.204  1.00  0.00    -0.268 OA
ATOM      7  H   UNL A   1      31.887  26.350  26.714  1.00  0.00     0.163 HD
BRANCH   5   8
ATOM      8  C   UNL A   1      32.970  23.302  25.515  1.00  0.00     0.188 C 
ATOM      9  C   UNL A   1      31.290  23.612  23.508  1.00  0.00     0.027 C 
ATOM     10  C   UNL A   1      31.858  22.667  24.580  1.00  0.00     0.115 C 
ATOM     11  S   UNL A   1      32.302  21.094  23.730  1.00  0.00    -0.152 SA
ATOM     12  C   UNL A   1      32.840  20.142  25.165  1.00  0.00     0.070 C 
ATOM     13  C   UNL A   1      33.500  22.220  26.495  1.00  0.00     0.081 C 
ATOM     14  C   UNL A   1      33.932  20.854  25.947  1.00  0.00     0.018 C 
BRANCH   8  15
ATOM     15  N   UNL A   1      34.097  23.971  24.767  1.00  0.00    -0.321 N 
ATOM     16  C   UNL A   1      34.478  23.546  23.425  1.00  0.00     0.263 C 
ATOM     17  C   UNL A   1      35.350  24.131  25.535  1.00  0.00     0.263 C 
ATOM     18  H   UNL A   1      33.590  24.846  24.634  1.00  0.00     0.349 HD
ATOM     19  C   UNL A   1      35.799  22.815  23.595  1.00  0.00     0.067 C 
ATOM     20  C   UNL A   1      36.490  23.640  24.655  1.00  0.00     0.067 C 
ENDBRANCH   8  15
ENDBRANCH   5   8
ENDBRANCH   3   4
ENDBRANCH   2   3
ENDBRANCH   1   2
BRANCH   1  21
ATOM     21  N   UNL A   1      33.628  29.252  26.987  1.00  0.00    -0.352 N 
ATOM     22  C   UNL A   1      34.363  30.151  27.718  1.00  0.00     0.251 C 
ATOM     23  H   UNL A   1      32.820  29.623  26.565  1.00  0.00     0.163 HD
ATOM     24  O   UNL A   1      33.845  31.203  28.081  1.00  0.00    -0.269 OA
BRANCH  22  25
ATOM     25  C   UNL A   1      35.770  29.856  28.056  1.00  0.00     0.039 A 
ATOM     26  C   UNL A   1      36.085  29.387  29.333  1.00  0.00     0.014 A 
ATOM     27  C   UNL A   1      36.783  30.091  27.124  1.00  0.00     0.014 A 
ATOM     28  C   UNL A   1      37.413  29.100  29.655  1.00  0.00     0.010 A 
ATOM     29  C   UNL A   1      38.092  29.725  27.416  1.00  0.00     0.010 A 
ATOM     30  C   UNL A   1      38.422  29.239  28.688  1.00  0.00    -0.014 A 
BRANCH  30  31
ATOM     31  C   UNL A   1      39.835  28.896  28.985  1.00  0.00     0.031 A 
ATOM     32  C   UNL A   1      40.758  29.944  29.548  1.00  0.00     0.074 A 
ATOM     33  C   UNL A   1      40.303  27.674  28.665  1.00  0.00     0.049 A 
ATOM     34  N   UNL A   1      42.044  29.877  29.772  1.00  0.00    -0.248 NA
ATOM     35  C   UNL A   1      40.163  31.253  29.867  1.00  0.00     0.031 C 
ATOM     36  C   UNL A   1      39.515  26.598  28.058  1.00  0.00     0.029 A 
ATOM     37  N   UNL A   1      41.558  27.135  28.789  1.00  0.00    -0.354 N 
ATOM     38  C   UNL A   1      42.416  31.135  30.231  1.00  0.00     0.074 A 
ATOM     39  C   UNL A   1      41.229  31.961  30.206  1.00  0.00     0.031 C 
ATOM     40  C   UNL A   1      40.301  25.524  27.879  1.00  0.00     0.029 A 
ATOM     41  C   UNL A   1      41.653  25.845  28.323  1.00  0.00     0.049 A 
ATOM     42  H   UNL A   1      42.319  27.626  29.176  1.00  0.00     0.167 HD
ATOM     43  C   UNL A   1      43.630  31.556  30.658  1.00  0.00     0.037 A 
ATOM     44  C   UNL A   1      42.714  25.018  28.253  1.00  0.00     0.037 A 
ATOM     45  C   UNL A   1      44.794  30.710  30.719  1.00  0.00     0.049 A 
ATOM     46  C   UNL A   1      44.045  25.497  28.763  1.00  0.00     0.074 A 
ATOM     47  C   UNL A   1      46.053  31.014  31.205  1.00  0.00     0.029 A 
ATOM     48  N   UNL A   1      44.839  29.394  30.283  1.00  0.00    -0.354 N 
ATOM     49  N   UNL A   1      44.363  26.670  29.258  1.00  0.00    -0.248 NA
ATOM     50  C   UNL A   1      45.159  24.542  28.715  1.00  0.00     0.031 C 
ATOM     51  C   UNL A   1      46.870  29.892  31.028  1.00  0.00     0.029 A 
ATOM     52  C   UNL A   1      46.108  28.876  30.474  1.00  0.00     0.049 A 
ATOM     53  H   UNL A   1      44.080  28.901  29.894  1.00  0.00     0.167 HD
ATOM     54  C   UNL A   1      45.707  26.585  29.603  1.00  0.00     0.074 A 
ATOM     55  C   UNL A   1      46.138  25.242  29.271  1.00  0.00     0.031 C 
ATOM     56  C   UNL A   1      46.512  27.532  30.145  1.00  0.00     0.037 A 
BRANCH  43  57
ATOM     57  C   UNL A   1      43.759  32.987  31.103  1.00  0.00     0.058 A 
ATOM     58  C   UNL A   1      44.134  34.005  30.212  1.00  0.00     0.135 A 
ATOM     59  C   UNL A   1      43.474  33.352  32.428  1.00  0.00     0.135 A 
ATOM     60  F   UNL A   1      44.435  33.710  28.936  1.00  0.00    -0.206 F 
ATOM     61  C   UNL A   1      44.250  35.328  30.624  1.00  0.00     0.059 A 
ATOM     62  C   UNL A   1      43.556  34.674  32.856  1.00  0.00     0.059 A 
ATOM     63  F   UNL A   1      43.113  32.420  33.324  1.00  0.00    -0.206 F 
ATOM     64  C   UNL A   1      43.958  35.654  31.949  1.00  0.00     0.060 A 
BRANCH  64  65
ATOM     65  S   UNL A   1      44.103  37.377  32.465  1.00  0.00     0.124 S 
ATOM     66  O   UNL A   1      43.092  37.451  33.516  1.00  0.00    -0.237 OA
ATOM     67  O   UNL A   1      45.489  37.454  32.914  1.00  0.00    -0.237 OA
ATOM     68  O   UNL A   1      43.798  38.124  31.249  1.00  0.00    -0.744 OA
ENDBRANCH  64  65
ENDBRANCH  43  57
BRANCH  44  69
ATOM     69  C   UNL A   1      42.551  23.648  27.701  1.00  0.00     0.058 A 
ATOM     70  C   UNL A   1      42.612  23.417  26.319  1.00  0.00     0.135 A 
ATOM     71  C   UNL A   1      42.353  22.540  28.540  1.00  0.00     0.135 A 
ATOM     72  F   UNL A   1      42.797  24.445  25.475  1.00  0.00    -0.206 F 
ATOM     73  C   UNL A   1      42.467  22.141  25.784  1.00  0.00     0.059 A 
ATOM     74  C   UNL A   1      42.229  21.252  28.032  1.00  0.00     0.059 A 
ATOM     75  F   UNL A   1      42.308  22.705  29.871  1.00  0.00    -0.206 F 
ATOM     76  C   UNL A   1      42.277  21.063  26.651  1.00  0.00     0.060 A 
BRANCH  76  77
ATOM     77  S   UNL A   1      42.140  19.403  25.952  1.00  0.00     0.124 S 
ATOM     78  O   UNL A   1      42.661  18.583  27.040  1.00  0.00    -0.237 OA
ATOM     79  O   UNL A   1      40.706  19.294  25.699  1.00  0.00    -0.237 OA
ATOM     80  O   UNL A   1      42.974  19.474  24.757  1.00  0.00    -0.744 OA
ENDBRANCH  76  77
ENDBRANCH  44  69
BRANCH  56  81
ATOM     81  C   UNL A   1      47.932  27.140  30.444  1.00  0.00     0.058 A 
ATOM     82  C   UNL A   1      48.964  27.349  29.518  1.00  0.00     0.135 A 
ATOM     83  C   UNL A   1      48.268  26.601  31.696  1.00  0.00     0.135 A 
ATOM     84  F   UNL A   1      48.693  27.856  28.305  1.00  0.00    -0.206 F 
ATOM     85  C   UNL A   1      50.281  27.016  29.815  1.00  0.00     0.059 A 
ATOM     86  C   UNL A   1      49.583  26.285  32.023  1.00  0.00     0.059 A 
ATOM     87  F   UNL A   1      47.318  26.391  32.621  1.00  0.00    -0.206 F 
ATOM     88  C   UNL A   1      50.581  26.486  31.072  1.00  0.00     0.060 A 
BRANCH  88  89
ATOM     89  S   UNL A   1      52.299  26.091  31.457  1.00  0.00     0.124 S 
ATOM     90  O   UNL A   1      52.644  27.159  32.389  1.00  0.00    -0.237 OA
ATOM     91  O   UNL A   1      52.193  24.755  32.033  1.00  0.00    -0.237 OA
ATOM     92  O   UNL A   1      52.961  26.155  30.157  1.00  0.00    -0.744 OA
ENDBRANCH  88  89
ENDBRANCH  56  81
ENDBRANCH  30  31
ENDBRANCH  22  25
ENDBRANCH   1  21
TORSDOF 14
ENDMDL
MODEL 2
REMARK VINA RESULT:     -11.0      5.000     10.529
REMARK SMILES C[C@H]1SCCC[C@@]1(C(=O)NCCCNC(=O)c1ccc(-c2c3nc(c(-c4c(F)cc(S(=O)(=O)[O-])cc4F)c4ccc([nH]4)c(-c4c(F)cc(S(=O)(=O)[O-])cc4F)c4nc(c(-c5c(F)cc(S(=O)(=O)[O-])cc5F)c5ccc2[nH]5)C=C4)C=C3)cc1)[NH+]1CCCC1
REMARK SMILES IDX 13 1 12 2 11 3 10 4 8 5 9 6 7 8 1 9 2 10 3 11 4 12 6 13 5 14
REMARK SMILES IDX 83 15 84 16 87 17 85 19 86 20 14 21 15 22 16 24 17 25 18 26
REMARK SMILES IDX 82 27 19 28 81 29 20 30 21 31 22 32 75 33 23 34 80 35 74 36
REMARK SMILES IDX 76 37 24 38 79 39 73 40 72 41 25 43 59 44 38 45 58 46 39 47
REMARK SMILES IDX 42 48 57 49 77 50 40 51 41 52 56 54 78 55 43 56 26 57 27 58
REMARK SMILES IDX 36 59 28 60 29 61 35 62 37 63 30 64 31 65 32 66 33 67 34 68
REMARK SMILES IDX 60 69 61 70 70 71 62 72 63 73 69 74 71 75 64 76 65 77 66 78
REMARK SMILES IDX 67 79 68 80 44 81 45 82 54 83 46 84 47 85 53 86 55 87 48 88
REMARK SMILES IDX 49 89 50 90 51 91 52 92
REMARK H PARENT 10 7 83 18 14 23 76 42 42 53
REMARK Flexibility Score: inf
ROOT
ATOM      1  C   UNL A   1      38.275  24.337  26.487  1.00  0.00     0.118 C 
ENDROOT
BRANCH   1   2
ATOM      2  C   UNL A   1      37.410  23.142  26.085  1.00  0.00     0.042 C 
BRANCH   2   3
ATOM      3  C   UNL A   1      37.055  23.160  24.600  1.00  0.00     0.118 C 
BRANCH   3   4
ATOM      4  N   UNL A   1      35.924  22.291  24.326  1.00  0.00    -0.351 N 
ATOM      5  C   UNL A   1      34.579  22.335  24.463  1.00  0.00     0.282 C 
ATOM      6  O   UNL A   1      34.074  21.203  24.363  1.00  0.00    -0.268 OA
ATOM      7  H   UNL A   1      36.217  21.437  23.934  1.00  0.00     0.163 HD
BRANCH   5   8
ATOM      8  C   UNL A   1      33.645  23.637  24.603  1.00  0.00     0.188 C 
ATOM      9  C   UNL A   1      33.287  23.408  22.003  1.00  0.00     0.027 C 
ATOM     10  C   UNL A   1      33.790  24.283  23.163  1.00  0.00     0.115 C 
ATOM     11  S   UNL A   1      33.050  25.954  22.935  1.00  0.00    -0.152 SA
ATOM     12  C   UNL A   1      33.839  26.801  24.320  1.00  0.00     0.070 C 
ATOM     13  C   UNL A   1      34.123  24.654  25.675  1.00  0.00     0.081 C 
ATOM     14  C   UNL A   1      33.587  26.091  25.642  1.00  0.00     0.018 C 
BRANCH   8  15
ATOM     15  N   UNL A   1      32.263  23.118  24.911  1.00  0.00    -0.321 N 
ATOM     16  C   UNL A   1      31.067  23.856  24.520  1.00  0.00     0.263 C 
ATOM     17  C   UNL A   1      32.055  22.679  26.308  1.00  0.00     0.263 C 
ATOM     18  H   UNL A   1      32.324  22.343  24.251  1.00  0.00     0.349 HD
ATOM     19  C   UNL A   1      30.508  24.428  25.811  1.00  0.00     0.067 C 
ATOM     20  C   UNL A   1      30.758  23.311  26.795  1.00  0.00     0.067 C 
ENDBRANCH   8  15
ENDBRANCH   5   8
ENDBRANCH   3   4
ENDBRANCH   2   3
ENDBRANCH   1   2
BRANCH   1  21
ATOM     21  N   UNL A   1      39.677  24.124  26.137  1.00  0.00    -0.352 N 
ATOM     22  C   UNL A   1      40.785  24.877  26.435  1.00  0.00     0.251 C 
ATOM     23  H   UNL A   1      39.855  23.315  25.606  1.00  0.00     0.163 HD
ATOM     24  O   UNL A   1      41.814  24.720  25.786  1.00  0.00    -0.269 OA
BRANCH  22  25
ATOM     25  C   UNL A   1      40.738  25.861  27.536  1.00  0.00     0.039 A 
ATOM     26  C   UNL A   1      41.636  26.930  27.538  1.00  0.00     0.014 A 
ATOM     27  C   UNL A   1      39.838  25.696  28.591  1.00  0.00     0.014 A 
ATOM     28  C   UNL A   1      41.592  27.866  28.573  1.00  0.00     0.010 A 
ATOM     29  C   UNL A   1      39.738  26.673  29.574  1.00  0.00     0.010 A 
ATOM     30  C   UNL A   1      40.621  27.760  29.582  1.00  0.00    -0.014 A 
BRANCH  30  31
ATOM     31  C   UNL A   1      40.517  28.766  30.669  1.00  0.00     0.031 A 
ATOM     32  C   UNL A   1      41.376  28.633  31.898  1.00  0.00     0.074 A 
ATOM     33  C   UNL A   1      39.591  29.741  30.584  1.00  0.00     0.049 A 
ATOM     34  N   UNL A   1      41.359  29.340  32.998  1.00  0.00    -0.248 NA
ATOM     35  C   UNL A   1      42.361  27.537  31.906  1.00  0.00     0.031 C 
ATOM     36  C   UNL A   1      38.661  29.931  29.468  1.00  0.00     0.029 A 
ATOM     37  N   UNL A   1      39.266  30.745  31.460  1.00  0.00    -0.354 N 
ATOM     38  C   UNL A   1      42.305  28.761  33.836  1.00  0.00     0.074 A 
ATOM     39  C   UNL A   1      42.844  27.615  33.137  1.00  0.00     0.031 C 
ATOM     40  C   UNL A   1      37.884  30.996  29.719  1.00  0.00     0.029 A 
ATOM     41  C   UNL A   1      38.233  31.542  31.027  1.00  0.00     0.049 A 
ATOM     42  H   UNL A   1      39.729  30.882  32.318  1.00  0.00     0.167 HD
ATOM     43  C   UNL A   1      42.706  29.163  35.065  1.00  0.00     0.037 A 
ATOM     44  C   UNL A   1      37.628  32.589  31.622  1.00  0.00     0.037 A 
ATOM     45  C   UNL A   1      42.192  30.332  35.731  1.00  0.00     0.049 A 
ATOM     46  C   UNL A   1      38.113  33.037  32.973  1.00  0.00     0.074 A 
ATOM     47  C   UNL A   1      42.582  30.871  36.944  1.00  0.00     0.029 A 
ATOM     48  N   UNL A   1      41.180  31.143  35.238  1.00  0.00    -0.354 N 
ATOM     49  N   UNL A   1      39.058  32.518  33.722  1.00  0.00    -0.248 NA
ATOM     50  C   UNL A   1      37.459  34.215  33.557  1.00  0.00     0.031 C 
ATOM     51  C   UNL A   1      41.779  31.988  37.202  1.00  0.00     0.029 A 
ATOM     52  C   UNL A   1      40.920  32.169  36.129  1.00  0.00     0.049 A 
ATOM     53  H   UNL A   1      40.714  31.007  34.382  1.00  0.00     0.167 HD
ATOM     54  C   UNL A   1      39.128  33.322  34.855  1.00  0.00     0.074 A 
ATOM     55  C   UNL A   1      38.139  34.367  34.685  1.00  0.00     0.031 C 
ATOM     56  C   UNL A   1      39.937  33.206  35.936  1.00  0.00     0.037 A 
BRANCH  43  57
ATOM     57  C   UNL A   1      43.756  28.344  35.763  1.00  0.00     0.058 A 
ATOM     58  C   UNL A   1      45.126  28.583  35.572  1.00  0.00     0.135 A 
ATOM     59  C   UNL A   1      43.390  27.328  36.660  1.00  0.00     0.135 A 
ATOM     60  F   UNL A   1      45.533  29.531  34.712  1.00  0.00    -0.206 F 
ATOM     61  C   UNL A   1      46.095  27.827  36.221  1.00  0.00     0.059 A 
ATOM     62  C   UNL A   1      44.343  26.577  37.343  1.00  0.00     0.059 A 
ATOM     63  F   UNL A   1      42.094  27.054  36.880  1.00  0.00    -0.206 F 
ATOM     64  C   UNL A   1      45.694  26.825  37.106  1.00  0.00     0.060 A 
BRANCH  64  65
ATOM     65  S   UNL A   1      46.964  25.859  37.949  1.00  0.00     0.124 S 
ATOM     66  O   UNL A   1      46.690  26.176  39.347  1.00  0.00    -0.237 OA
ATOM     67  O   UNL A   1      46.648  24.496  37.536  1.00  0.00    -0.237 OA
ATOM     68  O   UNL A   1      48.212  26.399  37.417  1.00  0.00    -0.744 OA
ENDBRANCH  64  65
ENDBRANCH  43  57
BRANCH  44  69
ATOM     69  C   UNL A   1      36.518  33.295  30.930  1.00  0.00     0.058 A 
ATOM     70  C   UNL A   1      35.192  33.144  31.360  1.00  0.00     0.135 A 
ATOM     71  C   UNL A   1      36.760  34.150  29.844  1.00  0.00     0.135 A 
ATOM     72  F   UNL A   1      34.910  32.335  32.393  1.00  0.00    -0.206 F 
ATOM     73  C   UNL A   1      34.141  33.802  30.728  1.00  0.00     0.059 A 
ATOM     74  C   UNL A   1      35.730  34.837  29.211  1.00  0.00     0.059 A 
ATOM     75  F   UNL A   1      38.015  34.345  29.409  1.00  0.00    -0.206 F 
ATOM     76  C   UNL A   1      34.421  34.649  29.654  1.00  0.00     0.060 A 
BRANCH  76  77
ATOM     77  S   UNL A   1      33.057  35.538  28.872  1.00  0.00     0.124 S 
ATOM     78  O   UNL A   1      33.769  36.557  28.111  1.00  0.00    -0.237 OA
ATOM     79  O   UNL A   1      32.415  34.486  28.088  1.00  0.00    -0.237 OA
ATOM     80  O   UNL A   1      32.280  36.023  30.008  1.00  0.00    -0.744 OA
ENDBRANCH  76  77
ENDBRANCH  44  69
BRANCH  56  81
ATOM     81  C   UNL A   1      39.810  34.252  37.007  1.00  0.00     0.058 A 
ATOM     82  C   UNL A   1      40.392  35.521  36.869  1.00  0.00     0.135 A 
ATOM     83  C   UNL A   1      39.048  33.999  38.159  1.00  0.00     0.135 A 
ATOM     84  F   UNL A   1      41.135  35.810  35.789  1.00  0.00    -0.206 F 
ATOM     85  C   UNL A   1      40.242  36.497  37.848  1.00  0.00     0.059 A 
ATOM     86  C   UNL A   1      38.863  34.969  39.138  1.00  0.00     0.059 A 
ATOM     87  F   UNL A   1      38.461  32.803  38.333  1.00  0.00    -0.206 F 
ATOM     88  C   UNL A   1      39.473  36.212  38.978  1.00  0.00     0.060 A 
BRANCH  88  89
ATOM     89  S   UNL A   1      39.256  37.499  40.224  1.00  0.00     0.124 S 
ATOM     90  O   UNL A   1      38.274  38.367  39.583  1.00  0.00    -0.237 OA
ATOM     91  O   UNL A   1      38.778  36.743  41.377  1.00  0.00    -0.237 OA
ATOM     92  O   UNL A   1      40.595  38.063  40.365  1.00  0.00    -0.744 OA
ENDBRANCH  88  89
ENDBRANCH  56  81
ENDBRANCH  30  31
ENDBRANCH  22  25
ENDBRANCH   1  21
TORSDOF 14
ENDMDL
MODEL 3
REMARK VINA RESULT:     -11.0      2.936      3.875
REMARK SMILES C[C@H]1SCCC[C@@]1(C(=O)NCCCNC(=O)c1ccc(-c2c3nc(c(-c4c(F)cc(S(=O)(=O)[O-])cc4F)c4ccc([nH]4)c(-c4c(F)cc(S(=O)(=O)[O-])cc4F)c4nc(c(-c5c(F)cc(S(=O)(=O)[O-])cc5F)c5ccc2[nH]5)C=C4)C=C3)cc1)[NH+]1CCCC1
REMARK SMILES IDX 13 1 12 2 11 3 10 4 8 5 9 6 7 8 1 9 2 10 3 11 4 12 6 13 5 14
REMARK SMILES IDX 83 15 84 16 87 17 85 19 86 20 14 21 15 22 16 24 17 25 18 26
REMARK SMILES IDX 82 27 19 28 81 29 20 30 21 31 22 32 75 33 23 34 80 35 74 36
REMARK SMILES IDX 76 37 24 38 79 39 73 40 72 41 25 43 59 44 38 45 58 46 39 47
REMARK SMILES IDX 42 48 57 49 77 50 40 51 41 52 56 54 78 55 43 56 26 57 27 58
REMARK SMILES IDX 36 59 28 60 29 61 35 62 37 63 30 64 31 65 32 66 33 67 34 68
REMARK SMILES IDX 60 69 61 70 70 71 62 72 63 73 69 74 71 75 64 76 65 77 66 78
REMARK SMILES IDX 67 79 68 80 44 81 45 82 54 83 46 84 47 85 53 86 55 87 48 88
REMARK SMILES IDX 49 89 50 90 51 91 52 92
REMARK H PARENT 10 7 83 18 14 23 76 42 42 53
REMARK Flexibility Score: inf
ROOT
ATOM      1  C   UNL A   1      35.627  31.107  28.073  1.00  0.00     0.118 C 
ENDROOT
BRANCH   1   2
ATOM      2  C   UNL A   1      34.306  30.694  27.422  1.00  0.00     0.042 C 
BRANCH   2   3
ATOM      3  C   UNL A   1      34.240  29.193  27.151  1.00  0.00     0.118 C 
BRANCH   3   4
ATOM      4  N   UNL A   1      33.021  28.620  27.694  1.00  0.00    -0.351 N 
ATOM      5  C   UNL A   1      31.933  27.970  27.224  1.00  0.00     0.282 C 
ATOM      6  O   UNL A   1      31.012  27.958  28.061  1.00  0.00    -0.268 OA
ATOM      7  H   UNL A   1      32.976  28.737  28.670  1.00  0.00     0.163 HD
BRANCH   5   8
ATOM      8  C   UNL A   1      31.786  27.167  25.838  1.00  0.00     0.188 C 
ATOM      9  C   UNL A   1      31.719  29.545  24.704  1.00  0.00     0.027 C 
ATOM     10  C   UNL A   1      30.990  28.214  24.953  1.00  0.00     0.115 C 
ATOM     11  S   UNL A   1      30.390  27.617  23.317  1.00  0.00    -0.152 SA
ATOM     12  C   UNL A   1      29.512  26.138  23.863  1.00  0.00     0.070 C 
ATOM     13  C   UNL A   1      30.965  25.853  25.944  1.00  0.00     0.081 C 
ATOM     14  C   UNL A   1      30.406  25.209  24.670  1.00  0.00     0.018 C 
BRANCH   8  15
ATOM     15  N   UNL A   1      33.194  26.903  25.366  1.00  0.00    -0.321 N 
ATOM     16  C   UNL A   1      33.572  27.068  23.967  1.00  0.00     0.263 C 
ATOM     17  C   UNL A   1      33.776  25.620  25.816  1.00  0.00     0.263 C 
ATOM     18  H   UNL A   1      33.587  27.714  25.844  1.00  0.00     0.349 HD
ATOM     19  C   UNL A   1      33.747  25.658  23.430  1.00  0.00     0.067 C 
ATOM     20  C   UNL A   1      34.387  24.945  24.597  1.00  0.00     0.067 C 
ENDBRANCH   8  15
ENDBRANCH   5   8
ENDBRANCH   3   4
ENDBRANCH   2   3
ENDBRANCH   1   2
BRANCH   1  21
ATOM     21  N   UNL A   1      35.538  31.078  29.530  1.00  0.00    -0.352 N 
ATOM     22  C   UNL A   1      36.375  30.504  30.453  1.00  0.00     0.251 C 
ATOM     23  H   UNL A   1      34.757  31.542  29.908  1.00  0.00     0.163 HD
ATOM     24  O   UNL A   1      35.968  30.302  31.593  1.00  0.00    -0.269 OA
BRANCH  22  25
ATOM     25  C   UNL A   1      37.757  30.144  30.078  1.00  0.00     0.039 A 
ATOM     26  C   UNL A   1      38.672  29.802  31.077  1.00  0.00     0.014 A 
ATOM     27  C   UNL A   1      38.160  30.193  28.742  1.00  0.00     0.014 A 
ATOM     28  C   UNL A   1      39.978  29.455  30.726  1.00  0.00     0.010 A 
ATOM     29  C   UNL A   1      39.434  29.765  28.387  1.00  0.00     0.010 A 
ATOM     30  C   UNL A   1      40.359  29.404  29.376  1.00  0.00    -0.014 A 
BRANCH  30  31
ATOM     31  C   UNL A   1      41.726  28.991  28.969  1.00  0.00     0.031 A 
ATOM     32  C   UNL A   1      42.829  30.014  28.903  1.00  0.00     0.074 A 
ATOM     33  C   UNL A   1      41.946  27.722  28.577  1.00  0.00     0.049 A 
ATOM     34  N   UNL A   1      44.055  29.879  28.471  1.00  0.00    -0.248 NA
ATOM     35  C   UNL A   1      42.499  31.379  29.349  1.00  0.00     0.031 C 
ATOM     36  C   UNL A   1      40.938  26.659  28.540  1.00  0.00     0.029 A 
ATOM     37  N   UNL A   1      43.086  27.112  28.117  1.00  0.00    -0.354 N 
ATOM     38  C   UNL A   1      44.633  31.140  28.567  1.00  0.00     0.074 A 
ATOM     39  C   UNL A   1      43.608  32.038  29.051  1.00  0.00     0.031 C 
ATOM     40  C   UNL A   1      41.508  25.527  28.100  1.00  0.00     0.029 A 
ATOM     41  C   UNL A   1      42.909  25.789  27.788  1.00  0.00     0.049 A 
ATOM     42  H   UNL A   1      43.949  27.578  28.031  1.00  0.00     0.167 HD
ATOM     43  C   UNL A   1      45.907  31.509  28.299  1.00  0.00     0.037 A 
ATOM     44  C   UNL A   1      43.777  24.891  27.283  1.00  0.00     0.037 A 
ATOM     45  C   UNL A   1      46.929  30.596  27.858  1.00  0.00     0.049 A 
ATOM     46  C   UNL A   1      45.196  25.317  27.024  1.00  0.00     0.074 A 
ATOM     47  C   UNL A   1      48.270  30.851  27.630  1.00  0.00     0.029 A 
ATOM     48  N   UNL A   1      46.723  29.252  27.582  1.00  0.00    -0.354 N 
ATOM     49  N   UNL A   1      45.743  26.499  27.186  1.00  0.00    -0.248 NA
ATOM     50  C   UNL A   1      46.118  24.290  26.523  1.00  0.00     0.031 C 
ATOM     51  C   UNL A   1      48.867  29.668  27.180  1.00  0.00     0.029 A 
ATOM     52  C   UNL A   1      47.908  28.666  27.171  1.00  0.00     0.049 A 
ATOM     53  H   UNL A   1      45.861  28.784  27.666  1.00  0.00     0.167 HD
ATOM     54  C   UNL A   1      47.079  26.351  26.830  1.00  0.00     0.074 A 
ATOM     55  C   UNL A   1      47.259  24.962  26.457  1.00  0.00     0.031 C 
ATOM     56  C   UNL A   1      48.067  27.279  26.814  1.00  0.00     0.037 A 
BRANCH  43  57
ATOM     57  C   UNL A   1      46.271  32.957  28.485  1.00  0.00     0.058 A 
ATOM     58  C   UNL A   1      46.163  33.885  27.438  1.00  0.00     0.135 A 
ATOM     59  C   UNL A   1      46.704  33.429  29.735  1.00  0.00     0.135 A 
ATOM     60  F   UNL A   1      45.770  33.485  26.217  1.00  0.00    -0.206 F 
ATOM     61  C   UNL A   1      46.496  35.224  27.613  1.00  0.00     0.059 A 
ATOM     62  C   UNL A   1      47.016  34.771  29.941  1.00  0.00     0.059 A 
ATOM     63  F   UNL A   1      46.828  32.586  30.771  1.00  0.00    -0.206 F 
ATOM     64  C   UNL A   1      46.922  35.658  28.869  1.00  0.00     0.060 A 
BRANCH  64  65
ATOM     65  S   UNL A   1      47.341  37.400  29.083  1.00  0.00     0.124 S 
ATOM     66  O   UNL A   1      48.174  37.353  30.281  1.00  0.00    -0.237 OA
ATOM     67  O   UNL A   1      48.038  37.710  27.840  1.00  0.00    -0.237 OA
ATOM     68  O   UNL A   1      46.042  38.045  29.248  1.00  0.00    -0.744 OA
ENDBRANCH  64  65
ENDBRANCH  43  57
BRANCH  44  69
ATOM     69  C   UNL A   1      43.331  23.499  27.014  1.00  0.00     0.058 A 
ATOM     70  C   UNL A   1      43.097  23.060  25.703  1.00  0.00     0.135 A 
ATOM     71  C   UNL A   1      43.153  22.575  28.055  1.00  0.00     0.135 A 
ATOM     72  F   UNL A   1      43.251  23.907  24.674  1.00  0.00    -0.206 F 
ATOM     73  C   UNL A   1      42.684  21.759  25.432  1.00  0.00     0.059 A 
ATOM     74  C   UNL A   1      42.765  21.263  27.808  1.00  0.00     0.059 A 
ATOM     75  F   UNL A   1      43.386  22.940  29.325  1.00  0.00    -0.206 F 
ATOM     76  C   UNL A   1      42.523  20.866  26.494  1.00  0.00     0.060 A 
BRANCH  76  77
ATOM     77  S   UNL A   1      42.036  19.165  26.129  1.00  0.00     0.124 S 
ATOM     78  O   UNL A   1      42.841  18.876  24.949  1.00  0.00    -0.237 OA
ATOM     79  O   UNL A   1      42.421  18.467  27.353  1.00  0.00    -0.237 OA
ATOM     80  O   UNL A   1      40.598  19.270  25.904  1.00  0.00    -0.744 OA
ENDBRANCH  76  77
ENDBRANCH  44  69
BRANCH  56  81
ATOM     81  C   UNL A   1      49.439  26.817  26.411  1.00  0.00     0.058 A 
ATOM     82  C   UNL A   1      50.297  26.179  27.317  1.00  0.00     0.135 A 
ATOM     83  C   UNL A   1      49.874  26.966  25.083  1.00  0.00     0.135 A 
ATOM     84  F   UNL A   1      49.930  26.018  28.598  1.00  0.00    -0.206 F 
ATOM     85  C   UNL A   1      51.552  25.722  26.928  1.00  0.00     0.059 A 
ATOM     86  C   UNL A   1      51.115  26.494  24.667  1.00  0.00     0.059 A 
ATOM     87  F   UNL A   1      49.085  27.561  24.175  1.00  0.00    -0.206 F 
ATOM     88  C   UNL A   1      51.951  25.883  25.599  1.00  0.00     0.060 A 
BRANCH  88  89
ATOM     89  S   UNL A   1      53.567  25.255  25.099  1.00  0.00     0.124 S 
ATOM     90  O   UNL A   1      54.451  25.938  26.038  1.00  0.00    -0.237 OA
ATOM     91  O   UNL A   1      53.419  23.817  25.298  1.00  0.00    -0.237 OA
ATOM     92  O   UNL A   1      53.680  25.680  23.707  1.00  0.00    -0.744 OA
ENDBRANCH  88  89
ENDBRANCH  56  81
ENDBRANCH  30  31
ENDBRANCH  22  25
ENDBRANCH   1  21
TORSDOF 14
ENDMDL
