MODEL 1
REMARK VINA RESULT:     -11.2      0.000      0.000
REMARK SMILES CNc1nccc(-c2cc(C(=O)NCCCNC(=O)c3ccc(-c4c5nc(c(-c6c(F)cc(S(=O)(=O)[O-])cc6F)c6ccc([nH]6)c(-c6c(F)cc(S(=O)(=O)[O-])cc6F)c6nc(c(-c7c(F)cc(S(=O)(=O)[O-])cc7F)c7ccc4[nH]7)C=C6)C=C5)cc3)ccn2)n1
REMARK SMILES IDX 15 1 14 2 13 3 11 4 12 5 10 7 8 8 9 9 88 10 87 11 86 12 7 13
REMARK SMILES IDX 3 14 4 15 89 16 5 17 6 18 2 19 1 20 16 22 17 23 18 24 19 26
REMARK SMILES IDX 20 27 21 28 85 29 22 30 84 31 23 32 24 33 25 34 78 35 26 36
REMARK SMILES IDX 83 37 77 38 79 39 27 40 82 41 76 42 75 43 28 45 62 46 41 47
REMARK SMILES IDX 61 48 42 49 45 50 60 51 80 52 43 53 44 54 59 56 81 57 46 58
REMARK SMILES IDX 29 59 30 60 39 61 31 62 32 63 38 64 40 65 33 66 34 67 35 68
REMARK SMILES IDX 36 69 37 70 63 71 64 72 73 73 65 74 66 75 72 76 74 77 67 78
REMARK SMILES IDX 68 79 69 80 70 81 71 82 47 83 48 84 57 85 49 86 50 87 56 88
REMARK SMILES IDX 58 89 51 90 52 91 53 92 54 93 55 94
REMARK H PARENT 13 6 2 21 17 25 79 44 45 55
REMARK Flexibility Score: inf
ROOT
ATOM      1  C   UNL A   1      35.355  33.341  28.027  1.00  0.00     0.042 C 
ENDROOT
BRANCH   1   2
ATOM      2  C   UNL A   1      35.328  34.829  28.377  1.00  0.00     0.118 C 
BRANCH   2   3
ATOM      3  N   UNL A   1      33.972  35.353  28.344  1.00  0.00    -0.352 N 
ATOM      4  C   UNL A   1      33.140  35.852  29.314  1.00  0.00     0.251 C 
ATOM      5  O   UNL A   1      32.045  36.288  28.955  1.00  0.00    -0.269 OA
ATOM      6  H   UNL A   1      33.571  35.348  27.445  1.00  0.00     0.163 HD
BRANCH   4   7
ATOM      7  C   UNL A   1      33.520  35.966  30.746  1.00  0.00     0.043 A 
ATOM      8  C   UNL A   1      34.508  35.194  32.792  1.00  0.00     0.090 A 
ATOM      9  C   UNL A   1      34.030  34.924  31.512  1.00  0.00     0.044 A 
ATOM     10  N   UNL A   1      34.405  36.419  33.364  1.00  0.00    -0.255 NA
ATOM     11  C   UNL A   1      33.796  37.386  32.648  1.00  0.00     0.112 A 
ATOM     12  C   UNL A   1      33.365  37.218  31.347  1.00  0.00     0.034 A 
BRANCH   8  13
ATOM     13  C   UNL A   1      35.325  34.198  33.496  1.00  0.00     0.094 A 
ATOM     14  C   UNL A   1      36.319  32.130  33.514  1.00  0.00     0.222 A 
ATOM     15  N   UNL A   1      36.904  32.357  34.699  1.00  0.00    -0.222 NA
ATOM     16  N   UNL A   1      35.535  33.014  32.882  1.00  0.00    -0.211 NA
ATOM     17  C   UNL A   1      36.694  33.553  35.269  1.00  0.00     0.117 A 
ATOM     18  C   UNL A   1      35.907  34.520  34.708  1.00  0.00     0.051 A 
BRANCH  14  19
ATOM     19  N   UNL A   1      36.620  30.928  32.940  1.00  0.00    -0.357 N 
ATOM     20  C   UNL A   1      37.872  30.273  33.182  1.00  0.00     0.143 C 
ATOM     21  H   UNL A   1      35.962  30.501  32.346  1.00  0.00     0.163 HD
ENDBRANCH  14  19
ENDBRANCH   8  13
ENDBRANCH   4   7
ENDBRANCH   2   3
ENDBRANCH   1   2
BRANCH   1  22
ATOM     22  C   UNL A   1      34.761  32.454  29.120  1.00  0.00     0.118 C 
BRANCH  22  23
ATOM     23  N   UNL A   1      34.096  31.285  28.564  1.00  0.00    -0.352 N 
ATOM     24  C   UNL A   1      34.623  30.108  28.095  1.00  0.00     0.251 C 
ATOM     25  H   UNL A   1      33.114  31.348  28.517  1.00  0.00     0.163 HD
ATOM     26  O   UNL A   1      33.906  29.349  27.450  1.00  0.00    -0.269 OA
BRANCH  24  27
ATOM     27  C   UNL A   1      36.038  29.752  28.352  1.00  0.00     0.039 A 
ATOM     28  C   UNL A   1      36.963  29.881  27.312  1.00  0.00     0.014 A 
ATOM     29  C   UNL A   1      36.446  29.241  29.587  1.00  0.00     0.014 A 
ATOM     30  C   UNL A   1      38.304  29.546  27.525  1.00  0.00     0.010 A 
ATOM     31  C   UNL A   1      37.794  28.968  29.817  1.00  0.00     0.010 A 
ATOM     32  C   UNL A   1      38.735  29.112  28.788  1.00  0.00    -0.014 A 
BRANCH  32  33
ATOM     33  C   UNL A   1      40.166  28.806  29.051  1.00  0.00     0.031 A 
ATOM     34  C   UNL A   1      41.076  29.865  29.615  1.00  0.00     0.074 A 
ATOM     35  C   UNL A   1      40.659  27.596  28.718  1.00  0.00     0.049 A 
ATOM     36  N   UNL A   1      42.366  29.817  29.826  1.00  0.00    -0.248 NA
ATOM     37  C   UNL A   1      40.461  31.157  29.963  1.00  0.00     0.031 C 
ATOM     38  C   UNL A   1      39.887  26.504  28.120  1.00  0.00     0.029 A 
ATOM     39  N   UNL A   1      41.929  27.086  28.817  1.00  0.00    -0.354 N 
ATOM     40  C   UNL A   1      42.720  31.071  30.311  1.00  0.00     0.074 A 
ATOM     41  C   UNL A   1      41.516  31.873  30.327  1.00  0.00     0.031 C 
ATOM     42  C   UNL A   1      40.697  25.452  27.914  1.00  0.00     0.029 A 
ATOM     43  C   UNL A   1      42.050  25.805  28.331  1.00  0.00     0.049 A 
ATOM     44  H   UNL A   1      42.684  27.590  29.199  1.00  0.00     0.167 HD
ATOM     45  C   UNL A   1      43.935  31.508  30.721  1.00  0.00     0.037 A 
ATOM     46  C   UNL A   1      43.131  25.009  28.220  1.00  0.00     0.037 A 
ATOM     47  C   UNL A   1      45.121  30.692  30.742  1.00  0.00     0.049 A 
ATOM     48  C   UNL A   1      44.465  25.514  28.701  1.00  0.00     0.074 A 
ATOM     49  C   UNL A   1      46.382  31.020  31.206  1.00  0.00     0.029 A 
ATOM     50  N   UNL A   1      45.193  29.386  30.279  1.00  0.00    -0.354 N 
ATOM     51  N   UNL A   1      44.766  26.680  29.219  1.00  0.00    -0.248 NA
ATOM     52  C   UNL A   1      45.605  24.593  28.591  1.00  0.00     0.031 C 
ATOM     53  C   UNL A   1      47.227  29.927  30.991  1.00  0.00     0.029 A 
ATOM     54  C   UNL A   1      46.481  28.901  30.434  1.00  0.00     0.049 A 
ATOM     55  H   UNL A   1      44.440  28.879  29.899  1.00  0.00     0.167 HD
ATOM     56  C   UNL A   1      46.121  26.624  29.523  1.00  0.00     0.074 A 
ATOM     57  C   UNL A   1      46.580  25.303  29.143  1.00  0.00     0.031 C 
ATOM     58  C   UNL A   1      46.916  27.577  30.067  1.00  0.00     0.037 A 
BRANCH  45  59
ATOM     59  C   UNL A   1      44.052  32.929  31.199  1.00  0.00     0.058 A 
ATOM     60  C   UNL A   1      43.875  33.269  32.549  1.00  0.00     0.135 A 
ATOM     61  C   UNL A   1      44.422  33.952  30.310  1.00  0.00     0.135 A 
ATOM     62  F   UNL A   1      43.507  32.334  33.439  1.00  0.00    -0.206 F 
ATOM     63  C   UNL A   1      44.049  34.574  33.000  1.00  0.00     0.059 A 
ATOM     64  C   UNL A   1      44.624  35.259  30.742  1.00  0.00     0.059 A 
ATOM     65  F   UNL A   1      44.601  33.682  29.007  1.00  0.00    -0.206 F 
ATOM     66  C   UNL A   1      44.429  35.562  32.090  1.00  0.00     0.060 A 
BRANCH  66  67
ATOM     67  S   UNL A   1      44.687  37.242  32.698  1.00  0.00     0.124 S 
ATOM     68  O   UNL A   1      46.103  37.443  32.403  1.00  0.00    -0.237 OA
ATOM     69  O   UNL A   1      43.755  38.015  31.884  1.00  0.00    -0.237 OA
ATOM     70  O   UNL A   1      44.349  37.147  34.115  1.00  0.00    -0.744 OA
ENDBRANCH  66  67
ENDBRANCH  45  59
BRANCH  46  71
ATOM     71  C   UNL A   1      43.003  23.647  27.634  1.00  0.00     0.058 A 
ATOM     72  C   UNL A   1      43.256  23.420  26.273  1.00  0.00     0.135 A 
ATOM     73  C   UNL A   1      42.610  22.552  28.417  1.00  0.00     0.135 A 
ATOM     74  F   UNL A   1      43.631  24.436  25.482  1.00  0.00    -0.206 F 
ATOM     75  C   UNL A   1      43.095  22.161  25.702  1.00  0.00     0.059 A 
ATOM     76  C   UNL A   1      42.468  21.278  27.876  1.00  0.00     0.059 A 
ATOM     77  F   UNL A   1      42.375  22.713  29.729  1.00  0.00    -0.206 F 
ATOM     78  C   UNL A   1      42.695  21.097  26.512  1.00  0.00     0.060 A 
BRANCH  78  79
ATOM     79  S   UNL A   1      42.505  19.463  25.768  1.00  0.00     0.124 S 
ATOM     80  O   UNL A   1      41.091  19.468  25.408  1.00  0.00    -0.237 OA
ATOM     81  O   UNL A   1      43.449  19.518  24.656  1.00  0.00    -0.237 OA
ATOM     82  O   UNL A   1      42.878  18.557  26.851  1.00  0.00    -0.744 OA
ENDBRANCH  78  79
ENDBRANCH  46  71
BRANCH  58  83
ATOM     83  C   UNL A   1      48.352  27.217  30.326  1.00  0.00     0.058 A 
ATOM     84  C   UNL A   1      49.374  27.568  29.431  1.00  0.00     0.135 A 
ATOM     85  C   UNL A   1      48.714  26.559  31.512  1.00  0.00     0.135 A 
ATOM     86  F   UNL A   1      49.079  28.192  28.280  1.00  0.00    -0.206 F 
ATOM     87  C   UNL A   1      50.705  27.259  29.693  1.00  0.00     0.059 A 
ATOM     88  C   UNL A   1      50.041  26.264  31.807  1.00  0.00     0.059 A 
ATOM     89  F   UNL A   1      47.775  26.211  32.407  1.00  0.00    -0.206 F 
ATOM     90  C   UNL A   1      51.028  26.608  30.885  1.00  0.00     0.060 A 
BRANCH  90  91
ATOM     91  S   UNL A   1      52.762  26.244  31.230  1.00  0.00     0.124 S 
ATOM     92  O   UNL A   1      53.322  26.179  29.884  1.00  0.00    -0.237 OA
ATOM     93  O   UNL A   1      53.170  27.393  32.033  1.00  0.00    -0.237 OA
ATOM     94  O   UNL A   1      52.707  24.974  31.949  1.00  0.00    -0.744 OA
ENDBRANCH  90  91
ENDBRANCH  58  83
ENDBRANCH  32  33
ENDBRANCH  24  27
ENDBRANCH  22  23
ENDBRANCH   1  22
TORSDOF 15
ENDMDL
MODEL 2
REMARK VINA RESULT:     -11.2      0.398      8.472
REMARK SMILES CNc1nccc(-c2cc(C(=O)NCCCNC(=O)c3ccc(-c4c5nc(c(-c6c(F)cc(S(=O)(=O)[O-])cc6F)c6ccc([nH]6)c(-c6c(F)cc(S(=O)(=O)[O-])cc6F)c6nc(c(-c7c(F)cc(S(=O)(=O)[O-])cc7F)c7ccc4[nH]7)C=C6)C=C5)cc3)ccn2)n1
REMARK SMILES IDX 15 1 14 2 13 3 11 4 12 5 10 7 8 8 9 9 88 10 87 11 86 12 7 13
REMARK SMILES IDX 3 14 4 15 89 16 5 17 6 18 2 19 1 20 16 22 17 23 18 24 19 26
REMARK SMILES IDX 20 27 21 28 85 29 22 30 84 31 23 32 24 33 25 34 78 35 26 36
REMARK SMILES IDX 83 37 77 38 79 39 27 40 82 41 76 42 75 43 28 45 62 46 41 47
REMARK SMILES IDX 61 48 42 49 45 50 60 51 80 52 43 53 44 54 59 56 81 57 46 58
REMARK SMILES IDX 29 59 30 60 39 61 31 62 32 63 38 64 40 65 33 66 34 67 35 68
REMARK SMILES IDX 36 69 37 70 63 71 64 72 73 73 65 74 66 75 72 76 74 77 67 78
REMARK SMILES IDX 68 79 69 80 70 81 71 82 47 83 48 84 57 85 49 86 50 87 56 88
REMARK SMILES IDX 58 89 51 90 52 91 53 92 54 93 55 94
REMARK H PARENT 13 6 2 21 17 25 79 44 45 55
REMARK Flexibility Score: inf
ROOT
ATOM      1  C   UNL A   1      35.191  33.131  27.998  1.00  0.00     0.042 C 
ENDROOT
BRANCH   1   2
ATOM      2  C   UNL A   1      35.286  34.591  28.441  1.00  0.00     0.118 C 
BRANCH   2   3
ATOM      3  N   UNL A   1      33.998  35.258  28.335  1.00  0.00    -0.352 N 
ATOM      4  C   UNL A   1      33.185  35.870  29.255  1.00  0.00     0.251 C 
ATOM      5  O   UNL A   1      32.161  36.412  28.837  1.00  0.00    -0.269 OA
ATOM      6  H   UNL A   1      33.638  35.273  27.419  1.00  0.00     0.163 HD
BRANCH   4   7
ATOM      7  C   UNL A   1      33.513  35.978  30.701  1.00  0.00     0.043 A 
ATOM      8  C   UNL A   1      34.457  35.214  32.770  1.00  0.00     0.090 A 
ATOM      9  C   UNL A   1      34.030  34.944  31.472  1.00  0.00     0.044 A 
ATOM     10  N   UNL A   1      34.294  36.429  33.351  1.00  0.00    -0.255 NA
ATOM     11  C   UNL A   1      33.678  37.384  32.626  1.00  0.00     0.112 A 
ATOM     12  C   UNL A   1      33.297  37.218  31.309  1.00  0.00     0.034 A 
BRANCH   8  13
ATOM     13  C   UNL A   1      35.281  34.237  33.491  1.00  0.00     0.094 A 
ATOM     14  C   UNL A   1      36.315  32.189  33.532  1.00  0.00     0.222 A 
ATOM     15  N   UNL A   1      36.876  32.432  34.725  1.00  0.00    -0.222 NA
ATOM     16  N   UNL A   1      35.524  33.055  32.885  1.00  0.00    -0.211 NA
ATOM     17  C   UNL A   1      36.634  33.624  35.288  1.00  0.00     0.117 A 
ATOM     18  C   UNL A   1      35.836  34.574  34.712  1.00  0.00     0.051 A 
BRANCH  14  19
ATOM     19  N   UNL A   1      36.649  30.991  32.966  1.00  0.00    -0.357 N 
ATOM     20  C   UNL A   1      38.003  30.682  32.608  1.00  0.00     0.143 C 
ATOM     21  H   UNL A   1      35.945  30.325  32.801  1.00  0.00     0.163 HD
ENDBRANCH  14  19
ENDBRANCH   8  13
ENDBRANCH   4   7
ENDBRANCH   2   3
ENDBRANCH   1   2
BRANCH   1  22
ATOM     22  C   UNL A   1      34.588  32.216  29.063  1.00  0.00     0.118 C 
BRANCH  22  23
ATOM     23  N   UNL A   1      34.031  31.004  28.480  1.00  0.00    -0.352 N 
ATOM     24  C   UNL A   1      34.664  29.902  27.961  1.00  0.00     0.251 C 
ATOM     25  H   UNL A   1      33.047  30.968  28.453  1.00  0.00     0.163 HD
ATOM     26  O   UNL A   1      34.013  29.094  27.305  1.00  0.00    -0.269 OA
BRANCH  24  27
ATOM     27  C   UNL A   1      36.113  29.682  28.180  1.00  0.00     0.039 A 
ATOM     28  C   UNL A   1      36.541  29.224  29.429  1.00  0.00     0.014 A 
ATOM     29  C   UNL A   1      37.051  29.977  27.187  1.00  0.00     0.014 A 
ATOM     30  C   UNL A   1      37.903  29.014  29.666  1.00  0.00     0.010 A 
ATOM     31  C   UNL A   1      38.402  29.706  27.403  1.00  0.00     0.010 A 
ATOM     32  C   UNL A   1      38.843  29.228  28.644  1.00  0.00    -0.014 A 
BRANCH  32  33
ATOM     33  C   UNL A   1      40.288  28.955  28.858  1.00  0.00     0.031 A 
ATOM     34  C   UNL A   1      40.868  27.614  28.492  1.00  0.00     0.074 A 
ATOM     35  C   UNL A   1      41.062  29.892  29.442  1.00  0.00     0.049 A 
ATOM     36  N   UNL A   1      42.080  27.159  28.686  1.00  0.00    -0.248 NA
ATOM     37  C   UNL A   1      39.962  26.648  27.849  1.00  0.00     0.031 C 
ATOM     38  C   UNL A   1      40.605  31.212  29.883  1.00  0.00     0.029 A 
ATOM     39  N   UNL A   1      42.392  29.874  29.781  1.00  0.00    -0.354 N 
ATOM     40  C   UNL A   1      42.076  25.853  28.210  1.00  0.00     0.074 A 
ATOM     41  C   UNL A   1      40.733  25.573  27.752  1.00  0.00     0.031 C 
ATOM     42  C   UNL A   1      41.637  31.878  30.427  1.00  0.00     0.029 A 
ATOM     43  C   UNL A   1      42.819  31.023  30.405  1.00  0.00     0.049 A 
ATOM     44  H   UNL A   1      42.985  29.110  29.597  1.00  0.00     0.167 HD
ATOM     45  C   UNL A   1      43.105  24.974  28.144  1.00  0.00     0.037 A 
ATOM     46  C   UNL A   1      44.023  31.347  30.915  1.00  0.00     0.037 A 
ATOM     47  C   UNL A   1      44.450  25.272  28.563  1.00  0.00     0.049 A 
ATOM     48  C   UNL A   1      45.152  30.357  30.812  1.00  0.00     0.074 A 
ATOM     49  C   UNL A   1      45.576  24.474  28.471  1.00  0.00     0.029 A 
ATOM     50  N   UNL A   1      44.851  26.462  29.152  1.00  0.00    -0.354 N 
ATOM     51  N   UNL A   1      45.146  29.151  30.296  1.00  0.00    -0.248 NA
ATOM     52  C   UNL A   1      46.455  30.773  31.351  1.00  0.00     0.031 C 
ATOM     53  C   UNL A   1      46.651  25.165  29.038  1.00  0.00     0.029 A 
ATOM     54  C   UNL A   1      46.204  26.412  29.443  1.00  0.00     0.049 A 
ATOM     55  H   UNL A   1      44.262  27.229  29.336  1.00  0.00     0.167 HD
ATOM     56  C   UNL A   1      46.447  28.676  30.423  1.00  0.00     0.074 A 
ATOM     57  C   UNL A   1      47.217  29.730  31.052  1.00  0.00     0.031 C 
ATOM     58  C   UNL A   1      46.959  27.477  30.052  1.00  0.00     0.037 A 
BRANCH  45  59
ATOM     59  C   UNL A   1      42.831  23.604  27.586  1.00  0.00     0.058 A 
ATOM     60  C   UNL A   1      42.933  23.335  26.212  1.00  0.00     0.135 A 
ATOM     61  C   UNL A   1      42.538  22.531  28.443  1.00  0.00     0.135 A 
ATOM     62  F   UNL A   1      43.195  24.327  25.346  1.00  0.00    -0.206 F 
ATOM     63  C   UNL A   1      42.744  22.053  25.706  1.00  0.00     0.059 A 
ATOM     64  C   UNL A   1      42.369  21.236  27.962  1.00  0.00     0.059 A 
ATOM     65  F   UNL A   1      42.427  22.733  29.766  1.00  0.00    -0.206 F 
ATOM     66  C   UNL A   1      42.467  21.008  26.589  1.00  0.00     0.060 A 
BRANCH  66  67
ATOM     67  S   UNL A   1      42.262  19.344  25.919  1.00  0.00     0.124 S 
ATOM     68  O   UNL A   1      43.129  19.395  24.745  1.00  0.00    -0.237 OA
ATOM     69  O   UNL A   1      42.734  18.506  27.018  1.00  0.00    -0.237 OA
ATOM     70  O   UNL A   1      40.832  19.262  25.640  1.00  0.00    -0.744 OA
ENDBRANCH  66  67
ENDBRANCH  45  59
BRANCH  46  71
ATOM     71  C   UNL A   1      44.231  32.668  31.567  1.00  0.00     0.058 A 
ATOM     72  C   UNL A   1      43.875  32.876  32.908  1.00  0.00     0.135 A 
ATOM     73  C   UNL A   1      44.774  33.751  30.859  1.00  0.00     0.135 A 
ATOM     74  F   UNL A   1      43.349  31.873  33.626  1.00  0.00    -0.206 F 
ATOM     75  C   UNL A   1      44.020  34.119  33.515  1.00  0.00     0.059 A 
ATOM     76  C   UNL A   1      44.954  34.996  31.453  1.00  0.00     0.059 A 
ATOM     77  F   UNL A   1      45.149  33.599  29.579  1.00  0.00    -0.206 F 
ATOM     78  C   UNL A   1      44.557  35.175  32.777  1.00  0.00     0.060 A 
BRANCH  78  79
ATOM     79  S   UNL A   1      44.759  36.781  33.578  1.00  0.00     0.124 S 
ATOM     80  O   UNL A   1      43.537  37.465  33.173  1.00  0.00    -0.237 OA
ATOM     81  O   UNL A   1      44.850  36.414  34.988  1.00  0.00    -0.237 OA
ATOM     82  O   UNL A   1      45.994  37.294  32.992  1.00  0.00    -0.744 OA
ENDBRANCH  78  79
ENDBRANCH  46  71
BRANCH  58  83
ATOM     83  C   UNL A   1      48.428  27.253  30.276  1.00  0.00     0.058 A 
ATOM     84  C   UNL A   1      48.905  26.524  31.376  1.00  0.00     0.135 A 
ATOM     85  C   UNL A   1      49.367  27.729  29.346  1.00  0.00     0.135 A 
ATOM     86  F   UNL A   1      48.049  26.054  32.297  1.00  0.00    -0.206 F 
ATOM     87  C   UNL A   1      50.265  26.294  31.559  1.00  0.00     0.059 A 
ATOM     88  C   UNL A   1      50.728  27.488  29.495  1.00  0.00     0.059 A 
ATOM     89  F   UNL A   1      48.961  28.422  28.270  1.00  0.00    -0.206 F 
ATOM     90  C   UNL A   1      51.168  26.779  30.612  1.00  0.00     0.060 A 
BRANCH  90  91
ATOM     91  S   UNL A   1      52.927  26.443  30.841  1.00  0.00     0.124 S 
ATOM     92  O   UNL A   1      52.894  25.370  31.830  1.00  0.00    -0.237 OA
ATOM     93  O   UNL A   1      53.350  26.056  29.499  1.00  0.00    -0.237 OA
ATOM     94  O   UNL A   1      53.458  27.718  31.314  1.00  0.00    -0.744 OA
ENDBRANCH  90  91
ENDBRANCH  58  83
ENDBRANCH  32  33
ENDBRANCH  24  27
ENDBRANCH  22  23
ENDBRANCH   1  22
TORSDOF 15
ENDMDL
MODEL 3
REMARK VINA RESULT:     -11.1      3.260     12.128
REMARK SMILES CNc1nccc(-c2cc(C(=O)NCCCNC(=O)c3ccc(-c4c5nc(c(-c6c(F)cc(S(=O)(=O)[O-])cc6F)c6ccc([nH]6)c(-c6c(F)cc(S(=O)(=O)[O-])cc6F)c6nc(c(-c7c(F)cc(S(=O)(=O)[O-])cc7F)c7ccc4[nH]7)C=C6)C=C5)cc3)ccn2)n1
REMARK SMILES IDX 15 1 14 2 13 3 11 4 12 5 10 7 8 8 9 9 88 10 87 11 86 12 7 13
REMARK SMILES IDX 3 14 4 15 89 16 5 17 6 18 2 19 1 20 16 22 17 23 18 24 19 26
REMARK SMILES IDX 20 27 21 28 85 29 22 30 84 31 23 32 24 33 25 34 78 35 26 36
REMARK SMILES IDX 83 37 77 38 79 39 27 40 82 41 76 42 75 43 28 45 62 46 41 47
REMARK SMILES IDX 61 48 42 49 45 50 60 51 80 52 43 53 44 54 59 56 81 57 46 58
REMARK SMILES IDX 29 59 30 60 39 61 31 62 32 63 38 64 40 65 33 66 34 67 35 68
REMARK SMILES IDX 36 69 37 70 63 71 64 72 73 73 65 74 66 75 72 76 74 77 67 78
REMARK SMILES IDX 68 79 69 80 70 81 71 82 47 83 48 84 57 85 49 86 50 87 56 88
REMARK SMILES IDX 58 89 51 90 52 91 53 92 54 93 55 94
REMARK H PARENT 13 6 2 21 17 25 79 44 45 55
REMARK Flexibility Score: inf
ROOT
ATOM      1  C   UNL A   1      40.682  21.300  27.562  1.00  0.00     0.042 C 
ENDROOT
BRANCH   1   2
ATOM      2  C   UNL A   1      41.952  20.487  27.814  1.00  0.00     0.118 C 
BRANCH   2   3
ATOM      3  N   UNL A   1      41.950  19.255  27.043  1.00  0.00    -0.352 N 
ATOM      4  C   UNL A   1      42.787  18.758  26.075  1.00  0.00     0.251 C 
ATOM      5  O   UNL A   1      42.551  17.628  25.645  1.00  0.00    -0.269 OA
ATOM      6  H   UNL A   1      41.198  18.658  27.257  1.00  0.00     0.163 HD
BRANCH   4   7
ATOM      7  C   UNL A   1      43.995  19.473  25.585  1.00  0.00     0.043 A 
ATOM      8  C   UNL A   1      45.280  21.420  25.024  1.00  0.00     0.090 A 
ATOM      9  C   UNL A   1      44.050  20.835  25.314  1.00  0.00     0.044 A 
ATOM     10  N   UNL A   1      46.418  20.694  24.894  1.00  0.00    -0.255 NA
ATOM     11  C   UNL A   1      46.319  19.357  25.039  1.00  0.00     0.112 A 
ATOM     12  C   UNL A   1      45.153  18.712  25.403  1.00  0.00     0.034 A 
BRANCH   8  13
ATOM     13  C   UNL A   1      45.422  22.881  25.042  1.00  0.00     0.094 A 
ATOM     14  C   UNL A   1      46.791  24.722  25.057  1.00  0.00     0.222 A 
ATOM     15  N   UNL A   1      45.753  25.566  24.975  1.00  0.00    -0.222 NA
ATOM     16  N   UNL A   1      46.672  23.387  25.088  1.00  0.00    -0.211 NA
ATOM     17  C   UNL A   1      44.526  25.029  24.905  1.00  0.00     0.117 A 
ATOM     18  C   UNL A   1      44.299  23.681  24.935  1.00  0.00     0.051 A 
BRANCH  14  19
ATOM     19  N   UNL A   1      48.022  25.313  25.052  1.00  0.00    -0.357 N 
ATOM     20  C   UNL A   1      48.338  26.382  24.151  1.00  0.00     0.143 C 
ATOM     21  H   UNL A   1      48.709  24.999  25.683  1.00  0.00     0.163 HD
ENDBRANCH  14  19
ENDBRANCH   8  13
ENDBRANCH   4   7
ENDBRANCH   2   3
ENDBRANCH   1   2
BRANCH   1  22
ATOM     22  C   UNL A   1      40.520  21.728  26.104  1.00  0.00     0.118 C 
BRANCH  22  23
ATOM     23  N   UNL A   1      39.150  22.118  25.806  1.00  0.00    -0.352 N 
ATOM     24  C   UNL A   1      38.452  23.242  26.171  1.00  0.00     0.251 C 
ATOM     25  H   UNL A   1      38.645  21.476  25.256  1.00  0.00     0.163 HD
ATOM     26  O   UNL A   1      37.234  23.265  26.014  1.00  0.00    -0.269 OA
BRANCH  24  27
ATOM     27  C   UNL A   1      39.145  24.414  26.753  1.00  0.00     0.039 A 
ATOM     28  C   UNL A   1      39.933  25.211  25.917  1.00  0.00     0.014 A 
ATOM     29  C   UNL A   1      39.071  24.700  28.119  1.00  0.00     0.014 A 
ATOM     30  C   UNL A   1      40.604  26.321  26.440  1.00  0.00     0.010 A 
ATOM     31  C   UNL A   1      39.689  25.842  28.627  1.00  0.00     0.010 A 
ATOM     32  C   UNL A   1      40.466  26.661  27.795  1.00  0.00    -0.014 A 
BRANCH  32  33
ATOM     33  C   UNL A   1      41.124  27.869  28.358  1.00  0.00     0.031 A 
ATOM     34  C   UNL A   1      42.625  27.938  28.454  1.00  0.00     0.074 A 
ATOM     35  C   UNL A   1      40.367  28.873  28.843  1.00  0.00     0.049 A 
ATOM     36  N   UNL A   1      43.375  28.864  28.994  1.00  0.00    -0.248 NA
ATOM     37  C   UNL A   1      43.383  26.807  27.893  1.00  0.00     0.031 C 
ATOM     38  C   UNL A   1      38.902  28.901  28.849  1.00  0.00     0.029 A 
ATOM     39  N   UNL A   1      40.721  30.057  29.440  1.00  0.00    -0.354 N 
ATOM     40  C   UNL A   1      44.686  28.420  28.858  1.00  0.00     0.074 A 
ATOM     41  C   UNL A   1      44.629  27.124  28.217  1.00  0.00     0.031 C 
ATOM     42  C   UNL A   1      38.484  30.046  29.414  1.00  0.00     0.029 A 
ATOM     43  C   UNL A   1      39.647  30.817  29.841  1.00  0.00     0.049 A 
ATOM     44  H   UNL A   1      41.656  30.336  29.571  1.00  0.00     0.167 HD
ATOM     45  C   UNL A   1      45.832  29.045  29.217  1.00  0.00     0.037 A 
ATOM     46  C   UNL A   1      39.603  31.996  30.492  1.00  0.00     0.037 A 
ATOM     47  C   UNL A   1      45.884  30.353  29.816  1.00  0.00     0.049 A 
ATOM     48  C   UNL A   1      40.894  32.676  30.863  1.00  0.00     0.074 A 
ATOM     49  C   UNL A   1      47.000  31.102  30.151  1.00  0.00     0.029 A 
ATOM     50  N   UNL A   1      44.776  31.109  30.169  1.00  0.00    -0.354 N 
ATOM     51  N   UNL A   1      42.125  32.272  30.664  1.00  0.00    -0.248 NA
ATOM     52  C   UNL A   1      40.791  33.978  31.538  1.00  0.00     0.031 C 
ATOM     53  C   UNL A   1      46.567  32.293  30.741  1.00  0.00     0.029 A 
ATOM     54  C   UNL A   1      45.181  32.307  30.732  1.00  0.00     0.049 A 
ATOM     55  H   UNL A   1      43.840  30.834  30.038  1.00  0.00     0.167 HD
ATOM     56  C   UNL A   1      42.942  33.279  31.163  1.00  0.00     0.074 A 
ATOM     57  C   UNL A   1      42.065  34.320  31.662  1.00  0.00     0.031 C 
ATOM     58  C   UNL A   1      44.295  33.340  31.206  1.00  0.00     0.037 A 
BRANCH  45  59
ATOM     59  C   UNL A   1      47.135  28.336  28.964  1.00  0.00     0.058 A 
ATOM     60  C   UNL A   1      47.648  27.395  29.869  1.00  0.00     0.135 A 
ATOM     61  C   UNL A   1      47.837  28.543  27.765  1.00  0.00     0.135 A 
ATOM     62  F   UNL A   1      47.025  27.170  31.037  1.00  0.00    -0.206 F 
ATOM     63  C   UNL A   1      48.819  26.692  29.602  1.00  0.00     0.059 A 
ATOM     64  C   UNL A   1      48.997  27.834  27.466  1.00  0.00     0.059 A 
ATOM     65  F   UNL A   1      47.391  29.434  26.865  1.00  0.00    -0.206 F 
ATOM     66  C   UNL A   1      49.484  26.914  28.395  1.00  0.00     0.060 A 
BRANCH  66  67
ATOM     67  S   UNL A   1      50.981  25.966  28.048  1.00  0.00     0.124 S 
ATOM     68  O   UNL A   1      50.425  24.654  27.725  1.00  0.00    -0.237 OA
ATOM     69  O   UNL A   1      51.561  26.700  26.928  1.00  0.00    -0.237 OA
ATOM     70  O   UNL A   1      51.729  26.039  29.299  1.00  0.00    -0.744 OA
ENDBRANCH  66  67
ENDBRANCH  45  59
BRANCH  46  71
ATOM     71  C   UNL A   1      38.294  32.616  30.832  1.00  0.00     0.058 A 
ATOM     72  C   UNL A   1      37.702  32.411  32.088  1.00  0.00     0.135 A 
ATOM     73  C   UNL A   1      37.603  33.412  29.907  1.00  0.00     0.135 A 
ATOM     74  F   UNL A   1      38.323  31.655  33.006  1.00  0.00    -0.206 F 
ATOM     75  C   UNL A   1      36.457  32.946  32.402  1.00  0.00     0.059 A 
ATOM     76  C   UNL A   1      36.369  33.980  30.207  1.00  0.00     0.059 A 
ATOM     77  F   UNL A   1      38.135  33.655  28.698  1.00  0.00    -0.206 F 
ATOM     78  C   UNL A   1      35.796  33.726  31.453  1.00  0.00     0.060 A 
BRANCH  78  79
ATOM     79  S   UNL A   1      34.188  34.432  31.875  1.00  0.00     0.124 S 
ATOM     80  O   UNL A   1      33.537  34.475  30.571  1.00  0.00    -0.237 OA
ATOM     81  O   UNL A   1      33.661  33.454  32.822  1.00  0.00    -0.237 OA
ATOM     82  O   UNL A   1      34.534  35.728  32.452  1.00  0.00    -0.744 OA
ENDBRANCH  78  79
ENDBRANCH  46  71
BRANCH  58  83
ATOM     83  C   UNL A   1      44.916  34.587  31.772  1.00  0.00     0.058 A 
ATOM     84  C   UNL A   1      45.192  34.719  33.141  1.00  0.00     0.135 A 
ATOM     85  C   UNL A   1      45.286  35.641  30.922  1.00  0.00     0.135 A 
ATOM     86  F   UNL A   1      44.850  33.742  33.996  1.00  0.00    -0.206 F 
ATOM     87  C   UNL A   1      45.794  35.864  33.652  1.00  0.00     0.059 A 
ATOM     88  C   UNL A   1      45.914  36.784  31.407  1.00  0.00     0.059 A 
ATOM     89  F   UNL A   1      45.054  35.560  29.602  1.00  0.00    -0.206 F 
ATOM     90  C   UNL A   1      46.153  36.890  32.776  1.00  0.00     0.060 A 
BRANCH  90  91
ATOM     91  S   UNL A   1      46.967  38.355  33.446  1.00  0.00     0.124 S 
ATOM     92  O   UNL A   1      48.001  38.599  32.445  1.00  0.00    -0.237 OA
ATOM     93  O   UNL A   1      45.880  39.329  33.485  1.00  0.00    -0.237 OA
ATOM     94  O   UNL A   1      47.448  37.911  34.751  1.00  0.00    -0.744 OA
ENDBRANCH  90  91
ENDBRANCH  58  83
ENDBRANCH  32  33
ENDBRANCH  24  27
ENDBRANCH  22  23
ENDBRANCH   1  22
TORSDOF 15
ENDMDL
