MODEL 1
REMARK VINA RESULT:     -10.4      0.000      0.000
REMARK SMILES CCC[N@@H+](C)CC[C@@H]1CCC[C@]1([NH2+]C)C(=O)NCCCNC(=O)c1ccc(-c2c3nc(c(-c4c(F)cc(S(=O)(=O)[O-])cc4F)c4ccc([nH]4)c(-c4c(F)cc(S(=O)(=O)[O-])cc4F)c4nc(c(-c5c(F)cc(S(=O)(=O)[O-])cc5F)c5ccc2[nH]5)C=C4)C=C3)cc1
REMARK SMILES IDX 18 1 17 2 15 3 16 4 12 6 8 7 9 8 10 9 11 10 7 11 6 12 4 13
REMARK SMILES IDX 5 14 3 16 2 17 1 18 13 19 14 20 19 23 20 24 21 25 22 26
REMARK SMILES IDX 23 28 24 29 25 30 89 31 26 32 88 33 27 34 28 35 29 36 82 37
REMARK SMILES IDX 30 38 87 39 81 40 83 41 31 42 86 43 80 44 79 45 32 47 66 48
REMARK SMILES IDX 45 49 65 50 46 51 49 52 64 53 84 54 47 55 48 56 63 58 85 59
REMARK SMILES IDX 50 60 33 61 34 62 43 63 35 64 36 65 42 66 44 67 37 68 38 69
REMARK SMILES IDX 39 70 40 71 41 72 67 73 68 74 77 75 69 76 70 77 76 78 78 79
REMARK SMILES IDX 71 80 72 81 73 82 74 83 75 84 51 85 52 86 61 87 53 88 54 89
REMARK SMILES IDX 60 90 62 91 55 92 56 93 57 94 58 95 59 96
REMARK H PARENT 17 5 4 15 13 21 13 22 21 27 83 46 49 57
REMARK Flexibility Score: inf
ROOT
ATOM      1  C   UNL A   1      36.841  22.797  25.600  1.00  0.00     0.118 C 
ENDROOT
BRANCH   1   2
ATOM      2  N   UNL A   1      35.772  22.344  26.477  1.00  0.00    -0.351 N 
ATOM      3  C   UNL A   1      34.435  22.126  26.444  1.00  0.00     0.281 C 
ATOM      4  O   UNL A   1      34.062  21.499  27.454  1.00  0.00    -0.268 OA
ATOM      5  H   UNL A   1      36.130  22.129  27.368  1.00  0.00     0.163 HD
BRANCH   3   6
ATOM      6  C   UNL A   1      33.347  22.541  25.359  1.00  0.00     0.178 C 
ATOM      7  C   UNL A   1      33.073  24.067  25.138  1.00  0.00     0.066 C 
ATOM      8  C   UNL A   1      32.396  24.457  26.469  1.00  0.00     0.011 C 
ATOM      9  C   UNL A   1      31.470  23.296  26.805  1.00  0.00     0.008 C 
ATOM     10  C   UNL A   1      31.938  22.137  25.931  1.00  0.00     0.079 C 
BRANCH   7  11
ATOM     11  C   UNL A   1      34.134  25.114  24.765  1.00  0.00     0.072 C 
BRANCH  11  12
ATOM     12  C   UNL A   1      33.754  26.583  24.515  1.00  0.00     0.262 C 
BRANCH  12  13
ATOM     13  N   UNL A   1      32.799  27.088  23.532  1.00  0.00    -0.337 N 
ATOM     14  C   UNL A   1      33.424  27.395  22.254  1.00  0.00     0.332 C 
ATOM     15  H   UNL A   1      32.174  26.299  23.364  1.00  0.00     0.347 HD
BRANCH  13  16
ATOM     16  C   UNL A   1      31.881  28.111  24.006  1.00  0.00     0.261 C 
BRANCH  16  17
ATOM     17  C   UNL A   1      30.376  27.748  23.984  1.00  0.00     0.058 C 
ATOM     18  C   UNL A   1      29.923  26.332  24.298  1.00  0.00     0.010 C 
ENDBRANCH  16  17
ENDBRANCH  13  16
ENDBRANCH  12  13
ENDBRANCH  11  12
ENDBRANCH   7  11
BRANCH   6  19
ATOM     19  N   UNL A   1      33.513  21.829  24.079  1.00  0.00    -0.336 N 
ATOM     20  C   UNL A   1      32.850  22.415  22.920  1.00  0.00     0.331 C 
ATOM     21  H   UNL A   1      33.150  20.884  24.199  1.00  0.00     0.346 HD
ATOM     22  H   UNL A   1      34.512  21.875  23.871  1.00  0.00     0.346 HD
ENDBRANCH   6  19
ENDBRANCH   3   6
ENDBRANCH   1   2
BRANCH   1  23
ATOM     23  C   UNL A   1      37.525  24.068  26.105  1.00  0.00     0.042 C 
BRANCH  23  24
ATOM     24  C   UNL A   1      38.860  23.818  26.791  1.00  0.00     0.118 C 
BRANCH  24  25
ATOM     25  N   UNL A   1      39.985  24.325  26.009  1.00  0.00    -0.352 N 
ATOM     26  C   UNL A   1      40.715  25.487  26.142  1.00  0.00     0.251 C 
ATOM     27  H   UNL A   1      40.267  23.744  25.266  1.00  0.00     0.163 HD
ATOM     28  O   UNL A   1      41.494  25.815  25.255  1.00  0.00    -0.269 OA
BRANCH  26  29
ATOM     29  C   UNL A   1      40.552  26.344  27.341  1.00  0.00     0.039 A 
ATOM     30  C   UNL A   1      39.729  25.919  28.390  1.00  0.00     0.014 A 
ATOM     31  C   UNL A   1      41.200  27.575  27.432  1.00  0.00     0.014 A 
ATOM     32  C   UNL A   1      39.611  26.699  29.545  1.00  0.00     0.010 A 
ATOM     33  C   UNL A   1      41.190  28.280  28.627  1.00  0.00     0.010 A 
ATOM     34  C   UNL A   1      40.371  27.871  29.688  1.00  0.00    -0.014 A 
BRANCH  34  35
ATOM     35  C   UNL A   1      40.292  28.734  30.895  1.00  0.00     0.031 A 
ATOM     36  C   UNL A   1      39.268  29.842  30.941  1.00  0.00     0.074 A 
ATOM     37  C   UNL A   1      41.184  28.586  31.896  1.00  0.00     0.049 A 
ATOM     38  N   UNL A   1      39.127  30.804  31.816  1.00  0.00    -0.248 NA
ATOM     39  C   UNL A   1      38.304  29.907  29.827  1.00  0.00     0.031 C 
ATOM     40  C   UNL A   1      42.253  27.585  31.941  1.00  0.00     0.029 A 
ATOM     41  N   UNL A   1      41.344  29.291  33.063  1.00  0.00    -0.354 N 
ATOM     42  C   UNL A   1      38.090  31.600  31.338  1.00  0.00     0.074 A 
ATOM     43  C   UNL A   1      37.684  31.052  30.064  1.00  0.00     0.031 C 
ATOM     44  C   UNL A   1      42.940  27.724  33.087  1.00  0.00     0.029 A 
ATOM     45  C   UNL A   1      42.394  28.851  33.836  1.00  0.00     0.049 A 
ATOM     46  H   UNL A   1      40.762  30.041  33.324  1.00  0.00     0.167 HD
ATOM     47  C   UNL A   1      37.505  32.670  31.923  1.00  0.00     0.037 A 
ATOM     48  C   UNL A   1      42.869  29.313  35.010  1.00  0.00     0.037 A 
ATOM     49  C   UNL A   1      37.878  33.168  33.219  1.00  0.00     0.049 A 
ATOM     50  C   UNL A   1      42.187  30.493  35.652  1.00  0.00     0.074 A 
ATOM     51  C   UNL A   1      37.305  34.199  33.941  1.00  0.00     0.029 A 
ATOM     52  N   UNL A   1      38.913  32.663  33.992  1.00  0.00    -0.354 N 
ATOM     53  N   UNL A   1      41.169  31.197  35.213  1.00  0.00    -0.248 NA
ATOM     54  C   UNL A   1      42.709  30.939  36.951  1.00  0.00     0.031 C 
ATOM     55  C   UNL A   1      38.024  34.349  35.129  1.00  0.00     0.029 A 
ATOM     56  C   UNL A   1      39.007  33.371  35.176  1.00  0.00     0.049 A 
ATOM     57  H   UNL A   1      39.495  31.912  33.734  1.00  0.00     0.167 HD
ATOM     58  C   UNL A   1      40.906  32.141  36.200  1.00  0.00     0.074 A 
ATOM     59  C   UNL A   1      41.865  31.914  37.260  1.00  0.00     0.031 C 
ATOM     60  C   UNL A   1      39.955  33.108  36.229  1.00  0.00     0.037 A 
BRANCH  47  61
ATOM     61  C   UNL A   1      36.391  33.361  31.182  1.00  0.00     0.058 A 
ATOM     62  C   UNL A   1      35.058  33.297  31.620  1.00  0.00     0.135 A 
ATOM     63  C   UNL A   1      36.667  34.141  30.046  1.00  0.00     0.135 A 
ATOM     64  F   UNL A   1      34.733  32.552  32.689  1.00  0.00    -0.206 F 
ATOM     65  C   UNL A   1      34.037  33.959  30.948  1.00  0.00     0.059 A 
ATOM     66  C   UNL A   1      35.666  34.839  29.377  1.00  0.00     0.059 A 
ATOM     67  F   UNL A   1      37.922  34.234  29.578  1.00  0.00    -0.206 F 
ATOM     68  C   UNL A   1      34.352  34.733  29.829  1.00  0.00     0.060 A 
BRANCH  68  69
ATOM     69  S   UNL A   1      33.017  35.613  28.991  1.00  0.00     0.124 S 
ATOM     70  O   UNL A   1      33.759  36.621  28.239  1.00  0.00    -0.237 OA
ATOM     71  O   UNL A   1      32.400  34.556  28.196  1.00  0.00    -0.237 OA
ATOM     72  O   UNL A   1      32.203  36.124  30.089  1.00  0.00    -0.744 OA
ENDBRANCH  68  69
ENDBRANCH  47  61
BRANCH  48  73
ATOM     73  C   UNL A   1      44.032  28.653  35.665  1.00  0.00     0.058 A 
ATOM     74  C   UNL A   1      43.845  27.633  36.610  1.00  0.00     0.135 A 
ATOM     75  C   UNL A   1      45.351  29.029  35.366  1.00  0.00     0.135 A 
ATOM     76  F   UNL A   1      42.604  27.237  36.933  1.00  0.00    -0.206 F 
ATOM     77  C   UNL A   1      44.919  27.031  37.260  1.00  0.00     0.059 A 
ATOM     78  C   UNL A   1      46.443  28.421  35.980  1.00  0.00     0.059 A 
ATOM     79  F   UNL A   1      45.589  29.985  34.455  1.00  0.00    -0.206 F 
ATOM     80  C   UNL A   1      46.216  27.434  36.938  1.00  0.00     0.060 A 
BRANCH  80  81
ATOM     81  S   UNL A   1      47.604  26.632  37.771  1.00  0.00     0.124 S 
ATOM     82  O   UNL A   1      46.914  25.777  38.730  1.00  0.00    -0.237 OA
ATOM     83  O   UNL A   1      48.270  25.949  36.668  1.00  0.00    -0.237 OA
ATOM     84  O   UNL A   1      48.344  27.753  38.344  1.00  0.00    -0.744 OA
ENDBRANCH  80  81
ENDBRANCH  48  73
BRANCH  60  85
ATOM     85  C   UNL A   1      39.860  33.954  37.466  1.00  0.00     0.058 A 
ATOM     86  C   UNL A   1      40.526  35.185  37.577  1.00  0.00     0.135 A 
ATOM     87  C   UNL A   1      39.027  33.560  38.527  1.00  0.00     0.135 A 
ATOM     88  F   UNL A   1      41.338  35.606  36.594  1.00  0.00    -0.206 F 
ATOM     89  C   UNL A   1      40.385  35.984  38.706  1.00  0.00     0.059 A 
ATOM     90  C   UNL A   1      38.847  34.359  39.650  1.00  0.00     0.059 A 
ATOM     91  F   UNL A   1      38.358  32.397  38.463  1.00  0.00    -0.206 F 
ATOM     92  C   UNL A   1      39.538  35.565  39.735  1.00  0.00     0.060 A 
BRANCH  92  93
ATOM     93  S   UNL A   1      39.329  36.636  41.172  1.00  0.00     0.124 S 
ATOM     94  O   UNL A   1      40.702  36.755  41.652  1.00  0.00    -0.237 OA
ATOM     95  O   UNL A   1      38.757  37.842  40.581  1.00  0.00    -0.237 OA
ATOM     96  O   UNL A   1      38.427  35.878  42.032  1.00  0.00    -0.744 OA
ENDBRANCH  92  93
ENDBRANCH  60  85
ENDBRANCH  34  35
ENDBRANCH  26  29
ENDBRANCH  24  25
ENDBRANCH  23  24
ENDBRANCH   1  23
TORSDOF 19
ENDMDL
MODEL 2
REMARK VINA RESULT:     -10.3      6.872     11.715
REMARK SMILES CCC[N@@H+](C)CC[C@@H]1CCC[C@]1([NH2+]C)C(=O)NCCCNC(=O)c1ccc(-c2c3nc(c(-c4c(F)cc(S(=O)(=O)[O-])cc4F)c4ccc([nH]4)c(-c4c(F)cc(S(=O)(=O)[O-])cc4F)c4nc(c(-c5c(F)cc(S(=O)(=O)[O-])cc5F)c5ccc2[nH]5)C=C4)C=C3)cc1
REMARK SMILES IDX 18 1 17 2 15 3 16 4 12 6 8 7 9 8 10 9 11 10 7 11 6 12 4 13
REMARK SMILES IDX 5 14 3 16 2 17 1 18 13 19 14 20 19 23 20 24 21 25 22 26
REMARK SMILES IDX 23 28 24 29 25 30 89 31 26 32 88 33 27 34 28 35 29 36 82 37
REMARK SMILES IDX 30 38 87 39 81 40 83 41 31 42 86 43 80 44 79 45 32 47 66 48
REMARK SMILES IDX 45 49 65 50 46 51 49 52 64 53 84 54 47 55 48 56 63 58 85 59
REMARK SMILES IDX 50 60 33 61 34 62 43 63 35 64 36 65 42 66 44 67 37 68 38 69
REMARK SMILES IDX 39 70 40 71 41 72 67 73 68 74 77 75 69 76 70 77 76 78 78 79
REMARK SMILES IDX 71 80 72 81 73 82 74 83 75 84 51 85 52 86 61 87 53 88 54 89
REMARK SMILES IDX 60 90 62 91 55 92 56 93 57 94 58 95 59 96
REMARK H PARENT 17 5 4 15 13 21 13 22 21 27 83 46 49 57
REMARK Flexibility Score: inf
ROOT
ATOM      1  C   UNL A   1      33.552  29.037  26.597  1.00  0.00     0.118 C 
ENDROOT
BRANCH   1   2
ATOM      2  N   UNL A   1      33.649  29.113  25.147  1.00  0.00    -0.351 N 
ATOM      3  C   UNL A   1      33.138  28.510  24.047  1.00  0.00     0.281 C 
ATOM      4  O   UNL A   1      33.415  29.156  23.018  1.00  0.00    -0.268 OA
ATOM      5  H   UNL A   1      34.282  29.822  24.885  1.00  0.00     0.163 HD
BRANCH   3   6
ATOM      6  C   UNL A   1      32.289  27.172  23.903  1.00  0.00     0.178 C 
ATOM      7  C   UNL A   1      32.957  25.826  24.344  1.00  0.00     0.066 C 
ATOM      8  C   UNL A   1      34.051  25.655  23.269  1.00  0.00     0.011 C 
ATOM      9  C   UNL A   1      33.402  26.087  21.962  1.00  0.00     0.008 C 
ATOM     10  C   UNL A   1      32.155  26.867  22.366  1.00  0.00     0.079 C 
BRANCH   7  11
ATOM     11  C   UNL A   1      33.543  25.540  25.736  1.00  0.00     0.072 C 
BRANCH  11  12
ATOM     12  C   UNL A   1      33.805  24.102  26.213  1.00  0.00     0.262 C 
BRANCH  12  13
ATOM     13  N   UNL A   1      32.920  23.273  27.028  1.00  0.00    -0.337 N 
ATOM     14  C   UNL A   1      33.323  21.874  27.040  1.00  0.00     0.332 C 
ATOM     15  H   UNL A   1      33.058  23.620  27.977  1.00  0.00     0.347 HD
BRANCH  13  16
ATOM     16  C   UNL A   1      31.495  23.479  26.828  1.00  0.00     0.261 C 
BRANCH  16  17
ATOM     17  C   UNL A   1      30.840  22.681  25.674  1.00  0.00     0.058 C 
ATOM     18  C   UNL A   1      30.915  23.195  24.246  1.00  0.00     0.010 C 
ENDBRANCH  16  17
ENDBRANCH  13  16
ENDBRANCH  12  13
ENDBRANCH  11  12
ENDBRANCH   7  11
BRANCH   6  19
ATOM     19  N   UNL A   1      30.922  27.299  24.440  1.00  0.00    -0.336 N 
ATOM     20  C   UNL A   1      30.201  28.519  24.095  1.00  0.00     0.331 C 
ATOM     21  H   UNL A   1      30.982  27.251  25.456  1.00  0.00     0.346 HD
ATOM     22  H   UNL A   1      30.391  26.540  24.011  1.00  0.00     0.346 HD
ENDBRANCH   6  19
ENDBRANCH   3   6
ENDBRANCH   1   2
BRANCH   1  23
ATOM     23  C   UNL A   1      34.917  29.020  27.285  1.00  0.00     0.042 C 
BRANCH  23  24
ATOM     24  C   UNL A   1      35.398  30.391  27.736  1.00  0.00     0.118 C 
BRANCH  24  25
ATOM     25  N   UNL A   1      35.366  30.535  29.189  1.00  0.00    -0.352 N 
ATOM     26  C   UNL A   1      36.290  30.167  30.145  1.00  0.00     0.251 C 
ATOM     27  H   UNL A   1      34.554  30.965  29.544  1.00  0.00     0.163 HD
ATOM     28  O   UNL A   1      35.978  30.201  31.329  1.00  0.00    -0.269 OA
BRANCH  26  29
ATOM     29  C   UNL A   1      37.645  29.717  29.746  1.00  0.00     0.039 A 
ATOM     30  C   UNL A   1      38.111  29.981  28.453  1.00  0.00     0.014 A 
ATOM     31  C   UNL A   1      38.458  29.024  30.641  1.00  0.00     0.014 A 
ATOM     32  C   UNL A   1      39.408  29.604  28.088  1.00  0.00     0.010 A 
ATOM     33  C   UNL A   1      39.786  28.772  30.324  1.00  0.00     0.010 A 
ATOM     34  C   UNL A   1      40.270  29.028  29.034  1.00  0.00    -0.014 A 
BRANCH  34  35
ATOM     35  C   UNL A   1      41.659  28.616  28.704  1.00  0.00     0.031 A 
ATOM     36  C   UNL A   1      42.750  29.660  28.682  1.00  0.00     0.074 A 
ATOM     37  C   UNL A   1      41.923  27.345  28.338  1.00  0.00     0.049 A 
ATOM     38  N   UNL A   1      43.987  29.557  28.271  1.00  0.00    -0.248 NA
ATOM     39  C   UNL A   1      42.386  31.015  29.136  1.00  0.00     0.031 C 
ATOM     40  C   UNL A   1      40.942  26.259  28.270  1.00  0.00     0.029 A 
ATOM     41  N   UNL A   1      43.095  26.754  27.939  1.00  0.00    -0.354 N 
ATOM     42  C   UNL A   1      44.530  30.833  28.384  1.00  0.00     0.074 A 
ATOM     43  C   UNL A   1      43.472  31.708  28.834  1.00  0.00     0.031 C 
ATOM     44  C   UNL A   1      41.557  25.132  27.879  1.00  0.00     0.029 A 
ATOM     45  C   UNL A   1      42.964  25.421  27.623  1.00  0.00     0.049 A 
ATOM     46  H   UNL A   1      43.951  27.237  27.884  1.00  0.00     0.167 HD
ATOM     47  C   UNL A   1      45.804  31.234  28.168  1.00  0.00     0.037 A 
ATOM     48  C   UNL A   1      43.874  24.538  27.166  1.00  0.00     0.037 A 
ATOM     49  C   UNL A   1      46.861  30.341  27.779  1.00  0.00     0.049 A 
ATOM     50  C   UNL A   1      45.291  25.003  26.952  1.00  0.00     0.074 A 
ATOM     51  C   UNL A   1      48.204  30.624  27.603  1.00  0.00     0.029 A 
ATOM     52  N   UNL A   1      46.697  28.989  27.519  1.00  0.00    -0.354 N 
ATOM     53  N   UNL A   1      45.800  26.202  27.121  1.00  0.00    -0.248 NA
ATOM     54  C   UNL A   1      46.260  23.999  26.494  1.00  0.00     0.031 C 
ATOM     55  C   UNL A   1      48.843  29.452  27.189  1.00  0.00     0.029 A 
ATOM     56  C   UNL A   1      47.911  28.425  27.167  1.00  0.00     0.049 A 
ATOM     57  H   UNL A   1      45.843  28.502  27.575  1.00  0.00     0.167 HD
ATOM     58  C   UNL A   1      47.154  26.084  26.829  1.00  0.00     0.074 A 
ATOM     59  C   UNL A   1      47.386  24.698  26.480  1.00  0.00     0.031 C 
ATOM     60  C   UNL A   1      48.121  27.036  26.848  1.00  0.00     0.037 A 
BRANCH  47  61
ATOM     61  C   UNL A   1      46.130  32.691  28.362  1.00  0.00     0.058 A 
ATOM     62  C   UNL A   1      46.568  33.193  29.599  1.00  0.00     0.135 A 
ATOM     63  C   UNL A   1      46.053  33.589  27.285  1.00  0.00     0.135 A 
ATOM     64  F   UNL A   1      46.643  32.385  30.669  1.00  0.00    -0.206 F 
ATOM     65  C   UNL A   1      46.894  34.534  29.767  1.00  0.00     0.059 A 
ATOM     66  C   UNL A   1      46.407  34.929  27.422  1.00  0.00     0.059 A 
ATOM     67  F   UNL A   1      45.636  33.167  26.081  1.00  0.00    -0.206 F 
ATOM     68  C   UNL A   1      46.816  35.394  28.670  1.00  0.00     0.060 A 
BRANCH  68  69
ATOM     69  S   UNL A   1      47.277  37.124  28.901  1.00  0.00     0.124 S 
ATOM     70  O   UNL A   1      45.995  37.796  28.705  1.00  0.00    -0.237 OA
ATOM     71  O   UNL A   1      47.792  37.129  30.266  1.00  0.00    -0.237 OA
ATOM     72  O   UNL A   1      48.270  37.354  27.857  1.00  0.00    -0.744 OA
ENDBRANCH  68  69
ENDBRANCH  47  61
BRANCH  48  73
ATOM     73  C   UNL A   1      43.485  23.125  26.900  1.00  0.00     0.058 A 
ATOM     74  C   UNL A   1      43.182  22.249  27.954  1.00  0.00     0.135 A 
ATOM     75  C   UNL A   1      43.413  22.618  25.593  1.00  0.00     0.135 A 
ATOM     76  F   UNL A   1      43.239  22.682  29.223  1.00  0.00    -0.206 F 
ATOM     77  C   UNL A   1      42.854  20.915  27.727  1.00  0.00     0.059 A 
ATOM     78  C   UNL A   1      43.057  21.297  25.338  1.00  0.00     0.059 A 
ATOM     79  F   UNL A   1      43.672  23.417  24.547  1.00  0.00    -0.206 F 
ATOM     80  C   UNL A   1      42.795  20.449  26.412  1.00  0.00     0.060 A 
BRANCH  80  81
ATOM     81  S   UNL A   1      42.348  18.722  26.126  1.00  0.00     0.124 S 
ATOM     82  O   UNL A   1      40.933  18.838  25.793  1.00  0.00    -0.237 OA
ATOM     83  O   UNL A   1      43.235  18.354  25.028  1.00  0.00    -0.237 OA
ATOM     84  O   UNL A   1      42.645  18.082  27.404  1.00  0.00    -0.744 OA
ENDBRANCH  80  81
ENDBRANCH  48  73
BRANCH  60  85
ATOM     85  C   UNL A   1      49.528  26.605  26.546  1.00  0.00     0.058 A 
ATOM     86  C   UNL A   1      50.387  26.122  27.544  1.00  0.00     0.135 A 
ATOM     87  C   UNL A   1      49.995  26.606  25.220  1.00  0.00     0.135 A 
ATOM     88  F   UNL A   1      49.992  26.105  28.827  1.00  0.00    -0.206 F 
ATOM     89  C   UNL A   1      51.669  25.675  27.242  1.00  0.00     0.059 A 
ATOM     90  C   UNL A   1      51.260  26.133  24.891  1.00  0.00     0.059 A 
ATOM     91  F   UNL A   1      49.206  27.046  24.227  1.00  0.00    -0.206 F 
ATOM     92  C   UNL A   1      52.094  25.679  25.911  1.00  0.00     0.060 A 
BRANCH  92  93
ATOM     93  S   UNL A   1      53.742  25.051  25.529  1.00  0.00     0.124 S 
ATOM     94  O   UNL A   1      54.452  25.311  26.776  1.00  0.00    -0.237 OA
ATOM     95  O   UNL A   1      53.478  23.647  25.230  1.00  0.00    -0.237 OA
ATOM     96  O   UNL A   1      54.158  25.861  24.389  1.00  0.00    -0.744 OA
ENDBRANCH  92  93
ENDBRANCH  60  85
ENDBRANCH  34  35
ENDBRANCH  26  29
ENDBRANCH  24  25
ENDBRANCH  23  24
ENDBRANCH   1  23
TORSDOF 19
ENDMDL
MODEL 3
REMARK VINA RESULT:     -10.3      0.883      8.484
REMARK SMILES CCC[N@@H+](C)CC[C@@H]1CCC[C@]1([NH2+]C)C(=O)NCCCNC(=O)c1ccc(-c2c3nc(c(-c4c(F)cc(S(=O)(=O)[O-])cc4F)c4ccc([nH]4)c(-c4c(F)cc(S(=O)(=O)[O-])cc4F)c4nc(c(-c5c(F)cc(S(=O)(=O)[O-])cc5F)c5ccc2[nH]5)C=C4)C=C3)cc1
REMARK SMILES IDX 18 1 17 2 15 3 16 4 12 6 8 7 9 8 10 9 11 10 7 11 6 12 4 13
REMARK SMILES IDX 5 14 3 16 2 17 1 18 13 19 14 20 19 23 20 24 21 25 22 26
REMARK SMILES IDX 23 28 24 29 25 30 89 31 26 32 88 33 27 34 28 35 29 36 82 37
REMARK SMILES IDX 30 38 87 39 81 40 83 41 31 42 86 43 80 44 79 45 32 47 66 48
REMARK SMILES IDX 45 49 65 50 46 51 49 52 64 53 84 54 47 55 48 56 63 58 85 59
REMARK SMILES IDX 50 60 33 61 34 62 43 63 35 64 36 65 42 66 44 67 37 68 38 69
REMARK SMILES IDX 39 70 40 71 41 72 67 73 68 74 77 75 69 76 70 77 76 78 78 79
REMARK SMILES IDX 71 80 72 81 73 82 74 83 75 84 51 85 52 86 61 87 53 88 54 89
REMARK SMILES IDX 60 90 62 91 55 92 56 93 57 94 58 95 59 96
REMARK H PARENT 17 5 4 15 13 21 13 22 21 27 83 46 49 57
REMARK Flexibility Score: inf
ROOT
ATOM      1  C   UNL A   1      37.045  23.512  25.883  1.00  0.00     0.118 C 
ENDROOT
BRANCH   1   2
ATOM      2  N   UNL A   1      35.978  22.845  26.614  1.00  0.00    -0.351 N 
ATOM      3  C   UNL A   1      34.691  22.463  26.436  1.00  0.00     0.281 C 
ATOM      4  O   UNL A   1      34.324  21.700  27.351  1.00  0.00    -0.268 OA
ATOM      5  H   UNL A   1      36.288  22.593  27.514  1.00  0.00     0.163 HD
BRANCH   3   6
ATOM      6  C   UNL A   1      33.650  22.837  25.292  1.00  0.00     0.178 C 
ATOM      7  C   UNL A   1      33.043  24.281  25.294  1.00  0.00     0.066 C 
ATOM      8  C   UNL A   1      32.162  24.246  26.560  1.00  0.00     0.011 C 
ATOM      9  C   UNL A   1      31.511  22.870  26.561  1.00  0.00     0.008 C 
ATOM     10  C   UNL A   1      32.328  22.034  25.581  1.00  0.00     0.079 C 
BRANCH   7  11
ATOM     11  C   UNL A   1      33.855  25.586  25.257  1.00  0.00     0.072 C 
BRANCH  11  12
ATOM     12  C   UNL A   1      33.239  26.924  25.696  1.00  0.00     0.262 C 
BRANCH  12  13
ATOM     13  N   UNL A   1      32.630  27.934  24.835  1.00  0.00    -0.337 N 
ATOM     14  C   UNL A   1      33.616  28.688  24.077  1.00  0.00     0.332 C 
ATOM     15  H   UNL A   1      32.096  27.393  24.155  1.00  0.00     0.347 HD
BRANCH  13  16
ATOM     16  C   UNL A   1      31.599  28.755  25.450  1.00  0.00     0.261 C 
BRANCH  16  17
ATOM     17  C   UNL A   1      31.975  30.229  25.737  1.00  0.00     0.058 C 
ATOM     18  C   UNL A   1      32.490  30.638  27.108  1.00  0.00     0.010 C 
ENDBRANCH  16  17
ENDBRANCH  13  16
ENDBRANCH  12  13
ENDBRANCH  11  12
ENDBRANCH   7  11
BRANCH   6  19
ATOM     19  N   UNL A   1      34.109  22.444  23.948  1.00  0.00    -0.336 N 
ATOM     20  C   UNL A   1      33.392  23.027  22.821  1.00  0.00     0.331 C 
ATOM     21  H   UNL A   1      34.028  21.431  23.876  1.00  0.00     0.346 HD
ATOM     22  H   UNL A   1      35.064  22.798  23.874  1.00  0.00     0.346 HD
ENDBRANCH   6  19
ENDBRANCH   3   6
ENDBRANCH   1   2
BRANCH   1  23
ATOM     23  C   UNL A   1      38.378  22.768  25.965  1.00  0.00     0.042 C 
BRANCH  23  24
ATOM     24  C   UNL A   1      39.406  23.440  26.863  1.00  0.00     0.118 C 
BRANCH  24  25
ATOM     25  N   UNL A   1      40.621  23.798  26.136  1.00  0.00    -0.352 N 
ATOM     26  C   UNL A   1      41.402  24.934  26.204  1.00  0.00     0.251 C 
ATOM     27  H   UNL A   1      40.934  23.120  25.495  1.00  0.00     0.163 HD
ATOM     28  O   UNL A   1      42.272  25.118  25.362  1.00  0.00    -0.269 OA
BRANCH  26  29
ATOM     29  C   UNL A   1      41.182  25.934  27.276  1.00  0.00     0.039 A 
ATOM     30  C   UNL A   1      40.192  25.710  28.240  1.00  0.00     0.014 A 
ATOM     31  C   UNL A   1      41.942  27.101  27.329  1.00  0.00     0.014 A 
ATOM     32  C   UNL A   1      40.015  26.626  29.283  1.00  0.00     0.010 A 
ATOM     33  C   UNL A   1      41.858  27.936  28.434  1.00  0.00     0.010 A 
ATOM     34  C   UNL A   1      40.873  27.730  29.409  1.00  0.00    -0.014 A 
BRANCH  34  35
ATOM     35  C   UNL A   1      40.736  28.729  30.501  1.00  0.00     0.031 A 
ATOM     36  C   UNL A   1      41.609  28.603  31.726  1.00  0.00     0.074 A 
ATOM     37  C   UNL A   1      39.780  29.678  30.438  1.00  0.00     0.049 A 
ATOM     38  N   UNL A   1      41.552  29.260  32.855  1.00  0.00    -0.248 NA
ATOM     39  C   UNL A   1      42.657  27.566  31.695  1.00  0.00     0.031 C 
ATOM     40  C   UNL A   1      38.840  29.866  29.330  1.00  0.00     0.029 A 
ATOM     41  N   UNL A   1      39.429  30.655  31.336  1.00  0.00    -0.354 N 
ATOM     42  C   UNL A   1      42.524  28.692  33.673  1.00  0.00     0.074 A 
ATOM     43  C   UNL A   1      43.109  27.593  32.939  1.00  0.00     0.031 C 
ATOM     44  C   UNL A   1      38.039  30.909  29.602  1.00  0.00     0.029 A 
ATOM     45  C   UNL A   1      38.374  31.436  30.921  1.00  0.00     0.049 A 
ATOM     46  H   UNL A   1      39.889  30.787  32.196  1.00  0.00     0.167 HD
ATOM     47  C   UNL A   1      42.919  29.072  34.909  1.00  0.00     0.037 A 
ATOM     48  C   UNL A   1      37.741  32.450  31.542  1.00  0.00     0.037 A 
ATOM     49  C   UNL A   1      42.371  30.205  35.604  1.00  0.00     0.049 A 
ATOM     50  C   UNL A   1      38.212  32.869  32.910  1.00  0.00     0.074 A 
ATOM     51  C   UNL A   1      42.746  30.726  36.829  1.00  0.00     0.029 A 
ATOM     52  N   UNL A   1      41.339  31.000  35.128  1.00  0.00    -0.354 N 
ATOM     53  N   UNL A   1      39.174  32.357  33.644  1.00  0.00    -0.248 NA
ATOM     54  C   UNL A   1      37.523  34.006  33.533  1.00  0.00     0.031 C 
ATOM     55  C   UNL A   1      41.908  31.807  37.116  1.00  0.00     0.029 A 
ATOM     56  C   UNL A   1      41.051  31.997  36.042  1.00  0.00     0.049 A 
ATOM     57  H   UNL A   1      40.877  30.871  34.267  1.00  0.00     0.167 HD
ATOM     58  C   UNL A   1      39.229  33.135  34.795  1.00  0.00     0.074 A 
ATOM     59  C   UNL A   1      38.211  34.155  34.658  1.00  0.00     0.031 C 
ATOM     60  C   UNL A   1      40.049  33.018  35.870  1.00  0.00     0.037 A 
BRANCH  47  61
ATOM     61  C   UNL A   1      44.004  28.274  35.583  1.00  0.00     0.058 A 
ATOM     62  C   UNL A   1      45.365  28.567  35.394  1.00  0.00     0.135 A 
ATOM     63  C   UNL A   1      43.678  27.234  36.469  1.00  0.00     0.135 A 
ATOM     64  F   UNL A   1      45.736  29.538  34.544  1.00  0.00    -0.206 F 
ATOM     65  C   UNL A   1      46.362  27.845  36.039  1.00  0.00     0.059 A 
ATOM     66  C   UNL A   1      44.660  26.519  37.151  1.00  0.00     0.059 A 
ATOM     67  F   UNL A   1      42.395  26.906  36.684  1.00  0.00    -0.206 F 
ATOM     68  C   UNL A   1      46.000  26.825  36.921  1.00  0.00     0.060 A 
BRANCH  68  69
ATOM     69  S   UNL A   1      47.309  25.922  37.774  1.00  0.00     0.124 S 
ATOM     70  O   UNL A   1      48.391  26.903  37.769  1.00  0.00    -0.237 OA
ATOM     71  O   UNL A   1      46.704  25.652  39.074  1.00  0.00    -0.237 OA
ATOM     72  O   UNL A   1      47.521  24.751  36.929  1.00  0.00    -0.744 OA
ENDBRANCH  68  69
ENDBRANCH  47  61
BRANCH  48  73
ATOM     73  C   UNL A   1      36.611  33.154  30.874  1.00  0.00     0.058 A 
ATOM     74  C   UNL A   1      36.845  34.090  29.855  1.00  0.00     0.135 A 
ATOM     75  C   UNL A   1      35.277  32.914  31.242  1.00  0.00     0.135 A 
ATOM     76  F   UNL A   1      38.101  34.359  29.467  1.00  0.00    -0.206 F 
ATOM     77  C   UNL A   1      35.803  34.785  29.246  1.00  0.00     0.059 A 
ATOM     78  C   UNL A   1      34.217  33.573  30.628  1.00  0.00     0.059 A 
ATOM     79  F   UNL A   1      34.995  32.015  32.198  1.00  0.00    -0.206 F 
ATOM     80  C   UNL A   1      34.491  34.520  29.642  1.00  0.00     0.060 A 
BRANCH  80  81
ATOM     81  S   UNL A   1      33.146  35.412  28.832  1.00  0.00     0.124 S 
ATOM     82  O   UNL A   1      33.880  36.371  28.016  1.00  0.00    -0.237 OA
ATOM     83  O   UNL A   1      32.464  34.345  28.106  1.00  0.00    -0.237 OA
ATOM     84  O   UNL A   1      32.397  35.977  29.950  1.00  0.00    -0.744 OA
ENDBRANCH  80  81
ENDBRANCH  48  73
BRANCH  60  85
ATOM     85  C   UNL A   1      39.926  34.051  36.954  1.00  0.00     0.058 A 
ATOM     86  C   UNL A   1      40.490  35.330  36.827  1.00  0.00     0.135 A 
ATOM     87  C   UNL A   1      39.167  33.778  38.104  1.00  0.00     0.135 A 
ATOM     88  F   UNL A   1      41.229  35.640  35.750  1.00  0.00    -0.206 F 
ATOM     89  C   UNL A   1      40.323  36.295  37.814  1.00  0.00     0.059 A 
ATOM     90  C   UNL A   1      38.960  34.738  39.088  1.00  0.00     0.059 A 
ATOM     91  F   UNL A   1      38.596  32.573  38.266  1.00  0.00    -0.206 F 
ATOM     92  C   UNL A   1      39.551  35.992  38.938  1.00  0.00     0.060 A 
BRANCH  92  93
ATOM     93  S   UNL A   1      39.303  37.270  40.187  1.00  0.00     0.124 S 
ATOM     94  O   UNL A   1      38.565  38.278  39.434  1.00  0.00    -0.237 OA
ATOM     95  O   UNL A   1      38.542  36.561  41.211  1.00  0.00    -0.237 OA
ATOM     96  O   UNL A   1      40.662  37.641  40.569  1.00  0.00    -0.744 OA
ENDBRANCH  92  93
ENDBRANCH  60  85
ENDBRANCH  34  35
ENDBRANCH  26  29
ENDBRANCH  24  25
ENDBRANCH  23  24
ENDBRANCH   1  23
TORSDOF 19
ENDMDL
