MODEL 1
REMARK VINA RESULT:     -11.2      0.000      0.000
REMARK SMILES NC(=O)CC[C@H](NC(=O)N[C@H]1CCOC1)C(=O)NCCCNC(=O)c1ccc(-c2c3nc(c(-c4c(F)cc(S(=O)(=O)[O-])cc4F)c4ccc([nH]4)c(-c4c(F)cc(S(=O)(=O)[O-])cc4F)c4nc(c(-c5c(F)cc(S(=O)(=O)[O-])cc5F)c5ccc2[nH]5)C=C4)C=C3)cc1
REMARK SMILES IDX 20 1 19 2 18 3 16 4 17 5 6 7 5 8 4 9 2 10 1 11 3 14 7 15
REMARK SMILES IDX 8 16 9 18 10 19 11 21 12 22 15 23 13 24 14 25 21 26 22 27
REMARK SMILES IDX 23 28 24 30 25 31 26 32 90 33 27 34 89 35 28 36 29 37 30 38
REMARK SMILES IDX 83 39 31 40 88 41 82 42 84 43 32 44 87 45 81 46 80 47 33 49
REMARK SMILES IDX 67 50 46 51 66 52 47 53 50 54 65 55 85 56 48 57 49 58 64 60
REMARK SMILES IDX 86 61 51 62 34 63 35 64 44 65 36 66 37 67 43 68 45 69 38 70
REMARK SMILES IDX 39 71 40 72 41 73 42 74 68 75 69 76 78 77 70 78 71 79 77 80
REMARK SMILES IDX 79 81 72 82 73 83 74 84 75 85 76 86 52 87 53 88 62 89 54 90
REMARK SMILES IDX 55 91 61 92 63 93 56 94 57 95 58 96 59 97 60 98
REMARK H PARENT 18 6 1 12 1 13 7 17 10 20 22 29 84 48 50 59
REMARK Flexibility Score: inf
ROOT
ATOM      1  C   UNL A   1      33.600  29.119  27.273  1.00  0.00     0.042 C 
ENDROOT
BRANCH   1   2
ATOM      2  C   UNL A   1      32.950  29.918  26.146  1.00  0.00     0.117 C 
BRANCH   2   3
ATOM      3  N   UNL A   1      33.405  29.572  24.813  1.00  0.00    -0.354 N 
ATOM      4  C   UNL A   1      32.810  28.910  23.786  1.00  0.00     0.242 C 
ATOM      5  O   UNL A   1      33.345  29.051  22.680  1.00  0.00    -0.273 OA
ATOM      6  H   UNL A   1      34.321  29.875  24.615  1.00  0.00     0.163 HD
BRANCH   4   7
ATOM      7  C   UNL A   1      31.440  28.200  23.906  1.00  0.00     0.173 C 
BRANCH   7   8
ATOM      8  C   UNL A   1      30.352  29.300  23.804  1.00  0.00     0.045 C 
BRANCH   8   9
ATOM      9  C   UNL A   1      29.899  29.598  22.372  1.00  0.00     0.102 C 
BRANCH   9  10
ATOM     10  C   UNL A   1      29.155  30.912  22.299  1.00  0.00     0.217 C 
ATOM     11  N   UNL A   1      28.941  31.396  21.044  1.00  0.00    -0.370 N 
ATOM     12  H   UNL A   1      28.462  32.247  20.919  1.00  0.00     0.159 HD
ATOM     13  H   UNL A   1      29.264  30.894  20.261  1.00  0.00     0.159 HD
ATOM     14  O   UNL A   1      28.746  31.509  23.283  1.00  0.00    -0.275 OA
ENDBRANCH   9  10
ENDBRANCH   8   9
ENDBRANCH   7   8
BRANCH   7  15
ATOM     15  N   UNL A   1      31.193  27.422  25.117  1.00  0.00    -0.326 N 
ATOM     16  C   UNL A   1      31.595  26.274  25.634  1.00  0.00     0.315 C 
ATOM     17  H   UNL A   1      30.552  27.876  25.710  1.00  0.00     0.166 HD
ATOM     18  O   UNL A   1      30.887  25.818  26.538  1.00  0.00    -0.249 OA
ATOM     19  N   UNL A   1      32.669  25.562  25.335  1.00  0.00    -0.333 N 
ATOM     20  H   UNL A   1      32.628  24.712  25.829  1.00  0.00     0.165 HD
BRANCH  19  21
ATOM     21  C   UNL A   1      33.895  25.575  24.537  1.00  0.00     0.112 C 
ATOM     22  C   UNL A   1      34.903  24.538  24.979  1.00  0.00     0.056 C 
ATOM     23  C   UNL A   1      33.800  25.410  23.040  1.00  0.00     0.185 C 
ATOM     24  C   UNL A   1      35.122  23.660  23.766  1.00  0.00     0.162 C 
ATOM     25  O   UNL A   1      34.191  24.063  22.764  1.00  0.00    -0.379 OA
ENDBRANCH  19  21
ENDBRANCH   7  15
ENDBRANCH   4   7
ENDBRANCH   2   3
ENDBRANCH   1   2
BRANCH   1  26
ATOM     26  C   UNL A   1      35.044  29.483  27.605  1.00  0.00     0.118 C 
BRANCH  26  27
ATOM     27  N   UNL A   1      35.179  30.372  28.747  1.00  0.00    -0.352 N 
ATOM     28  C   UNL A   1      36.222  30.601  29.607  1.00  0.00     0.251 C 
ATOM     29  H   UNL A   1      34.375  30.906  28.939  1.00  0.00     0.163 HD
ATOM     30  O   UNL A   1      36.025  31.287  30.608  1.00  0.00    -0.269 OA
BRANCH  28  31
ATOM     31  C   UNL A   1      37.561  30.021  29.368  1.00  0.00     0.039 A 
ATOM     32  C   UNL A   1      37.982  29.848  28.046  1.00  0.00     0.014 A 
ATOM     33  C   UNL A   1      38.382  29.603  30.418  1.00  0.00     0.014 A 
ATOM     34  C   UNL A   1      39.256  29.337  27.780  1.00  0.00     0.010 A 
ATOM     35  C   UNL A   1      39.677  29.159  30.155  1.00  0.00     0.010 A 
ATOM     36  C   UNL A   1      40.132  29.034  28.834  1.00  0.00    -0.014 A 
BRANCH  36  37
ATOM     37  C   UNL A   1      41.543  28.650  28.570  1.00  0.00     0.031 A 
ATOM     38  C   UNL A   1      42.632  29.686  28.530  1.00  0.00     0.074 A 
ATOM     39  C   UNL A   1      41.823  27.365  28.274  1.00  0.00     0.049 A 
ATOM     40  N   UNL A   1      43.897  29.539  28.232  1.00  0.00    -0.248 NA
ATOM     41  C   UNL A   1      42.243  31.070  28.839  1.00  0.00     0.031 C 
ATOM     42  C   UNL A   1      40.841  26.278  28.221  1.00  0.00     0.029 A 
ATOM     43  N   UNL A   1      43.006  26.756  27.940  1.00  0.00    -0.354 N 
ATOM     44  C   UNL A   1      44.454  30.811  28.298  1.00  0.00     0.074 A 
ATOM     45  C   UNL A   1      43.378  31.722  28.629  1.00  0.00     0.031 C 
ATOM     46  C   UNL A   1      41.461  25.140  27.880  1.00  0.00     0.029 A 
ATOM     47  C   UNL A   1      42.875  25.418  27.648  1.00  0.00     0.049 A 
ATOM     48  H   UNL A   1      43.869  27.231  27.911  1.00  0.00     0.167 HD
ATOM     49  C   UNL A   1      45.745  31.180  28.112  1.00  0.00     0.037 A 
ATOM     50  C   UNL A   1      43.781  24.518  27.220  1.00  0.00     0.037 A 
ATOM     51  C   UNL A   1      46.810  30.261  27.804  1.00  0.00     0.049 A 
ATOM     52  C   UNL A   1      45.208  24.949  27.026  1.00  0.00     0.074 A 
ATOM     53  C   UNL A   1      48.166  30.522  27.693  1.00  0.00     0.029 A 
ATOM     54  N   UNL A   1      46.644  28.909  27.539  1.00  0.00    -0.354 N 
ATOM     55  N   UNL A   1      45.736  26.139  27.188  1.00  0.00    -0.248 NA
ATOM     56  C   UNL A   1      46.161  23.919  26.597  1.00  0.00     0.031 C 
ATOM     57  C   UNL A   1      48.809  29.341  27.306  1.00  0.00     0.029 A 
ATOM     58  C   UNL A   1      47.863  28.331  27.226  1.00  0.00     0.049 A 
ATOM     59  H   UNL A   1      45.784  28.431  27.570  1.00  0.00     0.167 HD
ATOM     60  C   UNL A   1      47.085  26.000  26.885  1.00  0.00     0.074 A 
ATOM     61  C   UNL A   1      47.296  24.604  26.553  1.00  0.00     0.031 C 
ATOM     62  C   UNL A   1      48.058  26.944  26.879  1.00  0.00     0.037 A 
BRANCH  49  63
ATOM     63  C   UNL A   1      46.076  32.645  28.225  1.00  0.00     0.058 A 
ATOM     64  C   UNL A   1      45.969  33.516  27.130  1.00  0.00     0.135 A 
ATOM     65  C   UNL A   1      46.478  33.189  29.456  1.00  0.00     0.135 A 
ATOM     66  F   UNL A   1      45.599  33.049  25.928  1.00  0.00    -0.206 F 
ATOM     67  C   UNL A   1      46.287  34.867  27.240  1.00  0.00     0.059 A 
ATOM     68  C   UNL A   1      46.773  34.543  29.597  1.00  0.00     0.059 A 
ATOM     69  F   UNL A   1      46.592  32.404  30.539  1.00  0.00    -0.206 F 
ATOM     70  C   UNL A   1      46.692  35.369  28.477  1.00  0.00     0.060 A 
BRANCH  70  71
ATOM     71  S   UNL A   1      47.116  37.121  28.600  1.00  0.00     0.124 S 
ATOM     72  O   UNL A   1      47.206  37.496  27.193  1.00  0.00    -0.237 OA
ATOM     73  O   UNL A   1      45.976  37.668  29.330  1.00  0.00    -0.237 OA
ATOM     74  O   UNL A   1      48.380  37.115  29.329  1.00  0.00    -0.744 OA
ENDBRANCH  70  71
ENDBRANCH  49  63
BRANCH  50  75
ATOM     75  C   UNL A   1      43.349  23.123  26.947  1.00  0.00     0.058 A 
ATOM     76  C   UNL A   1      43.269  22.634  25.636  1.00  0.00     0.135 A 
ATOM     77  C   UNL A   1      43.063  22.235  27.995  1.00  0.00     0.135 A 
ATOM     78  F   UNL A   1      43.526  23.448  24.599  1.00  0.00    -0.206 F 
ATOM     79  C   UNL A   1      42.924  21.313  25.371  1.00  0.00     0.059 A 
ATOM     80  C   UNL A   1      42.740  20.903  27.758  1.00  0.00     0.059 A 
ATOM     81  F   UNL A   1      43.142  22.650  29.269  1.00  0.00    -0.206 F 
ATOM     82  C   UNL A   1      42.670  20.451  26.441  1.00  0.00     0.060 A 
BRANCH  82  83
ATOM     83  S   UNL A   1      42.306  18.718  26.089  1.00  0.00     0.124 S 
ATOM     84  O   UNL A   1      42.590  18.091  27.375  1.00  0.00    -0.237 OA
ATOM     85  O   UNL A   1      40.900  18.773  25.701  1.00  0.00    -0.237 OA
ATOM     86  O   UNL A   1      43.233  18.394  25.008  1.00  0.00    -0.744 OA
ENDBRANCH  82  83
ENDBRANCH  50  75
BRANCH  62  87
ATOM     87  C   UNL A   1      49.444  26.504  26.495  1.00  0.00     0.058 A 
ATOM     88  C   UNL A   1      49.951  26.724  25.205  1.00  0.00     0.135 A 
ATOM     89  C   UNL A   1      50.294  25.906  27.439  1.00  0.00     0.135 A 
ATOM     90  F   UNL A   1      49.176  27.284  24.260  1.00  0.00    -0.206 F 
ATOM     91  C   UNL A   1      51.245  26.354  24.859  1.00  0.00     0.059 A 
ATOM     92  C   UNL A   1      51.601  25.552  27.124  1.00  0.00     0.059 A 
ATOM     93  F   UNL A   1      49.861  25.679  28.690  1.00  0.00    -0.206 F 
ATOM     94  C   UNL A   1      52.065  25.771  25.827  1.00  0.00     0.060 A 
BRANCH  94  95
ATOM     95  S   UNL A   1      53.758  25.333  25.377  1.00  0.00     0.124 S 
ATOM     96  O   UNL A   1      53.742  25.543  23.932  1.00  0.00    -0.237 OA
ATOM     97  O   UNL A   1      54.544  26.291  26.148  1.00  0.00    -0.237 OA
ATOM     98  O   UNL A   1      53.876  23.943  25.808  1.00  0.00    -0.744 OA
ENDBRANCH  94  95
ENDBRANCH  62  87
ENDBRANCH  36  37
ENDBRANCH  28  31
ENDBRANCH  26  27
ENDBRANCH   1  26
TORSDOF 18
ENDMDL
MODEL 2
REMARK VINA RESULT:     -11.2      2.782      3.533
REMARK SMILES NC(=O)CC[C@H](NC(=O)N[C@H]1CCOC1)C(=O)NCCCNC(=O)c1ccc(-c2c3nc(c(-c4c(F)cc(S(=O)(=O)[O-])cc4F)c4ccc([nH]4)c(-c4c(F)cc(S(=O)(=O)[O-])cc4F)c4nc(c(-c5c(F)cc(S(=O)(=O)[O-])cc5F)c5ccc2[nH]5)C=C4)C=C3)cc1
REMARK SMILES IDX 20 1 19 2 18 3 16 4 17 5 6 7 5 8 4 9 2 10 1 11 3 14 7 15
REMARK SMILES IDX 8 16 9 18 10 19 11 21 12 22 15 23 13 24 14 25 21 26 22 27
REMARK SMILES IDX 23 28 24 30 25 31 26 32 90 33 27 34 89 35 28 36 29 37 30 38
REMARK SMILES IDX 83 39 31 40 88 41 82 42 84 43 32 44 87 45 81 46 80 47 33 49
REMARK SMILES IDX 67 50 46 51 66 52 47 53 50 54 65 55 85 56 48 57 49 58 64 60
REMARK SMILES IDX 86 61 51 62 34 63 35 64 44 65 36 66 37 67 43 68 45 69 38 70
REMARK SMILES IDX 39 71 40 72 41 73 42 74 68 75 69 76 78 77 70 78 71 79 77 80
REMARK SMILES IDX 79 81 72 82 73 83 74 84 75 85 76 86 52 87 53 88 62 89 54 90
REMARK SMILES IDX 55 91 61 92 63 93 56 94 57 95 58 96 59 97 60 98
REMARK H PARENT 18 6 1 12 1 13 7 17 10 20 22 29 84 48 50 59
REMARK Flexibility Score: inf
ROOT
ATOM      1  C   UNL A   1      33.751  28.285  25.663  1.00  0.00     0.042 C 
ENDROOT
BRANCH   1   2
ATOM      2  C   UNL A   1      33.127  27.020  25.078  1.00  0.00     0.117 C 
BRANCH   2   3
ATOM      3  N   UNL A   1      33.760  26.533  23.868  1.00  0.00    -0.354 N 
ATOM      4  C   UNL A   1      33.447  25.522  23.015  1.00  0.00     0.242 C 
ATOM      5  O   UNL A   1      34.007  25.562  21.912  1.00  0.00    -0.273 OA
ATOM      6  H   UNL A   1      34.572  27.030  23.616  1.00  0.00     0.163 HD
BRANCH   4   7
ATOM      7  C   UNL A   1      32.315  24.499  23.279  1.00  0.00     0.173 C 
BRANCH   7   8
ATOM      8  C   UNL A   1      30.982  25.195  22.898  1.00  0.00     0.045 C 
BRANCH   8   9
ATOM      9  C   UNL A   1      30.032  25.411  24.079  1.00  0.00     0.102 C 
BRANCH   9  10
ATOM     10  C   UNL A   1      29.119  26.591  23.834  1.00  0.00     0.217 C 
ATOM     11  N   UNL A   1      27.787  26.341  23.975  1.00  0.00    -0.370 N 
ATOM     12  H   UNL A   1      27.133  27.062  23.831  1.00  0.00     0.159 HD
ATOM     13  H   UNL A   1      27.479  25.440  24.222  1.00  0.00     0.159 HD
ATOM     14  O   UNL A   1      29.524  27.707  23.546  1.00  0.00    -0.275 OA
ENDBRANCH   9  10
ENDBRANCH   8   9
ENDBRANCH   7   8
BRANCH   7  15
ATOM     15  N   UNL A   1      32.189  23.977  24.636  1.00  0.00    -0.326 N 
ATOM     16  C   UNL A   1      32.933  23.293  25.489  1.00  0.00     0.315 C 
ATOM     17  H   UNL A   1      31.309  24.193  25.023  1.00  0.00     0.166 HD
ATOM     18  O   UNL A   1      32.323  22.764  26.425  1.00  0.00    -0.249 OA
ATOM     19  N   UNL A   1      34.244  23.123  25.491  1.00  0.00    -0.333 N 
ATOM     20  H   UNL A   1      34.475  22.482  26.201  1.00  0.00     0.165 HD
BRANCH  19  21
ATOM     21  C   UNL A   1      35.478  23.538  24.824  1.00  0.00     0.112 C 
ATOM     22  C   UNL A   1      36.640  23.710  25.776  1.00  0.00     0.056 C 
ATOM     23  C   UNL A   1      36.022  22.697  23.695  1.00  0.00     0.185 C 
ATOM     24  C   UNL A   1      37.695  22.740  25.288  1.00  0.00     0.162 C 
ATOM     25  O   UNL A   1      37.119  21.961  24.242  1.00  0.00    -0.379 OA
ENDBRANCH  19  21
ENDBRANCH   7  15
ENDBRANCH   4   7
ENDBRANCH   2   3
ENDBRANCH   1   2
BRANCH   1  26
ATOM     26  C   UNL A   1      33.530  28.511  27.156  1.00  0.00     0.118 C 
BRANCH  26  27
ATOM     27  N   UNL A   1      33.538  29.910  27.548  1.00  0.00    -0.352 N 
ATOM     28  C   UNL A   1      34.482  30.675  28.184  1.00  0.00     0.251 C 
ATOM     29  H   UNL A   1      32.716  30.398  27.314  1.00  0.00     0.163 HD
ATOM     30  O   UNL A   1      34.177  31.806  28.556  1.00  0.00    -0.269 OA
BRANCH  28  31
ATOM     31  C   UNL A   1      35.841  30.157  28.452  1.00  0.00     0.039 A 
ATOM     32  C   UNL A   1      36.770  30.160  27.407  1.00  0.00     0.014 A 
ATOM     33  C   UNL A   1      36.197  29.630  29.695  1.00  0.00     0.014 A 
ATOM     34  C   UNL A   1      38.075  29.714  27.631  1.00  0.00     0.010 A 
ATOM     35  C   UNL A   1      37.517  29.249  29.939  1.00  0.00     0.010 A 
ATOM     36  C   UNL A   1      38.473  29.300  28.913  1.00  0.00    -0.014 A 
BRANCH  36  37
ATOM     37  C   UNL A   1      39.893  28.982  29.209  1.00  0.00     0.031 A 
ATOM     38  C   UNL A   1      40.822  30.029  29.757  1.00  0.00     0.074 A 
ATOM     39  C   UNL A   1      40.366  27.760  28.892  1.00  0.00     0.049 A 
ATOM     40  N   UNL A   1      42.106  29.949  29.993  1.00  0.00    -0.248 NA
ATOM     41  C   UNL A   1      40.237  31.345  30.054  1.00  0.00     0.031 C 
ATOM     42  C   UNL A   1      39.576  26.678  28.298  1.00  0.00     0.029 A 
ATOM     43  N   UNL A   1      41.626  27.227  29.001  1.00  0.00    -0.354 N 
ATOM     44  C   UNL A   1      42.490  31.205  30.447  1.00  0.00     0.074 A 
ATOM     45  C   UNL A   1      41.306  32.039  30.419  1.00  0.00     0.031 C 
ATOM     46  C   UNL A   1      40.366  25.613  28.099  1.00  0.00     0.029 A 
ATOM     47  C   UNL A   1      41.726  25.946  28.511  1.00  0.00     0.049 A 
ATOM     48  H   UNL A   1      42.386  27.714  29.393  1.00  0.00     0.167 HD
ATOM     49  C   UNL A   1      43.712  31.618  30.861  1.00  0.00     0.037 A 
ATOM     50  C   UNL A   1      42.794  25.134  28.384  1.00  0.00     0.037 A 
ATOM     51  C   UNL A   1      44.878  30.773  30.905  1.00  0.00     0.049 A 
ATOM     52  C   UNL A   1      44.138  25.611  28.855  1.00  0.00     0.074 A 
ATOM     53  C   UNL A   1      46.137  31.068  31.399  1.00  0.00     0.029 A 
ATOM     54  N   UNL A   1      44.936  29.473  30.423  1.00  0.00    -0.354 N 
ATOM     55  N   UNL A   1      44.463  26.772  29.372  1.00  0.00    -0.248 NA
ATOM     56  C   UNL A   1      45.259  24.671  28.729  1.00  0.00     0.031 C 
ATOM     57  C   UNL A   1      46.970  29.969  31.164  1.00  0.00     0.029 A 
ATOM     58  C   UNL A   1      46.218  28.967  30.570  1.00  0.00     0.049 A 
ATOM     59  H   UNL A   1      44.177  28.981  30.033  1.00  0.00     0.167 HD
ATOM     60  C   UNL A   1      45.825  26.701  29.639  1.00  0.00     0.074 A 
ATOM     61  C   UNL A   1      46.258  25.374  29.248  1.00  0.00     0.031 C 
ATOM     62  C   UNL A   1      46.642  27.651  30.159  1.00  0.00     0.037 A 
BRANCH  49  63
ATOM     63  C   UNL A   1      43.856  33.055  31.289  1.00  0.00     0.058 A 
ATOM     64  C   UNL A   1      43.734  33.445  32.632  1.00  0.00     0.135 A 
ATOM     65  C   UNL A   1      44.150  34.052  30.344  1.00  0.00     0.135 A 
ATOM     66  F   UNL A   1      43.444  32.537  33.576  1.00  0.00    -0.206 F 
ATOM     67  C   UNL A   1      43.858  34.777  33.018  1.00  0.00     0.059 A 
ATOM     68  C   UNL A   1      44.307  35.386  30.711  1.00  0.00     0.059 A 
ATOM     69  F   UNL A   1      44.283  33.735  29.046  1.00  0.00    -0.206 F 
ATOM     70  C   UNL A   1      44.140  35.740  32.048  1.00  0.00     0.060 A 
BRANCH  70  71
ATOM     71  S   UNL A   1      44.283  37.465  32.563  1.00  0.00     0.124 S 
ATOM     72  O   UNL A   1      45.628  37.488  33.131  1.00  0.00    -0.237 OA
ATOM     73  O   UNL A   1      44.116  38.183  31.303  1.00  0.00    -0.237 OA
ATOM     74  O   UNL A   1      43.195  37.626  33.523  1.00  0.00    -0.744 OA
ENDBRANCH  70  71
ENDBRANCH  49  63
BRANCH  50  75
ATOM     75  C   UNL A   1      42.618  23.788  27.779  1.00  0.00     0.058 A 
ATOM     76  C   UNL A   1      42.633  23.612  26.388  1.00  0.00     0.135 A 
ATOM     77  C   UNL A   1      42.488  22.644  28.582  1.00  0.00     0.135 A 
ATOM     78  F   UNL A   1      42.746  24.677  25.579  1.00  0.00    -0.206 F 
ATOM     79  C   UNL A   1      42.528  22.350  25.813  1.00  0.00     0.059 A 
ATOM     80  C   UNL A   1      42.407  21.369  28.031  1.00  0.00     0.059 A 
ATOM     81  F   UNL A   1      42.485  22.758  29.919  1.00  0.00    -0.206 F 
ATOM     82  C   UNL A   1      42.425  21.233  26.644  1.00  0.00     0.060 A 
BRANCH  82  83
ATOM     83  S   UNL A   1      42.377  19.593  25.888  1.00  0.00     0.124 S 
ATOM     84  O   UNL A   1      42.745  18.740  27.013  1.00  0.00    -0.237 OA
ATOM     85  O   UNL A   1      40.990  19.503  25.443  1.00  0.00    -0.237 OA
ATOM     86  O   UNL A   1      43.364  19.689  24.816  1.00  0.00    -0.744 OA
ENDBRANCH  82  83
ENDBRANCH  50  75
BRANCH  62  87
ATOM     87  C   UNL A   1      48.093  27.295  30.329  1.00  0.00     0.058 A 
ATOM     88  C   UNL A   1      49.009  27.434  29.275  1.00  0.00     0.135 A 
ATOM     89  C   UNL A   1      48.584  26.863  31.571  1.00  0.00     0.135 A 
ATOM     90  F   UNL A   1      48.590  27.834  28.063  1.00  0.00    -0.206 F 
ATOM     91  C   UNL A   1      50.358  27.143  29.441  1.00  0.00     0.059 A 
ATOM     92  C   UNL A   1      49.934  26.592  31.768  1.00  0.00     0.059 A 
ATOM     93  F   UNL A   1      47.751  26.720  32.615  1.00  0.00    -0.206 F 
ATOM     94  C   UNL A   1      50.813  26.726  30.694  1.00  0.00     0.060 A 
BRANCH  94  95
ATOM     95  S   UNL A   1      52.574  26.392  30.907  1.00  0.00     0.124 S 
ATOM     96  O   UNL A   1      53.043  26.390  29.525  1.00  0.00    -0.237 OA
ATOM     97  O   UNL A   1      53.010  27.521  31.723  1.00  0.00    -0.237 OA
ATOM     98  O   UNL A   1      52.596  25.095  31.580  1.00  0.00    -0.744 OA
ENDBRANCH  94  95
ENDBRANCH  62  87
ENDBRANCH  36  37
ENDBRANCH  28  31
ENDBRANCH  26  27
ENDBRANCH   1  26
TORSDOF 18
ENDMDL
MODEL 3
REMARK VINA RESULT:     -11.1      4.802     10.434
REMARK SMILES NC(=O)CC[C@H](NC(=O)N[C@H]1CCOC1)C(=O)NCCCNC(=O)c1ccc(-c2c3nc(c(-c4c(F)cc(S(=O)(=O)[O-])cc4F)c4ccc([nH]4)c(-c4c(F)cc(S(=O)(=O)[O-])cc4F)c4nc(c(-c5c(F)cc(S(=O)(=O)[O-])cc5F)c5ccc2[nH]5)C=C4)C=C3)cc1
REMARK SMILES IDX 20 1 19 2 18 3 16 4 17 5 6 7 5 8 4 9 2 10 1 11 3 14 7 15
REMARK SMILES IDX 8 16 9 18 10 19 11 21 12 22 15 23 13 24 14 25 21 26 22 27
REMARK SMILES IDX 23 28 24 30 25 31 26 32 90 33 27 34 89 35 28 36 29 37 30 38
REMARK SMILES IDX 83 39 31 40 88 41 82 42 84 43 32 44 87 45 81 46 80 47 33 49
REMARK SMILES IDX 67 50 46 51 66 52 47 53 50 54 65 55 85 56 48 57 49 58 64 60
REMARK SMILES IDX 86 61 51 62 34 63 35 64 44 65 36 66 37 67 43 68 45 69 38 70
REMARK SMILES IDX 39 71 40 72 41 73 42 74 68 75 69 76 78 77 70 78 71 79 77 80
REMARK SMILES IDX 79 81 72 82 73 83 74 84 75 85 76 86 52 87 53 88 62 89 54 90
REMARK SMILES IDX 55 91 61 92 63 93 56 94 57 95 58 96 59 97 60 98
REMARK H PARENT 18 6 1 12 1 13 7 17 10 20 22 29 84 48 50 59
REMARK Flexibility Score: inf
ROOT
ATOM      1  C   UNL A   1      35.631  22.996  24.571  1.00  0.00     0.042 C 
ENDROOT
BRANCH   1   2
ATOM      2  C   UNL A   1      34.420  23.913  24.415  1.00  0.00     0.117 C 
BRANCH   2   3
ATOM      3  N   UNL A   1      34.208  24.418  23.072  1.00  0.00    -0.354 N 
ATOM      4  C   UNL A   1      33.322  25.311  22.560  1.00  0.00     0.242 C 
ATOM      5  O   UNL A   1      33.601  25.758  21.440  1.00  0.00    -0.273 OA
ATOM      6  H   UNL A   1      34.825  24.041  22.403  1.00  0.00     0.163 HD
BRANCH   4   7
ATOM      7  C   UNL A   1      32.152  25.918  23.373  1.00  0.00     0.173 C 
BRANCH   7   8
ATOM      8  C   UNL A   1      30.971  24.917  23.276  1.00  0.00     0.045 C 
BRANCH   8   9
ATOM      9  C   UNL A   1      30.785  24.050  24.524  1.00  0.00     0.102 C 
BRANCH   9  10
ATOM     10  C   UNL A   1      30.577  24.904  25.754  1.00  0.00     0.217 C 
ATOM     11  N   UNL A   1      31.477  24.715  26.759  1.00  0.00    -0.370 N 
ATOM     12  H   UNL A   1      31.404  25.237  27.590  1.00  0.00     0.159 HD
ATOM     13  H   UNL A   1      32.201  24.057  26.654  1.00  0.00     0.159 HD
ATOM     14  O   UNL A   1      29.682  25.730  25.857  1.00  0.00    -0.275 OA
ENDBRANCH   9  10
ENDBRANCH   8   9
ENDBRANCH   7   8
BRANCH   7  15
ATOM     15  N   UNL A   1      31.670  27.236  22.971  1.00  0.00    -0.326 N 
ATOM     16  C   UNL A   1      31.247  28.339  23.563  1.00  0.00     0.315 C 
ATOM     17  H   UNL A   1      31.656  27.328  21.990  1.00  0.00     0.166 HD
ATOM     18  O   UNL A   1      30.612  29.120  22.846  1.00  0.00    -0.249 OA
ATOM     19  N   UNL A   1      31.436  28.733  24.810  1.00  0.00    -0.333 N 
ATOM     20  H   UNL A   1      30.910  29.551  24.963  1.00  0.00     0.165 HD
BRANCH  19  21
ATOM     21  C   UNL A   1      32.142  28.399  26.048  1.00  0.00     0.112 C 
ATOM     22  C   UNL A   1      33.640  28.294  25.869  1.00  0.00     0.056 C 
ATOM     23  C   UNL A   1      31.957  29.278  27.260  1.00  0.00     0.185 C 
ATOM     24  C   UNL A   1      34.221  29.329  26.807  1.00  0.00     0.162 C 
ATOM     25  O   UNL A   1      33.138  30.077  27.355  1.00  0.00    -0.379 OA
ENDBRANCH  19  21
ENDBRANCH   7  15
ENDBRANCH   4   7
ENDBRANCH   2   3
ENDBRANCH   1   2
BRANCH   1  26
ATOM     26  C   UNL A   1      36.936  23.676  24.975  1.00  0.00     0.118 C 
BRANCH  26  27
ATOM     27  N   UNL A   1      37.995  22.748  25.338  1.00  0.00    -0.352 N 
ATOM     28  C   UNL A   1      39.166  22.924  26.028  1.00  0.00     0.251 C 
ATOM     29  H   UNL A   1      37.844  21.825  25.031  1.00  0.00     0.163 HD
ATOM     30  O   UNL A   1      39.982  22.005  26.056  1.00  0.00    -0.269 OA
BRANCH  28  31
ATOM     31  C   UNL A   1      39.474  24.199  26.711  1.00  0.00     0.039 A 
ATOM     32  C   UNL A   1      38.951  24.410  27.991  1.00  0.00     0.014 A 
ATOM     33  C   UNL A   1      40.227  25.202  26.096  1.00  0.00     0.014 A 
ATOM     34  C   UNL A   1      39.251  25.585  28.684  1.00  0.00     0.010 A 
ATOM     35  C   UNL A   1      40.583  26.344  26.813  1.00  0.00     0.010 A 
ATOM     36  C   UNL A   1      40.110  26.541  28.119  1.00  0.00    -0.014 A 
BRANCH  36  37
ATOM     37  C   UNL A   1      40.572  27.715  28.904  1.00  0.00     0.031 A 
ATOM     38  C   UNL A   1      41.878  27.681  29.648  1.00  0.00     0.074 A 
ATOM     39  C   UNL A   1      39.758  28.783  29.019  1.00  0.00     0.049 A 
ATOM     40  N   UNL A   1      42.394  28.579  30.447  1.00  0.00    -0.248 NA
ATOM     41  C   UNL A   1      42.700  26.471  29.494  1.00  0.00     0.031 C 
ATOM     42  C   UNL A   1      38.438  28.908  28.394  1.00  0.00     0.029 A 
ATOM     43  N   UNL A   1      39.905  29.955  29.716  1.00  0.00    -0.354 N 
ATOM     44  C   UNL A   1      43.589  28.039  30.907  1.00  0.00     0.074 A 
ATOM     45  C   UNL A   1      43.703  26.718  30.325  1.00  0.00     0.031 C 
ATOM     46  C   UNL A   1      37.900  30.088  28.732  1.00  0.00     0.029 A 
ATOM     47  C   UNL A   1      38.814  30.788  29.630  1.00  0.00     0.049 A 
ATOM     48  H   UNL A   1      40.714  30.180  30.229  1.00  0.00     0.167 HD
ATOM     49  C   UNL A   1      44.510  28.599  31.728  1.00  0.00     0.037 A 
ATOM     50  C   UNL A   1      38.562  31.972  30.222  1.00  0.00     0.037 A 
ATOM     51  C   UNL A   1      44.396  29.923  32.285  1.00  0.00     0.049 A 
ATOM     52  C   UNL A   1      39.600  32.577  31.124  1.00  0.00     0.074 A 
ATOM     53  C   UNL A   1      45.319  30.618  33.048  1.00  0.00     0.029 A 
ATOM     54  N   UNL A   1      43.288  30.747  32.156  1.00  0.00    -0.354 N 
ATOM     55  N   UNL A   1      40.769  32.092  31.471  1.00  0.00    -0.248 NA
ATOM     56  C   UNL A   1      39.290  33.886  31.712  1.00  0.00     0.031 C 
ATOM     57  C   UNL A   1      44.747  31.837  33.427  1.00  0.00     0.029 A 
ATOM     58  C   UNL A   1      43.486  31.926  32.858  1.00  0.00     0.049 A 
ATOM     59  H   UNL A   1      42.478  30.527  31.641  1.00  0.00     0.167 HD
ATOM     60  C   UNL A   1      41.337  33.040  32.314  1.00  0.00     0.074 A 
ATOM     61  C   UNL A   1      40.393  34.136  32.405  1.00  0.00     0.031 C 
ATOM     62  C   UNL A   1      42.531  33.003  32.957  1.00  0.00     0.037 A 
BRANCH  49  63
ATOM     63  C   UNL A   1      45.720  27.776  32.086  1.00  0.00     0.058 A 
ATOM     64  C   UNL A   1      46.914  27.853  31.352  1.00  0.00     0.135 A 
ATOM     65  C   UNL A   1      45.691  26.919  33.199  1.00  0.00     0.135 A 
ATOM     66  F   UNL A   1      46.994  28.648  30.274  1.00  0.00    -0.206 F 
ATOM     67  C   UNL A   1      48.023  27.081  31.683  1.00  0.00     0.059 A 
ATOM     68  C   UNL A   1      46.798  26.159  33.566  1.00  0.00     0.059 A 
ATOM     69  F   UNL A   1      44.578  26.809  33.941  1.00  0.00    -0.206 F 
ATOM     70  C   UNL A   1      47.954  26.234  32.790  1.00  0.00     0.060 A 
BRANCH  70  71
ATOM     71  S   UNL A   1      49.397  25.227  33.198  1.00  0.00     0.124 S 
ATOM     72  O   UNL A   1      49.857  24.830  31.870  1.00  0.00    -0.237 OA
ATOM     73  O   UNL A   1      50.250  26.175  33.907  1.00  0.00    -0.237 OA
ATOM     74  O   UNL A   1      48.842  24.152  34.015  1.00  0.00    -0.744 OA
ENDBRANCH  70  71
ENDBRANCH  49  63
BRANCH  50  75
ATOM     75  C   UNL A   1      37.263  32.650  29.972  1.00  0.00     0.058 A 
ATOM     76  C   UNL A   1      36.137  32.368  30.757  1.00  0.00     0.135 A 
ATOM     77  C   UNL A   1      37.139  33.634  28.979  1.00  0.00     0.135 A 
ATOM     78  F   UNL A   1      36.204  31.428  31.713  1.00  0.00    -0.206 F 
ATOM     79  C   UNL A   1      34.933  33.039  30.570  1.00  0.00     0.059 A 
ATOM     80  C   UNL A   1      35.954  34.337  28.789  1.00  0.00     0.059 A 
ATOM     81  F   UNL A   1      38.194  33.952  28.212  1.00  0.00    -0.206 F 
ATOM     82  C   UNL A   1      34.854  34.030  29.589  1.00  0.00     0.060 A 
BRANCH  82  83
ATOM     83  S   UNL A   1      33.313  34.954  29.414  1.00  0.00     0.124 S 
ATOM     84  O   UNL A   1      32.789  34.913  30.775  1.00  0.00    -0.237 OA
ATOM     85  O   UNL A   1      33.788  36.255  28.950  1.00  0.00    -0.237 OA
ATOM     86  O   UNL A   1      32.568  34.180  28.425  1.00  0.00    -0.744 OA
ENDBRANCH  82  83
ENDBRANCH  50  75
BRANCH  62  87
ATOM     87  C   UNL A   1      42.886  34.179  33.824  1.00  0.00     0.058 A 
ATOM     88  C   UNL A   1      42.530  34.222  35.180  1.00  0.00     0.135 A 
ATOM     89  C   UNL A   1      43.635  35.249  33.308  1.00  0.00     0.135 A 
ATOM     90  F   UNL A   1      41.804  33.229  35.721  1.00  0.00    -0.206 F 
ATOM     91  C   UNL A   1      42.890  35.291  35.993  1.00  0.00     0.059 A 
ATOM     92  C   UNL A   1      44.030  36.315  34.109  1.00  0.00     0.059 A 
ATOM     93  F   UNL A   1      44.007  35.254  32.018  1.00  0.00    -0.206 F 
ATOM     94  C   UNL A   1      43.644  36.332  35.449  1.00  0.00     0.060 A 
BRANCH  94  95
ATOM     95  S   UNL A   1      44.143  37.693  36.525  1.00  0.00     0.124 S 
ATOM     96  O   UNL A   1      45.525  37.337  36.830  1.00  0.00    -0.237 OA
ATOM     97  O   UNL A   1      43.963  38.856  35.663  1.00  0.00    -0.237 OA
ATOM     98  O   UNL A   1      43.209  37.601  37.645  1.00  0.00    -0.744 OA
ENDBRANCH  94  95
ENDBRANCH  62  87
ENDBRANCH  36  37
ENDBRANCH  28  31
ENDBRANCH  26  27
ENDBRANCH   1  26
TORSDOF 18
ENDMDL
