MODEL 1
REMARK VINA RESULT:     -10.3      0.000      0.000
REMARK SMILES CC(C)N1C[C@@H](C(=O)N[C@@H](C)CC(=O)NCCCNC(=O)c2ccc(-c3c4nc(c(-c5c(F)cc(S(=O)(=O)[O-])cc5F)c5ccc([nH]5)c(-c5c(F)cc(S(=O)(=O)[O-])cc5F)c5nc(c(-c6c(F)cc(S(=O)(=O)[O-])cc6F)c6ccc3[nH]6)C=C5)C=C4)cc2)CC1=O
REMARK SMILES IDX 16 1 15 2 13 3 14 4 12 6 10 7 11 8 9 9 7 10 8 11 6 13 4 14
REMARK SMILES IDX 5 15 89 16 88 17 90 18 2 19 1 20 3 21 17 22 18 23 19 24
REMARK SMILES IDX 20 25 21 27 22 28 23 29 87 30 24 31 86 32 25 33 26 34 27 35
REMARK SMILES IDX 80 36 28 37 85 38 79 39 81 40 29 41 84 42 78 43 77 44 30 46
REMARK SMILES IDX 64 47 43 48 63 49 44 50 47 51 62 52 82 53 45 54 46 55 61 57
REMARK SMILES IDX 83 58 48 59 31 60 32 61 41 62 33 63 34 64 40 65 42 66 35 67
REMARK SMILES IDX 36 68 37 69 38 70 39 71 65 72 66 73 75 74 67 75 68 76 74 77
REMARK SMILES IDX 76 78 69 79 70 80 71 81 72 82 73 83 49 84 50 85 59 86 51 87
REMARK SMILES IDX 52 88 58 89 60 90 53 91 54 92 55 93 56 94 57 95
REMARK H PARENT 15 5 9 12 19 26 81 45 47 56
REMARK Flexibility Score: inf
ROOT
ATOM      1  C   UNL A   1      32.883  34.255  28.380  1.00  0.00     0.117 C 
ENDROOT
BRANCH   1   2
ATOM      2  N   UNL A   1      33.212  35.647  28.648  1.00  0.00    -0.356 N 
ATOM      3  C   UNL A   1      33.119  36.366  29.801  1.00  0.00     0.222 C 
ATOM      4  O   UNL A   1      33.397  37.565  29.758  1.00  0.00    -0.275 OA
ATOM      5  H   UNL A   1      33.555  36.149  27.873  1.00  0.00     0.163 HD
BRANCH   3   6
ATOM      6  C   UNL A   1      32.714  35.714  31.106  1.00  0.00     0.124 C 
BRANCH   6   7
ATOM      7  C   UNL A   1      33.884  35.208  31.967  1.00  0.00     0.088 C 
ATOM      8  C   UNL A   1      34.296  36.315  32.942  1.00  0.00     0.031 C 
BRANCH   7   9
ATOM      9  N   UNL A   1      35.055  34.880  31.156  1.00  0.00    -0.353 N 
ATOM     10  C   UNL A   1      36.126  34.074  31.356  1.00  0.00     0.225 C 
ATOM     11  O   UNL A   1      37.005  34.125  30.488  1.00  0.00    -0.275 OA
ATOM     12  H   UNL A   1      35.068  35.341  30.286  1.00  0.00     0.163 HD
BRANCH  10  13
ATOM     13  C   UNL A   1      36.294  33.135  32.533  1.00  0.00     0.107 C 
ATOM     14  N   UNL A   1      37.871  31.686  33.501  1.00  0.00    -0.339 N 
ATOM     15  C   UNL A   1      37.667  33.082  33.184  1.00  0.00     0.133 C 
ATOM     16  C   UNL A   1      36.927  30.859  32.912  1.00  0.00     0.223 C 
ATOM     17  C   UNL A   1      35.926  31.703  32.178  1.00  0.00     0.115 C 
ATOM     18  O   UNL A   1      36.916  29.641  32.941  1.00  0.00    -0.275 OA
BRANCH  14  19
ATOM     19  C   UNL A   1      39.047  31.165  34.200  1.00  0.00     0.078 C 
ATOM     20  C   UNL A   1      40.207  32.157  34.145  1.00  0.00     0.031 C 
ATOM     21  C   UNL A   1      38.749  30.753  35.639  1.00  0.00     0.031 C 
ENDBRANCH  14  19
ENDBRANCH  10  13
ENDBRANCH   7   9
ENDBRANCH   6   7
ENDBRANCH   3   6
ENDBRANCH   1   2
BRANCH   1  22
ATOM     22  C   UNL A   1      34.098  33.483  27.880  1.00  0.00     0.042 C 
BRANCH  22  23
ATOM     23  C   UNL A   1      34.500  32.280  28.716  1.00  0.00     0.118 C 
BRANCH  23  24
ATOM     24  N   UNL A   1      33.998  31.030  28.178  1.00  0.00    -0.352 N 
ATOM     25  C   UNL A   1      34.662  29.881  27.817  1.00  0.00     0.251 C 
ATOM     26  H   UNL A   1      33.022  30.999  28.051  1.00  0.00     0.163 HD
ATOM     27  O   UNL A   1      34.044  29.021  27.192  1.00  0.00    -0.269 OA
BRANCH  25  28
ATOM     28  C   UNL A   1      36.097  29.669  28.138  1.00  0.00     0.039 A 
ATOM     29  C   UNL A   1      36.433  29.236  29.425  1.00  0.00     0.014 A 
ATOM     30  C   UNL A   1      37.115  29.942  27.222  1.00  0.00     0.014 A 
ATOM     31  C   UNL A   1      37.773  29.008  29.765  1.00  0.00     0.010 A 
ATOM     32  C   UNL A   1      38.442  29.635  27.533  1.00  0.00     0.010 A 
ATOM     33  C   UNL A   1      38.787  29.163  28.807  1.00  0.00    -0.014 A 
BRANCH  33  34
ATOM     34  C   UNL A   1      40.206  28.829  29.116  1.00  0.00     0.031 A 
ATOM     35  C   UNL A   1      41.115  29.861  29.733  1.00  0.00     0.074 A 
ATOM     36  C   UNL A   1      40.693  27.614  28.791  1.00  0.00     0.049 A 
ATOM     37  N   UNL A   1      42.399  29.795  29.973  1.00  0.00    -0.248 NA
ATOM     38  C   UNL A   1      40.503  31.144  30.115  1.00  0.00     0.031 C 
ATOM     39  C   UNL A   1      39.924  26.532  28.174  1.00  0.00     0.029 A 
ATOM     40  N   UNL A   1      41.955  27.086  28.922  1.00  0.00    -0.354 N 
ATOM     41  C   UNL A   1      42.750  31.019  30.532  1.00  0.00     0.074 A 
ATOM     42  C   UNL A   1      41.552  31.831  30.544  1.00  0.00     0.031 C 
ATOM     43  C   UNL A   1      40.722  25.467  27.997  1.00  0.00     0.029 A 
ATOM     44  C   UNL A   1      42.072  25.804  28.434  1.00  0.00     0.049 A 
ATOM     45  H   UNL A   1      42.705  27.578  29.326  1.00  0.00     0.167 HD
ATOM     46  C   UNL A   1      43.951  31.420  31.013  1.00  0.00     0.037 A 
ATOM     47  C   UNL A   1      43.148  24.999  28.327  1.00  0.00     0.037 A 
ATOM     48  C   UNL A   1      45.138  30.604  31.008  1.00  0.00     0.049 A 
ATOM     49  C   UNL A   1      44.488  25.500  28.803  1.00  0.00     0.074 A 
ATOM     50  C   UNL A   1      46.397  30.915  31.494  1.00  0.00     0.029 A 
ATOM     51  N   UNL A   1      45.218  29.319  30.492  1.00  0.00    -0.354 N 
ATOM     52  N   UNL A   1      44.789  26.645  29.367  1.00  0.00    -0.248 NA
ATOM     53  C   UNL A   1      45.638  24.601  28.620  1.00  0.00     0.031 C 
ATOM     54  C   UNL A   1      47.248  29.838  31.229  1.00  0.00     0.029 A 
ATOM     55  C   UNL A   1      46.509  28.834  30.625  1.00  0.00     0.049 A 
ATOM     56  H   UNL A   1      44.467  28.825  30.090  1.00  0.00     0.167 HD
ATOM     57  C   UNL A   1      46.154  26.591  29.633  1.00  0.00     0.074 A 
ATOM     58  C   UNL A   1      46.616  25.294  29.187  1.00  0.00     0.031 C 
ATOM     59  C   UNL A   1      46.953  27.533  30.192  1.00  0.00     0.037 A 
BRANCH  46  60
ATOM     60  C   UNL A   1      44.048  32.801  31.605  1.00  0.00     0.058 A 
ATOM     61  C   UNL A   1      44.248  33.931  30.796  1.00  0.00     0.135 A 
ATOM     62  C   UNL A   1      43.868  33.008  32.983  1.00  0.00     0.135 A 
ATOM     63  F   UNL A   1      44.440  33.792  29.475  1.00  0.00    -0.206 F 
ATOM     64  C   UNL A   1      44.280  35.215  31.333  1.00  0.00     0.059 A 
ATOM     65  C   UNL A   1      43.868  34.285  33.537  1.00  0.00     0.059 A 
ATOM     66  F   UNL A   1      43.675  31.963  33.803  1.00  0.00    -0.206 F 
ATOM     67  C   UNL A   1      44.083  35.382  32.704  1.00  0.00     0.060 A 
BRANCH  67  68
ATOM     68  S   UNL A   1      44.100  37.058  33.375  1.00  0.00     0.124 S 
ATOM     69  O   UNL A   1      44.421  37.845  32.188  1.00  0.00    -0.237 OA
ATOM     70  O   UNL A   1      42.739  37.202  33.882  1.00  0.00    -0.237 OA
ATOM     71  O   UNL A   1      45.144  37.007  34.393  1.00  0.00    -0.744 OA
ENDBRANCH  67  68
ENDBRANCH  46  60
BRANCH  47  72
ATOM     72  C   UNL A   1      43.022  23.639  27.733  1.00  0.00     0.058 A 
ATOM     73  C   UNL A   1      43.203  23.435  26.356  1.00  0.00     0.135 A 
ATOM     74  C   UNL A   1      42.681  22.526  28.516  1.00  0.00     0.135 A 
ATOM     75  F   UNL A   1      43.521  24.467  25.561  1.00  0.00    -0.206 F 
ATOM     76  C   UNL A   1      43.014  22.187  25.772  1.00  0.00     0.059 A 
ATOM     77  C   UNL A   1      42.519  21.260  27.960  1.00  0.00     0.059 A 
ATOM     78  F   UNL A   1      42.509  22.662  29.840  1.00  0.00    -0.206 F 
ATOM     79  C   UNL A   1      42.669  21.105  26.583  1.00  0.00     0.060 A 
BRANCH  79  80
ATOM     80  S   UNL A   1      42.428  19.489  25.815  1.00  0.00     0.124 S 
ATOM     81  O   UNL A   1      41.030  19.563  25.406  1.00  0.00    -0.237 OA
ATOM     82  O   UNL A   1      43.411  19.512  24.736  1.00  0.00    -0.237 OA
ATOM     83  O   UNL A   1      42.719  18.554  26.899  1.00  0.00    -0.744 OA
ENDBRANCH  79  80
ENDBRANCH  47  72
BRANCH  59  84
ATOM     84  C   UNL A   1      48.406  27.189  30.385  1.00  0.00     0.058 A 
ATOM     85  C   UNL A   1      49.393  27.634  29.492  1.00  0.00     0.135 A 
ATOM     86  C   UNL A   1      48.822  26.460  31.512  1.00  0.00     0.135 A 
ATOM     87  F   UNL A   1      49.049  28.325  28.395  1.00  0.00    -0.206 F 
ATOM     88  C   UNL A   1      50.740  27.355  29.701  1.00  0.00     0.059 A 
ATOM     89  C   UNL A   1      50.166  26.197  31.757  1.00  0.00     0.059 A 
ATOM     90  F   UNL A   1      47.920  26.017  32.402  1.00  0.00    -0.206 F 
ATOM     91  C   UNL A   1      51.117  26.642  30.841  1.00  0.00     0.060 A 
BRANCH  91  92
ATOM     92  S   UNL A   1      52.874  26.338  31.125  1.00  0.00     0.124 S 
ATOM     93  O   UNL A   1      52.838  25.113  31.917  1.00  0.00    -0.237 OA
ATOM     94  O   UNL A   1      53.389  26.199  29.767  1.00  0.00    -0.237 OA
ATOM     95  O   UNL A   1      53.316  27.533  31.838  1.00  0.00    -0.744 OA
ENDBRANCH  91  92
ENDBRANCH  59  84
ENDBRANCH  33  34
ENDBRANCH  25  28
ENDBRANCH  23  24
ENDBRANCH  22  23
ENDBRANCH   1  22
TORSDOF 17
ENDMDL
MODEL 2
REMARK VINA RESULT:     -10.0      4.717     12.460
REMARK SMILES CC(C)N1C[C@@H](C(=O)N[C@@H](C)CC(=O)NCCCNC(=O)c2ccc(-c3c4nc(c(-c5c(F)cc(S(=O)(=O)[O-])cc5F)c5ccc([nH]5)c(-c5c(F)cc(S(=O)(=O)[O-])cc5F)c5nc(c(-c6c(F)cc(S(=O)(=O)[O-])cc6F)c6ccc3[nH]6)C=C5)C=C4)cc2)CC1=O
REMARK SMILES IDX 16 1 15 2 13 3 14 4 12 6 10 7 11 8 9 9 7 10 8 11 6 13 4 14
REMARK SMILES IDX 5 15 89 16 88 17 90 18 2 19 1 20 3 21 17 22 18 23 19 24
REMARK SMILES IDX 20 25 21 27 22 28 23 29 87 30 24 31 86 32 25 33 26 34 27 35
REMARK SMILES IDX 80 36 28 37 85 38 79 39 81 40 29 41 84 42 78 43 77 44 30 46
REMARK SMILES IDX 64 47 43 48 63 49 44 50 47 51 62 52 82 53 45 54 46 55 61 57
REMARK SMILES IDX 83 58 48 59 31 60 32 61 41 62 33 63 34 64 40 65 42 66 35 67
REMARK SMILES IDX 36 68 37 69 38 70 39 71 65 72 66 73 75 74 67 75 68 76 74 77
REMARK SMILES IDX 76 78 69 79 70 80 71 81 72 82 73 83 49 84 50 85 59 86 51 87
REMARK SMILES IDX 52 88 58 89 60 90 53 91 54 92 55 93 56 94 57 95
REMARK H PARENT 15 5 9 12 19 26 81 45 47 56
REMARK Flexibility Score: inf
ROOT
ATOM      1  C   UNL A   1      41.796  21.096  25.762  1.00  0.00     0.117 C 
ENDROOT
BRANCH   1   2
ATOM      2  N   UNL A   1      41.791  19.645  25.875  1.00  0.00    -0.356 N 
ATOM      3  C   UNL A   1      42.828  18.765  25.946  1.00  0.00     0.222 C 
ATOM      4  O   UNL A   1      42.564  17.562  25.967  1.00  0.00    -0.275 OA
ATOM      5  H   UNL A   1      40.896  19.235  25.904  1.00  0.00     0.163 HD
BRANCH   3   6
ATOM      6  C   UNL A   1      44.262  19.242  26.024  1.00  0.00     0.124 C 
BRANCH   6   7
ATOM      7  C   UNL A   1      45.032  19.197  24.693  1.00  0.00     0.088 C 
ATOM      8  C   UNL A   1      46.534  19.283  24.986  1.00  0.00     0.031 C 
BRANCH   7   9
ATOM      9  N   UNL A   1      44.690  20.323  23.827  1.00  0.00    -0.353 N 
ATOM     10  C   UNL A   1      44.935  21.654  23.895  1.00  0.00     0.225 C 
ATOM     11  O   UNL A   1      44.386  22.346  23.030  1.00  0.00    -0.275 OA
ATOM     12  H   UNL A   1      44.175  20.060  23.030  1.00  0.00     0.163 HD
BRANCH  10  13
ATOM     13  C   UNL A   1      45.825  22.318  24.926  1.00  0.00     0.107 C 
ATOM     14  N   UNL A   1      45.801  24.052  26.512  1.00  0.00    -0.339 N 
ATOM     15  C   UNL A   1      45.162  22.791  26.210  1.00  0.00     0.133 C 
ATOM     16  C   UNL A   1      46.577  24.525  25.465  1.00  0.00     0.223 C 
ATOM     17  C   UNL A   1      46.566  23.515  24.353  1.00  0.00     0.115 C 
ATOM     18  O   UNL A   1      47.151  25.599  25.419  1.00  0.00    -0.275 OA
BRANCH  14  19
ATOM     19  C   UNL A   1      45.519  24.852  27.705  1.00  0.00     0.078 C 
ATOM     20  C   UNL A   1      44.293  24.324  28.447  1.00  0.00     0.031 C 
ATOM     21  C   UNL A   1      46.718  24.964  28.643  1.00  0.00     0.031 C 
ENDBRANCH  14  19
ENDBRANCH  10  13
ENDBRANCH   7   9
ENDBRANCH   6   7
ENDBRANCH   3   6
ENDBRANCH   1   2
BRANCH   1  22
ATOM     22  C   UNL A   1      41.725  21.761  27.131  1.00  0.00     0.042 C 
BRANCH  22  23
ATOM     23  C   UNL A   1      40.915  23.045  27.196  1.00  0.00     0.118 C 
BRANCH  23  24
ATOM     24  N   UNL A   1      41.261  23.979  26.143  1.00  0.00    -0.352 N 
ATOM     25  C   UNL A   1      41.285  25.354  26.139  1.00  0.00     0.251 C 
ATOM     26  H   UNL A   1      41.521  23.560  25.290  1.00  0.00     0.163 HD
ATOM     27  O   UNL A   1      41.416  25.934  25.062  1.00  0.00    -0.269 OA
BRANCH  25  28
ATOM     28  C   UNL A   1      41.134  26.145  27.387  1.00  0.00     0.039 A 
ATOM     29  C   UNL A   1      42.060  27.160  27.648  1.00  0.00     0.014 A 
ATOM     30  C   UNL A   1      40.137  25.872  28.328  1.00  0.00     0.014 A 
ATOM     31  C   UNL A   1      41.945  27.941  28.805  1.00  0.00     0.010 A 
ATOM     32  C   UNL A   1      39.972  26.703  29.438  1.00  0.00     0.010 A 
ATOM     33  C   UNL A   1      40.872  27.748  29.690  1.00  0.00    -0.014 A 
BRANCH  33  34
ATOM     34  C   UNL A   1      40.671  28.632  30.873  1.00  0.00     0.031 A 
ATOM     35  C   UNL A   1      39.648  29.739  30.832  1.00  0.00     0.074 A 
ATOM     36  C   UNL A   1      41.447  28.476  31.964  1.00  0.00     0.049 A 
ATOM     37  N   UNL A   1      39.406  30.674  31.715  1.00  0.00    -0.248 NA
ATOM     38  C   UNL A   1      38.797  29.815  29.633  1.00  0.00     0.031 C 
ATOM     39  C   UNL A   1      42.486  27.455  32.124  1.00  0.00     0.029 A 
ATOM     40  N   UNL A   1      41.495  29.179  33.144  1.00  0.00    -0.354 N 
ATOM     41  C   UNL A   1      38.379  31.446  31.183  1.00  0.00     0.074 A 
ATOM     42  C   UNL A   1      38.082  30.905  29.875  1.00  0.00     0.031 C 
ATOM     43  C   UNL A   1      43.053  27.588  33.334  1.00  0.00     0.029 A 
ATOM     44  C   UNL A   1      42.463  28.733  34.016  1.00  0.00     0.049 A 
ATOM     45  H   UNL A   1      40.895  29.932  33.346  1.00  0.00     0.167 HD
ATOM     46  C   UNL A   1      37.728  32.494  31.744  1.00  0.00     0.037 A 
ATOM     47  C   UNL A   1      42.848  29.208  35.218  1.00  0.00     0.037 A 
ATOM     48  C   UNL A   1      38.021  33.024  33.050  1.00  0.00     0.049 A 
ATOM     49  C   UNL A   1      42.155  30.421  35.783  1.00  0.00     0.074 A 
ATOM     50  C   UNL A   1      37.400  34.069  33.713  1.00  0.00     0.029 A 
ATOM     51  N   UNL A   1      39.016  32.554  33.895  1.00  0.00    -0.354 N 
ATOM     52  N   UNL A   1      41.158  31.111  35.283  1.00  0.00    -0.248 NA
ATOM     53  C   UNL A   1      42.645  30.925  37.075  1.00  0.00     0.031 C 
ATOM     54  C   UNL A   1      38.050  34.262  34.936  1.00  0.00     0.029 A 
ATOM     55  C   UNL A   1      39.043  33.304  35.060  1.00  0.00     0.049 A 
ATOM     56  H   UNL A   1      39.616  31.799  33.695  1.00  0.00     0.167 HD
ATOM     57  C   UNL A   1      40.884  32.110  36.212  1.00  0.00     0.074 A 
ATOM     58  C   UNL A   1      41.805  31.923  37.312  1.00  0.00     0.031 C 
ATOM     59  C   UNL A   1      39.955  33.096  36.156  1.00  0.00     0.037 A 
BRANCH  46  60
ATOM     60  C   UNL A   1      36.617  33.137  30.956  1.00  0.00     0.058 A 
ATOM     61  C   UNL A   1      35.272  32.975  31.322  1.00  0.00     0.135 A 
ATOM     62  C   UNL A   1      36.901  33.981  29.869  1.00  0.00     0.135 A 
ATOM     63  F   UNL A   1      34.941  32.168  32.343  1.00  0.00    -0.206 F 
ATOM     64  C   UNL A   1      34.247  33.614  30.631  1.00  0.00     0.059 A 
ATOM     65  C   UNL A   1      35.894  34.652  29.182  1.00  0.00     0.059 A 
ATOM     66  F   UNL A   1      38.170  34.171  29.475  1.00  0.00    -0.206 F 
ATOM     67  C   UNL A   1      34.568  34.456  29.567  1.00  0.00     0.060 A 
BRANCH  67  68
ATOM     68  S   UNL A   1      33.225  35.297  28.702  1.00  0.00     0.124 S 
ATOM     69  O   UNL A   1      33.961  36.235  27.860  1.00  0.00    -0.237 OA
ATOM     70  O   UNL A   1      32.570  34.197  28.002  1.00  0.00    -0.237 OA
ATOM     71  O   UNL A   1      32.450  35.902  29.781  1.00  0.00    -0.744 OA
ENDBRANCH  67  68
ENDBRANCH  46  60
BRANCH  47  72
ATOM     72  C   UNL A   1      43.954  28.553  35.972  1.00  0.00     0.058 A 
ATOM     73  C   UNL A   1      45.283  28.977  35.814  1.00  0.00     0.135 A 
ATOM     74  C   UNL A   1      43.714  27.471  36.832  1.00  0.00     0.135 A 
ATOM     75  F   UNL A   1      45.567  30.002  34.996  1.00  0.00    -0.206 F 
ATOM     76  C   UNL A   1      46.336  28.330  36.450  1.00  0.00     0.059 A 
ATOM     77  C   UNL A   1      44.748  26.828  37.507  1.00  0.00     0.059 A 
ATOM     78  F   UNL A   1      42.461  27.033  37.031  1.00  0.00    -0.206 F 
ATOM     79  C   UNL A   1      46.059  27.252  37.293  1.00  0.00     0.060 A 
BRANCH  79  80
ATOM     80  S   UNL A   1      47.433  26.420  38.116  1.00  0.00     0.124 S 
ATOM     81  O   UNL A   1      48.580  26.975  37.407  1.00  0.00    -0.237 OA
ATOM     82  O   UNL A   1      47.268  26.852  39.501  1.00  0.00    -0.237 OA
ATOM     83  O   UNL A   1      47.165  25.005  37.872  1.00  0.00    -0.744 OA
ENDBRANCH  79  80
ENDBRANCH  47  72
BRANCH  59  84
ATOM     84  C   UNL A   1      39.862  34.034  37.330  1.00  0.00     0.058 A 
ATOM     85  C   UNL A   1      40.576  35.242  37.367  1.00  0.00     0.135 A 
ATOM     86  C   UNL A   1      39.000  33.750  38.403  1.00  0.00     0.135 A 
ATOM     87  F   UNL A   1      41.421  35.557  36.373  1.00  0.00    -0.206 F 
ATOM     88  C   UNL A   1      40.450  36.129  38.431  1.00  0.00     0.059 A 
ATOM     89  C   UNL A   1      38.835  34.636  39.462  1.00  0.00     0.059 A 
ATOM     90  F   UNL A   1      38.288  32.612  38.416  1.00  0.00    -0.206 F 
ATOM     91  C   UNL A   1      39.570  35.820  39.472  1.00  0.00     0.060 A 
BRANCH  91  92
ATOM     92  S   UNL A   1      39.377  37.008  40.817  1.00  0.00     0.124 S 
ATOM     93  O   UNL A   1      40.746  37.480  40.994  1.00  0.00    -0.237 OA
ATOM     94  O   UNL A   1      38.443  37.974  40.247  1.00  0.00    -0.237 OA
ATOM     95  O   UNL A   1      38.845  36.201  41.911  1.00  0.00    -0.744 OA
ENDBRANCH  91  92
ENDBRANCH  59  84
ENDBRANCH  33  34
ENDBRANCH  25  28
ENDBRANCH  23  24
ENDBRANCH  22  23
ENDBRANCH   1  22
TORSDOF 17
ENDMDL
MODEL 3
REMARK VINA RESULT:      -9.9      4.531     12.616
REMARK SMILES CC(C)N1C[C@@H](C(=O)N[C@@H](C)CC(=O)NCCCNC(=O)c2ccc(-c3c4nc(c(-c5c(F)cc(S(=O)(=O)[O-])cc5F)c5ccc([nH]5)c(-c5c(F)cc(S(=O)(=O)[O-])cc5F)c5nc(c(-c6c(F)cc(S(=O)(=O)[O-])cc6F)c6ccc3[nH]6)C=C5)C=C4)cc2)CC1=O
REMARK SMILES IDX 16 1 15 2 13 3 14 4 12 6 10 7 11 8 9 9 7 10 8 11 6 13 4 14
REMARK SMILES IDX 5 15 89 16 88 17 90 18 2 19 1 20 3 21 17 22 18 23 19 24
REMARK SMILES IDX 20 25 21 27 22 28 23 29 87 30 24 31 86 32 25 33 26 34 27 35
REMARK SMILES IDX 80 36 28 37 85 38 79 39 81 40 29 41 84 42 78 43 77 44 30 46
REMARK SMILES IDX 64 47 43 48 63 49 44 50 47 51 62 52 82 53 45 54 46 55 61 57
REMARK SMILES IDX 83 58 48 59 31 60 32 61 41 62 33 63 34 64 40 65 42 66 35 67
REMARK SMILES IDX 36 68 37 69 38 70 39 71 65 72 66 73 75 74 67 75 68 76 74 77
REMARK SMILES IDX 76 78 69 79 70 80 71 81 72 82 73 83 49 84 50 85 59 86 51 87
REMARK SMILES IDX 52 88 58 89 60 90 53 91 54 92 55 93 56 94 57 95
REMARK H PARENT 15 5 9 12 19 26 81 45 47 56
REMARK Flexibility Score: inf
ROOT
ATOM      1  C   UNL A   1      40.515  20.528  26.091  1.00  0.00     0.117 C 
ENDROOT
BRANCH   1   2
ATOM      2  N   UNL A   1      41.101  19.197  26.149  1.00  0.00    -0.356 N 
ATOM      3  C   UNL A   1      42.397  18.801  26.011  1.00  0.00     0.222 C 
ATOM      4  O   UNL A   1      42.637  17.593  26.032  1.00  0.00    -0.275 OA
ATOM      5  H   UNL A   1      40.461  18.468  26.314  1.00  0.00     0.163 HD
BRANCH   3   6
ATOM      6  C   UNL A   1      43.518  19.809  25.862  1.00  0.00     0.124 C 
BRANCH   6   7
ATOM      7  C   UNL A   1      44.428  19.588  24.642  1.00  0.00     0.088 C 
ATOM      8  C   UNL A   1      45.790  19.078  25.126  1.00  0.00     0.031 C 
BRANCH   7   9
ATOM      9  N   UNL A   1      44.662  20.828  23.905  1.00  0.00    -0.353 N 
ATOM     10  C   UNL A   1      45.087  22.060  24.274  1.00  0.00     0.225 C 
ATOM     11  O   UNL A   1      45.059  22.925  23.391  1.00  0.00    -0.275 OA
ATOM     12  H   UNL A   1      44.471  20.751  22.942  1.00  0.00     0.163 HD
BRANCH  10  13
ATOM     13  C   UNL A   1      45.593  22.424  25.656  1.00  0.00     0.107 C 
ATOM     14  N   UNL A   1      45.071  23.800  27.487  1.00  0.00    -0.339 N 
ATOM     15  C   UNL A   1      44.547  22.687  26.727  1.00  0.00     0.133 C 
ATOM     16  C   UNL A   1      46.160  24.402  26.876  1.00  0.00     0.223 C 
ATOM     17  C   UNL A   1      46.504  23.640  25.628  1.00  0.00     0.115 C 
ATOM     18  O   UNL A   1      46.734  25.409  27.252  1.00  0.00    -0.275 OA
BRANCH  14  19
ATOM     19  C   UNL A   1      44.420  24.368  28.669  1.00  0.00     0.078 C 
ATOM     20  C   UNL A   1      43.429  23.381  29.282  1.00  0.00     0.031 C 
ATOM     21  C   UNL A   1      45.415  24.862  29.716  1.00  0.00     0.031 C 
ENDBRANCH  14  19
ENDBRANCH  10  13
ENDBRANCH   7   9
ENDBRANCH   6   7
ENDBRANCH   3   6
ENDBRANCH   1   2
BRANCH   1  22
ATOM     22  C   UNL A   1      40.793  21.315  27.365  1.00  0.00     0.042 C 
BRANCH  22  23
ATOM     23  C   UNL A   1      40.410  22.785  27.325  1.00  0.00     0.118 C 
BRANCH  23  24
ATOM     24  N   UNL A   1      41.054  23.502  26.241  1.00  0.00    -0.352 N 
ATOM     25  C   UNL A   1      41.399  24.828  26.126  1.00  0.00     0.251 C 
ATOM     26  H   UNL A   1      41.283  22.947  25.460  1.00  0.00     0.163 HD
ATOM     27  O   UNL A   1      41.755  25.247  25.026  1.00  0.00    -0.269 OA
BRANCH  25  28
ATOM     28  C   UNL A   1      41.328  25.760  27.280  1.00  0.00     0.039 A 
ATOM     29  C   UNL A   1      42.280  26.782  27.370  1.00  0.00     0.014 A 
ATOM     30  C   UNL A   1      40.385  25.615  28.301  1.00  0.00     0.014 A 
ATOM     31  C   UNL A   1      42.239  27.693  28.433  1.00  0.00     0.010 A 
ATOM     32  C   UNL A   1      40.292  26.571  29.314  1.00  0.00     0.010 A 
ATOM     33  C   UNL A   1      41.217  27.623  29.393  1.00  0.00    -0.014 A 
BRANCH  33  34
ATOM     34  C   UNL A   1      41.094  28.640  30.474  1.00  0.00     0.031 A 
ATOM     35  C   UNL A   1      42.010  28.595  31.671  1.00  0.00     0.074 A 
ATOM     36  C   UNL A   1      40.123  29.573  30.408  1.00  0.00     0.049 A 
ATOM     37  N   UNL A   1      41.987  29.322  32.758  1.00  0.00    -0.248 NA
ATOM     38  C   UNL A   1      43.084  27.588  31.649  1.00  0.00     0.031 C 
ATOM     39  C   UNL A   1      39.160  29.714  29.314  1.00  0.00     0.029 A 
ATOM     40  N   UNL A   1      39.773  30.573  31.284  1.00  0.00    -0.354 N 
ATOM     41  C   UNL A   1      43.036  28.865  33.548  1.00  0.00     0.074 A 
ATOM     42  C   UNL A   1      43.643  27.759  32.839  1.00  0.00     0.031 C 
ATOM     43  C   UNL A   1      38.343  30.748  29.575  1.00  0.00     0.029 A 
ATOM     44  C   UNL A   1      38.684  31.310  30.876  1.00  0.00     0.049 A 
ATOM     45  H   UNL A   1      40.255  30.745  32.124  1.00  0.00     0.167 HD
ATOM     46  C   UNL A   1      43.469  29.339  34.742  1.00  0.00     0.037 A 
ATOM     47  C   UNL A   1      38.019  32.309  31.492  1.00  0.00     0.037 A 
ATOM     48  C   UNL A   1      42.868  30.446  35.439  1.00  0.00     0.049 A 
ATOM     49  C   UNL A   1      38.479  32.766  32.853  1.00  0.00     0.074 A 
ATOM     50  C   UNL A   1      43.251  31.014  36.642  1.00  0.00     0.029 A 
ATOM     51  N   UNL A   1      41.760  31.156  35.000  1.00  0.00    -0.354 N 
ATOM     52  N   UNL A   1      39.499  32.348  33.563  1.00  0.00    -0.248 NA
ATOM     53  C   UNL A   1      37.691  33.825  33.500  1.00  0.00     0.031 C 
ATOM     54  C   UNL A   1      42.346  32.033  36.955  1.00  0.00     0.029 A 
ATOM     55  C   UNL A   1      41.430  32.138  35.921  1.00  0.00     0.049 A 
ATOM     56  H   UNL A   1      41.278  30.986  34.158  1.00  0.00     0.167 HD
ATOM     57  C   UNL A   1      39.492  33.114  34.725  1.00  0.00     0.074 A 
ATOM     58  C   UNL A   1      38.380  34.033  34.613  1.00  0.00     0.031 C 
ATOM     59  C   UNL A   1      40.329  33.058  35.789  1.00  0.00     0.037 A 
BRANCH  46  60
ATOM     60  C   UNL A   1      44.665  28.675  35.372  1.00  0.00     0.058 A 
ATOM     61  C   UNL A   1      44.520  27.601  36.263  1.00  0.00     0.135 A 
ATOM     62  C   UNL A   1      45.970  29.066  35.027  1.00  0.00     0.135 A 
ATOM     63  F   UNL A   1      43.297  27.194  36.639  1.00  0.00    -0.206 F 
ATOM     64  C   UNL A   1      45.623  26.947  36.803  1.00  0.00     0.059 A 
ATOM     65  C   UNL A   1      47.088  28.408  35.532  1.00  0.00     0.059 A 
ATOM     66  F   UNL A   1      46.168  30.088  34.180  1.00  0.00    -0.206 F 
ATOM     67  C   UNL A   1      46.904  27.354  36.426  1.00  0.00     0.060 A 
BRANCH  67  68
ATOM     68  S   UNL A   1      48.321  26.474  37.115  1.00  0.00     0.124 S 
ATOM     69  O   UNL A   1      48.509  27.170  38.384  1.00  0.00    -0.237 OA
ATOM     70  O   UNL A   1      47.820  25.106  37.212  1.00  0.00    -0.237 OA
ATOM     71  O   UNL A   1      49.371  26.687  36.124  1.00  0.00    -0.744 OA
ENDBRANCH  67  68
ENDBRANCH  46  60
BRANCH  47  72
ATOM     72  C   UNL A   1      36.837  32.943  30.845  1.00  0.00     0.058 A 
ATOM     73  C   UNL A   1      36.997  33.877  29.809  1.00  0.00     0.135 A 
ATOM     74  C   UNL A   1      35.529  32.662  31.270  1.00  0.00     0.135 A 
ATOM     75  F   UNL A   1      38.226  34.188  29.371  1.00  0.00    -0.206 F 
ATOM     76  C   UNL A   1      35.910  34.536  29.245  1.00  0.00     0.059 A 
ATOM     77  C   UNL A   1      34.423  33.283  30.700  1.00  0.00     0.059 A 
ATOM     78  F   UNL A   1      35.318  31.767  32.248  1.00  0.00    -0.206 F 
ATOM     79  C   UNL A   1      34.625  34.235  29.700  1.00  0.00     0.060 A 
BRANCH  79  80
ATOM     80  S   UNL A   1      33.220  35.094  28.961  1.00  0.00     0.124 S 
ATOM     81  O   UNL A   1      32.395  35.369  30.132  1.00  0.00    -0.237 OA
ATOM     82  O   UNL A   1      33.859  36.253  28.344  1.00  0.00    -0.237 OA
ATOM     83  O   UNL A   1      32.680  34.113  28.024  1.00  0.00    -0.744 OA
ENDBRANCH  79  80
ENDBRANCH  47  72
BRANCH  59  84
ATOM     84  C   UNL A   1      40.099  34.037  36.910  1.00  0.00     0.058 A 
ATOM     85  C   UNL A   1      40.736  35.288  36.939  1.00  0.00     0.135 A 
ATOM     86  C   UNL A   1      39.182  33.745  37.934  1.00  0.00     0.135 A 
ATOM     87  F   UNL A   1      41.629  35.612  35.991  1.00  0.00    -0.206 F 
ATOM     88  C   UNL A   1      40.484  36.209  37.950  1.00  0.00     0.059 A 
ATOM     89  C   UNL A   1      38.890  34.664  38.937  1.00  0.00     0.059 A 
ATOM     90  F   UNL A   1      38.539  32.567  37.950  1.00  0.00    -0.206 F 
ATOM     91  C   UNL A   1      39.553  35.890  38.942  1.00  0.00     0.060 A 
BRANCH  91  92
ATOM     92  S   UNL A   1      39.196  37.119  40.215  1.00  0.00     0.124 S 
ATOM     93  O   UNL A   1      38.443  38.116  39.461  1.00  0.00    -0.237 OA
ATOM     94  O   UNL A   1      38.428  36.347  41.186  1.00  0.00    -0.237 OA
ATOM     95  O   UNL A   1      40.520  37.541  40.663  1.00  0.00    -0.744 OA
ENDBRANCH  91  92
ENDBRANCH  59  84
ENDBRANCH  33  34
ENDBRANCH  25  28
ENDBRANCH  23  24
ENDBRANCH  22  23
ENDBRANCH   1  22
TORSDOF 17
ENDMDL
