MODEL 1
REMARK VINA RESULT:     -11.7      0.000      0.000
REMARK SMILES C[C@@H](C(=O)NCCCNC(=O)c1ccc(-c2c3nc(c(-c4c(F)cc(S(=O)(=O)[O-])cc4F)c4ccc([nH]4)c(-c4c(F)cc(S(=O)(=O)[O-])cc4F)c4nc(c(-c5c(F)cc(S(=O)(=O)[O-])cc5F)c5ccc2[nH]5)C=C4)C=C3)cc1)c1ccc(Cc2ccoc2)cc1F
REMARK SMILES IDX 7 1 6 2 5 3 3 4 4 5 2 7 1 8 78 9 79 10 89 11 80 12 88 13
REMARK SMILES IDX 90 14 81 15 82 16 83 17 84 18 87 19 85 20 86 21 8 22 9 23
REMARK SMILES IDX 10 24 11 26 12 27 13 28 77 29 14 30 76 31 15 32 16 33 17 34
REMARK SMILES IDX 70 35 18 36 75 37 69 38 71 39 19 40 74 41 68 42 67 43 20 45
REMARK SMILES IDX 54 46 33 47 53 48 34 49 37 50 52 51 72 52 35 53 36 54 51 56
REMARK SMILES IDX 73 57 38 58 21 59 22 60 31 61 23 62 24 63 30 64 32 65 25 66
REMARK SMILES IDX 26 67 27 68 28 69 29 70 55 71 56 72 65 73 57 74 58 75 64 76
REMARK SMILES IDX 66 77 59 78 60 79 61 80 62 81 63 82 39 83 40 84 49 85 41 86
REMARK SMILES IDX 42 87 48 88 50 89 43 90 44 91 45 92 46 93 47 94
REMARK H PARENT 5 6 9 25 71 44 37 55
REMARK Flexibility Score: inf
ROOT
ATOM      1  C   UNL A   1      33.795  28.654  25.757  1.00  0.00     0.042 C 
ENDROOT
BRANCH   1   2
ATOM      2  C   UNL A   1      32.600  29.033  24.878  1.00  0.00     0.117 C 
BRANCH   2   3
ATOM      3  N   UNL A   1      31.699  27.909  24.691  1.00  0.00    -0.356 N 
ATOM      4  C   UNL A   1      31.851  26.758  23.971  1.00  0.00     0.227 C 
ATOM      5  O   UNL A   1      30.826  26.100  23.781  1.00  0.00    -0.274 OA
ATOM      6  H   UNL A   1      30.839  27.989  25.162  1.00  0.00     0.163 HD
BRANCH   4   7
ATOM      7  C   UNL A   1      33.246  26.334  23.461  1.00  0.00     0.108 C 
ATOM      8  C   UNL A   1      33.270  26.555  21.943  1.00  0.00     0.023 C 
BRANCH   7   9
ATOM      9  C   UNL A   1      33.663  24.913  23.878  1.00  0.00    -0.000 A 
ATOM     10  C   UNL A   1      33.596  23.842  22.972  1.00  0.00     0.008 A 
ATOM     11  C   UNL A   1      34.096  24.601  25.175  1.00  0.00     0.127 A 
ATOM     12  C   UNL A   1      34.069  22.567  23.307  1.00  0.00     0.004 A 
ATOM     13  C   UNL A   1      34.539  23.322  25.528  1.00  0.00     0.043 A 
ATOM     14  F   UNL A   1      34.114  25.531  26.139  1.00  0.00    -0.207 F 
ATOM     15  C   UNL A   1      34.559  22.289  24.588  1.00  0.00    -0.041 A 
BRANCH  15  16
ATOM     16  C   UNL A   1      35.175  20.954  24.926  1.00  0.00     0.074 C 
BRANCH  16  17
ATOM     17  C   UNL A   1      34.102  19.919  24.908  1.00  0.00    -0.005 A 
ATOM     18  C   UNL A   1      34.152  18.598  24.368  1.00  0.00     0.046 A 
ATOM     19  C   UNL A   1      32.858  20.010  25.503  1.00  0.00     0.198 A 
ATOM     20  C   UNL A   1      32.945  18.007  24.651  1.00  0.00     0.195 A 
ATOM     21  O   UNL A   1      32.155  18.859  25.348  1.00  0.00    -0.472 OA
ENDBRANCH  16  17
ENDBRANCH  15  16
ENDBRANCH   7   9
ENDBRANCH   4   7
ENDBRANCH   2   3
ENDBRANCH   1   2
BRANCH   1  22
ATOM     22  C   UNL A   1      33.534  28.753  27.258  1.00  0.00     0.118 C 
BRANCH  22  23
ATOM     23  N   UNL A   1      33.554  30.124  27.742  1.00  0.00    -0.352 N 
ATOM     24  C   UNL A   1      34.541  30.804  28.414  1.00  0.00     0.251 C 
ATOM     25  H   UNL A   1      32.737  30.643  27.562  1.00  0.00     0.163 HD
ATOM     26  O   UNL A   1      34.289  31.902  28.908  1.00  0.00    -0.269 OA
BRANCH  24  27
ATOM     27  C   UNL A   1      35.890  30.214  28.570  1.00  0.00     0.039 A 
ATOM     28  C   UNL A   1      36.740  30.175  27.461  1.00  0.00     0.014 A 
ATOM     29  C   UNL A   1      36.319  29.700  29.796  1.00  0.00     0.014 A 
ATOM     30  C   UNL A   1      38.050  29.707  27.606  1.00  0.00     0.010 A 
ATOM     31  C   UNL A   1      37.643  29.297  29.955  1.00  0.00     0.010 A 
ATOM     32  C   UNL A   1      38.529  29.314  28.865  1.00  0.00    -0.014 A 
BRANCH  32  33
ATOM     33  C   UNL A   1      39.964  28.986  29.080  1.00  0.00     0.031 A 
ATOM     34  C   UNL A   1      40.938  30.052  29.501  1.00  0.00     0.074 A 
ATOM     35  C   UNL A   1      40.402  27.741  28.799  1.00  0.00     0.049 A 
ATOM     36  N   UNL A   1      42.239  29.976  29.625  1.00  0.00    -0.248 NA
ATOM     37  C   UNL A   1      40.386  31.383  29.805  1.00  0.00     0.031 C 
ATOM     38  C   UNL A   1      39.560  26.632  28.339  1.00  0.00     0.029 A 
ATOM     39  N   UNL A   1      41.665  27.201  28.830  1.00  0.00    -0.354 N 
ATOM     40  C   UNL A   1      42.662  31.247  29.995  1.00  0.00     0.074 A 
ATOM     41  C   UNL A   1      41.484  32.084  30.055  1.00  0.00     0.031 C 
ATOM     42  C   UNL A   1      40.327  25.550  28.134  1.00  0.00     0.029 A 
ATOM     43  C   UNL A   1      41.720  25.896  28.394  1.00  0.00     0.049 A 
ATOM     44  H   UNL A   1      42.457  27.701  29.134  1.00  0.00     0.167 HD
ATOM     45  C   UNL A   1      43.920  31.669  30.267  1.00  0.00     0.037 A 
ATOM     46  C   UNL A   1      42.773  25.079  28.194  1.00  0.00     0.037 A 
ATOM     47  C   UNL A   1      45.082  30.819  30.238  1.00  0.00     0.049 A 
ATOM     48  C   UNL A   1      44.161  25.586  28.486  1.00  0.00     0.074 A 
ATOM     49  C   UNL A   1      46.380  31.132  30.601  1.00  0.00     0.029 A 
ATOM     50  N   UNL A   1      45.094  29.501  29.810  1.00  0.00    -0.354 N 
ATOM     51  N   UNL A   1      44.528  26.761  28.941  1.00  0.00    -0.248 NA
ATOM     52  C   UNL A   1      45.278  24.665  28.232  1.00  0.00     0.031 C 
ATOM     53  C   UNL A   1      47.190  30.027  30.328  1.00  0.00     0.029 A 
ATOM     54  C   UNL A   1      46.387  29.004  29.851  1.00  0.00     0.049 A 
ATOM     55  H   UNL A   1      44.302  28.993  29.519  1.00  0.00     0.167 HD
ATOM     56  C   UNL A   1      45.915  26.710  29.045  1.00  0.00     0.074 A 
ATOM     57  C   UNL A   1      46.319  25.384  28.628  1.00  0.00     0.031 C 
ATOM     58  C   UNL A   1      46.776  27.678  29.443  1.00  0.00     0.037 A 
BRANCH  45  59
ATOM     59  C   UNL A   1      44.131  33.116  30.619  1.00  0.00     0.058 A 
ATOM     60  C   UNL A   1      44.230  34.111  29.634  1.00  0.00     0.135 A 
ATOM     61  C   UNL A   1      44.116  33.524  31.964  1.00  0.00     0.135 A 
ATOM     62  F   UNL A   1      44.263  33.775  28.335  1.00  0.00    -0.206 F 
ATOM     63  C   UNL A   1      44.305  35.459  29.970  1.00  0.00     0.059 A 
ATOM     64  C   UNL A   1      44.165  34.868  32.322  1.00  0.00     0.059 A 
ATOM     65  F   UNL A   1      44.025  32.612  32.945  1.00  0.00    -0.206 F 
ATOM     66  C   UNL A   1      44.260  35.829  31.317  1.00  0.00     0.060 A 
BRANCH  66  67
ATOM     67  S   UNL A   1      44.296  37.586  31.728  1.00  0.00     0.124 S 
ATOM     68  O   UNL A   1      43.786  38.184  30.498  1.00  0.00    -0.237 OA
ATOM     69  O   UNL A   1      43.405  37.653  32.882  1.00  0.00    -0.237 OA
ATOM     70  O   UNL A   1      45.706  37.841  32.011  1.00  0.00    -0.744 OA
ENDBRANCH  66  67
ENDBRANCH  45  59
BRANCH  46  71
ATOM     71  C   UNL A   1      42.572  23.704  27.657  1.00  0.00     0.058 A 
ATOM     72  C   UNL A   1      42.518  22.591  28.509  1.00  0.00     0.135 A 
ATOM     73  C   UNL A   1      42.467  23.472  26.276  1.00  0.00     0.135 A 
ATOM     74  F   UNL A   1      42.619  22.758  29.836  1.00  0.00    -0.206 F 
ATOM     75  C   UNL A   1      42.407  21.296  28.013  1.00  0.00     0.059 A 
ATOM     76  C   UNL A   1      42.323  22.189  25.757  1.00  0.00     0.059 A 
ATOM     77  F   UNL A   1      42.494  24.501  25.415  1.00  0.00    -0.206 F 
ATOM     78  C   UNL A   1      42.315  21.105  26.633  1.00  0.00     0.060 A 
BRANCH  78  79
ATOM     79  S   UNL A   1      42.172  19.421  25.997  1.00  0.00     0.124 S 
ATOM     80  O   UNL A   1      42.672  18.640  27.123  1.00  0.00    -0.237 OA
ATOM     81  O   UNL A   1      40.740  19.315  25.731  1.00  0.00    -0.237 OA
ATOM     82  O   UNL A   1      43.023  19.437  24.811  1.00  0.00    -0.744 OA
ENDBRANCH  78  79
ENDBRANCH  46  71
BRANCH  58  83
ATOM     83  C   UNL A   1      48.242  27.344  29.466  1.00  0.00     0.058 A 
ATOM     84  C   UNL A   1      49.080  27.647  28.383  1.00  0.00     0.135 A 
ATOM     85  C   UNL A   1      48.830  26.791  30.616  1.00  0.00     0.135 A 
ATOM     86  F   UNL A   1      48.566  28.166  27.255  1.00  0.00    -0.206 F 
ATOM     87  C   UNL A   1      50.449  27.408  28.433  1.00  0.00     0.059 A 
ATOM     88  C   UNL A   1      50.201  26.571  30.701  1.00  0.00     0.059 A 
ATOM     89  F   UNL A   1      48.073  26.488  31.683  1.00  0.00    -0.206 F 
ATOM     90  C   UNL A   1      51.001  26.879  29.602  1.00  0.00     0.060 A 
BRANCH  90  91
ATOM     91  S   UNL A   1      52.789  26.640  29.677  1.00  0.00     0.124 S 
ATOM     92  O   UNL A   1      53.055  25.995  28.396  1.00  0.00    -0.237 OA
ATOM     93  O   UNL A   1      53.281  28.007  29.813  1.00  0.00    -0.237 OA
ATOM     94  O   UNL A   1      52.971  25.795  30.854  1.00  0.00    -0.744 OA
ENDBRANCH  90  91
ENDBRANCH  58  83
ENDBRANCH  32  33
ENDBRANCH  24  27
ENDBRANCH  22  23
ENDBRANCH   1  22
TORSDOF 16
ENDMDL
MODEL 2
REMARK VINA RESULT:     -11.6      2.253      3.031
REMARK SMILES C[C@@H](C(=O)NCCCNC(=O)c1ccc(-c2c3nc(c(-c4c(F)cc(S(=O)(=O)[O-])cc4F)c4ccc([nH]4)c(-c4c(F)cc(S(=O)(=O)[O-])cc4F)c4nc(c(-c5c(F)cc(S(=O)(=O)[O-])cc5F)c5ccc2[nH]5)C=C4)C=C3)cc1)c1ccc(Cc2ccoc2)cc1F
REMARK SMILES IDX 7 1 6 2 5 3 3 4 4 5 2 7 1 8 78 9 79 10 89 11 80 12 88 13
REMARK SMILES IDX 90 14 81 15 82 16 83 17 84 18 87 19 85 20 86 21 8 22 9 23
REMARK SMILES IDX 10 24 11 26 12 27 13 28 77 29 14 30 76 31 15 32 16 33 17 34
REMARK SMILES IDX 70 35 18 36 75 37 69 38 71 39 19 40 74 41 68 42 67 43 20 45
REMARK SMILES IDX 54 46 33 47 53 48 34 49 37 50 52 51 72 52 35 53 36 54 51 56
REMARK SMILES IDX 73 57 38 58 21 59 22 60 31 61 23 62 24 63 30 64 32 65 25 66
REMARK SMILES IDX 26 67 27 68 28 69 29 70 55 71 56 72 65 73 57 74 58 75 64 76
REMARK SMILES IDX 66 77 59 78 60 79 61 80 62 81 63 82 39 83 40 84 49 85 41 86
REMARK SMILES IDX 42 87 48 88 50 89 43 90 44 91 45 92 46 93 47 94
REMARK H PARENT 5 6 9 25 71 44 37 55
REMARK Flexibility Score: inf
ROOT
ATOM      1  C   UNL A   1      33.508  29.232  27.294  1.00  0.00     0.042 C 
ENDROOT
BRANCH   1   2
ATOM      2  C   UNL A   1      33.096  30.147  26.138  1.00  0.00     0.117 C 
BRANCH   2   3
ATOM      3  N   UNL A   1      32.093  29.520  25.295  1.00  0.00    -0.356 N 
ATOM      4  C   UNL A   1      32.230  28.698  24.212  1.00  0.00     0.227 C 
ATOM      5  O   UNL A   1      31.215  28.524  23.534  1.00  0.00    -0.274 OA
ATOM      6  H   UNL A   1      31.162  29.718  25.545  1.00  0.00     0.163 HD
BRANCH   4   7
ATOM      7  C   UNL A   1      33.588  28.031  23.904  1.00  0.00     0.108 C 
ATOM      8  C   UNL A   1      34.096  28.610  22.577  1.00  0.00     0.023 C 
BRANCH   7   9
ATOM      9  C   UNL A   1      33.553  26.494  23.927  1.00  0.00    -0.000 A 
ATOM     10  C   UNL A   1      33.474  25.753  22.736  1.00  0.00     0.008 A 
ATOM     11  C   UNL A   1      33.566  25.753  25.117  1.00  0.00     0.127 A 
ATOM     12  C   UNL A   1      33.546  24.354  22.737  1.00  0.00     0.004 A 
ATOM     13  C   UNL A   1      33.604  24.355  25.129  1.00  0.00     0.043 A 
ATOM     14  F   UNL A   1      33.553  26.365  26.309  1.00  0.00    -0.207 F 
ATOM     15  C   UNL A   1      33.623  23.632  23.934  1.00  0.00    -0.041 A 
BRANCH  15  16
ATOM     16  C   UNL A   1      33.816  22.136  23.944  1.00  0.00     0.074 C 
BRANCH  16  17
ATOM     17  C   UNL A   1      35.217  21.841  24.359  1.00  0.00    -0.005 A 
ATOM     18  C   UNL A   1      36.430  22.389  23.842  1.00  0.00     0.046 A 
ATOM     19  C   UNL A   1      35.614  21.033  25.408  1.00  0.00     0.198 A 
ATOM     20  C   UNL A   1      37.455  21.861  24.588  1.00  0.00     0.195 A 
ATOM     21  O   UNL A   1      36.965  21.039  25.548  1.00  0.00    -0.472 OA
ENDBRANCH  16  17
ENDBRANCH  15  16
ENDBRANCH   7   9
ENDBRANCH   4   7
ENDBRANCH   2   3
ENDBRANCH   1   2
BRANCH   1  22
ATOM     22  C   UNL A   1      34.953  29.404  27.755  1.00  0.00     0.118 C 
BRANCH  22  23
ATOM     23  N   UNL A   1      35.094  30.408  28.797  1.00  0.00    -0.352 N 
ATOM     24  C   UNL A   1      36.163  30.681  29.617  1.00  0.00     0.251 C 
ATOM     25  H   UNL A   1      34.304  30.978  28.938  1.00  0.00     0.163 HD
ATOM     26  O   UNL A   1      36.015  31.445  30.569  1.00  0.00    -0.269 OA
BRANCH  24  27
ATOM     27  C   UNL A   1      37.476  30.041  29.379  1.00  0.00     0.039 A 
ATOM     28  C   UNL A   1      37.950  29.942  28.068  1.00  0.00     0.014 A 
ATOM     29  C   UNL A   1      38.240  29.537  30.435  1.00  0.00     0.014 A 
ATOM     30  C   UNL A   1      39.226  29.425  27.826  1.00  0.00     0.010 A 
ATOM     31  C   UNL A   1      39.537  29.085  30.201  1.00  0.00     0.010 A 
ATOM     32  C   UNL A   1      40.051  29.041  28.895  1.00  0.00    -0.014 A 
BRANCH  32  33
ATOM     33  C   UNL A   1      41.473  28.660  28.678  1.00  0.00     0.031 A 
ATOM     34  C   UNL A   1      42.553  29.708  28.667  1.00  0.00     0.074 A 
ATOM     35  C   UNL A   1      41.773  27.376  28.394  1.00  0.00     0.049 A 
ATOM     36  N   UNL A   1      43.823  29.577  28.382  1.00  0.00    -0.248 NA
ATOM     37  C   UNL A   1      42.154  31.086  29.000  1.00  0.00     0.031 C 
ATOM     38  C   UNL A   1      40.805  26.276  28.331  1.00  0.00     0.029 A 
ATOM     39  N   UNL A   1      42.968  26.777  28.078  1.00  0.00    -0.354 N 
ATOM     40  C   UNL A   1      44.369  30.852  28.476  1.00  0.00     0.074 A 
ATOM     41  C   UNL A   1      43.289  31.750  28.823  1.00  0.00     0.031 C 
ATOM     42  C   UNL A   1      41.444  25.143  28.000  1.00  0.00     0.029 A 
ATOM     43  C   UNL A   1      42.854  25.439  27.775  1.00  0.00     0.049 A 
ATOM     44  H   UNL A   1      43.826  27.260  28.068  1.00  0.00     0.167 HD
ATOM     45  C   UNL A   1      45.656  31.232  28.297  1.00  0.00     0.037 A 
ATOM     46  C   UNL A   1      43.772  24.556  27.333  1.00  0.00     0.037 A 
ATOM     47  C   UNL A   1      46.731  30.324  27.986  1.00  0.00     0.049 A 
ATOM     48  C   UNL A   1      45.191  25.016  27.123  1.00  0.00     0.074 A 
ATOM     49  C   UNL A   1      48.084  30.601  27.891  1.00  0.00     0.029 A 
ATOM     50  N   UNL A   1      46.579  28.976  27.705  1.00  0.00    -0.354 N 
ATOM     51  N   UNL A   1      45.708  26.204  27.324  1.00  0.00    -0.248 NA
ATOM     52  C   UNL A   1      46.149  24.021  26.620  1.00  0.00     0.031 C 
ATOM     53  C   UNL A   1      48.741  29.438  27.484  1.00  0.00     0.029 A 
ATOM     54  C   UNL A   1      47.807  28.419  27.384  1.00  0.00     0.049 A 
ATOM     55  H   UNL A   1      45.725  28.486  27.727  1.00  0.00     0.167 HD
ATOM     56  C   UNL A   1      47.054  26.093  26.992  1.00  0.00     0.074 A 
ATOM     57  C   UNL A   1      47.277  24.718  26.599  1.00  0.00     0.031 C 
ATOM     58  C   UNL A   1      48.018  27.046  27.004  1.00  0.00     0.037 A 
BRANCH  45  59
ATOM     59  C   UNL A   1      46.000  32.691  28.424  1.00  0.00     0.058 A 
ATOM     60  C   UNL A   1      46.438  33.245  29.636  1.00  0.00     0.135 A 
ATOM     61  C   UNL A   1      46.002  33.515  27.287  1.00  0.00     0.135 A 
ATOM     62  F   UNL A   1      46.443  32.505  30.756  1.00  0.00    -0.206 F 
ATOM     63  C   UNL A   1      46.868  34.566  29.716  1.00  0.00     0.059 A 
ATOM     64  C   UNL A   1      46.451  34.832  27.338  1.00  0.00     0.059 A 
ATOM     65  F   UNL A   1      45.590  33.034  26.103  1.00  0.00    -0.206 F 
ATOM     66  C   UNL A   1      46.881  35.349  28.559  1.00  0.00     0.060 A 
BRANCH  66  67
ATOM     67  S   UNL A   1      47.500  37.040  28.672  1.00  0.00     0.124 S 
ATOM     68  O   UNL A   1      48.933  36.840  28.480  1.00  0.00    -0.237 OA
ATOM     69  O   UNL A   1      46.801  37.701  27.574  1.00  0.00    -0.237 OA
ATOM     70  O   UNL A   1      47.100  37.462  30.011  1.00  0.00    -0.744 OA
ENDBRANCH  66  67
ENDBRANCH  45  59
BRANCH  46  71
ATOM     71  C   UNL A   1      43.381  23.153  27.021  1.00  0.00     0.058 A 
ATOM     72  C   UNL A   1      43.107  22.230  28.041  1.00  0.00     0.135 A 
ATOM     73  C   UNL A   1      43.311  22.696  25.694  1.00  0.00     0.135 A 
ATOM     74  F   UNL A   1      43.166  22.614  29.325  1.00  0.00    -0.206 F 
ATOM     75  C   UNL A   1      42.816  20.898  27.763  1.00  0.00     0.059 A 
ATOM     76  C   UNL A   1      42.990  21.378  25.389  1.00  0.00     0.059 A 
ATOM     77  F   UNL A   1      43.546  23.540  24.677  1.00  0.00    -0.206 F 
ATOM     78  C   UNL A   1      42.765  20.480  26.432  1.00  0.00     0.060 A 
BRANCH  78  79
ATOM     79  S   UNL A   1      42.387  18.750  26.079  1.00  0.00     0.124 S 
ATOM     80  O   UNL A   1      42.626  18.129  27.377  1.00  0.00    -0.237 OA
ATOM     81  O   UNL A   1      40.994  18.822  25.651  1.00  0.00    -0.237 OA
ATOM     82  O   UNL A   1      43.341  18.406  25.029  1.00  0.00    -0.744 OA
ENDBRANCH  78  79
ENDBRANCH  46  71
BRANCH  58  83
ATOM     83  C   UNL A   1      49.407  26.641  26.597  1.00  0.00     0.058 A 
ATOM     84  C   UNL A   1      50.277  26.002  27.493  1.00  0.00     0.135 A 
ATOM     85  C   UNL A   1      49.844  26.820  25.274  1.00  0.00     0.135 A 
ATOM     86  F   UNL A   1      49.912  25.818  28.773  1.00  0.00    -0.206 F 
ATOM     87  C   UNL A   1      51.534  25.560  27.096  1.00  0.00     0.059 A 
ATOM     88  C   UNL A   1      51.085  26.359  24.846  1.00  0.00     0.059 A 
ATOM     89  F   UNL A   1      49.048  27.420  24.374  1.00  0.00    -0.206 F 
ATOM     90  C   UNL A   1      51.925  25.733  25.767  1.00  0.00     0.060 A 
BRANCH  90  91
ATOM     91  S   UNL A   1      53.531  25.091  25.251  1.00  0.00     0.124 S 
ATOM     92  O   UNL A   1      53.663  25.665  23.916  1.00  0.00    -0.237 OA
ATOM     93  O   UNL A   1      54.426  25.637  26.266  1.00  0.00    -0.237 OA
ATOM     94  O   UNL A   1      53.350  23.643  25.296  1.00  0.00    -0.744 OA
ENDBRANCH  90  91
ENDBRANCH  58  83
ENDBRANCH  32  33
ENDBRANCH  24  27
ENDBRANCH  22  23
ENDBRANCH   1  22
TORSDOF 16
ENDMDL
MODEL 3
REMARK VINA RESULT:     -11.6      2.150      9.248
REMARK SMILES C[C@@H](C(=O)NCCCNC(=O)c1ccc(-c2c3nc(c(-c4c(F)cc(S(=O)(=O)[O-])cc4F)c4ccc([nH]4)c(-c4c(F)cc(S(=O)(=O)[O-])cc4F)c4nc(c(-c5c(F)cc(S(=O)(=O)[O-])cc5F)c5ccc2[nH]5)C=C4)C=C3)cc1)c1ccc(Cc2ccoc2)cc1F
REMARK SMILES IDX 7 1 6 2 5 3 3 4 4 5 2 7 1 8 78 9 79 10 89 11 80 12 88 13
REMARK SMILES IDX 90 14 81 15 82 16 83 17 84 18 87 19 85 20 86 21 8 22 9 23
REMARK SMILES IDX 10 24 11 26 12 27 13 28 77 29 14 30 76 31 15 32 16 33 17 34
REMARK SMILES IDX 70 35 18 36 75 37 69 38 71 39 19 40 74 41 68 42 67 43 20 45
REMARK SMILES IDX 54 46 33 47 53 48 34 49 37 50 52 51 72 52 35 53 36 54 51 56
REMARK SMILES IDX 73 57 38 58 21 59 22 60 31 61 23 62 24 63 30 64 32 65 25 66
REMARK SMILES IDX 26 67 27 68 28 69 29 70 55 71 56 72 65 73 57 74 58 75 64 76
REMARK SMILES IDX 66 77 59 78 60 79 61 80 62 81 63 82 39 83 40 84 49 85 41 86
REMARK SMILES IDX 42 87 48 88 50 89 43 90 44 91 45 92 46 93 47 94
REMARK H PARENT 5 6 9 25 71 44 37 55
REMARK Flexibility Score: inf
ROOT
ATOM      1  C   UNL A   1      33.592  28.359  25.754  1.00  0.00     0.042 C 
ENDROOT
BRANCH   1   2
ATOM      2  C   UNL A   1      34.027  26.959  25.313  1.00  0.00     0.117 C 
BRANCH   2   3
ATOM      3  N   UNL A   1      34.113  26.860  23.867  1.00  0.00    -0.356 N 
ATOM      4  C   UNL A   1      33.334  26.178  22.975  1.00  0.00     0.227 C 
ATOM      5  O   UNL A   1      33.791  26.063  21.836  1.00  0.00    -0.274 OA
ATOM      6  H   UNL A   1      34.852  27.369  23.462  1.00  0.00     0.163 HD
BRANCH   4   7
ATOM      7  C   UNL A   1      31.961  25.618  23.405  1.00  0.00     0.108 C 
ATOM      8  C   UNL A   1      31.719  24.328  22.610  1.00  0.00     0.023 C 
BRANCH   7   9
ATOM      9  C   UNL A   1      30.807  26.629  23.296  1.00  0.00    -0.000 A 
ATOM     10  C   UNL A   1      30.944  27.807  22.544  1.00  0.00     0.008 A 
ATOM     11  C   UNL A   1      29.582  26.454  23.956  1.00  0.00     0.127 A 
ATOM     12  C   UNL A   1      29.869  28.684  22.352  1.00  0.00     0.004 A 
ATOM     13  C   UNL A   1      28.513  27.343  23.797  1.00  0.00     0.043 A 
ATOM     14  F   UNL A   1      29.379  25.408  24.768  1.00  0.00    -0.207 F 
ATOM     15  C   UNL A   1      28.632  28.460  22.967  1.00  0.00    -0.041 A 
BRANCH  15  16
ATOM     16  C   UNL A   1      27.436  29.334  22.678  1.00  0.00     0.074 C 
BRANCH  16  17
ATOM     17  C   UNL A   1      27.894  30.750  22.592  1.00  0.00    -0.005 A 
ATOM     18  C   UNL A   1      28.384  31.589  23.638  1.00  0.00     0.046 A 
ATOM     19  C   UNL A   1      28.018  31.509  21.442  1.00  0.00     0.198 A 
ATOM     20  C   UNL A   1      28.740  32.782  23.056  1.00  0.00     0.195 A 
ATOM     21  O   UNL A   1      28.527  32.737  21.719  1.00  0.00    -0.472 OA
ENDBRANCH  16  17
ENDBRANCH  15  16
ENDBRANCH   7   9
ENDBRANCH   4   7
ENDBRANCH   2   3
ENDBRANCH   1   2
BRANCH   1  22
ATOM     22  C   UNL A   1      33.469  28.539  27.265  1.00  0.00     0.118 C 
BRANCH  22  23
ATOM     23  N   UNL A   1      33.475  29.937  27.667  1.00  0.00    -0.352 N 
ATOM     24  C   UNL A   1      34.470  30.677  28.260  1.00  0.00     0.251 C 
ATOM     25  H   UNL A   1      32.640  30.427  27.487  1.00  0.00     0.163 HD
ATOM     26  O   UNL A   1      34.210  31.796  28.698  1.00  0.00    -0.269 OA
BRANCH  24  27
ATOM     27  C   UNL A   1      35.836  30.125  28.400  1.00  0.00     0.039 A 
ATOM     28  C   UNL A   1      36.673  30.109  27.281  1.00  0.00     0.014 A 
ATOM     29  C   UNL A   1      36.294  29.625  29.621  1.00  0.00     0.014 A 
ATOM     30  C   UNL A   1      37.997  29.677  27.410  1.00  0.00     0.010 A 
ATOM     31  C   UNL A   1      37.632  29.260  29.765  1.00  0.00     0.010 A 
ATOM     32  C   UNL A   1      38.503  29.300  28.664  1.00  0.00    -0.014 A 
BRANCH  32  33
ATOM     33  C   UNL A   1      39.949  29.013  28.862  1.00  0.00     0.031 A 
ATOM     34  C   UNL A   1      40.521  27.671  28.490  1.00  0.00     0.074 A 
ATOM     35  C   UNL A   1      40.725  29.934  29.470  1.00  0.00     0.049 A 
ATOM     36  N   UNL A   1      41.726  27.205  28.696  1.00  0.00    -0.248 NA
ATOM     37  C   UNL A   1      39.619  26.721  27.818  1.00  0.00     0.031 C 
ATOM     38  C   UNL A   1      40.273  31.255  29.918  1.00  0.00     0.029 A 
ATOM     39  N   UNL A   1      42.047  29.897  29.842  1.00  0.00    -0.354 N 
ATOM     40  C   UNL A   1      41.722  25.906  28.203  1.00  0.00     0.074 A 
ATOM     41  C   UNL A   1      40.388  25.646  27.707  1.00  0.00     0.031 C 
ATOM     42  C   UNL A   1      41.298  31.898  30.501  1.00  0.00     0.029 A 
ATOM     43  C   UNL A   1      42.463  31.022  30.517  1.00  0.00     0.049 A 
ATOM     44  H   UNL A   1      42.640  29.136  29.646  1.00  0.00     0.167 HD
ATOM     45  C   UNL A   1      42.744  25.018  28.162  1.00  0.00     0.037 A 
ATOM     46  C   UNL A   1      43.639  31.306  31.112  1.00  0.00     0.037 A 
ATOM     47  C   UNL A   1      44.078  25.299  28.626  1.00  0.00     0.049 A 
ATOM     48  C   UNL A   1      44.749  30.288  31.068  1.00  0.00     0.074 A 
ATOM     49  C   UNL A   1      45.204  24.500  28.529  1.00  0.00     0.029 A 
ATOM     50  N   UNL A   1      44.465  26.455  29.286  1.00  0.00    -0.354 N 
ATOM     51  N   UNL A   1      44.757  29.106  30.499  1.00  0.00    -0.248 NA
ATOM     52  C   UNL A   1      46.004  30.635  31.749  1.00  0.00     0.031 C 
ATOM     53  C   UNL A   1      46.254  25.140  29.191  1.00  0.00     0.029 A 
ATOM     54  C   UNL A   1      45.800  26.367  29.648  1.00  0.00     0.049 A 
ATOM     55  H   UNL A   1      43.879  27.224  29.472  1.00  0.00     0.167 HD
ATOM     56  C   UNL A   1      46.022  28.579  30.738  1.00  0.00     0.074 A 
ATOM     57  C   UNL A   1      46.759  29.579  31.482  1.00  0.00     0.031 C 
ATOM     58  C   UNL A   1      46.526  27.373  30.381  1.00  0.00     0.037 A 
BRANCH  45  59
ATOM     59  C   UNL A   1      42.482  23.646  27.603  1.00  0.00     0.058 A 
ATOM     60  C   UNL A   1      42.516  23.390  26.224  1.00  0.00     0.135 A 
ATOM     61  C   UNL A   1      42.313  22.553  28.469  1.00  0.00     0.135 A 
ATOM     62  F   UNL A   1      42.662  24.400  25.352  1.00  0.00    -0.206 F 
ATOM     63  C   UNL A   1      42.392  22.098  25.722  1.00  0.00     0.059 A 
ATOM     64  C   UNL A   1      42.212  21.250  27.991  1.00  0.00     0.059 A 
ATOM     65  F   UNL A   1      42.271  22.744  29.797  1.00  0.00    -0.206 F 
ATOM     66  C   UNL A   1      42.252  21.033  26.615  1.00  0.00     0.060 A 
BRANCH  66  67
ATOM     67  S   UNL A   1      42.155  19.359  25.948  1.00  0.00     0.124 S 
ATOM     68  O   UNL A   1      43.020  19.460  24.776  1.00  0.00    -0.237 OA
ATOM     69  O   UNL A   1      42.674  18.554  27.049  1.00  0.00    -0.237 OA
ATOM     70  O   UNL A   1      40.733  19.186  25.664  1.00  0.00    -0.744 OA
ENDBRANCH  66  67
ENDBRANCH  45  59
BRANCH  46  71
ATOM     71  C   UNL A   1      43.828  32.594  31.837  1.00  0.00     0.058 A 
ATOM     72  C   UNL A   1      43.521  32.713  33.200  1.00  0.00     0.135 A 
ATOM     73  C   UNL A   1      44.285  33.742  31.170  1.00  0.00     0.135 A 
ATOM     74  F   UNL A   1      43.076  31.647  33.882  1.00  0.00    -0.206 F 
ATOM     75  C   UNL A   1      43.622  33.929  33.868  1.00  0.00     0.059 A 
ATOM     76  C   UNL A   1      44.425  34.962  31.823  1.00  0.00     0.059 A 
ATOM     77  F   UNL A   1      44.611  33.683  29.869  1.00  0.00    -0.206 F 
ATOM     78  C   UNL A   1      44.070  35.052  33.168  1.00  0.00     0.060 A 
BRANCH  78  79
ATOM     79  S   UNL A   1      44.198  36.626  34.042  1.00  0.00     0.124 S 
ATOM     80  O   UNL A   1      43.451  37.513  33.157  1.00  0.00    -0.237 OA
ATOM     81  O   UNL A   1      43.566  36.318  35.322  1.00  0.00    -0.237 OA
ATOM     82  O   UNL A   1      45.638  36.860  34.103  1.00  0.00    -0.744 OA
ENDBRANCH  78  79
ENDBRANCH  46  71
BRANCH  58  83
ATOM     83  C   UNL A   1      47.945  27.064  30.769  1.00  0.00     0.058 A 
ATOM     84  C   UNL A   1      48.242  26.283  31.896  1.00  0.00     0.135 A 
ATOM     85  C   UNL A   1      49.014  27.482  29.960  1.00  0.00     0.135 A 
ATOM     86  F   UNL A   1      47.257  25.868  32.710  1.00  0.00    -0.206 F 
ATOM     87  C   UNL A   1      49.550  25.933  32.213  1.00  0.00     0.059 A 
ATOM     88  C   UNL A   1      50.327  27.119  30.240  1.00  0.00     0.059 A 
ATOM     89  F   UNL A   1      48.783  28.226  28.866  1.00  0.00    -0.206 F 
ATOM     90  C   UNL A   1      50.585  26.347  31.373  1.00  0.00     0.060 A 
BRANCH  90  91
ATOM     91  S   UNL A   1      52.270  25.826  31.759  1.00  0.00     0.124 S 
ATOM     92  O   UNL A   1      52.621  26.740  32.841  1.00  0.00    -0.237 OA
ATOM     93  O   UNL A   1      52.084  24.431  32.143  1.00  0.00    -0.237 OA
ATOM     94  O   UNL A   1      52.988  26.035  30.505  1.00  0.00    -0.744 OA
ENDBRANCH  90  91
ENDBRANCH  58  83
ENDBRANCH  32  33
ENDBRANCH  24  27
ENDBRANCH  22  23
ENDBRANCH   1  22
TORSDOF 16
ENDMDL
