MODEL 1
REMARK VINA RESULT:     -10.4      0.000      0.000
REMARK SMILES CS(=O)(=O)c1ccc(C2=NN(c3ccc(C(=O)NCCCNC(=O)c4ccc(-c5c6nc(c(-c7c(F)cc(S(=O)(=O)[O-])cc7F)c7ccc([nH]7)c(-c7c(F)cc(S(=O)(=O)[O-])cc7F)c7nc(c(-c8c(F)cc(S(=O)(=O)[O-])cc8F)c8ccc5[nH]8)C=C7)C=C6)cc4)cc3)[C@H](c3cccs3)C2)cc1
REMARK SMILES IDX 20 1 19 2 18 3 16 4 17 5 15 7 12 8 13 9 92 10 14 11 91 12
REMARK SMILES IDX 11 13 9 14 10 15 99 16 93 17 8 18 5 19 6 20 101 21 7 22
REMARK SMILES IDX 100 23 2 24 1 25 3 26 4 27 94 28 95 29 98 30 96 31 97 32
REMARK SMILES IDX 21 33 22 34 23 35 24 37 25 38 26 39 90 40 27 41 89 42 28 43
REMARK SMILES IDX 29 44 30 45 83 46 31 47 88 48 82 49 84 50 32 51 87 52 81 53
REMARK SMILES IDX 80 54 33 56 67 57 46 58 66 59 47 60 50 61 65 62 85 63 48 64
REMARK SMILES IDX 49 65 64 67 86 68 51 69 34 70 35 71 44 72 36 73 37 74 43 75
REMARK SMILES IDX 45 76 38 77 39 78 40 79 41 80 42 81 68 82 69 83 78 84 70 85
REMARK SMILES IDX 71 86 77 87 79 88 72 89 73 90 74 91 75 92 76 93 52 94 53 95
REMARK SMILES IDX 62 96 54 97 55 98 61 99 63 100 56 101 57 102 58 103 59 104
REMARK SMILES IDX 60 105
REMARK H PARENT 18 6 22 36 84 55 50 66
REMARK Flexibility Score: inf
ROOT
ATOM      1  C   UNL A   1      41.518  21.071  25.858  1.00  0.00     0.042 C 
ENDROOT
BRANCH   1   2
ATOM      2  C   UNL A   1      42.897  21.299  26.477  1.00  0.00     0.118 C 
BRANCH   2   3
ATOM      3  N   UNL A   1      42.804  21.683  27.874  1.00  0.00    -0.352 N 
ATOM      4  C   UNL A   1      43.279  22.780  28.548  1.00  0.00     0.251 C 
ATOM      5  O   UNL A   1      42.935  22.936  29.719  1.00  0.00    -0.269 OA
ATOM      6  H   UNL A   1      42.314  21.042  28.439  1.00  0.00     0.163 HD
BRANCH   4   7
ATOM      7  C   UNL A   1      44.140  23.806  27.901  1.00  0.00     0.039 A 
ATOM      8  C   UNL A   1      45.681  25.754  26.564  1.00  0.00     0.060 A 
ATOM      9  C   UNL A   1      44.387  25.454  26.131  1.00  0.00     0.029 A 
ATOM     10  C   UNL A   1      46.169  25.111  27.703  1.00  0.00     0.029 A 
ATOM     11  C   UNL A   1      43.624  24.482  26.788  1.00  0.00     0.016 A 
ATOM     12  C   UNL A   1      45.399  24.165  28.381  1.00  0.00     0.016 A 
BRANCH   8  13
ATOM     13  N   UNL A   1      46.477  26.675  25.902  1.00  0.00    -0.257 N 
ATOM     14  C   UNL A   1      48.046  27.230  24.596  1.00  0.00     0.071 C 
ATOM     15  N   UNL A   1      47.164  26.304  24.799  1.00  0.00    -0.176 NA
ATOM     16  C   UNL A   1      48.135  28.305  25.644  1.00  0.00     0.091 C 
ATOM     17  C   UNL A   1      46.952  27.906  26.538  1.00  0.00     0.154 C 
BRANCH  14  18
ATOM     18  C   UNL A   1      48.895  27.247  23.402  1.00  0.00    -0.002 A 
ATOM     19  C   UNL A   1      50.421  27.281  21.085  1.00  0.00     0.067 A 
ATOM     20  C   UNL A   1      49.043  27.497  21.001  1.00  0.00     0.021 A 
ATOM     21  C   UNL A   1      51.037  27.045  22.322  1.00  0.00     0.021 A 
ATOM     22  C   UNL A   1      48.276  27.462  22.165  1.00  0.00     0.011 A 
ATOM     23  C   UNL A   1      50.272  27.040  23.490  1.00  0.00     0.011 A 
BRANCH  19  24
ATOM     24  S   UNL A   1      51.421  27.297  19.614  1.00  0.00     0.175 S 
ATOM     25  C   UNL A   1      52.068  28.942  19.484  1.00  0.00     0.163 C 
ATOM     26  O   UNL A   1      50.529  27.100  18.489  1.00  0.00    -0.224 OA
ATOM     27  O   UNL A   1      52.526  26.388  19.859  1.00  0.00    -0.224 OA
ENDBRANCH  19  24
ENDBRANCH  14  18
BRANCH  17  28
ATOM     28  C   UNL A   1      45.885  28.963  26.759  1.00  0.00     0.030 A 
ATOM     29  C   UNL A   1      44.548  28.731  27.047  1.00  0.00     0.017 A 
ATOM     30  S   UNL A   1      46.177  30.644  26.572  1.00  0.00    -0.147 S 
ATOM     31  C   UNL A   1      43.779  29.925  27.124  1.00  0.00     0.012 A 
ATOM     32  C   UNL A   1      44.550  31.044  26.907  1.00  0.00     0.065 A 
ENDBRANCH  17  28
ENDBRANCH   8  13
ENDBRANCH   4   7
ENDBRANCH   2   3
ENDBRANCH   1   2
BRANCH   1  33
ATOM     33  C   UNL A   1      40.371  21.620  26.699  1.00  0.00     0.118 C 
BRANCH  33  34
ATOM     34  N   UNL A   1      39.260  22.079  25.879  1.00  0.00    -0.352 N 
ATOM     35  C   UNL A   1      38.586  23.276  25.909  1.00  0.00     0.251 C 
ATOM     36  H   UNL A   1      38.945  21.437  25.203  1.00  0.00     0.163 HD
ATOM     37  O   UNL A   1      37.541  23.393  25.273  1.00  0.00    -0.269 OA
BRANCH  35  38
ATOM     38  C   UNL A   1      39.099  24.412  26.708  1.00  0.00     0.039 A 
ATOM     39  C   UNL A   1      39.969  25.324  26.102  1.00  0.00     0.014 A 
ATOM     40  C   UNL A   1      38.758  24.563  28.055  1.00  0.00     0.014 A 
ATOM     41  C   UNL A   1      40.450  26.416  26.830  1.00  0.00     0.010 A 
ATOM     42  C   UNL A   1      39.185  25.687  28.758  1.00  0.00     0.010 A 
ATOM     43  C   UNL A   1      40.038  26.623  28.155  1.00  0.00    -0.014 A 
BRANCH  43  44
ATOM     44  C   UNL A   1      40.489  27.806  28.932  1.00  0.00     0.031 A 
ATOM     45  C   UNL A   1      41.829  27.792  29.617  1.00  0.00     0.074 A 
ATOM     46  C   UNL A   1      39.662  28.859  29.084  1.00  0.00     0.049 A 
ATOM     47  N   UNL A   1      42.353  28.676  30.426  1.00  0.00    -0.248 NA
ATOM     48  C   UNL A   1      42.682  26.616  29.378  1.00  0.00     0.031 C 
ATOM     49  C   UNL A   1      38.323  28.974  28.501  1.00  0.00     0.029 A 
ATOM     50  N   UNL A   1      39.818  30.026  29.789  1.00  0.00    -0.354 N 
ATOM     51  C   UNL A   1      43.584  28.156  30.810  1.00  0.00     0.074 A 
ATOM     52  C   UNL A   1      43.709  26.861  30.178  1.00  0.00     0.031 C 
ATOM     53  C   UNL A   1      37.787  30.151  28.861  1.00  0.00     0.029 A 
ATOM     54  C   UNL A   1      38.724  30.857  29.730  1.00  0.00     0.049 A 
ATOM     55  H   UNL A   1      40.636  30.248  30.289  1.00  0.00     0.167 HD
ATOM     56  C   UNL A   1      44.530  28.716  31.602  1.00  0.00     0.037 A 
ATOM     57  C   UNL A   1      38.497  32.047  30.318  1.00  0.00     0.037 A 
ATOM     58  C   UNL A   1      44.410  30.018  32.206  1.00  0.00     0.049 A 
ATOM     59  C   UNL A   1      39.563  32.650  31.190  1.00  0.00     0.074 A 
ATOM     60  C   UNL A   1      45.332  30.695  32.985  1.00  0.00     0.029 A 
ATOM     61  N   UNL A   1      43.299  30.841  32.097  1.00  0.00    -0.354 N 
ATOM     62  N   UNL A   1      40.740  32.165  31.508  1.00  0.00    -0.248 NA
ATOM     63  C   UNL A   1      39.274  33.965  31.781  1.00  0.00     0.031 C 
ATOM     64  C   UNL A   1      44.766  31.913  33.374  1.00  0.00     0.029 A 
ATOM     65  C   UNL A   1      43.507  32.014  32.804  1.00  0.00     0.049 A 
ATOM     66  H   UNL A   1      42.482  30.623  31.593  1.00  0.00     0.167 HD
ATOM     67  C   UNL A   1      41.343  33.125  32.311  1.00  0.00     0.074 A 
ATOM     68  C   UNL A   1      40.404  34.222  32.427  1.00  0.00     0.031 C 
ATOM     69  C   UNL A   1      42.565  33.101  32.899  1.00  0.00     0.037 A 
BRANCH  56  70
ATOM     70  C   UNL A   1      45.781  27.920  31.857  1.00  0.00     0.058 A 
ATOM     71  C   UNL A   1      46.911  28.040  31.033  1.00  0.00     0.135 A 
ATOM     72  C   UNL A   1      45.861  27.043  32.952  1.00  0.00     0.135 A 
ATOM     73  F   UNL A   1      46.884  28.852  29.964  1.00  0.00    -0.206 F 
ATOM     74  C   UNL A   1      48.062  27.293  31.261  1.00  0.00     0.059 A 
ATOM     75  C   UNL A   1      47.012  26.307  33.215  1.00  0.00     0.059 A 
ATOM     76  F   UNL A   1      44.811  26.891  33.774  1.00  0.00    -0.206 F 
ATOM     77  C   UNL A   1      48.102  26.426  32.354  1.00  0.00     0.060 A 
BRANCH  77  78
ATOM     78  S   UNL A   1      49.600  25.458  32.634  1.00  0.00     0.124 S 
ATOM     79  O   UNL A   1      49.106  24.410  33.520  1.00  0.00    -0.237 OA
ATOM     80  O   UNL A   1      49.955  25.031  31.284  1.00  0.00    -0.237 OA
ATOM     81  O   UNL A   1      50.515  26.417  33.244  1.00  0.00    -0.744 OA
ENDBRANCH  77  78
ENDBRANCH  56  70
BRANCH  57  82
ATOM     82  C   UNL A   1      37.211  32.756  30.081  1.00  0.00     0.058 A 
ATOM     83  C   UNL A   1      36.103  32.528  30.909  1.00  0.00     0.135 A 
ATOM     84  C   UNL A   1      37.071  33.689  29.043  1.00  0.00     0.135 A 
ATOM     85  F   UNL A   1      36.188  31.640  31.912  1.00  0.00    -0.206 F 
ATOM     86  C   UNL A   1      34.897  33.190  30.712  1.00  0.00     0.059 A 
ATOM     87  C   UNL A   1      35.881  34.382  28.839  1.00  0.00     0.059 A 
ATOM     88  F   UNL A   1      38.108  33.956  28.233  1.00  0.00    -0.206 F 
ATOM     89  C   UNL A   1      34.796  34.119  29.674  1.00  0.00     0.060 A 
BRANCH  89  90
ATOM     90  S   UNL A   1      33.244  35.017  29.461  1.00  0.00     0.124 S 
ATOM     91  O   UNL A   1      33.721  36.337  29.066  1.00  0.00    -0.237 OA
ATOM     92  O   UNL A   1      32.579  34.240  28.420  1.00  0.00    -0.237 OA
ATOM     93  O   UNL A   1      32.628  34.936  30.783  1.00  0.00    -0.744 OA
ENDBRANCH  89  90
ENDBRANCH  57  82
BRANCH  69  94
ATOM     94  C   UNL A   1      42.976  34.313  33.687  1.00  0.00     0.058 A 
ATOM     95  C   UNL A   1      42.673  34.443  35.051  1.00  0.00     0.135 A 
ATOM     96  C   UNL A   1      43.730  35.330  33.081  1.00  0.00     0.135 A 
ATOM     97  F   UNL A   1      41.949  33.500  35.675  1.00  0.00    -0.206 F 
ATOM     98  C   UNL A   1      43.088  35.550  35.783  1.00  0.00     0.059 A 
ATOM     99  C   UNL A   1      44.175  36.435  33.800  1.00  0.00     0.059 A 
ATOM    100  F   UNL A   1      44.053  35.250  31.781  1.00  0.00    -0.206 F 
ATOM    101  C   UNL A   1      43.840  36.541  35.149  1.00  0.00     0.060 A 
BRANCH 101 102
ATOM    102  S   UNL A   1      44.406  37.955  36.119  1.00  0.00     0.124 S 
ATOM    103  O   UNL A   1      43.757  39.064  35.426  1.00  0.00    -0.237 OA
ATOM    104  O   UNL A   1      43.891  37.650  37.450  1.00  0.00    -0.237 OA
ATOM    105  O   UNL A   1      45.859  37.897  35.988  1.00  0.00    -0.744 OA
ENDBRANCH 101 102
ENDBRANCH  69  94
ENDBRANCH  43  44
ENDBRANCH  35  38
ENDBRANCH  33  34
ENDBRANCH   1  33
TORSDOF 17
ENDMDL
MODEL 2
REMARK VINA RESULT:     -10.3      4.150     11.366
REMARK SMILES CS(=O)(=O)c1ccc(C2=NN(c3ccc(C(=O)NCCCNC(=O)c4ccc(-c5c6nc(c(-c7c(F)cc(S(=O)(=O)[O-])cc7F)c7ccc([nH]7)c(-c7c(F)cc(S(=O)(=O)[O-])cc7F)c7nc(c(-c8c(F)cc(S(=O)(=O)[O-])cc8F)c8ccc5[nH]8)C=C7)C=C6)cc4)cc3)[C@H](c3cccs3)C2)cc1
REMARK SMILES IDX 20 1 19 2 18 3 16 4 17 5 15 7 12 8 13 9 92 10 14 11 91 12
REMARK SMILES IDX 11 13 9 14 10 15 99 16 93 17 8 18 5 19 6 20 101 21 7 22
REMARK SMILES IDX 100 23 2 24 1 25 3 26 4 27 94 28 95 29 98 30 96 31 97 32
REMARK SMILES IDX 21 33 22 34 23 35 24 37 25 38 26 39 90 40 27 41 89 42 28 43
REMARK SMILES IDX 29 44 30 45 83 46 31 47 88 48 82 49 84 50 32 51 87 52 81 53
REMARK SMILES IDX 80 54 33 56 67 57 46 58 66 59 47 60 50 61 65 62 85 63 48 64
REMARK SMILES IDX 49 65 64 67 86 68 51 69 34 70 35 71 44 72 36 73 37 74 43 75
REMARK SMILES IDX 45 76 38 77 39 78 40 79 41 80 42 81 68 82 69 83 78 84 70 85
REMARK SMILES IDX 71 86 77 87 79 88 72 89 73 90 74 91 75 92 76 93 52 94 53 95
REMARK SMILES IDX 62 96 54 97 55 98 61 99 63 100 56 101 57 102 58 103 59 104
REMARK SMILES IDX 60 105
REMARK H PARENT 18 6 22 36 84 55 50 66
REMARK Flexibility Score: inf
ROOT
ATOM      1  C   UNL A   1      35.920  32.918  29.380  1.00  0.00     0.042 C 
ENDROOT
BRANCH   1   2
ATOM      2  C   UNL A   1      35.463  34.061  30.287  1.00  0.00     0.118 C 
BRANCH   2   3
ATOM      3  N   UNL A   1      34.409  33.642  31.193  1.00  0.00    -0.352 N 
ATOM      4  C   UNL A   1      34.451  32.951  32.378  1.00  0.00     0.251 C 
ATOM      5  O   UNL A   1      33.411  32.849  33.029  1.00  0.00    -0.269 OA
ATOM      6  H   UNL A   1      33.503  33.899  30.907  1.00  0.00     0.163 HD
BRANCH   4   7
ATOM      7  C   UNL A   1      35.709  32.375  32.925  1.00  0.00     0.039 A 
ATOM      8  C   UNL A   1      38.110  31.402  34.042  1.00  0.00     0.060 A 
ATOM      9  C   UNL A   1      37.471  32.515  34.594  1.00  0.00     0.029 A 
ATOM     10  C   UNL A   1      37.505  30.752  32.965  1.00  0.00     0.029 A 
ATOM     11  C   UNL A   1      36.284  33.004  34.037  1.00  0.00     0.016 A 
ATOM     12  C   UNL A   1      36.304  31.217  32.426  1.00  0.00     0.016 A 
BRANCH   8  13
ATOM     13  N   UNL A   1      39.312  30.928  34.542  1.00  0.00    -0.257 N 
ATOM     14  C   UNL A   1      40.750  29.420  34.903  1.00  0.00     0.071 C 
ATOM     15  N   UNL A   1      39.842  29.784  34.056  1.00  0.00    -0.176 NA
ATOM     16  C   UNL A   1      40.857  30.242  36.158  1.00  0.00     0.091 C 
ATOM     17  C   UNL A   1      39.846  31.353  35.838  1.00  0.00     0.154 C 
BRANCH  14  18
ATOM     18  C   UNL A   1      41.645  28.288  34.647  1.00  0.00    -0.002 A 
ATOM     19  C   UNL A   1      43.316  26.109  34.249  1.00  0.00     0.067 A 
ATOM     20  C   UNL A   1      42.453  26.119  35.348  1.00  0.00     0.021 A 
ATOM     21  C   UNL A   1      43.350  27.186  33.352  1.00  0.00     0.021 A 
ATOM     22  C   UNL A   1      41.627  27.223  35.554  1.00  0.00     0.011 A 
ATOM     23  C   UNL A   1      42.500  28.278  33.544  1.00  0.00     0.011 A 
BRANCH  19  24
ATOM     24  S   UNL A   1      44.398  24.725  33.974  1.00  0.00     0.175 S 
ATOM     25  C   UNL A   1      44.549  24.569  32.214  1.00  0.00     0.163 C 
ATOM     26  O   UNL A   1      43.709  23.542  34.449  1.00  0.00    -0.224 OA
ATOM     27  O   UNL A   1      45.693  25.102  34.513  1.00  0.00    -0.224 OA
ENDBRANCH  19  24
ENDBRANCH  14  18
BRANCH  17  28
ATOM     28  C   UNL A   1      40.373  32.776  35.877  1.00  0.00     0.030 A 
ATOM     29  C   UNL A   1      41.035  33.432  34.850  1.00  0.00     0.017 A 
ATOM     30  S   UNL A   1      40.311  33.763  37.279  1.00  0.00    -0.147 S 
ATOM     31  C   UNL A   1      41.475  34.736  35.213  1.00  0.00     0.012 A 
ATOM     32  C   UNL A   1      41.123  35.051  36.506  1.00  0.00     0.065 A 
ENDBRANCH  17  28
ENDBRANCH   8  13
ENDBRANCH   4   7
ENDBRANCH   2   3
ENDBRANCH   1   2
BRANCH   1  33
ATOM     33  C   UNL A   1      35.158  32.840  28.061  1.00  0.00     0.118 C 
BRANCH  33  34
ATOM     34  N   UNL A   1      34.306  31.663  27.988  1.00  0.00    -0.352 N 
ATOM     35  C   UNL A   1      34.650  30.334  27.942  1.00  0.00     0.251 C 
ATOM     36  H   UNL A   1      33.338  31.847  27.970  1.00  0.00     0.163 HD
ATOM     37  O   UNL A   1      33.790  29.500  27.674  1.00  0.00    -0.269 OA
BRANCH  35  38
ATOM     38  C   UNL A   1      36.045  29.907  28.197  1.00  0.00     0.039 A 
ATOM     39  C   UNL A   1      36.981  30.009  27.163  1.00  0.00     0.014 A 
ATOM     40  C   UNL A   1      36.427  29.377  29.433  1.00  0.00     0.014 A 
ATOM     41  C   UNL A   1      38.308  29.633  27.385  1.00  0.00     0.010 A 
ATOM     42  C   UNL A   1      37.763  29.065  29.673  1.00  0.00     0.010 A 
ATOM     43  C   UNL A   1      38.716  29.186  28.651  1.00  0.00    -0.014 A 
BRANCH  43  44
ATOM     44  C   UNL A   1      40.133  28.834  28.930  1.00  0.00     0.031 A 
ATOM     45  C   UNL A   1      41.070  29.871  29.488  1.00  0.00     0.074 A 
ATOM     46  C   UNL A   1      40.591  27.608  28.611  1.00  0.00     0.049 A 
ATOM     47  N   UNL A   1      42.359  29.794  29.696  1.00  0.00    -0.248 NA
ATOM     48  C   UNL A   1      40.483  31.176  29.833  1.00  0.00     0.031 C 
ATOM     49  C   UNL A   1      39.789  26.529  28.030  1.00  0.00     0.029 A 
ATOM     50  N   UNL A   1      41.848  27.067  28.715  1.00  0.00    -0.354 N 
ATOM     51  C   UNL A   1      42.742  31.041  30.175  1.00  0.00     0.074 A 
ATOM     52  C   UNL A   1      41.556  31.869  30.187  1.00  0.00     0.031 C 
ATOM     53  C   UNL A   1      40.570  25.454  27.841  1.00  0.00     0.029 A 
ATOM     54  C   UNL A   1      41.934  25.776  28.250  1.00  0.00     0.049 A 
ATOM     55  H   UNL A   1      42.616  27.557  29.087  1.00  0.00     0.167 HD
ATOM     56  C   UNL A   1      43.966  31.452  30.586  1.00  0.00     0.037 A 
ATOM     57  C   UNL A   1      42.993  24.949  28.154  1.00  0.00     0.037 A 
ATOM     58  C   UNL A   1      45.137  30.613  30.596  1.00  0.00     0.049 A 
ATOM     59  C   UNL A   1      44.341  25.426  28.619  1.00  0.00     0.074 A 
ATOM     60  C   UNL A   1      46.412  30.920  31.038  1.00  0.00     0.029 A 
ATOM     61  N   UNL A   1      45.175  29.302  30.146  1.00  0.00    -0.354 N 
ATOM     62  N   UNL A   1      44.677  26.595  29.110  1.00  0.00    -0.248 NA
ATOM     63  C   UNL A   1      45.454  24.472  28.519  1.00  0.00     0.031 C 
ATOM     64  C   UNL A   1      47.230  29.805  30.825  1.00  0.00     0.029 A 
ATOM     65  C   UNL A   1      46.454  28.789  30.288  1.00  0.00     0.049 A 
ATOM     66  H   UNL A   1      44.406  28.808  29.779  1.00  0.00     0.167 HD
ATOM     67  C   UNL A   1      46.032  26.507  29.406  1.00  0.00     0.074 A 
ATOM     68  C   UNL A   1      46.453  25.170  29.043  1.00  0.00     0.031 C 
ATOM     69  C   UNL A   1      46.853  27.450  29.932  1.00  0.00     0.037 A 
BRANCH  56  70
ATOM     70  C   UNL A   1      44.098  32.873  31.059  1.00  0.00     0.058 A 
ATOM     71  C   UNL A   1      44.348  33.927  30.166  1.00  0.00     0.135 A 
ATOM     72  C   UNL A   1      43.951  33.192  32.420  1.00  0.00     0.135 A 
ATOM     73  F   UNL A   1      44.512  33.678  28.857  1.00  0.00    -0.206 F 
ATOM     74  C   UNL A   1      44.484  35.239  30.606  1.00  0.00     0.059 A 
ATOM     75  C   UNL A   1      44.055  34.501  32.879  1.00  0.00     0.059 A 
ATOM     76  F   UNL A   1      43.709  32.224  33.318  1.00  0.00    -0.206 F 
ATOM     77  C   UNL A   1      44.340  35.517  31.967  1.00  0.00     0.060 A 
BRANCH  77  78
ATOM     78  S   UNL A   1      44.526  37.223  32.524  1.00  0.00     0.124 S 
ATOM     79  O   UNL A   1      44.005  37.142  33.885  1.00  0.00    -0.237 OA
ATOM     80  O   UNL A   1      45.965  37.436  32.409  1.00  0.00    -0.237 OA
ATOM     81  O   UNL A   1      43.708  37.980  31.583  1.00  0.00    -0.744 OA
ENDBRANCH  77  78
ENDBRANCH  56  70
BRANCH  57  82
ATOM     82  C   UNL A   1      42.812  23.575  27.614  1.00  0.00     0.058 A 
ATOM     83  C   UNL A   1      42.951  23.320  26.242  1.00  0.00     0.135 A 
ATOM     84  C   UNL A   1      42.522  22.491  28.455  1.00  0.00     0.135 A 
ATOM     85  F   UNL A   1      43.222  24.327  25.397  1.00  0.00    -0.206 F 
ATOM     86  C   UNL A   1      42.798  22.041  25.720  1.00  0.00     0.059 A 
ATOM     87  C   UNL A   1      42.387  21.197  27.959  1.00  0.00     0.059 A 
ATOM     88  F   UNL A   1      42.396  22.681  29.778  1.00  0.00    -0.206 F 
ATOM     89  C   UNL A   1      42.519  20.984  26.588  1.00  0.00     0.060 A 
BRANCH  89  90
ATOM     90  S   UNL A   1      42.380  19.316  25.908  1.00  0.00     0.124 S 
ATOM     91  O   UNL A   1      43.202  19.420  24.708  1.00  0.00    -0.237 OA
ATOM     92  O   UNL A   1      42.925  18.498  26.986  1.00  0.00    -0.237 OA
ATOM     93  O   UNL A   1      40.945  19.167  25.681  1.00  0.00    -0.744 OA
ENDBRANCH  89  90
ENDBRANCH  57  82
BRANCH  69  94
ATOM     94  C   UNL A   1      48.281  27.058  30.186  1.00  0.00     0.058 A 
ATOM     95  C   UNL A   1      49.310  27.400  29.295  1.00  0.00     0.135 A 
ATOM     96  C   UNL A   1      48.631  26.378  31.364  1.00  0.00     0.135 A 
ATOM     97  F   UNL A   1      49.026  28.044  28.151  1.00  0.00    -0.206 F 
ATOM     98  C   UNL A   1      50.634  27.065  29.554  1.00  0.00     0.059 A 
ATOM     99  C   UNL A   1      49.952  26.054  31.655  1.00  0.00     0.059 A 
ATOM    100  F   UNL A   1      47.685  26.035  32.253  1.00  0.00    -0.206 F 
ATOM    101  C   UNL A   1      50.946  26.393  30.737  1.00  0.00     0.060 A 
BRANCH 101 102
ATOM    102  S   UNL A   1      52.674  25.997  31.082  1.00  0.00     0.124 S 
ATOM    103  O   UNL A   1      53.075  27.130  31.909  1.00  0.00    -0.237 OA
ATOM    104  O   UNL A   1      52.571  24.714  31.770  1.00  0.00    -0.237 OA
ATOM    105  O   UNL A   1      53.280  25.941  29.755  1.00  0.00    -0.744 OA
ENDBRANCH 101 102
ENDBRANCH  69  94
ENDBRANCH  43  44
ENDBRANCH  35  38
ENDBRANCH  33  34
ENDBRANCH   1  33
TORSDOF 17
ENDMDL
MODEL 3
REMARK VINA RESULT:     -10.3      2.251      3.943
REMARK SMILES CS(=O)(=O)c1ccc(C2=NN(c3ccc(C(=O)NCCCNC(=O)c4ccc(-c5c6nc(c(-c7c(F)cc(S(=O)(=O)[O-])cc7F)c7ccc([nH]7)c(-c7c(F)cc(S(=O)(=O)[O-])cc7F)c7nc(c(-c8c(F)cc(S(=O)(=O)[O-])cc8F)c8ccc5[nH]8)C=C7)C=C6)cc4)cc3)[C@H](c3cccs3)C2)cc1
REMARK SMILES IDX 20 1 19 2 18 3 16 4 17 5 15 7 12 8 13 9 92 10 14 11 91 12
REMARK SMILES IDX 11 13 9 14 10 15 99 16 93 17 8 18 5 19 6 20 101 21 7 22
REMARK SMILES IDX 100 23 2 24 1 25 3 26 4 27 94 28 95 29 98 30 96 31 97 32
REMARK SMILES IDX 21 33 22 34 23 35 24 37 25 38 26 39 90 40 27 41 89 42 28 43
REMARK SMILES IDX 29 44 30 45 83 46 31 47 88 48 82 49 84 50 32 51 87 52 81 53
REMARK SMILES IDX 80 54 33 56 67 57 46 58 66 59 47 60 50 61 65 62 85 63 48 64
REMARK SMILES IDX 49 65 64 67 86 68 51 69 34 70 35 71 44 72 36 73 37 74 43 75
REMARK SMILES IDX 45 76 38 77 39 78 40 79 41 80 42 81 68 82 69 83 78 84 70 85
REMARK SMILES IDX 71 86 77 87 79 88 72 89 73 90 74 91 75 92 76 93 52 94 53 95
REMARK SMILES IDX 62 96 54 97 55 98 61 99 63 100 56 101 57 102 58 103 59 104
REMARK SMILES IDX 60 105
REMARK H PARENT 18 6 22 36 84 55 50 66
REMARK Flexibility Score: inf
ROOT
ATOM      1  C   UNL A   1      41.755  20.722  26.458  1.00  0.00     0.042 C 
ENDROOT
BRANCH   1   2
ATOM      2  C   UNL A   1      42.702  21.366  25.446  1.00  0.00     0.118 C 
BRANCH   2   3
ATOM      3  N   UNL A   1      43.856  20.527  25.178  1.00  0.00    -0.352 N 
ATOM      4  C   UNL A   1      45.198  20.812  25.144  1.00  0.00     0.251 C 
ATOM      5  O   UNL A   1      45.989  19.876  25.031  1.00  0.00    -0.269 OA
ATOM      6  H   UNL A   1      43.638  19.586  24.986  1.00  0.00     0.163 HD
BRANCH   4   7
ATOM      7  C   UNL A   1      45.727  22.194  25.294  1.00  0.00     0.039 A 
ATOM      8  C   UNL A   1      46.669  24.821  25.710  1.00  0.00     0.060 A 
ATOM      9  C   UNL A   1      46.150  24.077  26.773  1.00  0.00     0.029 A 
ATOM     10  C   UNL A   1      46.762  24.216  24.455  1.00  0.00     0.029 A 
ATOM     11  C   UNL A   1      45.675  22.777  26.567  1.00  0.00     0.016 A 
ATOM     12  C   UNL A   1      46.319  22.908  24.253  1.00  0.00     0.016 A 
BRANCH   8  13
ATOM     13  N   UNL A   1      47.099  26.128  25.875  1.00  0.00    -0.257 N 
ATOM     14  C   UNL A   1      46.794  28.210  26.081  1.00  0.00     0.071 C 
ATOM     15  N   UNL A   1      46.245  27.067  26.338  1.00  0.00    -0.176 NA
ATOM     16  C   UNL A   1      48.067  28.173  25.281  1.00  0.00     0.091 C 
ATOM     17  C   UNL A   1      48.288  26.655  25.201  1.00  0.00     0.154 C 
BRANCH  14  18
ATOM     18  C   UNL A   1      46.225  29.472  26.561  1.00  0.00    -0.002 A 
ATOM     19  C   UNL A   1      45.059  31.817  27.478  1.00  0.00     0.067 A 
ATOM     20  C   UNL A   1      44.335  30.624  27.535  1.00  0.00     0.021 A 
ATOM     21  C   UNL A   1      46.362  31.843  26.961  1.00  0.00     0.021 A 
ATOM     22  C   UNL A   1      44.916  29.451  27.057  1.00  0.00     0.011 A 
ATOM     23  C   UNL A   1      46.954  30.660  26.511  1.00  0.00     0.011 A 
BRANCH  19  24
ATOM     24  S   UNL A   1      44.334  33.334  28.058  1.00  0.00     0.175 S 
ATOM     25  C   UNL A   1      43.739  34.172  26.613  1.00  0.00     0.163 C 
ATOM     26  O   UNL A   1      45.407  34.139  28.606  1.00  0.00    -0.224 OA
ATOM     27  O   UNL A   1      43.192  32.958  28.872  1.00  0.00    -0.224 OA
ENDBRANCH  19  24
ENDBRANCH  14  18
BRANCH  17  28
ATOM     28  C   UNL A   1      49.610  26.136  25.738  1.00  0.00     0.030 A 
ATOM     29  C   UNL A   1      49.808  25.508  26.958  1.00  0.00     0.017 A 
ATOM     30  S   UNL A   1      51.105  26.356  24.924  1.00  0.00    -0.147 S 
ATOM     31  C   UNL A   1      51.175  25.203  27.213  1.00  0.00     0.012 A 
ATOM     32  C   UNL A   1      51.986  25.592  26.172  1.00  0.00     0.065 A 
ENDBRANCH  17  28
ENDBRANCH   8  13
ENDBRANCH   4   7
ENDBRANCH   2   3
ENDBRANCH   1   2
BRANCH   1  33
ATOM     33  C   UNL A   1      40.775  21.704  27.092  1.00  0.00     0.118 C 
BRANCH  33  34
ATOM     34  N   UNL A   1      39.636  21.976  26.230  1.00  0.00    -0.352 N 
ATOM     35  C   UNL A   1      38.866  23.109  26.128  1.00  0.00     0.251 C 
ATOM     36  H   UNL A   1      39.378  21.239  25.630  1.00  0.00     0.163 HD
ATOM     37  O   UNL A   1      37.819  23.069  25.487  1.00  0.00    -0.269 OA
BRANCH  35  38
ATOM     38  C   UNL A   1      39.280  24.365  26.794  1.00  0.00     0.039 A 
ATOM     39  C   UNL A   1      38.881  24.590  28.116  1.00  0.00     0.014 A 
ATOM     40  C   UNL A   1      40.026  25.334  26.117  1.00  0.00     0.014 A 
ATOM     41  C   UNL A   1      39.278  25.757  28.773  1.00  0.00     0.010 A 
ATOM     42  C   UNL A   1      40.475  26.465  26.794  1.00  0.00     0.010 A 
ATOM     43  C   UNL A   1      40.103  26.691  28.128  1.00  0.00    -0.014 A 
BRANCH  43  44
ATOM     44  C   UNL A   1      40.586  27.912  28.823  1.00  0.00     0.031 A 
ATOM     45  C   UNL A   1      41.975  27.950  29.401  1.00  0.00     0.074 A 
ATOM     46  C   UNL A   1      39.750  28.954  29.000  1.00  0.00     0.049 A 
ATOM     47  N   UNL A   1      42.541  28.874  30.133  1.00  0.00    -0.248 NA
ATOM     48  C   UNL A   1      42.832  26.782  29.140  1.00  0.00     0.031 C 
ATOM     49  C   UNL A   1      38.368  29.021  28.519  1.00  0.00     0.029 A 
ATOM     50  N   UNL A   1      39.935  30.150  29.647  1.00  0.00    -0.354 N 
ATOM     51  C   UNL A   1      43.809  28.393  30.439  1.00  0.00     0.074 A 
ATOM     52  C   UNL A   1      43.913  27.077  29.848  1.00  0.00     0.031 C 
ATOM     53  C   UNL A   1      37.835  30.200  28.876  1.00  0.00     0.029 A 
ATOM     54  C   UNL A   1      38.821  30.957  29.643  1.00  0.00     0.049 A 
ATOM     55  H   UNL A   1      40.784  30.406  30.073  1.00  0.00     0.167 HD
ATOM     56  C   UNL A   1      44.800  29.001  31.133  1.00  0.00     0.037 A 
ATOM     57  C   UNL A   1      38.614  32.165  30.202  1.00  0.00     0.037 A 
ATOM     58  C   UNL A   1      44.699  30.323  31.697  1.00  0.00     0.049 A 
ATOM     59  C   UNL A   1      39.731  32.821  30.966  1.00  0.00     0.074 A 
ATOM     60  C   UNL A   1      45.663  31.046  32.375  1.00  0.00     0.029 A 
ATOM     61  N   UNL A   1      43.564  31.119  31.645  1.00  0.00    -0.354 N 
ATOM     62  N   UNL A   1      40.939  32.371  31.208  1.00  0.00    -0.248 NA
ATOM     63  C   UNL A   1      39.460  34.151  31.529  1.00  0.00     0.031 C 
ATOM     64  C   UNL A   1      45.102  32.268  32.762  1.00  0.00     0.029 A 
ATOM     65  C   UNL A   1      43.800  32.323  32.289  1.00  0.00     0.049 A 
ATOM     66  H   UNL A   1      42.716  30.867  31.214  1.00  0.00     0.167 HD
ATOM     67  C   UNL A   1      41.581  33.373  31.926  1.00  0.00     0.074 A 
ATOM     68  C   UNL A   1      40.630  34.455  32.074  1.00  0.00     0.031 C 
ATOM     69  C   UNL A   1      42.845  33.395  32.417  1.00  0.00     0.037 A 
BRANCH  56  70
ATOM     70  C   UNL A   1      46.084  28.239  31.319  1.00  0.00     0.058 A 
ATOM     71  C   UNL A   1      47.208  28.482  30.513  1.00  0.00     0.135 A 
ATOM     72  C   UNL A   1      46.202  27.271  32.331  1.00  0.00     0.135 A 
ATOM     73  F   UNL A   1      47.145  29.386  29.523  1.00  0.00    -0.206 F 
ATOM     74  C   UNL A   1      48.390  27.768  30.677  1.00  0.00     0.059 A 
ATOM     75  C   UNL A   1      47.385  26.564  32.530  1.00  0.00     0.059 A 
ATOM     76  F   UNL A   1      45.161  26.999  33.132  1.00  0.00    -0.206 F 
ATOM     77  C   UNL A   1      48.468  26.807  31.686  1.00  0.00     0.060 A 
BRANCH  77  78
ATOM     78  S   UNL A   1      50.006  25.883  31.882  1.00  0.00     0.124 S 
ATOM     79  O   UNL A   1      49.717  25.087  33.070  1.00  0.00    -0.237 OA
ATOM     80  O   UNL A   1      50.089  25.141  30.628  1.00  0.00    -0.237 OA
ATOM     81  O   UNL A   1      51.010  26.928  32.055  1.00  0.00    -0.744 OA
ENDBRANCH  77  78
ENDBRANCH  56  70
BRANCH  57  82
ATOM     82  C   UNL A   1      37.299  32.839  30.040  1.00  0.00     0.058 A 
ATOM     83  C   UNL A   1      36.290  32.684  31.002  1.00  0.00     0.135 A 
ATOM     84  C   UNL A   1      37.032  33.667  28.940  1.00  0.00     0.135 A 
ATOM     85  F   UNL A   1      36.497  31.897  32.069  1.00  0.00    -0.206 F 
ATOM     86  C   UNL A   1      35.058  33.316  30.875  1.00  0.00     0.059 A 
ATOM     87  C   UNL A   1      35.815  34.329  28.802  1.00  0.00     0.059 A 
ATOM     88  F   UNL A   1      37.971  33.861  28.001  1.00  0.00    -0.206 F 
ATOM     89  C   UNL A   1      34.831  34.141  29.771  1.00  0.00     0.060 A 
BRANCH  89  90
ATOM     90  S   UNL A   1      33.250  35.004  29.644  1.00  0.00     0.124 S 
ATOM     91  O   UNL A   1      33.671  36.320  29.178  1.00  0.00    -0.237 OA
ATOM     92  O   UNL A   1      32.528  34.184  28.677  1.00  0.00    -0.237 OA
ATOM     93  O   UNL A   1      32.731  34.953  31.008  1.00  0.00    -0.744 OA
ENDBRANCH  89  90
ENDBRANCH  57  82
BRANCH  69  94
ATOM     94  C   UNL A   1      43.289  34.643  33.125  1.00  0.00     0.058 A 
ATOM     95  C   UNL A   1      43.938  35.686  32.446  1.00  0.00     0.135 A 
ATOM     96  C   UNL A   1      43.013  34.820  34.491  1.00  0.00     0.135 A 
ATOM     97  F   UNL A   1      44.231  35.562  31.141  1.00  0.00    -0.206 F 
ATOM     98  C   UNL A   1      44.315  36.853  33.100  1.00  0.00     0.059 A 
ATOM     99  C   UNL A   1      43.359  35.990  35.160  1.00  0.00     0.059 A 
ATOM    100  F   UNL A   1      42.387  33.857  35.185  1.00  0.00    -0.206 F 
ATOM    101  C   UNL A   1      44.020  36.997  34.457  1.00  0.00     0.060 A 
BRANCH 101 102
ATOM    102  S   UNL A   1      44.479  38.534  35.287  1.00  0.00     0.124 S 
ATOM    103  O   UNL A   1      44.143  38.229  36.674  1.00  0.00    -0.237 OA
ATOM    104  O   UNL A   1      45.904  38.639  34.988  1.00  0.00    -0.237 OA
ATOM    105  O   UNL A   1      43.634  39.534  34.641  1.00  0.00    -0.744 OA
ENDBRANCH 101 102
ENDBRANCH  69  94
ENDBRANCH  43  44
ENDBRANCH  35  38
ENDBRANCH  33  34
ENDBRANCH   1  33
TORSDOF 17
ENDMDL
