MODEL 1
REMARK VINA RESULT:     -12.7      0.000      0.000
REMARK SMILES CC(C)n1ccc(C[C@@H](C(=O)NCCCNC(=O)c2ccc(-c3c4nc(c(-c5c(F)cc(S(=O)(=O)[O-])cc5F)c5ccc([nH]5)c(-c5c(F)cc(S(=O)(=O)[O-])cc5F)c5nc(c(-c6c(F)cc(S(=O)(=O)[O-])cc6F)c6ccc3[nH]6)C=C5)C=C4)cc2)c2cccc(Cl)c2)n1
REMARK SMILES IDX 14 1 13 2 12 3 10 4 11 5 9 7 8 8 7 9 4 10 5 11 92 12 6 13
REMARK SMILES IDX 2 14 1 15 3 16 85 17 86 18 91 19 87 20 89 21 88 22 90 23
REMARK SMILES IDX 15 24 16 25 17 26 18 28 19 29 20 30 84 31 21 32 83 33 22 34
REMARK SMILES IDX 23 35 24 36 77 37 25 38 82 39 76 40 78 41 26 42 81 43 75 44
REMARK SMILES IDX 74 45 27 47 61 48 40 49 60 50 41 51 44 52 59 53 79 54 42 55
REMARK SMILES IDX 43 56 58 58 80 59 45 60 28 61 29 62 38 63 30 64 31 65 37 66
REMARK SMILES IDX 39 67 32 68 33 69 34 70 35 71 36 72 62 73 63 74 72 75 64 76
REMARK SMILES IDX 65 77 71 78 73 79 66 80 67 81 68 82 69 83 70 84 46 85 47 86
REMARK SMILES IDX 56 87 48 88 49 89 55 90 57 91 50 92 51 93 52 94 53 95 54 96
REMARK H PARENT 12 6 16 27 78 46 44 57
REMARK Flexibility Score: inf
ROOT
ATOM      1  C   UNL A   1      38.545  21.648  25.678  1.00  0.00     0.042 C 
ENDROOT
BRANCH   1   2
ATOM      2  C   UNL A   1      37.468  22.715  25.754  1.00  0.00     0.117 C 
BRANCH   2   3
ATOM      3  N   UNL A   1      37.248  23.298  24.438  1.00  0.00    -0.355 N 
ATOM      4  C   UNL A   1      36.104  23.190  23.690  1.00  0.00     0.227 C 
ATOM      5  O   UNL A   1      36.246  23.034  22.475  1.00  0.00    -0.274 OA
ATOM      6  H   UNL A   1      37.988  23.818  24.051  1.00  0.00     0.163 HD
BRANCH   4   7
ATOM      7  C   UNL A   1      34.723  23.323  24.354  1.00  0.00     0.114 C 
BRANCH   7   8
ATOM      8  C   UNL A   1      33.681  22.411  23.666  1.00  0.00     0.076 C 
BRANCH   8   9
ATOM      9  C   UNL A   1      33.332  21.110  24.320  1.00  0.00     0.064 A 
ATOM     10  N   UNL A   1      32.934  19.033  24.597  1.00  0.00    -0.270 N 
ATOM     11  C   UNL A   1      32.920  19.568  25.858  1.00  0.00     0.109 A 
ATOM     12  N   UNL A   1      33.197  19.958  23.634  1.00  0.00    -0.178 NA
ATOM     13  C   UNL A   1      33.182  20.907  25.714  1.00  0.00     0.045 A 
BRANCH  10  14
ATOM     14  C   UNL A   1      32.763  17.613  24.294  1.00  0.00     0.101 C 
ATOM     15  C   UNL A   1      33.741  17.052  23.262  1.00  0.00     0.033 C 
ATOM     16  C   UNL A   1      32.787  16.773  25.566  1.00  0.00     0.033 C 
ENDBRANCH  10  14
ENDBRANCH   8   9
ENDBRANCH   7   8
BRANCH   7  17
ATOM     17  C   UNL A   1      34.168  24.775  24.311  1.00  0.00    -0.034 A 
ATOM     18  C   UNL A   1      33.744  25.300  23.073  1.00  0.00     0.004 A 
ATOM     19  C   UNL A   1      34.157  25.644  25.418  1.00  0.00     0.025 A 
ATOM     20  C   UNL A   1      33.406  26.649  22.930  1.00  0.00     0.002 A 
ATOM     21  C   UNL A   1      33.805  26.991  25.274  1.00  0.00     0.041 A 
ATOM     22  C   UNL A   1      33.449  27.500  24.031  1.00  0.00     0.020 A 
ATOM     23  Cl  UNL A   1      33.837  28.040  26.638  1.00  0.00    -0.084 Cl
ENDBRANCH   7  17
ENDBRANCH   4   7
ENDBRANCH   2   3
ENDBRANCH   1   2
BRANCH   1  24
ATOM     24  C   UNL A   1      39.715  21.824  26.606  1.00  0.00     0.118 C 
BRANCH  24  25
ATOM     25  N   UNL A   1      41.008  22.046  25.967  1.00  0.00    -0.352 N 
ATOM     26  C   UNL A   1      41.801  23.195  25.973  1.00  0.00     0.251 C 
ATOM     27  H   UNL A   1      41.371  21.281  25.465  1.00  0.00     0.163 HD
ATOM     28  O   UNL A   1      42.800  23.246  25.281  1.00  0.00    -0.269 OA
BRANCH  26  29
ATOM     29  C   UNL A   1      41.404  24.361  26.808  1.00  0.00     0.039 A 
ATOM     30  C   UNL A   1      40.266  25.144  26.592  1.00  0.00     0.014 A 
ATOM     31  C   UNL A   1      42.273  24.783  27.791  1.00  0.00     0.014 A 
ATOM     32  C   UNL A   1      40.142  26.341  27.314  1.00  0.00     0.010 A 
ATOM     33  C   UNL A   1      41.827  25.549  28.808  1.00  0.00     0.010 A 
ATOM     34  C   UNL A   1      41.034  26.570  28.363  1.00  0.00    -0.014 A 
BRANCH  34  35
ATOM     35  C   UNL A   1      41.205  27.782  29.133  1.00  0.00     0.031 A 
ATOM     36  C   UNL A   1      42.244  28.686  28.602  1.00  0.00     0.074 A 
ATOM     37  C   UNL A   1      40.239  28.223  29.972  1.00  0.00     0.049 A 
ATOM     38  N   UNL A   1      43.428  28.882  29.072  1.00  0.00    -0.248 NA
ATOM     39  C   UNL A   1      42.022  29.283  27.274  1.00  0.00     0.031 C 
ATOM     40  C   UNL A   1      38.912  27.659  30.260  1.00  0.00     0.029 A 
ATOM     41  N   UNL A   1      40.228  29.370  30.696  1.00  0.00    -0.354 N 
ATOM     42  C   UNL A   1      44.011  29.811  28.219  1.00  0.00     0.074 A 
ATOM     43  C   UNL A   1      43.228  29.788  27.014  1.00  0.00     0.031 C 
ATOM     44  C   UNL A   1      38.168  28.562  30.942  1.00  0.00     0.029 A 
ATOM     45  C   UNL A   1      39.007  29.698  31.273  1.00  0.00     0.049 A 
ATOM     46  H   UNL A   1      41.030  29.932  30.806  1.00  0.00     0.167 HD
ATOM     47  C   UNL A   1      44.927  30.714  28.664  1.00  0.00     0.037 A 
ATOM     48  C   UNL A   1      38.728  30.849  31.939  1.00  0.00     0.037 A 
ATOM     49  C   UNL A   1      45.343  30.396  30.011  1.00  0.00     0.049 A 
ATOM     50  C   UNL A   1      40.040  31.451  32.316  1.00  0.00     0.074 A 
ATOM     51  C   UNL A   1      45.965  29.310  30.597  1.00  0.00     0.029 A 
ATOM     52  N   UNL A   1      44.731  31.076  31.041  1.00  0.00    -0.354 N 
ATOM     53  N   UNL A   1      40.883  30.899  33.148  1.00  0.00    -0.248 NA
ATOM     54  C   UNL A   1      40.625  32.415  31.394  1.00  0.00     0.031 C 
ATOM     55  C   UNL A   1      45.302  29.133  31.848  1.00  0.00     0.029 A 
ATOM     56  C   UNL A   1      44.363  30.156  31.994  1.00  0.00     0.049 A 
ATOM     57  H   UNL A   1      44.584  32.049  31.086  1.00  0.00     0.167 HD
ATOM     58  C   UNL A   1      42.141  31.126  32.601  1.00  0.00     0.074 A 
ATOM     59  C   UNL A   1      41.922  32.134  31.564  1.00  0.00     0.031 C 
ATOM     60  C   UNL A   1      43.186  30.273  32.834  1.00  0.00     0.037 A 
BRANCH  47  61
ATOM     61  C   UNL A   1      45.197  32.058  28.030  1.00  0.00     0.058 A 
ATOM     62  C   UNL A   1      46.478  32.320  27.504  1.00  0.00     0.135 A 
ATOM     63  C   UNL A   1      44.336  33.176  28.111  1.00  0.00     0.135 A 
ATOM     64  F   UNL A   1      47.381  31.334  27.381  1.00  0.00    -0.206 F 
ATOM     65  C   UNL A   1      46.894  33.603  27.152  1.00  0.00     0.059 A 
ATOM     66  C   UNL A   1      44.709  34.453  27.706  1.00  0.00     0.059 A 
ATOM     67  F   UNL A   1      43.126  33.117  28.678  1.00  0.00    -0.206 F 
ATOM     68  C   UNL A   1      46.005  34.667  27.271  1.00  0.00     0.060 A 
BRANCH  68  69
ATOM     69  S   UNL A   1      46.571  36.340  26.929  1.00  0.00     0.124 S 
ATOM     70  O   UNL A   1      47.320  36.144  25.693  1.00  0.00    -0.237 OA
ATOM     71  O   UNL A   1      45.312  37.068  26.807  1.00  0.00    -0.237 OA
ATOM     72  O   UNL A   1      47.369  36.672  28.106  1.00  0.00    -0.744 OA
ENDBRANCH  68  69
ENDBRANCH  47  61
BRANCH  48  73
ATOM     73  C   UNL A   1      37.452  31.613  31.957  1.00  0.00     0.058 A 
ATOM     74  C   UNL A   1      36.808  31.943  33.163  1.00  0.00     0.135 A 
ATOM     75  C   UNL A   1      36.982  32.277  30.804  1.00  0.00     0.135 A 
ATOM     76  F   UNL A   1      37.205  31.378  34.313  1.00  0.00    -0.206 F 
ATOM     77  C   UNL A   1      35.791  32.903  33.230  1.00  0.00     0.059 A 
ATOM     78  C   UNL A   1      35.967  33.233  30.844  1.00  0.00     0.059 A 
ATOM     79  F   UNL A   1      37.566  32.078  29.613  1.00  0.00    -0.206 F 
ATOM     80  C   UNL A   1      35.390  33.559  32.066  1.00  0.00     0.060 A 
BRANCH  80  81
ATOM     81  S   UNL A   1      34.200  34.919  32.176  1.00  0.00     0.124 S 
ATOM     82  O   UNL A   1      34.927  35.891  32.984  1.00  0.00    -0.237 OA
ATOM     83  O   UNL A   1      34.005  35.273  30.774  1.00  0.00    -0.237 OA
ATOM     84  O   UNL A   1      33.043  34.307  32.826  1.00  0.00    -0.744 OA
ENDBRANCH  80  81
ENDBRANCH  48  73
BRANCH  60  85
ATOM     85  C   UNL A   1      43.014  29.217  33.907  1.00  0.00     0.058 A 
ATOM     86  C   UNL A   1      43.183  29.448  35.285  1.00  0.00     0.135 A 
ATOM     87  C   UNL A   1      42.496  27.966  33.539  1.00  0.00     0.135 A 
ATOM     88  F   UNL A   1      43.572  30.644  35.739  1.00  0.00    -0.206 F 
ATOM     89  C   UNL A   1      42.893  28.476  36.245  1.00  0.00     0.059 A 
ATOM     90  C   UNL A   1      42.168  26.992  34.481  1.00  0.00     0.059 A 
ATOM     91  F   UNL A   1      42.246  27.697  32.246  1.00  0.00    -0.206 F 
ATOM     92  C   UNL A   1      42.382  27.248  35.834  1.00  0.00     0.060 A 
BRANCH  92  93
ATOM     93  S   UNL A   1      41.927  26.022  37.080  1.00  0.00     0.124 S 
ATOM     94  O   UNL A   1      42.886  26.298  38.145  1.00  0.00    -0.237 OA
ATOM     95  O   UNL A   1      40.538  26.366  37.375  1.00  0.00    -0.237 OA
ATOM     96  O   UNL A   1      42.110  24.749  36.390  1.00  0.00    -0.744 OA
ENDBRANCH  92  93
ENDBRANCH  60  85
ENDBRANCH  34  35
ENDBRANCH  26  29
ENDBRANCH  24  25
ENDBRANCH   1  24
TORSDOF 17
ENDMDL
MODEL 2
REMARK VINA RESULT:     -12.5      3.574     10.007
REMARK SMILES CC(C)n1ccc(C[C@@H](C(=O)NCCCNC(=O)c2ccc(-c3c4nc(c(-c5c(F)cc(S(=O)(=O)[O-])cc5F)c5ccc([nH]5)c(-c5c(F)cc(S(=O)(=O)[O-])cc5F)c5nc(c(-c6c(F)cc(S(=O)(=O)[O-])cc6F)c6ccc3[nH]6)C=C5)C=C4)cc2)c2cccc(Cl)c2)n1
REMARK SMILES IDX 14 1 13 2 12 3 10 4 11 5 9 7 8 8 7 9 4 10 5 11 92 12 6 13
REMARK SMILES IDX 2 14 1 15 3 16 85 17 86 18 91 19 87 20 89 21 88 22 90 23
REMARK SMILES IDX 15 24 16 25 17 26 18 28 19 29 20 30 84 31 21 32 83 33 22 34
REMARK SMILES IDX 23 35 24 36 77 37 25 38 82 39 76 40 78 41 26 42 81 43 75 44
REMARK SMILES IDX 74 45 27 47 61 48 40 49 60 50 41 51 44 52 59 53 79 54 42 55
REMARK SMILES IDX 43 56 58 58 80 59 45 60 28 61 29 62 38 63 30 64 31 65 37 66
REMARK SMILES IDX 39 67 32 68 33 69 34 70 35 71 36 72 62 73 63 74 72 75 64 76
REMARK SMILES IDX 65 77 71 78 73 79 66 80 67 81 68 82 69 83 70 84 46 85 47 86
REMARK SMILES IDX 56 87 48 88 49 89 55 90 57 91 50 92 51 93 52 94 53 95 54 96
REMARK H PARENT 12 6 16 27 78 46 44 57
REMARK Flexibility Score: inf
ROOT
ATOM      1  C   UNL A   1      33.362  31.083  27.320  1.00  0.00     0.042 C 
ENDROOT
BRANCH   1   2
ATOM      2  C   UNL A   1      33.809  29.682  26.942  1.00  0.00     0.117 C 
BRANCH   2   3
ATOM      3  N   UNL A   1      33.035  28.694  27.678  1.00  0.00    -0.355 N 
ATOM      4  C   UNL A   1      32.034  27.909  27.166  1.00  0.00     0.227 C 
ATOM      5  O   UNL A   1      31.050  27.722  27.884  1.00  0.00    -0.274 OA
ATOM      6  H   UNL A   1      33.250  28.578  28.631  1.00  0.00     0.163 HD
BRANCH   4   7
ATOM      7  C   UNL A   1      32.187  27.256  25.782  1.00  0.00     0.114 C 
BRANCH   7   8
ATOM      8  C   UNL A   1      30.815  27.084  25.089  1.00  0.00     0.076 C 
BRANCH   8   9
ATOM      9  C   UNL A   1      30.454  28.027  23.983  1.00  0.00     0.064 A 
ATOM     10  N   UNL A   1      29.352  29.407  22.788  1.00  0.00    -0.270 N 
ATOM     11  C   UNL A   1      30.600  29.368  22.225  1.00  0.00     0.109 A 
ATOM     12  N   UNL A   1      29.239  28.601  23.878  1.00  0.00    -0.178 NA
ATOM     13  C   UNL A   1      31.338  28.491  22.979  1.00  0.00     0.045 A 
BRANCH  10  14
ATOM     14  C   UNL A   1      28.261  30.268  22.334  1.00  0.00     0.101 C 
ATOM     15  C   UNL A   1      27.585  31.087  23.434  1.00  0.00     0.033 C 
ATOM     16  C   UNL A   1      28.714  31.175  21.194  1.00  0.00     0.033 C 
ENDBRANCH  10  14
ENDBRANCH   8   9
ENDBRANCH   7   8
BRANCH   7  17
ATOM     17  C   UNL A   1      32.852  25.852  25.845  1.00  0.00    -0.034 A 
ATOM     18  C   UNL A   1      32.118  24.780  26.393  1.00  0.00     0.004 A 
ATOM     19  C   UNL A   1      34.190  25.601  25.486  1.00  0.00     0.025 A 
ATOM     20  C   UNL A   1      32.715  23.540  26.645  1.00  0.00     0.002 A 
ATOM     21  C   UNL A   1      34.780  24.355  25.728  1.00  0.00     0.041 A 
ATOM     22  C   UNL A   1      34.053  23.331  26.324  1.00  0.00     0.020 A 
ATOM     23  Cl  UNL A   1      36.429  24.086  25.312  1.00  0.00    -0.084 Cl
ENDBRANCH   7  17
ENDBRANCH   4   7
ENDBRANCH   2   3
ENDBRANCH   1   2
BRANCH   1  24
ATOM     24  C   UNL A   1      34.447  32.024  27.766  1.00  0.00     0.118 C 
BRANCH  24  25
ATOM     25  N   UNL A   1      34.407  32.424  29.168  1.00  0.00    -0.352 N 
ATOM     26  C   UNL A   1      35.221  32.001  30.222  1.00  0.00     0.251 C 
ATOM     27  H   UNL A   1      33.714  33.081  29.404  1.00  0.00     0.163 HD
ATOM     28  O   UNL A   1      34.968  32.348  31.360  1.00  0.00    -0.269 OA
BRANCH  26  29
ATOM     29  C   UNL A   1      36.380  31.109  29.948  1.00  0.00     0.039 A 
ATOM     30  C   UNL A   1      36.315  29.714  29.903  1.00  0.00     0.014 A 
ATOM     31  C   UNL A   1      37.631  31.679  29.850  1.00  0.00     0.014 A 
ATOM     32  C   UNL A   1      37.523  28.998  29.861  1.00  0.00     0.010 A 
ATOM     33  C   UNL A   1      38.631  31.017  29.233  1.00  0.00     0.010 A 
ATOM     34  C   UNL A   1      38.701  29.713  29.637  1.00  0.00    -0.014 A 
BRANCH  34  35
ATOM     35  C   UNL A   1      40.060  29.226  29.714  1.00  0.00     0.031 A 
ATOM     36  C   UNL A   1      40.524  28.961  31.090  1.00  0.00     0.074 A 
ATOM     37  C   UNL A   1      40.671  28.675  28.639  1.00  0.00     0.049 A 
ATOM     38  N   UNL A   1      41.330  29.676  31.798  1.00  0.00    -0.248 NA
ATOM     39  C   UNL A   1      39.851  27.892  31.848  1.00  0.00     0.031 C 
ATOM     40  C   UNL A   1      40.154  28.436  27.283  1.00  0.00     0.029 A 
ATOM     41  N   UNL A   1      41.905  28.114  28.582  1.00  0.00    -0.354 N 
ATOM     42  C   UNL A   1      41.440  29.009  33.012  1.00  0.00     0.074 A 
ATOM     43  C   UNL A   1      40.317  28.116  33.077  1.00  0.00     0.031 C 
ATOM     44  C   UNL A   1      40.998  27.617  26.610  1.00  0.00     0.029 A 
ATOM     45  C   UNL A   1      42.180  27.400  27.422  1.00  0.00     0.049 A 
ATOM     46  H   UNL A   1      42.561  28.208  29.310  1.00  0.00     0.167 HD
ATOM     47  C   UNL A   1      42.585  29.049  33.746  1.00  0.00     0.037 A 
ATOM     48  C   UNL A   1      43.296  26.660  27.192  1.00  0.00     0.037 A 
ATOM     49  C   UNL A   1      43.499  30.033  33.214  1.00  0.00     0.049 A 
ATOM     50  C   UNL A   1      44.320  27.118  28.176  1.00  0.00     0.074 A 
ATOM     51  C   UNL A   1      43.440  31.401  33.027  1.00  0.00     0.029 A 
ATOM     52  N   UNL A   1      44.498  29.584  32.379  1.00  0.00    -0.354 N 
ATOM     53  N   UNL A   1      44.834  28.320  28.187  1.00  0.00    -0.248 NA
ATOM     54  C   UNL A   1      44.402  26.401  29.441  1.00  0.00     0.031 C 
ATOM     55  C   UNL A   1      44.061  31.630  31.762  1.00  0.00     0.029 A 
ATOM     56  C   UNL A   1      44.528  30.406  31.277  1.00  0.00     0.049 A 
ATOM     57  H   UNL A   1      45.087  28.812  32.542  1.00  0.00     0.167 HD
ATOM     58  C   UNL A   1      44.932  28.665  29.531  1.00  0.00     0.074 A 
ATOM     59  C   UNL A   1      44.727  27.411  30.255  1.00  0.00     0.031 C 
ATOM     60  C   UNL A   1      44.880  29.970  29.938  1.00  0.00     0.037 A 
BRANCH  47  61
ATOM     61  C   UNL A   1      43.023  27.984  34.726  1.00  0.00     0.058 A 
ATOM     62  C   UNL A   1      43.211  28.337  36.077  1.00  0.00     0.135 A 
ATOM     63  C   UNL A   1      43.479  26.696  34.368  1.00  0.00     0.135 A 
ATOM     64  F   UNL A   1      42.818  29.537  36.532  1.00  0.00    -0.206 F 
ATOM     65  C   UNL A   1      43.864  27.503  36.984  1.00  0.00     0.059 A 
ATOM     66  C   UNL A   1      44.076  25.823  35.270  1.00  0.00     0.059 A 
ATOM     67  F   UNL A   1      43.466  26.250  33.106  1.00  0.00    -0.206 F 
ATOM     68  C   UNL A   1      44.307  26.252  36.565  1.00  0.00     0.060 A 
BRANCH  68  69
ATOM     69  S   UNL A   1      45.251  25.220  37.697  1.00  0.00     0.124 S 
ATOM     70  O   UNL A   1      44.617  25.535  38.971  1.00  0.00    -0.237 OA
ATOM     71  O   UNL A   1      45.001  23.883  37.169  1.00  0.00    -0.237 OA
ATOM     72  O   UNL A   1      46.619  25.706  37.533  1.00  0.00    -0.744 OA
ENDBRANCH  68  69
ENDBRANCH  47  61
BRANCH  48  73
ATOM     73  C   UNL A   1      43.413  25.383  26.439  1.00  0.00     0.058 A 
ATOM     74  C   UNL A   1      44.310  25.241  25.364  1.00  0.00     0.135 A 
ATOM     75  C   UNL A   1      42.848  24.189  26.934  1.00  0.00     0.135 A 
ATOM     76  F   UNL A   1      44.913  26.321  24.845  1.00  0.00    -0.206 F 
ATOM     77  C   UNL A   1      44.659  23.990  24.842  1.00  0.00     0.059 A 
ATOM     78  C   UNL A   1      43.175  22.932  26.426  1.00  0.00     0.059 A 
ATOM     79  F   UNL A   1      42.026  24.207  27.993  1.00  0.00    -0.206 F 
ATOM     80  C   UNL A   1      44.101  22.837  25.393  1.00  0.00     0.060 A 
BRANCH  80  81
ATOM     81  S   UNL A   1      44.679  21.215  24.836  1.00  0.00     0.124 S 
ATOM     82  O   UNL A   1      44.717  21.388  23.388  1.00  0.00    -0.237 OA
ATOM     83  O   UNL A   1      45.975  21.104  25.499  1.00  0.00    -0.237 OA
ATOM     84  O   UNL A   1      43.653  20.299  25.328  1.00  0.00    -0.744 OA
ENDBRANCH  80  81
ENDBRANCH  48  73
BRANCH  60  85
ATOM     85  C   UNL A   1      44.969  31.049  28.878  1.00  0.00     0.058 A 
ATOM     86  C   UNL A   1      46.157  31.422  28.222  1.00  0.00     0.135 A 
ATOM     87  C   UNL A   1      43.780  31.609  28.390  1.00  0.00     0.135 A 
ATOM     88  F   UNL A   1      47.328  30.862  28.547  1.00  0.00    -0.206 F 
ATOM     89  C   UNL A   1      46.170  32.334  27.165  1.00  0.00     0.059 A 
ATOM     90  C   UNL A   1      43.763  32.497  27.315  1.00  0.00     0.059 A 
ATOM     91  F   UNL A   1      42.600  31.251  28.924  1.00  0.00    -0.206 F 
ATOM     92  C   UNL A   1      44.965  32.866  26.714  1.00  0.00     0.060 A 
BRANCH  92  93
ATOM     93  S   UNL A   1      44.973  33.981  25.292  1.00  0.00     0.124 S 
ATOM     94  O   UNL A   1      44.578  33.093  24.204  1.00  0.00    -0.237 OA
ATOM     95  O   UNL A   1      43.989  34.991  25.673  1.00  0.00    -0.237 OA
ATOM     96  O   UNL A   1      46.353  34.458  25.239  1.00  0.00    -0.744 OA
ENDBRANCH  92  93
ENDBRANCH  60  85
ENDBRANCH  34  35
ENDBRANCH  26  29
ENDBRANCH  24  25
ENDBRANCH   1  24
TORSDOF 17
ENDMDL
MODEL 3
REMARK VINA RESULT:     -12.2      3.301      9.595
REMARK SMILES CC(C)n1ccc(C[C@@H](C(=O)NCCCNC(=O)c2ccc(-c3c4nc(c(-c5c(F)cc(S(=O)(=O)[O-])cc5F)c5ccc([nH]5)c(-c5c(F)cc(S(=O)(=O)[O-])cc5F)c5nc(c(-c6c(F)cc(S(=O)(=O)[O-])cc6F)c6ccc3[nH]6)C=C5)C=C4)cc2)c2cccc(Cl)c2)n1
REMARK SMILES IDX 14 1 13 2 12 3 10 4 11 5 9 7 8 8 7 9 4 10 5 11 92 12 6 13
REMARK SMILES IDX 2 14 1 15 3 16 85 17 86 18 91 19 87 20 89 21 88 22 90 23
REMARK SMILES IDX 15 24 16 25 17 26 18 28 19 29 20 30 84 31 21 32 83 33 22 34
REMARK SMILES IDX 23 35 24 36 77 37 25 38 82 39 76 40 78 41 26 42 81 43 75 44
REMARK SMILES IDX 74 45 27 47 61 48 40 49 60 50 41 51 44 52 59 53 79 54 42 55
REMARK SMILES IDX 43 56 58 58 80 59 45 60 28 61 29 62 38 63 30 64 31 65 37 66
REMARK SMILES IDX 39 67 32 68 33 69 34 70 35 71 36 72 62 73 63 74 72 75 64 76
REMARK SMILES IDX 65 77 71 78 73 79 66 80 67 81 68 82 69 83 70 84 46 85 47 86
REMARK SMILES IDX 56 87 48 88 49 89 55 90 57 91 50 92 51 93 52 94 53 95 54 96
REMARK H PARENT 12 6 16 27 78 46 44 57
REMARK Flexibility Score: inf
ROOT
ATOM      1  C   UNL A   1      33.146  30.650  27.264  1.00  0.00     0.042 C 
ENDROOT
BRANCH   1   2
ATOM      2  C   UNL A   1      33.542  29.513  26.339  1.00  0.00     0.117 C 
BRANCH   2   3
ATOM      3  N   UNL A   1      33.277  29.878  24.956  1.00  0.00    -0.355 N 
ATOM      4  C   UNL A   1      32.727  29.065  23.998  1.00  0.00     0.227 C 
ATOM      5  O   UNL A   1      33.199  29.144  22.862  1.00  0.00    -0.274 OA
ATOM      6  H   UNL A   1      33.512  30.793  24.682  1.00  0.00     0.163 HD
BRANCH   4   7
ATOM      7  C   UNL A   1      31.538  28.151  24.341  1.00  0.00     0.114 C 
BRANCH   7   8
ATOM      8  C   UNL A   1      31.688  26.764  23.672  1.00  0.00     0.076 C 
BRANCH   8   9
ATOM      9  C   UNL A   1      32.346  25.666  24.449  1.00  0.00     0.064 A 
ATOM     10  N   UNL A   1      33.166  23.764  24.955  1.00  0.00    -0.270 N 
ATOM     11  C   UNL A   1      33.479  24.576  26.011  1.00  0.00     0.109 A 
ATOM     12  N   UNL A   1      32.480  24.412  23.975  1.00  0.00    -0.178 NA
ATOM     13  C   UNL A   1      32.970  25.815  25.711  1.00  0.00     0.045 A 
BRANCH  10  14
ATOM     14  C   UNL A   1      33.575  22.366  24.831  1.00  0.00     0.101 C 
ATOM     15  C   UNL A   1      32.502  21.425  24.281  1.00  0.00     0.033 C 
ATOM     16  C   UNL A   1      34.862  22.239  24.024  1.00  0.00     0.033 C 
ENDBRANCH  10  14
ENDBRANCH   8   9
ENDBRANCH   7   8
BRANCH   7  17
ATOM     17  C   UNL A   1      30.172  28.738  23.887  1.00  0.00    -0.034 A 
ATOM     18  C   UNL A   1      29.178  27.855  23.419  1.00  0.00     0.004 A 
ATOM     19  C   UNL A   1      29.898  30.117  23.813  1.00  0.00     0.025 A 
ATOM     20  C   UNL A   1      28.001  28.327  22.830  1.00  0.00     0.002 A 
ATOM     21  C   UNL A   1      28.712  30.586  23.235  1.00  0.00     0.041 A 
ATOM     22  C   UNL A   1      27.773  29.697  22.726  1.00  0.00     0.020 A 
ATOM     23  Cl  UNL A   1      28.418  32.278  23.124  1.00  0.00    -0.084 Cl
ENDBRANCH   7  17
ENDBRANCH   4   7
ENDBRANCH   2   3
ENDBRANCH   1   2
BRANCH   1  24
ATOM     24  C   UNL A   1      34.233  31.632  27.604  1.00  0.00     0.118 C 
BRANCH  24  25
ATOM     25  N   UNL A   1      34.279  32.076  28.993  1.00  0.00    -0.352 N 
ATOM     26  C   UNL A   1      35.224  31.777  29.977  1.00  0.00     0.251 C 
ATOM     27  H   UNL A   1      33.544  32.668  29.275  1.00  0.00     0.163 HD
ATOM     28  O   UNL A   1      35.040  32.138  31.124  1.00  0.00    -0.269 OA
BRANCH  26  29
ATOM     29  C   UNL A   1      36.439  30.998  29.620  1.00  0.00     0.039 A 
ATOM     30  C   UNL A   1      36.429  29.688  29.131  1.00  0.00     0.014 A 
ATOM     31  C   UNL A   1      37.671  31.549  29.899  1.00  0.00     0.014 A 
ATOM     32  C   UNL A   1      37.652  29.003  29.055  1.00  0.00     0.010 A 
ATOM     33  C   UNL A   1      38.775  31.098  29.268  1.00  0.00     0.010 A 
ATOM     34  C   UNL A   1      38.826  29.732  29.250  1.00  0.00    -0.014 A 
BRANCH  34  35
ATOM     35  C   UNL A   1      40.173  29.225  29.379  1.00  0.00     0.031 A 
ATOM     36  C   UNL A   1      40.601  29.011  30.776  1.00  0.00     0.074 A 
ATOM     37  C   UNL A   1      40.798  28.616  28.344  1.00  0.00     0.049 A 
ATOM     38  N   UNL A   1      41.404  29.741  31.471  1.00  0.00    -0.248 NA
ATOM     39  C   UNL A   1      39.890  27.989  31.563  1.00  0.00     0.031 C 
ATOM     40  C   UNL A   1      40.307  28.327  26.987  1.00  0.00     0.029 A 
ATOM     41  N   UNL A   1      42.022  28.030  28.339  1.00  0.00    -0.354 N 
ATOM     42  C   UNL A   1      41.474  29.126  32.715  1.00  0.00     0.074 A 
ATOM     43  C   UNL A   1      40.332  28.257  32.792  1.00  0.00     0.031 C 
ATOM     44  C   UNL A   1      41.150  27.464  26.370  1.00  0.00     0.029 A 
ATOM     45  C   UNL A   1      42.308  27.261  27.219  1.00  0.00     0.049 A 
ATOM     46  H   UNL A   1      42.662  28.143  29.079  1.00  0.00     0.167 HD
ATOM     47  C   UNL A   1      42.603  29.176  33.474  1.00  0.00     0.037 A 
ATOM     48  C   UNL A   1      43.415  26.491  27.047  1.00  0.00     0.037 A 
ATOM     49  C   UNL A   1      43.548  30.119  32.921  1.00  0.00     0.049 A 
ATOM     50  C   UNL A   1      44.425  26.972  28.034  1.00  0.00     0.074 A 
ATOM     51  C   UNL A   1      43.520  31.478  32.673  1.00  0.00     0.029 A 
ATOM     52  N   UNL A   1      44.557  29.616  32.129  1.00  0.00    -0.354 N 
ATOM     53  N   UNL A   1      44.962  28.164  28.005  1.00  0.00    -0.248 NA
ATOM     54  C   UNL A   1      44.464  26.310  29.330  1.00  0.00     0.031 C 
ATOM     55  C   UNL A   1      44.174  31.640  31.415  1.00  0.00     0.029 A 
ATOM     56  C   UNL A   1      44.627  30.388  30.994  1.00  0.00     0.049 A 
ATOM     57  H   UNL A   1      45.126  28.840  32.340  1.00  0.00     0.167 HD
ATOM     58  C   UNL A   1      45.036  28.565  29.335  1.00  0.00     0.074 A 
ATOM     59  C   UNL A   1      44.790  27.349  30.107  1.00  0.00     0.031 C 
ATOM     60  C   UNL A   1      45.000  29.888  29.684  1.00  0.00     0.037 A 
BRANCH  47  61
ATOM     61  C   UNL A   1      42.998  28.148  34.508  1.00  0.00     0.058 A 
ATOM     62  C   UNL A   1      43.125  28.548  35.853  1.00  0.00     0.135 A 
ATOM     63  C   UNL A   1      43.472  26.849  34.215  1.00  0.00     0.135 A 
ATOM     64  F   UNL A   1      42.709  29.762  36.248  1.00  0.00    -0.206 F 
ATOM     65  C   UNL A   1      43.737  27.747  36.817  1.00  0.00     0.059 A 
ATOM     66  C   UNL A   1      44.028  26.009  35.174  1.00  0.00     0.059 A 
ATOM     67  F   UNL A   1      43.516  26.359  32.971  1.00  0.00    -0.206 F 
ATOM     68  C   UNL A   1      44.200  26.483  36.462  1.00  0.00     0.060 A 
BRANCH  68  69
ATOM     69  S   UNL A   1      45.094  25.494  37.670  1.00  0.00     0.124 S 
ATOM     70  O   UNL A   1      46.468  25.919  37.430  1.00  0.00    -0.237 OA
ATOM     71  O   UNL A   1      44.496  25.935  38.926  1.00  0.00    -0.237 OA
ATOM     72  O   UNL A   1      44.779  24.122  37.280  1.00  0.00    -0.744 OA
ENDBRANCH  68  69
ENDBRANCH  47  61
BRANCH  48  73
ATOM     73  C   UNL A   1      43.524  25.180  26.352  1.00  0.00     0.058 A 
ATOM     74  C   UNL A   1      44.446  24.974  25.310  1.00  0.00     0.135 A 
ATOM     75  C   UNL A   1      42.920  24.021  26.882  1.00  0.00     0.135 A 
ATOM     76  F   UNL A   1      45.086  26.017  24.762  1.00  0.00    -0.206 F 
ATOM     77  C   UNL A   1      44.781  23.694  24.851  1.00  0.00     0.059 A 
ATOM     78  C   UNL A   1      43.233  22.736  26.438  1.00  0.00     0.059 A 
ATOM     79  F   UNL A   1      42.070  24.102  27.916  1.00  0.00    -0.206 F 
ATOM     80  C   UNL A   1      44.183  22.578  25.436  1.00  0.00     0.060 A 
BRANCH  80  81
ATOM     81  S   UNL A   1      44.740  20.921  24.965  1.00  0.00     0.124 S 
ATOM     82  O   UNL A   1      44.612  20.961  23.513  1.00  0.00    -0.237 OA
ATOM     83  O   UNL A   1      46.104  20.894  25.483  1.00  0.00    -0.237 OA
ATOM     84  O   UNL A   1      43.801  20.038  25.651  1.00  0.00    -0.744 OA
ENDBRANCH  80  81
ENDBRANCH  48  73
BRANCH  60  85
ATOM     85  C   UNL A   1      45.135  30.918  28.580  1.00  0.00     0.058 A 
ATOM     86  C   UNL A   1      44.055  31.436  27.842  1.00  0.00     0.135 A 
ATOM     87  C   UNL A   1      46.383  31.524  28.378  1.00  0.00     0.135 A 
ATOM     88  F   UNL A   1      42.809  30.994  28.042  1.00  0.00    -0.206 F 
ATOM     89  C   UNL A   1      44.212  32.474  26.920  1.00  0.00     0.059 A 
ATOM     90  C   UNL A   1      46.559  32.583  27.488  1.00  0.00     0.059 A 
ATOM     91  F   UNL A   1      47.447  31.126  29.095  1.00  0.00    -0.206 F 
ATOM     92  C   UNL A   1      45.470  33.046  26.751  1.00  0.00     0.060 A 
BRANCH  92  93
ATOM     93  S   UNL A   1      45.657  34.443  25.622  1.00  0.00     0.124 S 
ATOM     94  O   UNL A   1      47.086  34.414  25.331  1.00  0.00    -0.237 OA
ATOM     95  O   UNL A   1      44.777  34.078  24.514  1.00  0.00    -0.237 OA
ATOM     96  O   UNL A   1      45.204  35.585  26.413  1.00  0.00    -0.744 OA
ENDBRANCH  92  93
ENDBRANCH  60  85
ENDBRANCH  34  35
ENDBRANCH  26  29
ENDBRANCH  24  25
ENDBRANCH   1  24
TORSDOF 17
ENDMDL
