MODEL 1
REMARK VINA RESULT:     -13.8      0.000      0.000
REMARK SMILES Cc1cccc(NS(=O)(=O)c2ccc(Br)c(C(=O)NCCCNC(=O)c3ccc(-c4c5nc(c(-c6c(F)cc(S(=O)(=O)[O-])cc6F)c6ccc([nH]6)c(-c6c(F)cc(S(=O)(=O)[O-])cc6F)c6nc(c(-c7c(F)cc(S(=O)(=O)[O-])cc7F)c7ccc4[nH]7)C=C6)C=C5)cc3)c2)c1
REMARK SMILES IDX 21 1 20 2 19 3 17 4 18 5 16 7 11 8 12 9 92 10 13 11 14 12
REMARK SMILES IDX 15 13 8 14 9 15 10 16 7 17 6 19 1 20 2 21 3 22 93 23 4 24
REMARK SMILES IDX 5 25 22 26 23 27 24 28 25 30 26 31 27 32 91 33 28 34 90 35
REMARK SMILES IDX 29 36 30 37 31 38 84 39 32 40 89 41 83 42 85 43 33 44 88 45
REMARK SMILES IDX 82 46 81 47 34 49 68 50 47 51 67 52 48 53 51 54 66 55 86 56
REMARK SMILES IDX 49 57 50 58 65 60 87 61 52 62 35 63 36 64 45 65 37 66 38 67
REMARK SMILES IDX 44 68 46 69 39 70 40 71 41 72 42 73 43 74 69 75 70 76 79 77
REMARK SMILES IDX 71 78 72 79 78 80 80 81 73 82 74 83 75 84 76 85 77 86 53 87
REMARK SMILES IDX 54 88 63 89 55 90 56 91 62 92 64 93 57 94 58 95 59 96 60 97
REMARK SMILES IDX 61 98
REMARK H PARENT 19 6 7 18 23 29 85 48 51 59
REMARK Flexibility Score: inf
ROOT
ATOM      1  C   UNL A   1      33.066  30.099  26.340  1.00  0.00     0.042 C 
ENDROOT
BRANCH   1   2
ATOM      2  C   UNL A   1      32.713  28.764  25.705  1.00  0.00     0.118 C 
BRANCH   2   3
ATOM      3  N   UNL A   1      31.531  28.797  24.850  1.00  0.00    -0.352 N 
ATOM      4  C   UNL A   1      30.736  27.868  24.231  1.00  0.00     0.252 C 
ATOM      5  O   UNL A   1      29.727  28.292  23.662  1.00  0.00    -0.269 OA
ATOM      6  H   UNL A   1      31.230  29.717  24.674  1.00  0.00     0.163 HD
BRANCH   4   7
ATOM      7  C   UNL A   1      31.065  26.422  24.074  1.00  0.00     0.055 A 
ATOM      8  C   UNL A   1      30.779  24.173  24.974  1.00  0.00     0.088 A 
ATOM      9  C   UNL A   1      31.015  23.630  23.715  1.00  0.00     0.023 A 
ATOM     10  C   UNL A   1      30.678  25.563  25.123  1.00  0.00     0.037 A 
ATOM     11  C   UNL A   1      31.542  24.463  22.732  1.00  0.00     0.018 A 
ATOM     12  C   UNL A   1      31.713  25.830  22.992  1.00  0.00     0.030 A 
ATOM     13  Br  UNL A   1      33.400  26.512  22.378  1.00  0.00    -0.050 Br
BRANCH   8  14
ATOM     14  S   UNL A   1      30.707  23.116  26.396  1.00  0.00     0.261 S 
ATOM     15  O   UNL A   1      30.379  21.788  25.920  1.00  0.00    -0.201 OA
ATOM     16  O   UNL A   1      29.882  23.760  27.396  1.00  0.00    -0.201 OA
BRANCH  14  17
ATOM     17  N   UNL A   1      32.253  22.973  27.122  1.00  0.00    -0.280 N 
ATOM     18  H   UNL A   1      32.298  22.799  28.089  1.00  0.00     0.180 HD
BRANCH  17  19
ATOM     19  C   UNL A   1      33.487  23.094  26.395  1.00  0.00     0.049 A 
ATOM     20  C   UNL A   1      36.297  20.810  25.167  1.00  0.00     0.044 C 
ATOM     21  C   UNL A   1      35.469  22.033  25.441  1.00  0.00    -0.049 A 
ATOM     22  C   UNL A   1      35.931  23.288  25.032  1.00  0.00     0.003 A 
ATOM     23  C   UNL A   1      34.228  21.942  26.096  1.00  0.00     0.030 A 
ATOM     24  C   UNL A   1      35.226  24.439  25.378  1.00  0.00     0.002 A 
ATOM     25  C   UNL A   1      34.036  24.341  26.107  1.00  0.00     0.027 A 
ENDBRANCH  17  19
ENDBRANCH  14  17
ENDBRANCH   8  14
ENDBRANCH   4   7
ENDBRANCH   2   3
ENDBRANCH   1   2
BRANCH   1  26
ATOM     26  C   UNL A   1      34.218  29.950  27.328  1.00  0.00     0.118 C 
BRANCH  26  27
ATOM     27  N   UNL A   1      35.034  31.148  27.520  1.00  0.00    -0.352 N 
ATOM     28  C   UNL A   1      36.325  31.229  28.042  1.00  0.00     0.251 C 
ATOM     29  H   UNL A   1      34.622  32.000  27.249  1.00  0.00     0.163 HD
ATOM     30  O   UNL A   1      36.849  32.303  28.263  1.00  0.00    -0.269 OA
BRANCH  28  31
ATOM     31  C   UNL A   1      37.051  29.956  28.266  1.00  0.00     0.039 A 
ATOM     32  C   UNL A   1      37.058  29.400  29.549  1.00  0.00     0.014 A 
ATOM     33  C   UNL A   1      37.944  29.519  27.297  1.00  0.00     0.014 A 
ATOM     34  C   UNL A   1      38.118  28.576  29.931  1.00  0.00     0.010 A 
ATOM     35  C   UNL A   1      39.057  28.824  27.714  1.00  0.00     0.010 A 
ATOM     36  C   UNL A   1      39.173  28.383  29.044  1.00  0.00    -0.014 A 
BRANCH  36  37
ATOM     37  C   UNL A   1      40.481  27.816  29.384  1.00  0.00     0.031 A 
ATOM     38  C   UNL A   1      40.787  26.416  29.000  1.00  0.00     0.074 A 
ATOM     39  C   UNL A   1      41.481  28.629  29.793  1.00  0.00     0.049 A 
ATOM     40  N   UNL A   1      41.907  25.812  29.207  1.00  0.00    -0.248 NA
ATOM     41  C   UNL A   1      39.798  25.560  28.355  1.00  0.00     0.031 C 
ATOM     42  C   UNL A   1      42.916  28.394  29.655  1.00  0.00     0.029 A 
ATOM     43  N   UNL A   1      41.395  29.749  30.624  1.00  0.00    -0.354 N 
ATOM     44  C   UNL A   1      41.894  24.623  28.511  1.00  0.00     0.074 A 
ATOM     45  C   UNL A   1      40.540  24.501  28.031  1.00  0.00     0.031 C 
ATOM     46  C   UNL A   1      43.573  29.153  30.544  1.00  0.00     0.029 A 
ATOM     47  C   UNL A   1      42.578  29.768  31.400  1.00  0.00     0.049 A 
ATOM     48  H   UNL A   1      40.655  30.398  30.662  1.00  0.00     0.167 HD
ATOM     49  C   UNL A   1      43.068  23.942  28.354  1.00  0.00     0.037 A 
ATOM     50  C   UNL A   1      42.520  29.601  32.757  1.00  0.00     0.037 A 
ATOM     51  C   UNL A   1      44.104  24.488  29.238  1.00  0.00     0.049 A 
ATOM     52  C   UNL A   1      43.172  28.333  33.275  1.00  0.00     0.074 A 
ATOM     53  C   UNL A   1      45.191  25.334  29.094  1.00  0.00     0.029 A 
ATOM     54  N   UNL A   1      43.909  24.359  30.601  1.00  0.00    -0.354 N 
ATOM     55  N   UNL A   1      43.789  27.453  32.533  1.00  0.00    -0.248 NA
ATOM     56  C   UNL A   1      43.111  27.920  34.680  1.00  0.00     0.031 C 
ATOM     57  C   UNL A   1      45.607  25.749  30.397  1.00  0.00     0.029 A 
ATOM     58  C   UNL A   1      44.780  25.146  31.326  1.00  0.00     0.049 A 
ATOM     59  H   UNL A   1      43.229  23.774  31.007  1.00  0.00     0.167 HD
ATOM     60  C   UNL A   1      44.102  26.356  33.291  1.00  0.00     0.074 A 
ATOM     61  C   UNL A   1      43.692  26.709  34.637  1.00  0.00     0.031 C 
ATOM     62  C   UNL A   1      44.614  25.206  32.770  1.00  0.00     0.037 A 
BRANCH  49  63
ATOM     63  C   UNL A   1      43.342  22.888  27.293  1.00  0.00     0.058 A 
ATOM     64  C   UNL A   1      42.635  21.662  27.307  1.00  0.00     0.135 A 
ATOM     65  C   UNL A   1      44.324  22.969  26.284  1.00  0.00     0.135 A 
ATOM     66  F   UNL A   1      41.620  21.450  28.155  1.00  0.00    -0.206 F 
ATOM     67  C   UNL A   1      42.943  20.589  26.463  1.00  0.00     0.059 A 
ATOM     68  C   UNL A   1      44.683  21.897  25.462  1.00  0.00     0.059 A 
ATOM     69  F   UNL A   1      44.955  24.107  25.994  1.00  0.00    -0.206 F 
ATOM     70  C   UNL A   1      43.993  20.703  25.565  1.00  0.00     0.060 A 
BRANCH  70  71
ATOM     71  S   UNL A   1      44.438  19.296  24.535  1.00  0.00     0.124 S 
ATOM     72  O   UNL A   1      45.767  18.959  25.036  1.00  0.00    -0.237 OA
ATOM     73  O   UNL A   1      43.379  18.343  24.846  1.00  0.00    -0.237 OA
ATOM     74  O   UNL A   1      44.409  19.842  23.180  1.00  0.00    -0.744 OA
ENDBRANCH  70  71
ENDBRANCH  49  63
BRANCH  50  75
ATOM     75  C   UNL A   1      41.328  30.270  33.347  1.00  0.00     0.058 A 
ATOM     76  C   UNL A   1      41.397  31.667  33.517  1.00  0.00     0.135 A 
ATOM     77  C   UNL A   1      40.057  29.685  33.258  1.00  0.00     0.135 A 
ATOM     78  F   UNL A   1      42.593  32.271  33.631  1.00  0.00    -0.206 F 
ATOM     79  C   UNL A   1      40.272  32.469  33.390  1.00  0.00     0.059 A 
ATOM     80  C   UNL A   1      38.911  30.471  33.150  1.00  0.00     0.059 A 
ATOM     81  F   UNL A   1      39.933  28.358  33.103  1.00  0.00    -0.206 F 
ATOM     82  C   UNL A   1      39.047  31.860  33.126  1.00  0.00     0.060 A 
BRANCH  82  83
ATOM     83  S   UNL A   1      37.708  32.908  32.509  1.00  0.00     0.124 S 
ATOM     84  O   UNL A   1      38.144  34.237  32.922  1.00  0.00    -0.237 OA
ATOM     85  O   UNL A   1      37.769  32.636  31.075  1.00  0.00    -0.237 OA
ATOM     86  O   UNL A   1      36.531  32.386  33.195  1.00  0.00    -0.744 OA
ENDBRANCH  82  83
ENDBRANCH  50  75
BRANCH  62  87
ATOM     87  C   UNL A   1      44.965  24.015  33.615  1.00  0.00     0.058 A 
ATOM     88  C   UNL A   1      46.268  23.812  34.098  1.00  0.00     0.135 A 
ATOM     89  C   UNL A   1      44.039  22.979  33.855  1.00  0.00     0.135 A 
ATOM     90  F   UNL A   1      47.223  24.733  33.893  1.00  0.00    -0.206 F 
ATOM     91  C   UNL A   1      46.627  22.657  34.792  1.00  0.00     0.059 A 
ATOM     92  C   UNL A   1      44.386  21.798  34.503  1.00  0.00     0.059 A 
ATOM     93  F   UNL A   1      42.753  23.100  33.489  1.00  0.00    -0.206 F 
ATOM     94  C   UNL A   1      45.680  21.651  34.985  1.00  0.00     0.060 A 
BRANCH  94  95
ATOM     95  S   UNL A   1      46.147  20.136  35.843  1.00  0.00     0.124 S 
ATOM     96  O   UNL A   1      47.579  20.041  35.574  1.00  0.00    -0.237 OA
ATOM     97  O   UNL A   1      45.784  20.459  37.219  1.00  0.00    -0.237 OA
ATOM     98  O   UNL A   1      45.327  19.117  35.196  1.00  0.00    -0.744 OA
ENDBRANCH  94  95
ENDBRANCH  62  87
ENDBRANCH  36  37
ENDBRANCH  28  31
ENDBRANCH  26  27
ENDBRANCH   1  26
TORSDOF 16
ENDMDL
MODEL 2
REMARK VINA RESULT:     -13.5      1.935      2.447
REMARK SMILES Cc1cccc(NS(=O)(=O)c2ccc(Br)c(C(=O)NCCCNC(=O)c3ccc(-c4c5nc(c(-c6c(F)cc(S(=O)(=O)[O-])cc6F)c6ccc([nH]6)c(-c6c(F)cc(S(=O)(=O)[O-])cc6F)c6nc(c(-c7c(F)cc(S(=O)(=O)[O-])cc7F)c7ccc4[nH]7)C=C6)C=C5)cc3)c2)c1
REMARK SMILES IDX 21 1 20 2 19 3 17 4 18 5 16 7 11 8 12 9 92 10 13 11 14 12
REMARK SMILES IDX 15 13 8 14 9 15 10 16 7 17 6 19 1 20 2 21 3 22 93 23 4 24
REMARK SMILES IDX 5 25 22 26 23 27 24 28 25 30 26 31 27 32 91 33 28 34 90 35
REMARK SMILES IDX 29 36 30 37 31 38 84 39 32 40 89 41 83 42 85 43 33 44 88 45
REMARK SMILES IDX 82 46 81 47 34 49 68 50 47 51 67 52 48 53 51 54 66 55 86 56
REMARK SMILES IDX 49 57 50 58 65 60 87 61 52 62 35 63 36 64 45 65 37 66 38 67
REMARK SMILES IDX 44 68 46 69 39 70 40 71 41 72 42 73 43 74 69 75 70 76 79 77
REMARK SMILES IDX 71 78 72 79 78 80 80 81 73 82 74 83 75 84 76 85 77 86 53 87
REMARK SMILES IDX 54 88 63 89 55 90 56 91 62 92 64 93 57 94 58 95 59 96 60 97
REMARK SMILES IDX 61 98
REMARK H PARENT 19 6 7 18 23 29 85 48 51 59
REMARK Flexibility Score: inf
ROOT
ATOM      1  C   UNL A   1      32.596  30.267  27.021  1.00  0.00     0.042 C 
ENDROOT
BRANCH   1   2
ATOM      2  C   UNL A   1      31.976  29.876  25.689  1.00  0.00     0.118 C 
BRANCH   2   3
ATOM      3  N   UNL A   1      32.936  29.706  24.604  1.00  0.00    -0.352 N 
ATOM      4  C   UNL A   1      33.088  28.846  23.547  1.00  0.00     0.252 C 
ATOM      5  O   UNL A   1      33.999  29.095  22.754  1.00  0.00    -0.269 OA
ATOM      6  H   UNL A   1      33.656  30.376  24.639  1.00  0.00     0.163 HD
BRANCH   4   7
ATOM      7  C   UNL A   1      32.337  27.571  23.362  1.00  0.00     0.055 A 
ATOM      8  C   UNL A   1      32.498  25.169  22.967  1.00  0.00     0.088 A 
ATOM      9  C   UNL A   1      31.259  24.979  23.569  1.00  0.00     0.023 A 
ATOM     10  C   UNL A   1      33.088  26.440  22.980  1.00  0.00     0.037 A 
ATOM     11  C   UNL A   1      30.465  26.098  23.801  1.00  0.00     0.018 A 
ATOM     12  C   UNL A   1      30.968  27.380  23.533  1.00  0.00     0.030 A 
ATOM     13  Br  UNL A   1      29.708  28.513  22.630  1.00  0.00    -0.050 Br
BRANCH   8  14
ATOM     14  S   UNL A   1      33.277  23.832  22.100  1.00  0.00     0.261 S 
ATOM     15  O   UNL A   1      34.567  23.619  22.723  1.00  0.00    -0.201 OA
ATOM     16  O   UNL A   1      33.184  24.099  20.680  1.00  0.00    -0.201 OA
BRANCH  14  17
ATOM     17  N   UNL A   1      32.409  22.373  22.335  1.00  0.00    -0.280 N 
ATOM     18  H   UNL A   1      31.736  22.120  21.662  1.00  0.00     0.180 HD
BRANCH  17  19
ATOM     19  C   UNL A   1      32.609  21.500  23.459  1.00  0.00     0.049 A 
ATOM     20  C   UNL A   1      32.327  17.769  24.245  1.00  0.00     0.044 C 
ATOM     21  C   UNL A   1      32.565  19.245  24.393  1.00  0.00    -0.049 A 
ATOM     22  C   UNL A   1      32.930  19.765  25.639  1.00  0.00     0.003 A 
ATOM     23  C   UNL A   1      32.438  20.118  23.299  1.00  0.00     0.030 A 
ATOM     24  C   UNL A   1      33.045  21.143  25.814  1.00  0.00     0.002 A 
ATOM     25  C   UNL A   1      32.829  22.008  24.737  1.00  0.00     0.027 A 
ENDBRANCH  17  19
ENDBRANCH  14  17
ENDBRANCH   8  14
ENDBRANCH   4   7
ENDBRANCH   2   3
ENDBRANCH   1   2
BRANCH   1  26
ATOM     26  C   UNL A   1      34.115  30.148  26.976  1.00  0.00     0.118 C 
BRANCH  26  27
ATOM     27  N   UNL A   1      34.847  31.348  27.379  1.00  0.00    -0.352 N 
ATOM     28  C   UNL A   1      36.109  31.423  27.969  1.00  0.00     0.251 C 
ATOM     29  H   UNL A   1      34.395  32.207  27.215  1.00  0.00     0.163 HD
ATOM     30  O   UNL A   1      36.556  32.480  28.368  1.00  0.00    -0.269 OA
BRANCH  28  31
ATOM     31  C   UNL A   1      36.902  30.172  28.042  1.00  0.00     0.039 A 
ATOM     32  C   UNL A   1      36.841  29.401  29.207  1.00  0.00     0.014 A 
ATOM     33  C   UNL A   1      37.903  29.964  27.102  1.00  0.00     0.014 A 
ATOM     34  C   UNL A   1      37.921  28.583  29.542  1.00  0.00     0.010 A 
ATOM     35  C   UNL A   1      39.024  29.269  27.500  1.00  0.00     0.010 A 
ATOM     36  C   UNL A   1      39.058  28.608  28.741  1.00  0.00    -0.014 A 
BRANCH  36  37
ATOM     37  C   UNL A   1      40.369  28.064  29.103  1.00  0.00     0.031 A 
ATOM     38  C   UNL A   1      40.672  26.641  28.809  1.00  0.00     0.074 A 
ATOM     39  C   UNL A   1      41.374  28.902  29.446  1.00  0.00     0.049 A 
ATOM     40  N   UNL A   1      41.794  26.052  29.043  1.00  0.00    -0.248 NA
ATOM     41  C   UNL A   1      39.675  25.745  28.235  1.00  0.00     0.031 C 
ATOM     42  C   UNL A   1      42.808  28.657  29.307  1.00  0.00     0.029 A 
ATOM     43  N   UNL A   1      41.298  30.074  30.201  1.00  0.00    -0.354 N 
ATOM     44  C   UNL A   1      41.773  24.819  28.428  1.00  0.00     0.074 A 
ATOM     45  C   UNL A   1      40.413  24.666  27.973  1.00  0.00     0.031 C 
ATOM     46  C   UNL A   1      43.475  29.473  30.136  1.00  0.00     0.029 A 
ATOM     47  C   UNL A   1      42.490  30.145  30.960  1.00  0.00     0.049 A 
ATOM     48  H   UNL A   1      40.559  30.725  30.204  1.00  0.00     0.167 HD
ATOM     49  C   UNL A   1      42.945  24.128  28.304  1.00  0.00     0.037 A 
ATOM     50  C   UNL A   1      42.447  30.068  32.326  1.00  0.00     0.037 A 
ATOM     51  C   UNL A   1      43.991  24.731  29.138  1.00  0.00     0.049 A 
ATOM     52  C   UNL A   1      43.105  28.837  32.921  1.00  0.00     0.074 A 
ATOM     53  C   UNL A   1      45.077  25.564  28.925  1.00  0.00     0.029 A 
ATOM     54  N   UNL A   1      43.812  24.693  30.509  1.00  0.00    -0.354 N 
ATOM     55  N   UNL A   1      43.714  27.909  32.231  1.00  0.00    -0.248 NA
ATOM     56  C   UNL A   1      43.060  28.518  34.350  1.00  0.00     0.031 C 
ATOM     57  C   UNL A   1      45.507  26.065  30.193  1.00  0.00     0.029 A 
ATOM     58  C   UNL A   1      44.691  25.526  31.170  1.00  0.00     0.049 A 
ATOM     59  H   UNL A   1      43.136  24.137  30.960  1.00  0.00     0.167 HD
ATOM     60  C   UNL A   1      44.035  26.865  33.058  1.00  0.00     0.074 A 
ATOM     61  C   UNL A   1      43.641  27.307  34.382  1.00  0.00     0.031 C 
ATOM     62  C   UNL A   1      44.541  25.682  32.608  1.00  0.00     0.037 A 
BRANCH  49  63
ATOM     63  C   UNL A   1      43.207  23.005  27.312  1.00  0.00     0.058 A 
ATOM     64  C   UNL A   1      42.503  21.783  27.418  1.00  0.00     0.135 A 
ATOM     65  C   UNL A   1      44.175  23.020  26.288  1.00  0.00     0.135 A 
ATOM     66  F   UNL A   1      41.499  21.626  28.292  1.00  0.00    -0.206 F 
ATOM     67  C   UNL A   1      42.801  20.656  26.644  1.00  0.00     0.059 A 
ATOM     68  C   UNL A   1      44.525  21.896  25.534  1.00  0.00     0.059 A 
ATOM     69  F   UNL A   1      44.800  24.137  25.913  1.00  0.00    -0.206 F 
ATOM     70  C   UNL A   1      43.840  20.710  25.726  1.00  0.00     0.060 A 
BRANCH  70  71
ATOM     71  S   UNL A   1      44.273  19.237  24.787  1.00  0.00     0.124 S 
ATOM     72  O   UNL A   1      44.296  19.744  23.418  1.00  0.00    -0.237 OA
ATOM     73  O   UNL A   1      45.568  18.882  25.356  1.00  0.00    -0.237 OA
ATOM     74  O   UNL A   1      43.184  18.310  25.084  1.00  0.00    -0.744 OA
ENDBRANCH  70  71
ENDBRANCH  49  63
BRANCH  50  75
ATOM     75  C   UNL A   1      41.262  30.776  32.884  1.00  0.00     0.058 A 
ATOM     76  C   UNL A   1      40.100  30.009  33.097  1.00  0.00     0.135 A 
ATOM     77  C   UNL A   1      41.414  31.953  33.631  1.00  0.00     0.135 A 
ATOM     78  F   UNL A   1      39.898  28.885  32.388  1.00  0.00    -0.206 F 
ATOM     79  C   UNL A   1      39.235  30.280  34.148  1.00  0.00     0.059 A 
ATOM     80  C   UNL A   1      40.545  32.255  34.678  1.00  0.00     0.059 A 
ATOM     81  F   UNL A   1      42.498  32.725  33.463  1.00  0.00    -0.206 F 
ATOM     82  C   UNL A   1      39.517  31.361  34.980  1.00  0.00     0.060 A 
BRANCH  82  83
ATOM     83  S   UNL A   1      38.678  31.425  36.581  1.00  0.00     0.124 S 
ATOM     84  O   UNL A   1      39.710  31.986  37.445  1.00  0.00    -0.237 OA
ATOM     85  O   UNL A   1      37.554  32.308  36.280  1.00  0.00    -0.237 OA
ATOM     86  O   UNL A   1      38.329  30.032  36.834  1.00  0.00    -0.744 OA
ENDBRANCH  82  83
ENDBRANCH  50  75
BRANCH  62  87
ATOM     87  C   UNL A   1      44.901  24.550  33.526  1.00  0.00     0.058 A 
ATOM     88  C   UNL A   1      46.238  24.241  33.826  1.00  0.00     0.135 A 
ATOM     89  C   UNL A   1      43.925  23.664  34.027  1.00  0.00     0.135 A 
ATOM     90  F   UNL A   1      47.236  25.013  33.369  1.00  0.00    -0.206 F 
ATOM     91  C   UNL A   1      46.586  23.127  34.591  1.00  0.00     0.059 A 
ATOM     92  C   UNL A   1      44.251  22.522  34.752  1.00  0.00     0.059 A 
ATOM     93  F   UNL A   1      42.616  23.902  33.850  1.00  0.00    -0.206 F 
ATOM     94  C   UNL A   1      45.585  22.269  35.045  1.00  0.00     0.060 A 
BRANCH  94  95
ATOM     95  S   UNL A   1      46.027  20.804  35.997  1.00  0.00     0.124 S 
ATOM     96  O   UNL A   1      45.700  21.197  37.365  1.00  0.00    -0.237 OA
ATOM     97  O   UNL A   1      45.151  19.798  35.405  1.00  0.00    -0.237 OA
ATOM     98  O   UNL A   1      47.451  20.642  35.724  1.00  0.00    -0.744 OA
ENDBRANCH  94  95
ENDBRANCH  62  87
ENDBRANCH  36  37
ENDBRANCH  28  31
ENDBRANCH  26  27
ENDBRANCH   1  26
TORSDOF 16
ENDMDL
MODEL 3
REMARK VINA RESULT:     -13.4      1.711      2.055
REMARK SMILES Cc1cccc(NS(=O)(=O)c2ccc(Br)c(C(=O)NCCCNC(=O)c3ccc(-c4c5nc(c(-c6c(F)cc(S(=O)(=O)[O-])cc6F)c6ccc([nH]6)c(-c6c(F)cc(S(=O)(=O)[O-])cc6F)c6nc(c(-c7c(F)cc(S(=O)(=O)[O-])cc7F)c7ccc4[nH]7)C=C6)C=C5)cc3)c2)c1
REMARK SMILES IDX 21 1 20 2 19 3 17 4 18 5 16 7 11 8 12 9 92 10 13 11 14 12
REMARK SMILES IDX 15 13 8 14 9 15 10 16 7 17 6 19 1 20 2 21 3 22 93 23 4 24
REMARK SMILES IDX 5 25 22 26 23 27 24 28 25 30 26 31 27 32 91 33 28 34 90 35
REMARK SMILES IDX 29 36 30 37 31 38 84 39 32 40 89 41 83 42 85 43 33 44 88 45
REMARK SMILES IDX 82 46 81 47 34 49 68 50 47 51 67 52 48 53 51 54 66 55 86 56
REMARK SMILES IDX 49 57 50 58 65 60 87 61 52 62 35 63 36 64 45 65 37 66 38 67
REMARK SMILES IDX 44 68 46 69 39 70 40 71 41 72 42 73 43 74 69 75 70 76 79 77
REMARK SMILES IDX 71 78 72 79 78 80 80 81 73 82 74 83 75 84 76 85 77 86 53 87
REMARK SMILES IDX 54 88 63 89 55 90 56 91 62 92 64 93 57 94 58 95 59 96 60 97
REMARK SMILES IDX 61 98
REMARK H PARENT 19 6 7 18 23 29 85 48 51 59
REMARK Flexibility Score: inf
ROOT
ATOM      1  C   UNL A   1      33.012  29.731  27.403  1.00  0.00     0.042 C 
ENDROOT
BRANCH   1   2
ATOM      2  C   UNL A   1      32.185  28.891  26.443  1.00  0.00     0.118 C 
BRANCH   2   3
ATOM      3  N   UNL A   1      31.518  29.655  25.395  1.00  0.00    -0.352 N 
ATOM      4  C   UNL A   1      30.730  29.364  24.312  1.00  0.00     0.252 C 
ATOM      5  O   UNL A   1      30.247  30.321  23.702  1.00  0.00    -0.269 OA
ATOM      6  H   UNL A   1      31.671  30.623  25.490  1.00  0.00     0.163 HD
BRANCH   4   7
ATOM      7  C   UNL A   1      30.530  28.003  23.736  1.00  0.00     0.055 A 
ATOM      8  C   UNL A   1      31.549  26.155  22.512  1.00  0.00     0.088 A 
ATOM      9  C   UNL A   1      30.644  25.267  23.083  1.00  0.00     0.023 A 
ATOM     10  C   UNL A   1      31.572  27.491  22.936  1.00  0.00     0.037 A 
ATOM     11  C   UNL A   1      29.537  25.794  23.741  1.00  0.00     0.018 A 
ATOM     12  C   UNL A   1      29.419  27.181  23.910  1.00  0.00     0.030 A 
ATOM     13  Br  UNL A   1      27.654  27.842  23.542  1.00  0.00    -0.050 Br
BRANCH   8  14
ATOM     14  S   UNL A   1      32.599  25.622  21.186  1.00  0.00     0.261 S 
ATOM     15  O   UNL A   1      33.871  26.292  21.357  1.00  0.00    -0.201 OA
ATOM     16  O   UNL A   1      31.863  25.753  19.946  1.00  0.00    -0.201 OA
BRANCH  14  17
ATOM     17  N   UNL A   1      32.941  23.948  21.322  1.00  0.00    -0.280 N 
ATOM     18  H   UNL A   1      32.882  23.394  20.511  1.00  0.00     0.180 HD
BRANCH  17  19
ATOM     19  C   UNL A   1      33.309  23.309  22.556  1.00  0.00     0.049 A 
ATOM     20  C   UNL A   1      36.024  23.638  25.227  1.00  0.00     0.044 C 
ATOM     21  C   UNL A   1      34.822  23.156  24.467  1.00  0.00    -0.049 A 
ATOM     22  C   UNL A   1      34.099  22.056  24.938  1.00  0.00     0.003 A 
ATOM     23  C   UNL A   1      34.399  23.798  23.289  1.00  0.00     0.030 A 
ATOM     24  C   UNL A   1      33.050  21.534  24.183  1.00  0.00     0.002 A 
ATOM     25  C   UNL A   1      32.695  22.128  22.968  1.00  0.00     0.027 A 
ENDBRANCH  17  19
ENDBRANCH  14  17
ENDBRANCH   8  14
ENDBRANCH   4   7
ENDBRANCH   2   3
ENDBRANCH   1   2
BRANCH   1  26
ATOM     26  C   UNL A   1      34.450  29.868  26.915  1.00  0.00     0.118 C 
BRANCH  26  27
ATOM     27  N   UNL A   1      35.155  31.063  27.376  1.00  0.00    -0.352 N 
ATOM     28  C   UNL A   1      36.365  31.130  28.066  1.00  0.00     0.251 C 
ATOM     29  H   UNL A   1      34.723  31.924  27.175  1.00  0.00     0.163 HD
ATOM     30  O   UNL A   1      36.786  32.184  28.500  1.00  0.00    -0.269 OA
BRANCH  28  31
ATOM     31  C   UNL A   1      37.142  29.874  28.204  1.00  0.00     0.039 A 
ATOM     32  C   UNL A   1      37.077  29.169  29.409  1.00  0.00     0.014 A 
ATOM     33  C   UNL A   1      38.133  29.600  27.271  1.00  0.00     0.014 A 
ATOM     34  C   UNL A   1      38.148  28.356  29.783  1.00  0.00     0.010 A 
ATOM     35  C   UNL A   1      39.247  28.912  27.700  1.00  0.00     0.010 A 
ATOM     36  C   UNL A   1      39.281  28.321  28.975  1.00  0.00    -0.014 A 
BRANCH  36  37
ATOM     37  C   UNL A   1      40.586  27.779  29.359  1.00  0.00     0.031 A 
ATOM     38  C   UNL A   1      40.951  26.401  28.946  1.00  0.00     0.074 A 
ATOM     39  C   UNL A   1      41.542  28.605  29.842  1.00  0.00     0.049 A 
ATOM     40  N   UNL A   1      42.077  25.822  29.187  1.00  0.00    -0.248 NA
ATOM     41  C   UNL A   1      40.019  25.540  28.228  1.00  0.00     0.031 C 
ATOM     42  C   UNL A   1      42.989  28.415  29.765  1.00  0.00     0.029 A 
ATOM     43  N   UNL A   1      41.385  29.694  30.702  1.00  0.00    -0.354 N 
ATOM     44  C   UNL A   1      42.132  24.656  28.454  1.00  0.00     0.074 A 
ATOM     45  C   UNL A   1      40.806  24.514  27.906  1.00  0.00     0.031 C 
ATOM     46  C   UNL A   1      43.580  29.161  30.708  1.00  0.00     0.029 A 
ATOM     47  C   UNL A   1      42.529  29.720  31.534  1.00  0.00     0.049 A 
ATOM     48  H   UNL A   1      40.626  30.321  30.725  1.00  0.00     0.167 HD
ATOM     49  C   UNL A   1      43.331  24.014  28.332  1.00  0.00     0.037 A 
ATOM     50  C   UNL A   1      42.412  29.506  32.881  1.00  0.00     0.037 A 
ATOM     51  C   UNL A   1      44.308  24.559  29.281  1.00  0.00     0.049 A 
ATOM     52  C   UNL A   1      43.076  28.240  33.390  1.00  0.00     0.074 A 
ATOM     53  C   UNL A   1      45.376  25.438  29.216  1.00  0.00     0.029 A 
ATOM     54  N   UNL A   1      44.053  24.379  30.629  1.00  0.00    -0.354 N 
ATOM     55  N   UNL A   1      43.752  27.403  32.650  1.00  0.00    -0.248 NA
ATOM     56  C   UNL A   1      42.961  27.780  34.775  1.00  0.00     0.031 C 
ATOM     57  C   UNL A   1      45.717  25.821  30.550  1.00  0.00     0.029 A 
ATOM     58  C   UNL A   1      44.865  25.165  31.419  1.00  0.00     0.049 A 
ATOM     59  H   UNL A   1      43.372  23.762  30.983  1.00  0.00     0.167 HD
ATOM     60  C   UNL A   1      44.061  26.291  33.387  1.00  0.00     0.074 A 
ATOM     61  C   UNL A   1      43.578  26.587  34.723  1.00  0.00     0.031 C 
ATOM     62  C   UNL A   1      44.630  25.173  32.854  1.00  0.00     0.037 A 
BRANCH  49  63
ATOM     63  C   UNL A   1      43.686  23.003  27.252  1.00  0.00     0.058 A 
ATOM     64  C   UNL A   1      42.966  21.789  27.149  1.00  0.00     0.135 A 
ATOM     65  C   UNL A   1      44.753  23.114  26.338  1.00  0.00     0.135 A 
ATOM     66  F   UNL A   1      41.878  21.555  27.894  1.00  0.00    -0.206 F 
ATOM     67  C   UNL A   1      43.334  20.750  26.287  1.00  0.00     0.059 A 
ATOM     68  C   UNL A   1      45.170  22.074  25.502  1.00  0.00     0.059 A 
ATOM     69  F   UNL A   1      45.420  24.254  26.155  1.00  0.00    -0.206 F 
ATOM     70  C   UNL A   1      44.461  20.887  25.490  1.00  0.00     0.060 A 
BRANCH  70  71
ATOM     71  S   UNL A   1      44.978  19.520  24.440  1.00  0.00     0.124 S 
ATOM     72  O   UNL A   1      44.302  18.385  25.061  1.00  0.00    -0.237 OA
ATOM     73  O   UNL A   1      44.472  19.928  23.135  1.00  0.00    -0.237 OA
ATOM     74  O   UNL A   1      46.433  19.520  24.573  1.00  0.00    -0.744 OA
ENDBRANCH  70  71
ENDBRANCH  49  63
BRANCH  50  75
ATOM     75  C   UNL A   1      41.174  30.123  33.435  1.00  0.00     0.058 A 
ATOM     76  C   UNL A   1      41.182  31.520  33.617  1.00  0.00     0.135 A 
ATOM     77  C   UNL A   1      39.932  29.488  33.297  1.00  0.00     0.135 A 
ATOM     78  F   UNL A   1      42.348  32.170  33.776  1.00  0.00    -0.206 F 
ATOM     79  C   UNL A   1      40.030  32.278  33.456  1.00  0.00     0.059 A 
ATOM     80  C   UNL A   1      38.760  30.229  33.155  1.00  0.00     0.059 A 
ATOM     81  F   UNL A   1      39.866  28.159  33.129  1.00  0.00    -0.206 F 
ATOM     82  C   UNL A   1      38.841  31.623  33.146  1.00  0.00     0.060 A 
BRANCH  82  83
ATOM     83  S   UNL A   1      37.483  32.621  32.491  1.00  0.00     0.124 S 
ATOM     84  O   UNL A   1      36.704  31.633  31.754  1.00  0.00    -0.237 OA
ATOM     85  O   UNL A   1      36.875  33.120  33.721  1.00  0.00    -0.237 OA
ATOM     86  O   UNL A   1      38.164  33.624  31.679  1.00  0.00    -0.744 OA
ENDBRANCH  82  83
ENDBRANCH  50  75
BRANCH  62  87
ATOM     87  C   UNL A   1      44.975  23.965  33.677  1.00  0.00     0.058 A 
ATOM     88  C   UNL A   1      46.271  23.761  34.179  1.00  0.00     0.135 A 
ATOM     89  C   UNL A   1      44.054  22.916  33.875  1.00  0.00     0.135 A 
ATOM     90  F   UNL A   1      47.221  24.694  34.015  1.00  0.00    -0.206 F 
ATOM     91  C   UNL A   1      46.627  22.592  34.853  1.00  0.00     0.059 A 
ATOM     92  C   UNL A   1      44.399  21.723  34.500  1.00  0.00     0.059 A 
ATOM     93  F   UNL A   1      42.774  23.035  33.488  1.00  0.00    -0.206 F 
ATOM     94  C   UNL A   1      45.685  21.574  35.003  1.00  0.00     0.060 A 
BRANCH  94  95
ATOM     95  S   UNL A   1      46.149  20.043  35.833  1.00  0.00     0.124 S 
ATOM     96  O   UNL A   1      47.598  20.009  35.663  1.00  0.00    -0.237 OA
ATOM     97  O   UNL A   1      45.679  20.296  37.191  1.00  0.00    -0.237 OA
ATOM     98  O   UNL A   1      45.415  19.023  35.091  1.00  0.00    -0.744 OA
ENDBRANCH  94  95
ENDBRANCH  62  87
ENDBRANCH  36  37
ENDBRANCH  28  31
ENDBRANCH  26  27
ENDBRANCH   1  26
TORSDOF 16
ENDMDL
