MODEL 1
REMARK VINA RESULT:      -9.7      0.000      0.000
REMARK SMILES CCOc1ccc(C(=O)N2CCC(C(=O)NCCCNC(=O)c3ccc(-c4c5nc(c(-c6c(F)cc(S(=O)(=O)[O-])cc6F)c6ccc([nH]6)c(-c6c(F)cc(S(=O)(=O)[O-])cc6F)c6nc(c(-c7c(F)cc(S(=O)(=O)[O-])cc7F)c7ccc4[nH]7)C=C6)C=C5)cc3)(c3ccccc3)CC2)cc1OC
REMARK SMILES IDX 18 1 17 2 16 3 14 4 15 5 13 7 8 8 9 9 10 10 11 11 96 12
REMARK SMILES IDX 12 13 95 14 7 15 4 16 5 17 98 18 6 19 97 20 3 21 2 22 1 23
REMARK SMILES IDX 99 24 100 25 89 26 90 27 94 28 91 29 93 30 92 31 19 32 20 33
REMARK SMILES IDX 21 34 22 36 23 37 24 38 88 39 25 40 87 41 26 42 27 43 28 44
REMARK SMILES IDX 81 45 29 46 86 47 80 48 82 49 30 50 85 51 79 52 78 53 31 55
REMARK SMILES IDX 65 56 44 57 64 58 45 59 48 60 63 61 83 62 46 63 47 64 62 66
REMARK SMILES IDX 84 67 49 68 32 69 33 70 42 71 34 72 35 73 41 74 43 75 36 76
REMARK SMILES IDX 37 77 38 78 39 79 40 80 66 81 67 82 76 83 68 84 69 85 75 86
REMARK SMILES IDX 77 87 70 88 71 89 72 90 73 91 74 92 50 93 51 94 60 95 52 96
REMARK SMILES IDX 53 97 59 98 61 99 54 100 55 101 56 102 57 103 58 104
REMARK H PARENT 16 6 20 35 82 54 48 65
REMARK Flexibility Score: inf
ROOT
ATOM      1  C   UNL A   1      41.332  21.019  25.726  1.00  0.00     0.042 C 
ENDROOT
BRANCH   1   2
ATOM      2  C   UNL A   1      42.761  21.288  26.173  1.00  0.00     0.117 C 
BRANCH   2   3
ATOM      3  N   UNL A   1      43.599  21.757  25.075  1.00  0.00    -0.355 N 
ATOM      4  C   UNL A   1      44.282  22.922  24.854  1.00  0.00     0.230 C 
ATOM      5  O   UNL A   1      44.707  23.031  23.702  1.00  0.00    -0.274 OA
ATOM      6  H   UNL A   1      43.693  21.103  24.346  1.00  0.00     0.163 HD
BRANCH   4   7
ATOM      7  C   UNL A   1      44.450  24.008  25.973  1.00  0.00     0.077 C 
ATOM      8  C   UNL A   1      46.197  27.975  25.540  1.00  0.00     0.253 C 
ATOM      9  O   UNL A   1      47.245  28.010  24.895  1.00  0.00    -0.269 OA
ATOM     10  N   UNL A   1      45.550  26.752  25.806  1.00  0.00    -0.339 N 
ATOM     11  C   UNL A   1      46.418  25.707  26.317  1.00  0.00     0.121 C 
ATOM     12  C   UNL A   1      44.107  26.579  25.954  1.00  0.00     0.121 C 
ATOM     13  C   UNL A   1      45.978  24.285  26.020  1.00  0.00     0.043 C 
ATOM     14  C   UNL A   1      43.577  25.220  25.535  1.00  0.00     0.043 C 
BRANCH   8  15
ATOM     15  C   UNL A   1      45.720  29.248  26.172  1.00  0.00     0.043 A 
ATOM     16  C   UNL A   1      44.701  31.688  27.183  1.00  0.00     0.161 A 
ATOM     17  C   UNL A   1      44.037  30.474  27.432  1.00  0.00     0.051 A 
ATOM     18  C   UNL A   1      45.888  31.679  26.459  1.00  0.00     0.161 A 
ATOM     19  C   UNL A   1      44.552  29.260  26.943  1.00  0.00     0.018 A 
ATOM     20  C   UNL A   1      46.320  30.475  25.904  1.00  0.00     0.064 A 
BRANCH  16  21
ATOM     21  O   UNL A   1      44.211  32.847  27.714  1.00  0.00    -0.490 OA
BRANCH  21  22
ATOM     22  C   UNL A   1      44.139  32.827  29.147  1.00  0.00     0.226 C 
ATOM     23  C   UNL A   1      45.517  33.149  29.707  1.00  0.00     0.049 C 
ENDBRANCH  21  22
ENDBRANCH  16  21
BRANCH  18  24
ATOM     24  O   UNL A   1      46.771  32.676  26.169  1.00  0.00    -0.493 OA
ATOM     25  C   UNL A   1      47.971  32.807  26.896  1.00  0.00     0.278 C 
ENDBRANCH  18  24
ENDBRANCH   8  15
BRANCH   7  26
ATOM     26  C   UNL A   1      43.964  23.602  27.413  1.00  0.00    -0.032 A 
ATOM     27  C   UNL A   1      42.622  23.622  27.826  1.00  0.00     0.005 A 
ATOM     28  C   UNL A   1      44.899  23.242  28.411  1.00  0.00     0.005 A 
ATOM     29  C   UNL A   1      42.237  23.288  29.134  1.00  0.00     0.000 A 
ATOM     30  C   UNL A   1      44.525  22.936  29.726  1.00  0.00     0.000 A 
ATOM     31  C   UNL A   1      43.188  22.955  30.087  1.00  0.00     0.000 A 
ENDBRANCH   7  26
ENDBRANCH   4   7
ENDBRANCH   2   3
ENDBRANCH   1   2
BRANCH   1  32
ATOM     32  C   UNL A   1      40.280  21.688  26.595  1.00  0.00     0.118 C 
BRANCH  32  33
ATOM     33  N   UNL A   1      39.163  22.210  25.821  1.00  0.00    -0.352 N 
ATOM     34  C   UNL A   1      38.537  23.432  25.899  1.00  0.00     0.251 C 
ATOM     35  H   UNL A   1      38.802  21.597  25.140  1.00  0.00     0.163 HD
ATOM     36  O   UNL A   1      37.481  23.612  25.303  1.00  0.00    -0.269 OA
BRANCH  34  37
ATOM     37  C   UNL A   1      39.128  24.511  26.720  1.00  0.00     0.039 A 
ATOM     38  C   UNL A   1      39.960  25.450  26.106  1.00  0.00     0.014 A 
ATOM     39  C   UNL A   1      38.862  24.598  28.089  1.00  0.00     0.014 A 
ATOM     40  C   UNL A   1      40.466  26.515  26.855  1.00  0.00     0.010 A 
ATOM     41  C   UNL A   1      39.286  25.710  28.808  1.00  0.00     0.010 A 
ATOM     42  C   UNL A   1      40.101  26.677  28.202  1.00  0.00    -0.014 A 
BRANCH  42  43
ATOM     43  C   UNL A   1      40.564  27.845  28.995  1.00  0.00     0.031 A 
ATOM     44  C   UNL A   1      41.926  27.828  29.637  1.00  0.00     0.074 A 
ATOM     45  C   UNL A   1      39.736  28.892  29.188  1.00  0.00     0.049 A 
ATOM     46  N   UNL A   1      42.481  28.717  30.419  1.00  0.00    -0.248 NA
ATOM     47  C   UNL A   1      42.764  26.643  29.390  1.00  0.00     0.031 C 
ATOM     48  C   UNL A   1      38.375  29.003  28.658  1.00  0.00     0.029 A 
ATOM     49  N   UNL A   1      39.914  30.059  29.889  1.00  0.00    -0.354 N 
ATOM     50  C   UNL A   1      43.723  28.197  30.764  1.00  0.00     0.074 A 
ATOM     51  C   UNL A   1      43.815  26.887  30.159  1.00  0.00     0.031 C 
ATOM     52  C   UNL A   1      37.853  30.183  29.029  1.00  0.00     0.029 A 
ATOM     53  C   UNL A   1      38.821  30.893  29.860  1.00  0.00     0.049 A 
ATOM     54  H   UNL A   1      40.745  30.277  30.368  1.00  0.00     0.167 HD
ATOM     55  C   UNL A   1      44.708  28.769  31.497  1.00  0.00     0.037 A 
ATOM     56  C   UNL A   1      38.618  32.091  30.442  1.00  0.00     0.037 A 
ATOM     57  C   UNL A   1      44.616  30.082  32.081  1.00  0.00     0.049 A 
ATOM     58  C   UNL A   1      39.721  32.699  31.266  1.00  0.00     0.074 A 
ATOM     59  C   UNL A   1      45.576  30.773  32.797  1.00  0.00     0.029 A 
ATOM     60  N   UNL A   1      43.497  30.901  32.019  1.00  0.00    -0.354 N 
ATOM     61  N   UNL A   1      40.914  32.219  31.530  1.00  0.00    -0.248 NA
ATOM     62  C   UNL A   1      39.455  34.012  31.870  1.00  0.00     0.031 C 
ATOM     63  C   UNL A   1      45.022  31.988  33.214  1.00  0.00     0.029 A 
ATOM     64  C   UNL A   1      43.736  32.081  32.704  1.00  0.00     0.049 A 
ATOM     65  H   UNL A   1      42.658  30.677  31.555  1.00  0.00     0.167 HD
ATOM     66  C   UNL A   1      41.551  33.185  32.302  1.00  0.00     0.074 A 
ATOM     67  C   UNL A   1      40.615  34.281  32.452  1.00  0.00     0.031 C 
ATOM     68  C   UNL A   1      42.796  33.167  32.838  1.00  0.00     0.037 A 
BRANCH  55  69
ATOM     69  C   UNL A   1      45.974  27.981  31.705  1.00  0.00     0.058 A 
ATOM     70  C   UNL A   1      46.157  27.158  32.829  1.00  0.00     0.135 A 
ATOM     71  C   UNL A   1      47.004  28.016  30.749  1.00  0.00     0.135 A 
ATOM     72  F   UNL A   1      45.213  27.097  33.783  1.00  0.00    -0.206 F 
ATOM     73  C   UNL A   1      47.323  26.424  33.013  1.00  0.00     0.059 A 
ATOM     74  C   UNL A   1      48.166  27.265  30.898  1.00  0.00     0.059 A 
ATOM     75  F   UNL A   1      46.885  28.785  29.656  1.00  0.00    -0.206 F 
ATOM     76  C   UNL A   1      48.323  26.482  32.041  1.00  0.00     0.060 A 
BRANCH  76  77
ATOM     77  S   UNL A   1      49.825  25.514  32.292  1.00  0.00     0.124 S 
ATOM     78  O   UNL A   1      49.350  24.467  33.192  1.00  0.00    -0.237 OA
ATOM     79  O   UNL A   1      50.148  25.085  30.935  1.00  0.00    -0.237 OA
ATOM     80  O   UNL A   1      50.754  26.473  32.881  1.00  0.00    -0.744 OA
ENDBRANCH  76  77
ENDBRANCH  55  69
BRANCH  56  81
ATOM     81  C   UNL A   1      37.325  32.804  30.254  1.00  0.00     0.058 A 
ATOM     82  C   UNL A   1      36.261  32.620  31.150  1.00  0.00     0.135 A 
ATOM     83  C   UNL A   1      37.125  33.684  29.179  1.00  0.00     0.135 A 
ATOM     84  F   UNL A   1      36.398  31.783  32.190  1.00  0.00    -0.206 F 
ATOM     85  C   UNL A   1      35.040  33.264  30.977  1.00  0.00     0.059 A 
ATOM     86  C   UNL A   1      35.924  34.365  29.002  1.00  0.00     0.059 A 
ATOM     87  F   UNL A   1      38.116  33.910  28.301  1.00  0.00    -0.206 F 
ATOM     88  C   UNL A   1      34.882  34.137  29.900  1.00  0.00     0.060 A 
BRANCH  88  89
ATOM     89  S   UNL A   1      33.304  34.995  29.706  1.00  0.00     0.124 S 
ATOM     90  O   UNL A   1      33.733  36.277  29.158  1.00  0.00    -0.237 OA
ATOM     91  O   UNL A   1      32.588  34.114  28.788  1.00  0.00    -0.237 OA
ATOM     92  O   UNL A   1      32.775  35.035  31.066  1.00  0.00    -0.744 OA
ENDBRANCH  88  89
ENDBRANCH  56  81
BRANCH  68  93
ATOM     93  C   UNL A   1      43.240  34.383  33.606  1.00  0.00     0.058 A 
ATOM     94  C   UNL A   1      43.799  35.500  32.967  1.00  0.00     0.135 A 
ATOM     95  C   UNL A   1      43.052  34.450  34.996  1.00  0.00     0.135 A 
ATOM     96  F   UNL A   1      44.007  35.486  31.640  1.00  0.00    -0.206 F 
ATOM     97  C   UNL A   1      44.181  36.631  33.682  1.00  0.00     0.059 A 
ATOM     98  C   UNL A   1      43.397  35.584  35.727  1.00  0.00     0.059 A 
ATOM     99  F   UNL A   1      42.510  33.415  35.658  1.00  0.00    -0.206 F 
ATOM    100  C   UNL A   1      43.972  36.665  35.062  1.00  0.00     0.060 A 
BRANCH 100 101
ATOM    101  S   UNL A   1      44.441  38.152  35.970  1.00  0.00     0.124 S 
ATOM    102  O   UNL A   1      43.980  39.204  35.071  1.00  0.00    -0.237 OA
ATOM    103  O   UNL A   1      43.690  38.008  37.213  1.00  0.00    -0.237 OA
ATOM    104  O   UNL A   1      45.890  38.028  36.101  1.00  0.00    -0.744 OA
ENDBRANCH 100 101
ENDBRANCH  68  93
ENDBRANCH  42  43
ENDBRANCH  34  37
ENDBRANCH  32  33
ENDBRANCH   1  32
TORSDOF 18
ENDMDL
MODEL 2
REMARK VINA RESULT:      -9.0      1.320      8.057
REMARK SMILES CCOc1ccc(C(=O)N2CCC(C(=O)NCCCNC(=O)c3ccc(-c4c5nc(c(-c6c(F)cc(S(=O)(=O)[O-])cc6F)c6ccc([nH]6)c(-c6c(F)cc(S(=O)(=O)[O-])cc6F)c6nc(c(-c7c(F)cc(S(=O)(=O)[O-])cc7F)c7ccc4[nH]7)C=C6)C=C5)cc3)(c3ccccc3)CC2)cc1OC
REMARK SMILES IDX 18 1 17 2 16 3 14 4 15 5 13 7 8 8 9 9 10 10 11 11 96 12
REMARK SMILES IDX 12 13 95 14 7 15 4 16 5 17 98 18 6 19 97 20 3 21 2 22 1 23
REMARK SMILES IDX 99 24 100 25 89 26 90 27 94 28 91 29 93 30 92 31 19 32 20 33
REMARK SMILES IDX 21 34 22 36 23 37 24 38 88 39 25 40 87 41 26 42 27 43 28 44
REMARK SMILES IDX 81 45 29 46 86 47 80 48 82 49 30 50 85 51 79 52 78 53 31 55
REMARK SMILES IDX 65 56 44 57 64 58 45 59 48 60 63 61 83 62 46 63 47 64 62 66
REMARK SMILES IDX 84 67 49 68 32 69 33 70 42 71 34 72 35 73 41 74 43 75 36 76
REMARK SMILES IDX 37 77 38 78 39 79 40 80 66 81 67 82 76 83 68 84 69 85 75 86
REMARK SMILES IDX 77 87 70 88 71 89 72 90 73 91 74 92 50 93 51 94 60 95 52 96
REMARK SMILES IDX 53 97 59 98 61 99 54 100 55 101 56 102 57 103 58 104
REMARK H PARENT 16 6 20 35 82 54 48 65
REMARK Flexibility Score: inf
ROOT
ATOM      1  C   UNL A   1      41.912  22.667  26.243  1.00  0.00     0.042 C 
ENDROOT
BRANCH   1   2
ATOM      2  C   UNL A   1      42.939  23.064  27.293  1.00  0.00     0.117 C 
BRANCH   2   3
ATOM      3  N   UNL A   1      44.303  22.775  26.862  1.00  0.00    -0.355 N 
ATOM      4  C   UNL A   1      45.481  23.465  26.966  1.00  0.00     0.230 C 
ATOM      5  O   UNL A   1      46.391  22.987  26.286  1.00  0.00    -0.274 OA
ATOM      6  H   UNL A   1      44.395  21.909  26.404  1.00  0.00     0.163 HD
BRANCH   4   7
ATOM      7  C   UNL A   1      45.608  24.758  27.845  1.00  0.00     0.077 C 
ATOM      8  C   UNL A   1      46.483  28.794  26.462  1.00  0.00     0.253 C 
ATOM      9  O   UNL A   1      47.395  28.871  25.639  1.00  0.00    -0.269 OA
ATOM     10  N   UNL A   1      46.129  27.558  27.037  1.00  0.00    -0.339 N 
ATOM     11  C   UNL A   1      47.247  26.782  27.542  1.00  0.00     0.121 C 
ATOM     12  C   UNL A   1      44.784  27.189  27.473  1.00  0.00     0.121 C 
ATOM     13  C   UNL A   1      47.044  25.278  27.565  1.00  0.00     0.043 C 
ATOM     14  C   UNL A   1      44.464  25.707  27.385  1.00  0.00     0.043 C 
BRANCH   8  15
ATOM     15  C   UNL A   1      45.875  30.073  26.957  1.00  0.00     0.043 A 
ATOM     16  C   UNL A   1      44.535  32.415  27.809  1.00  0.00     0.161 A 
ATOM     17  C   UNL A   1      44.639  31.300  28.657  1.00  0.00     0.051 A 
ATOM     18  C   UNL A   1      45.126  32.374  26.551  1.00  0.00     0.161 A 
ATOM     19  C   UNL A   1      45.319  30.141  28.239  1.00  0.00     0.018 A 
ATOM     20  C   UNL A   1      45.706  31.178  26.129  1.00  0.00     0.064 A 
BRANCH  16  21
ATOM     21  O   UNL A   1      43.917  33.548  28.257  1.00  0.00    -0.490 OA
BRANCH  21  22
ATOM     22  C   UNL A   1      43.275  33.379  29.528  1.00  0.00     0.226 C 
ATOM     23  C   UNL A   1      42.041  34.268  29.570  1.00  0.00     0.049 C 
ENDBRANCH  21  22
ENDBRANCH  16  21
BRANCH  18  24
ATOM     24  O   UNL A   1      45.263  33.331  25.590  1.00  0.00    -0.493 OA
ATOM     25  C   UNL A   1      44.175  33.680  24.765  1.00  0.00     0.278 C 
ENDBRANCH  18  24
ENDBRANCH   8  15
BRANCH   7  26
ATOM     26  C   UNL A   1      45.432  24.563  29.397  1.00  0.00    -0.032 A 
ATOM     27  C   UNL A   1      44.385  23.836  29.985  1.00  0.00     0.005 A 
ATOM     28  C   UNL A   1      46.322  25.185  30.303  1.00  0.00     0.005 A 
ATOM     29  C   UNL A   1      44.245  23.721  31.377  1.00  0.00     0.000 A 
ATOM     30  C   UNL A   1      46.171  25.098  31.692  1.00  0.00     0.000 A 
ATOM     31  C   UNL A   1      45.132  24.360  32.232  1.00  0.00     0.000 A 
ENDBRANCH   7  26
ENDBRANCH   4   7
ENDBRANCH   2   3
ENDBRANCH   1   2
BRANCH   1  32
ATOM     32  C   UNL A   1      40.567  22.259  26.820  1.00  0.00     0.118 C 
BRANCH  32  33
ATOM     33  N   UNL A   1      39.446  22.789  26.058  1.00  0.00    -0.352 N 
ATOM     34  C   UNL A   1      38.756  23.967  26.218  1.00  0.00     0.251 C 
ATOM     35  H   UNL A   1      39.136  22.219  25.318  1.00  0.00     0.163 HD
ATOM     36  O   UNL A   1      37.709  24.145  25.606  1.00  0.00    -0.269 OA
BRANCH  34  37
ATOM     37  C   UNL A   1      39.269  25.001  27.142  1.00  0.00     0.039 A 
ATOM     38  C   UNL A   1      40.135  25.980  26.651  1.00  0.00     0.014 A 
ATOM     39  C   UNL A   1      38.895  25.007  28.489  1.00  0.00     0.014 A 
ATOM     40  C   UNL A   1      40.569  27.003  27.497  1.00  0.00     0.010 A 
ATOM     41  C   UNL A   1      39.248  26.079  29.301  1.00  0.00     0.010 A 
ATOM     42  C   UNL A   1      40.097  27.085  28.818  1.00  0.00    -0.014 A 
BRANCH  42  43
ATOM     43  C   UNL A   1      40.483  28.208  29.711  1.00  0.00     0.031 A 
ATOM     44  C   UNL A   1      39.577  29.400  29.860  1.00  0.00     0.074 A 
ATOM     45  C   UNL A   1      41.678  28.181  30.338  1.00  0.00     0.049 A 
ATOM     46  N   UNL A   1      39.767  30.504  30.536  1.00  0.00    -0.248 NA
ATOM     47  C   UNL A   1      38.298  29.359  29.132  1.00  0.00     0.031 C 
ATOM     48  C   UNL A   1      42.664  27.103  30.234  1.00  0.00     0.029 A 
ATOM     49  N   UNL A   1      42.268  29.089  31.182  1.00  0.00    -0.354 N 
ATOM     50  C   UNL A   1      38.643  31.288  30.307  1.00  0.00     0.074 A 
ATOM     51  C   UNL A   1      37.803  30.563  29.380  1.00  0.00     0.031 C 
ATOM     52  C   UNL A   1      43.722  27.399  31.005  1.00  0.00     0.029 A 
ATOM     53  C   UNL A   1      43.513  28.705  31.622  1.00  0.00     0.049 A 
ATOM     54  H   UNL A   1      41.841  29.935  31.446  1.00  0.00     0.167 HD
ATOM     55  C   UNL A   1      38.327  32.493  30.840  1.00  0.00     0.037 A 
ATOM     56  C   UNL A   1      44.391  29.337  32.425  1.00  0.00     0.037 A 
ATOM     57  C   UNL A   1      39.160  33.200  31.778  1.00  0.00     0.049 A 
ATOM     58  C   UNL A   1      44.024  30.683  32.993  1.00  0.00     0.074 A 
ATOM     59  C   UNL A   1      38.907  34.400  32.417  1.00  0.00     0.029 A 
ATOM     60  N   UNL A   1      40.409  32.773  32.209  1.00  0.00    -0.354 N 
ATOM     61  N   UNL A   1      42.928  31.382  32.815  1.00  0.00    -0.248 NA
ATOM     62  C   UNL A   1      45.009  31.324  33.873  1.00  0.00     0.031 C 
ATOM     63  C   UNL A   1      40.024  34.727  33.193  1.00  0.00     0.029 A 
ATOM     64  C   UNL A   1      40.948  33.699  33.086  1.00  0.00     0.049 A 
ATOM     65  H   UNL A   1      40.846  31.935  31.932  1.00  0.00     0.167 HD
ATOM     66  C   UNL A   1      43.079  32.529  33.585  1.00  0.00     0.074 A 
ATOM     67  C   UNL A   1      44.367  32.425  34.241  1.00  0.00     0.031 C 
ATOM     68  C   UNL A   1      42.230  33.576  33.738  1.00  0.00     0.037 A 
BRANCH  55  69
ATOM     69  C   UNL A   1      37.022  33.120  30.428  1.00  0.00     0.058 A 
ATOM     70  C   UNL A   1      35.881  33.056  31.245  1.00  0.00     0.135 A 
ATOM     71  C   UNL A   1      36.918  33.827  29.218  1.00  0.00     0.135 A 
ATOM     72  F   UNL A   1      35.917  32.380  32.405  1.00  0.00    -0.206 F 
ATOM     73  C   UNL A   1      34.679  33.644  30.867  1.00  0.00     0.059 A 
ATOM     74  C   UNL A   1      35.734  34.450  28.834  1.00  0.00     0.059 A 
ATOM     75  F   UNL A   1      37.975  33.920  28.397  1.00  0.00    -0.206 F 
ATOM     76  C   UNL A   1      34.615  34.341  29.659  1.00  0.00     0.060 A 
BRANCH  76  77
ATOM     77  S   UNL A   1      33.050  35.107  29.189  1.00  0.00     0.124 S 
ATOM     78  O   UNL A   1      33.498  36.402  28.687  1.00  0.00    -0.237 OA
ATOM     79  O   UNL A   1      32.540  34.179  28.184  1.00  0.00    -0.237 OA
ATOM     80  O   UNL A   1      32.300  35.145  30.440  1.00  0.00    -0.744 OA
ENDBRANCH  76  77
ENDBRANCH  55  69
BRANCH  56  81
ATOM     81  C   UNL A   1      45.695  28.699  32.756  1.00  0.00     0.058 A 
ATOM     82  C   UNL A   1      46.818  28.883  31.935  1.00  0.00     0.135 A 
ATOM     83  C   UNL A   1      45.847  27.897  33.898  1.00  0.00     0.135 A 
ATOM     84  F   UNL A   1      46.723  29.635  30.828  1.00  0.00    -0.206 F 
ATOM     85  C   UNL A   1      48.038  28.279  32.220  1.00  0.00     0.059 A 
ATOM     86  C   UNL A   1      47.065  27.307  34.222  1.00  0.00     0.059 A 
ATOM     87  F   UNL A   1      44.809  27.702  34.727  1.00  0.00    -0.206 F 
ATOM     88  C   UNL A   1      48.153  27.493  33.368  1.00  0.00     0.060 A 
BRANCH  88  89
ATOM     89  S   UNL A   1      49.751  26.743  33.747  1.00  0.00     0.124 S 
ATOM     90  O   UNL A   1      50.074  27.368  35.024  1.00  0.00    -0.237 OA
ATOM     91  O   UNL A   1      49.418  25.323  33.796  1.00  0.00    -0.237 OA
ATOM     92  O   UNL A   1      50.587  27.145  32.619  1.00  0.00    -0.744 OA
ENDBRANCH  88  89
ENDBRANCH  56  81
BRANCH  68  93
ATOM     93  C   UNL A   1      42.643  34.676  34.677  1.00  0.00     0.058 A 
ATOM     94  C   UNL A   1      42.277  34.671  36.032  1.00  0.00     0.135 A 
ATOM     95  C   UNL A   1      43.463  35.723  34.225  1.00  0.00     0.135 A 
ATOM     96  F   UNL A   1      41.488  33.697  36.515  1.00  0.00    -0.206 F 
ATOM     97  C   UNL A   1      42.687  35.678  36.900  1.00  0.00     0.059 A 
ATOM     98  C   UNL A   1      43.913  36.723  35.082  1.00  0.00     0.059 A 
ATOM     99  F   UNL A   1      43.854  35.771  32.941  1.00  0.00    -0.206 F 
ATOM    100  C   UNL A   1      43.508  36.699  36.416  1.00  0.00     0.060 A 
BRANCH 100 101
ATOM    101  S   UNL A   1      44.061  37.979  37.561  1.00  0.00     0.124 S 
ATOM    102  O   UNL A   1      44.166  39.137  36.681  1.00  0.00    -0.237 OA
ATOM    103  O   UNL A   1      42.974  38.018  38.534  1.00  0.00    -0.237 OA
ATOM    104  O   UNL A   1      45.328  37.458  38.067  1.00  0.00    -0.744 OA
ENDBRANCH 100 101
ENDBRANCH  68  93
ENDBRANCH  42  43
ENDBRANCH  34  37
ENDBRANCH  32  33
ENDBRANCH   1  32
TORSDOF 18
ENDMDL
MODEL 3
REMARK VINA RESULT:      -8.8      6.863     14.743
REMARK SMILES CCOc1ccc(C(=O)N2CCC(C(=O)NCCCNC(=O)c3ccc(-c4c5nc(c(-c6c(F)cc(S(=O)(=O)[O-])cc6F)c6ccc([nH]6)c(-c6c(F)cc(S(=O)(=O)[O-])cc6F)c6nc(c(-c7c(F)cc(S(=O)(=O)[O-])cc7F)c7ccc4[nH]7)C=C6)C=C5)cc3)(c3ccccc3)CC2)cc1OC
REMARK SMILES IDX 18 1 17 2 16 3 14 4 15 5 13 7 8 8 9 9 10 10 11 11 96 12
REMARK SMILES IDX 12 13 95 14 7 15 4 16 5 17 98 18 6 19 97 20 3 21 2 22 1 23
REMARK SMILES IDX 99 24 100 25 89 26 90 27 94 28 91 29 93 30 92 31 19 32 20 33
REMARK SMILES IDX 21 34 22 36 23 37 24 38 88 39 25 40 87 41 26 42 27 43 28 44
REMARK SMILES IDX 81 45 29 46 86 47 80 48 82 49 30 50 85 51 79 52 78 53 31 55
REMARK SMILES IDX 65 56 44 57 64 58 45 59 48 60 63 61 83 62 46 63 47 64 62 66
REMARK SMILES IDX 84 67 49 68 32 69 33 70 42 71 34 72 35 73 41 74 43 75 36 76
REMARK SMILES IDX 37 77 38 78 39 79 40 80 66 81 67 82 76 83 68 84 69 85 75 86
REMARK SMILES IDX 77 87 70 88 71 89 72 90 73 91 74 92 50 93 51 94 60 95 52 96
REMARK SMILES IDX 53 97 59 98 61 99 54 100 55 101 56 102 57 103 58 104
REMARK H PARENT 16 6 20 35 82 54 48 65
REMARK Flexibility Score: inf
ROOT
ATOM      1  C   UNL A   1      45.695  39.164  30.322  1.00  0.00     0.042 C 
ENDROOT
BRANCH   1   2
ATOM      2  C   UNL A   1      44.434  39.613  29.598  1.00  0.00     0.117 C 
BRANCH   2   3
ATOM      3  N   UNL A   1      44.330  41.068  29.534  1.00  0.00    -0.355 N 
ATOM      4  C   UNL A   1      44.497  41.971  28.520  1.00  0.00     0.230 C 
ATOM      5  O   UNL A   1      44.532  43.141  28.906  1.00  0.00    -0.274 OA
ATOM      6  H   UNL A   1      44.089  41.482  30.393  1.00  0.00     0.163 HD
BRANCH   4   7
ATOM      7  C   UNL A   1      44.667  41.519  27.027  1.00  0.00     0.077 C 
ATOM      8  C   UNL A   1      42.213  42.707  23.630  1.00  0.00     0.253 C 
ATOM      9  O   UNL A   1      41.000  42.689  23.838  1.00  0.00    -0.269 OA
ATOM     10  N   UNL A   1      43.124  42.295  24.622  1.00  0.00    -0.339 N 
ATOM     11  C   UNL A   1      42.803  41.026  25.249  1.00  0.00     0.121 C 
ATOM     12  C   UNL A   1      44.476  42.822  24.793  1.00  0.00     0.121 C 
ATOM     13  C   UNL A   1      43.312  40.848  26.668  1.00  0.00     0.043 C 
ATOM     14  C   UNL A   1      44.996  42.808  26.219  1.00  0.00     0.043 C 
BRANCH   8  15
ATOM     15  C   UNL A   1      42.682  43.022  22.241  1.00  0.00     0.043 A 
ATOM     16  C   UNL A   1      43.520  43.827  19.660  1.00  0.00     0.161 A 
ATOM     17  C   UNL A   1      44.434  43.768  20.726  1.00  0.00     0.051 A 
ATOM     18  C   UNL A   1      42.198  43.454  19.875  1.00  0.00     0.161 A 
ATOM     19  C   UNL A   1      44.021  43.353  22.005  1.00  0.00     0.018 A 
ATOM     20  C   UNL A   1      41.797  43.142  21.173  1.00  0.00     0.064 A 
BRANCH  16  21
ATOM     21  O   UNL A   1      43.956  44.181  18.415  1.00  0.00    -0.490 OA
BRANCH  21  22
ATOM     22  C   UNL A   1      44.322  45.565  18.315  1.00  0.00     0.226 C 
ATOM     23  C   UNL A   1      45.177  45.751  17.071  1.00  0.00     0.049 C 
ENDBRANCH  21  22
ENDBRANCH  16  21
BRANCH  18  24
ATOM     24  O   UNL A   1      41.151  43.319  19.012  1.00  0.00    -0.493 OA
ATOM     25  C   UNL A   1      40.556  44.453  18.423  1.00  0.00     0.278 C 
ENDBRANCH  18  24
ENDBRANCH   8  15
BRANCH   7  26
ATOM     26  C   UNL A   1      45.830  40.499  26.739  1.00  0.00    -0.032 A 
ATOM     27  C   UNL A   1      45.644  39.241  26.144  1.00  0.00     0.005 A 
ATOM     28  C   UNL A   1      47.156  40.792  27.135  1.00  0.00     0.005 A 
ATOM     29  C   UNL A   1      46.707  38.346  25.942  1.00  0.00     0.000 A 
ATOM     30  C   UNL A   1      48.215  39.893  26.962  1.00  0.00     0.000 A 
ATOM     31  C   UNL A   1      47.990  38.667  26.359  1.00  0.00     0.000 A 
ENDBRANCH   7  26
ENDBRANCH   4   7
ENDBRANCH   2   3
ENDBRANCH   1   2
BRANCH   1  32
ATOM     32  C   UNL A   1      46.137  37.753  29.970  1.00  0.00     0.118 C 
BRANCH  32  33
ATOM     33  N   UNL A   1      47.553  37.675  29.643  1.00  0.00    -0.352 N 
ATOM     34  C   UNL A   1      48.327  36.576  29.356  1.00  0.00     0.251 C 
ATOM     35  H   UNL A   1      48.027  38.538  29.624  1.00  0.00     0.163 HD
ATOM     36  O   UNL A   1      49.547  36.688  29.306  1.00  0.00    -0.269 OA
BRANCH  34  37
ATOM     37  C   UNL A   1      47.686  35.262  29.133  1.00  0.00     0.039 A 
ATOM     38  C   UNL A   1      47.220  34.943  27.856  1.00  0.00     0.014 A 
ATOM     39  C   UNL A   1      47.547  34.345  30.179  1.00  0.00     0.014 A 
ATOM     40  C   UNL A   1      46.678  33.679  27.615  1.00  0.00     0.010 A 
ATOM     41  C   UNL A   1      47.099  33.055  29.915  1.00  0.00     0.010 A 
ATOM     42  C   UNL A   1      46.651  32.710  28.632  1.00  0.00    -0.014 A 
BRANCH  42  43
ATOM     43  C   UNL A   1      46.151  31.334  28.378  1.00  0.00     0.031 A 
ATOM     44  C   UNL A   1      44.712  30.990  28.656  1.00  0.00     0.074 A 
ATOM     45  C   UNL A   1      47.007  30.380  27.957  1.00  0.00     0.049 A 
ATOM     46  N   UNL A   1      44.106  29.835  28.563  1.00  0.00    -0.248 NA
ATOM     47  C   UNL A   1      43.845  32.083  29.127  1.00  0.00     0.031 C 
ATOM     48  C   UNL A   1      48.435  30.579  27.699  1.00  0.00     0.029 A 
ATOM     49  N   UNL A   1      46.803  29.052  27.678  1.00  0.00    -0.354 N 
ATOM     50  C   UNL A   1      42.797  30.059  28.972  1.00  0.00     0.074 A 
ATOM     51  C   UNL A   1      42.711  31.445  29.374  1.00  0.00     0.031 C 
ATOM     52  C   UNL A   1      48.971  29.424  27.274  1.00  0.00     0.029 A 
ATOM     53  C   UNL A   1      47.940  28.391  27.272  1.00  0.00     0.049 A 
ATOM     54  H   UNL A   1      45.926  28.613  27.761  1.00  0.00     0.167 HD
ATOM     55  C   UNL A   1      41.753  29.195  28.986  1.00  0.00     0.037 A 
ATOM     56  C   UNL A   1      48.131  27.099  26.944  1.00  0.00     0.037 A 
ATOM     57  C   UNL A   1      41.842  27.820  28.565  1.00  0.00     0.049 A 
ATOM     58  C   UNL A   1      46.960  26.154  26.984  1.00  0.00     0.074 A 
ATOM     59  C   UNL A   1      40.833  26.877  28.492  1.00  0.00     0.029 A 
ATOM     60  N   UNL A   1      43.008  27.192  28.150  1.00  0.00    -0.354 N 
ATOM     61  N   UNL A   1      45.713  26.398  27.313  1.00  0.00    -0.248 NA
ATOM     62  C   UNL A   1      47.218  24.758  26.605  1.00  0.00     0.031 C 
ATOM     63  C   UNL A   1      41.397  25.664  28.084  1.00  0.00     0.029 A 
ATOM     64  C   UNL A   1      42.747  25.867  27.843  1.00  0.00     0.049 A 
ATOM     65  H   UNL A   1      43.890  27.625  28.083  1.00  0.00     0.167 HD
ATOM     66  C   UNL A   1      45.034  25.197  27.150  1.00  0.00     0.074 A 
ATOM     67  C   UNL A   1      46.004  24.229  26.681  1.00  0.00     0.031 C 
ATOM     68  C   UNL A   1      43.725  24.917  27.368  1.00  0.00     0.037 A 
BRANCH  55  69
ATOM     69  C   UNL A   1      40.423  29.712  29.466  1.00  0.00     0.058 A 
ATOM     70  C   UNL A   1      39.381  30.011  28.573  1.00  0.00     0.135 A 
ATOM     71  C   UNL A   1      40.171  29.874  30.839  1.00  0.00     0.135 A 
ATOM     72  F   UNL A   1      39.570  29.890  27.249  1.00  0.00    -0.206 F 
ATOM     73  C   UNL A   1      38.150  30.480  29.019  1.00  0.00     0.059 A 
ATOM     74  C   UNL A   1      38.936  30.311  31.310  1.00  0.00     0.059 A 
ATOM     75  F   UNL A   1      41.130  29.604  31.738  1.00  0.00    -0.206 F 
ATOM     76  C   UNL A   1      37.936  30.625  30.391  1.00  0.00     0.060 A 
BRANCH  76  77
ATOM     77  S   UNL A   1      36.329  31.224  30.952  1.00  0.00     0.124 S 
ATOM     78  O   UNL A   1      36.626  32.622  31.248  1.00  0.00    -0.237 OA
ATOM     79  O   UNL A   1      35.485  30.990  29.784  1.00  0.00    -0.237 OA
ATOM     80  O   UNL A   1      36.038  30.386  32.110  1.00  0.00    -0.744 OA
ENDBRANCH  76  77
ENDBRANCH  55  69
BRANCH  56  81
ATOM     81  C   UNL A   1      49.481  26.625  26.532  1.00  0.00     0.058 A 
ATOM     82  C   UNL A   1      49.911  26.737  25.201  1.00  0.00     0.135 A 
ATOM     83  C   UNL A   1      50.369  26.054  27.457  1.00  0.00     0.135 A 
ATOM     84  F   UNL A   1      49.096  27.269  24.277  1.00  0.00    -0.206 F 
ATOM     85  C   UNL A   1      51.161  26.282  24.796  1.00  0.00     0.059 A 
ATOM     86  C   UNL A   1      51.637  25.619  27.083  1.00  0.00     0.059 A 
ATOM     87  F   UNL A   1      50.015  25.938  28.747  1.00  0.00    -0.206 F 
ATOM     88  C   UNL A   1      52.019  25.726  25.746  1.00  0.00     0.060 A 
BRANCH  88  89
ATOM     89  S   UNL A   1      53.654  25.171  25.215  1.00  0.00     0.124 S 
ATOM     90  O   UNL A   1      54.508  25.738  26.253  1.00  0.00    -0.237 OA
ATOM     91  O   UNL A   1      53.505  23.719  25.233  1.00  0.00    -0.237 OA
ATOM     92  O   UNL A   1      53.796  25.764  23.888  1.00  0.00    -0.744 OA
ENDBRANCH  88  89
ENDBRANCH  56  81
BRANCH  68  93
ATOM     93  C   UNL A   1      43.252  23.521  27.066  1.00  0.00     0.058 A 
ATOM     94  C   UNL A   1      43.023  23.084  25.753  1.00  0.00     0.135 A 
ATOM     95  C   UNL A   1      43.076  22.593  28.105  1.00  0.00     0.135 A 
ATOM     96  F   UNL A   1      43.169  23.932  24.722  1.00  0.00    -0.206 F 
ATOM     97  C   UNL A   1      42.612  21.782  25.481  1.00  0.00     0.059 A 
ATOM     98  C   UNL A   1      42.697  21.277  27.855  1.00  0.00     0.059 A 
ATOM     99  F   UNL A   1      43.292  22.954  29.381  1.00  0.00    -0.206 F 
ATOM    100  C   UNL A   1      42.455  20.885  26.539  1.00  0.00     0.060 A 
BRANCH 100 101
ATOM    101  S   UNL A   1      41.956  19.191  26.168  1.00  0.00     0.124 S 
ATOM    102  O   UNL A   1      42.753  18.902  24.981  1.00  0.00    -0.237 OA
ATOM    103  O   UNL A   1      42.344  18.478  27.381  1.00  0.00    -0.237 OA
ATOM    104  O   UNL A   1      40.517  19.301  25.946  1.00  0.00    -0.744 OA
ENDBRANCH 100 101
ENDBRANCH  68  93
ENDBRANCH  42  43
ENDBRANCH  34  37
ENDBRANCH  32  33
ENDBRANCH   1  32
TORSDOF 18
ENDMDL
