MODEL 1
REMARK VINA RESULT:      -9.4      0.000      0.000
REMARK SMILES COc1cc(Cl)ccc1-c1ccc(CC(=O)NCCCNC(=O)c2ccc(-c3c4nc(c(-c5c(F)cc(S(=O)(=O)[O-])cc5F)c5ccc([nH]5)c(-c5c(F)cc(S(=O)(=O)[O-])cc5F)c5nc(c(-c6c(F)cc(S(=O)(=O)[O-])cc6F)c6ccc3[nH]6)C=C5)C=C4)cc2)cc1
REMARK SMILES IDX 19 1 18 2 17 3 15 4 16 5 14 7 13 8 10 9 11 10 91 11 12 12
REMARK SMILES IDX 90 13 9 14 3 15 4 16 5 17 8 18 6 19 7 20 2 21 1 22 20 23
REMARK SMILES IDX 21 24 22 25 23 27 24 28 25 29 89 30 26 31 88 32 27 33 28 34
REMARK SMILES IDX 29 35 82 36 30 37 87 38 81 39 83 40 31 41 86 42 80 43 79 44
REMARK SMILES IDX 32 46 66 47 45 48 65 49 46 50 49 51 64 52 84 53 47 54 48 55
REMARK SMILES IDX 63 57 85 58 50 59 33 60 34 61 43 62 35 63 36 64 42 65 44 66
REMARK SMILES IDX 37 67 38 68 39 69 40 70 41 71 67 72 68 73 77 74 69 75 70 76
REMARK SMILES IDX 76 77 78 78 71 79 72 80 73 81 74 82 75 83 51 84 52 85 61 86
REMARK SMILES IDX 53 87 54 88 60 89 62 90 55 91 56 92 57 93 58 94 59 95
REMARK H PARENT 17 6 21 26 83 45 49 56
REMARK Flexibility Score: inf
ROOT
ATOM      1  C   UNL A   1      34.668  32.715  30.663  1.00  0.00     0.042 C 
ENDROOT
BRANCH   1   2
ATOM      2  C   UNL A   1      35.692  31.920  31.472  1.00  0.00     0.117 C 
BRANCH   2   3
ATOM      3  N   UNL A   1      36.954  32.624  31.611  1.00  0.00    -0.356 N 
ATOM      4  C   UNL A   1      37.909  32.495  32.578  1.00  0.00     0.224 C 
ATOM      5  O   UNL A   1      38.897  33.232  32.528  1.00  0.00    -0.275 OA
ATOM      6  H   UNL A   1      37.148  33.288  30.910  1.00  0.00     0.163 HD
BRANCH   4   7
ATOM      7  C   UNL A   1      37.771  31.430  33.651  1.00  0.00     0.135 C 
BRANCH   7   8
ATOM      8  C   UNL A   1      38.898  30.428  33.676  1.00  0.00    -0.039 A 
ATOM      9  C   UNL A   1      40.977  28.503  33.758  1.00  0.00    -0.015 A 
ATOM     10  C   UNL A   1      41.036  29.666  34.542  1.00  0.00     0.009 A 
ATOM     11  C   UNL A   1      39.863  28.333  32.923  1.00  0.00     0.009 A 
ATOM     12  C   UNL A   1      40.011  30.618  34.503  1.00  0.00     0.005 A 
ATOM     13  C   UNL A   1      38.847  29.287  32.867  1.00  0.00     0.005 A 
BRANCH   9  14
ATOM     14  C   UNL A   1      42.037  27.479  33.824  1.00  0.00     0.024 A 
ATOM     15  C   UNL A   1      42.049  26.459  34.801  1.00  0.00     0.128 A 
ATOM     16  C   UNL A   1      43.072  25.505  34.832  1.00  0.00     0.067 A 
ATOM     17  C   UNL A   1      44.114  25.578  33.911  1.00  0.00     0.044 A 
ATOM     18  C   UNL A   1      43.106  27.525  32.908  1.00  0.00     0.014 A 
ATOM     19  Cl  UNL A   1      45.365  24.398  33.947  1.00  0.00    -0.084 Cl
ATOM     20  C   UNL A   1      44.140  26.585  32.952  1.00  0.00     0.021 A 
BRANCH  15  21
ATOM     21  O   UNL A   1      40.981  26.368  35.665  1.00  0.00    -0.496 OA
ATOM     22  C   UNL A   1      41.379  26.241  37.029  1.00  0.00     0.278 C 
ENDBRANCH  15  21
ENDBRANCH   9  14
ENDBRANCH   7   8
ENDBRANCH   4   7
ENDBRANCH   2   3
ENDBRANCH   1   2
BRANCH   1  23
ATOM     23  C   UNL A   1      34.897  32.676  29.154  1.00  0.00     0.118 C 
BRANCH  23  24
ATOM     24  N   UNL A   1      34.194  31.576  28.509  1.00  0.00    -0.352 N 
ATOM     25  C   UNL A   1      34.662  30.377  28.033  1.00  0.00     0.251 C 
ATOM     26  H   UNL A   1      33.225  31.715  28.396  1.00  0.00     0.163 HD
ATOM     27  O   UNL A   1      33.916  29.673  27.352  1.00  0.00    -0.269 OA
BRANCH  25  28
ATOM     28  C   UNL A   1      36.043  29.929  28.314  1.00  0.00     0.039 A 
ATOM     29  C   UNL A   1      37.016  30.090  27.323  1.00  0.00     0.014 A 
ATOM     30  C   UNL A   1      36.378  29.312  29.523  1.00  0.00     0.014 A 
ATOM     31  C   UNL A   1      38.333  29.690  27.567  1.00  0.00     0.010 A 
ATOM     32  C   UNL A   1      37.705  28.976  29.791  1.00  0.00     0.010 A 
ATOM     33  C   UNL A   1      38.697  29.160  28.815  1.00  0.00    -0.014 A 
BRANCH  33  34
ATOM     34  C   UNL A   1      40.107  28.802  29.120  1.00  0.00     0.031 A 
ATOM     35  C   UNL A   1      41.031  29.814  29.744  1.00  0.00     0.074 A 
ATOM     36  C   UNL A   1      40.573  27.586  28.773  1.00  0.00     0.049 A 
ATOM     37  N   UNL A   1      42.308  29.712  30.011  1.00  0.00    -0.248 NA
ATOM     38  C   UNL A   1      40.448  31.119  30.093  1.00  0.00     0.031 C 
ATOM     39  C   UNL A   1      39.788  26.534  28.123  1.00  0.00     0.029 A 
ATOM     40  N   UNL A   1      41.821  27.032  28.905  1.00  0.00    -0.354 N 
ATOM     41  C   UNL A   1      42.684  30.938  30.544  1.00  0.00     0.074 A 
ATOM     42  C   UNL A   1      41.511  31.786  30.519  1.00  0.00     0.031 C 
ATOM     43  C   UNL A   1      40.566  25.457  27.932  1.00  0.00     0.029 A 
ATOM     44  C   UNL A   1      41.914  25.753  28.407  1.00  0.00     0.049 A 
ATOM     45  H   UNL A   1      42.580  27.506  29.318  1.00  0.00     0.167 HD
ATOM     46  C   UNL A   1      43.891  31.318  31.029  1.00  0.00     0.037 A 
ATOM     47  C   UNL A   1      42.968  24.917  28.332  1.00  0.00     0.037 A 
ATOM     48  C   UNL A   1      45.049  30.462  31.074  1.00  0.00     0.049 A 
ATOM     49  C   UNL A   1      44.299  25.361  28.875  1.00  0.00     0.074 A 
ATOM     50  C   UNL A   1      46.302  30.736  31.595  1.00  0.00     0.029 A 
ATOM     51  N   UNL A   1      45.097  29.168  30.578  1.00  0.00    -0.354 N 
ATOM     52  N   UNL A   1      44.622  26.507  29.428  1.00  0.00    -0.248 NA
ATOM     53  C   UNL A   1      45.407  24.401  28.789  1.00  0.00     0.031 C 
ATOM     54  C   UNL A   1      47.120  29.621  31.377  1.00  0.00     0.029 A 
ATOM     55  C   UNL A   1      46.363  28.635  30.765  1.00  0.00     0.049 A 
ATOM     56  H   UNL A   1      44.343  28.696  30.157  1.00  0.00     0.167 HD
ATOM     57  C   UNL A   1      45.963  26.393  29.781  1.00  0.00     0.074 A 
ATOM     58  C   UNL A   1      46.386  25.065  29.389  1.00  0.00     0.031 C 
ATOM     59  C   UNL A   1      46.769  27.307  30.376  1.00  0.00     0.037 A 
BRANCH  46  60
ATOM     60  C   UNL A   1      44.021  32.722  31.557  1.00  0.00     0.058 A 
ATOM     61  C   UNL A   1      44.484  33.773  30.749  1.00  0.00     0.135 A 
ATOM     62  C   UNL A   1      43.645  33.029  32.875  1.00  0.00     0.135 A 
ATOM     63  F   UNL A   1      44.870  33.535  29.485  1.00  0.00    -0.206 F 
ATOM     64  C   UNL A   1      44.599  35.070  31.237  1.00  0.00     0.059 A 
ATOM     65  C   UNL A   1      43.725  34.325  33.375  1.00  0.00     0.059 A 
ATOM     66  F   UNL A   1      43.193  32.063  33.692  1.00  0.00    -0.206 F 
ATOM     67  C   UNL A   1      44.219  35.336  32.553  1.00  0.00     0.060 A 
BRANCH  67  68
ATOM     68  S   UNL A   1      44.374  37.026  33.170  1.00  0.00     0.124 S 
ATOM     69  O   UNL A   1      43.780  37.790  32.078  1.00  0.00    -0.237 OA
ATOM     70  O   UNL A   1      43.600  36.980  34.406  1.00  0.00    -0.237 OA
ATOM     71  O   UNL A   1      45.814  37.194  33.343  1.00  0.00    -0.744 OA
ENDBRANCH  67  68
ENDBRANCH  46  60
BRANCH  47  72
ATOM     72  C   UNL A   1      42.799  23.562  27.742  1.00  0.00     0.058 A 
ATOM     73  C   UNL A   1      42.994  23.347  26.369  1.00  0.00     0.135 A 
ATOM     74  C   UNL A   1      42.455  22.456  28.534  1.00  0.00     0.135 A 
ATOM     75  F   UNL A   1      43.320  24.374  25.569  1.00  0.00    -0.206 F 
ATOM     76  C   UNL A   1      42.838  22.089  25.799  1.00  0.00     0.059 A 
ATOM     77  C   UNL A   1      42.318  21.182  27.992  1.00  0.00     0.059 A 
ATOM     78  F   UNL A   1      42.276  22.605  29.856  1.00  0.00    -0.206 F 
ATOM     79  C   UNL A   1      42.501  21.011  26.620  1.00  0.00     0.060 A 
BRANCH  79  80
ATOM     80  S   UNL A   1      42.351  19.372  25.875  1.00  0.00     0.124 S 
ATOM     81  O   UNL A   1      40.907  19.263  25.694  1.00  0.00    -0.237 OA
ATOM     82  O   UNL A   1      43.138  19.516  24.654  1.00  0.00    -0.237 OA
ATOM     83  O   UNL A   1      42.929  18.490  26.884  1.00  0.00    -0.744 OA
ENDBRANCH  79  80
ENDBRANCH  47  72
BRANCH  59  84
ATOM     84  C   UNL A   1      48.183  26.892  30.675  1.00  0.00     0.058 A 
ATOM     85  C   UNL A   1      49.194  26.965  29.704  1.00  0.00     0.135 A 
ATOM     86  C   UNL A   1      48.540  26.466  31.964  1.00  0.00     0.135 A 
ATOM     87  F   UNL A   1      48.904  27.359  28.455  1.00  0.00    -0.206 F 
ATOM     88  C   UNL A   1      50.506  26.607  29.995  1.00  0.00     0.059 A 
ATOM     89  C   UNL A   1      49.851  26.128  32.284  1.00  0.00     0.059 A 
ATOM     90  F   UNL A   1      47.613  26.387  32.932  1.00  0.00    -0.206 F 
ATOM     91  C   UNL A   1      50.826  26.192  31.289  1.00  0.00     0.060 A 
BRANCH  91  92
ATOM     92  S   UNL A   1      52.540  25.765  31.664  1.00  0.00     0.124 S 
ATOM     93  O   UNL A   1      52.427  24.343  31.974  1.00  0.00    -0.237 OA
ATOM     94  O   UNL A   1      53.224  26.089  30.416  1.00  0.00    -0.237 OA
ATOM     95  O   UNL A   1      52.867  26.631  32.793  1.00  0.00    -0.744 OA
ENDBRANCH  91  92
ENDBRANCH  59  84
ENDBRANCH  33  34
ENDBRANCH  25  28
ENDBRANCH  23  24
ENDBRANCH   1  23
TORSDOF 16
ENDMDL
MODEL 2
REMARK VINA RESULT:      -9.4      5.291     12.030
REMARK SMILES COc1cc(Cl)ccc1-c1ccc(CC(=O)NCCCNC(=O)c2ccc(-c3c4nc(c(-c5c(F)cc(S(=O)(=O)[O-])cc5F)c5ccc([nH]5)c(-c5c(F)cc(S(=O)(=O)[O-])cc5F)c5nc(c(-c6c(F)cc(S(=O)(=O)[O-])cc6F)c6ccc3[nH]6)C=C5)C=C4)cc2)cc1
REMARK SMILES IDX 19 1 18 2 17 3 15 4 16 5 14 7 13 8 10 9 11 10 91 11 12 12
REMARK SMILES IDX 90 13 9 14 3 15 4 16 5 17 8 18 6 19 7 20 2 21 1 22 20 23
REMARK SMILES IDX 21 24 22 25 23 27 24 28 25 29 89 30 26 31 88 32 27 33 28 34
REMARK SMILES IDX 29 35 82 36 30 37 87 38 81 39 83 40 31 41 86 42 80 43 79 44
REMARK SMILES IDX 32 46 66 47 45 48 65 49 46 50 49 51 64 52 84 53 47 54 48 55
REMARK SMILES IDX 63 57 85 58 50 59 33 60 34 61 43 62 35 63 36 64 42 65 44 66
REMARK SMILES IDX 37 67 38 68 39 69 40 70 41 71 67 72 68 73 77 74 69 75 70 76
REMARK SMILES IDX 76 77 78 78 71 79 72 80 73 81 74 82 75 83 51 84 52 85 61 86
REMARK SMILES IDX 53 87 54 88 60 89 62 90 55 91 56 92 57 93 58 94 59 95
REMARK H PARENT 17 6 21 26 83 45 49 56
REMARK Flexibility Score: inf
ROOT
ATOM      1  C   UNL A   1      37.480  23.745  25.617  1.00  0.00     0.042 C 
ENDROOT
BRANCH   1   2
ATOM      2  C   UNL A   1      37.110  22.273  25.448  1.00  0.00     0.117 C 
BRANCH   2   3
ATOM      3  N   UNL A   1      36.231  21.799  26.502  1.00  0.00    -0.356 N 
ATOM      4  C   UNL A   1      34.866  21.804  26.550  1.00  0.00     0.224 C 
ATOM      5  O   UNL A   1      34.315  21.389  27.572  1.00  0.00    -0.275 OA
ATOM      6  H   UNL A   1      36.681  21.423  27.292  1.00  0.00     0.163 HD
BRANCH   4   7
ATOM      7  C   UNL A   1      34.061  22.263  25.347  1.00  0.00     0.135 C 
BRANCH   7   8
ATOM      8  C   UNL A   1      33.581  23.691  25.432  1.00  0.00    -0.039 A 
ATOM      9  C   UNL A   1      32.733  26.387  25.634  1.00  0.00    -0.015 A 
ATOM     10  C   UNL A   1      32.025  25.356  26.273  1.00  0.00     0.009 A 
ATOM     11  C   UNL A   1      33.863  26.036  24.882  1.00  0.00     0.009 A 
ATOM     12  C   UNL A   1      32.442  24.024  26.175  1.00  0.00     0.005 A 
ATOM     13  C   UNL A   1      34.273  24.708  24.766  1.00  0.00     0.005 A 
BRANCH   9  14
ATOM     14  C   UNL A   1      32.319  27.797  25.766  1.00  0.00     0.024 A 
ATOM     15  C   UNL A   1      31.612  28.480  24.751  1.00  0.00     0.128 A 
ATOM     16  C   UNL A   1      31.236  29.818  24.913  1.00  0.00     0.067 A 
ATOM     17  C   UNL A   1      31.594  30.502  26.072  1.00  0.00     0.044 A 
ATOM     18  C   UNL A   1      32.666  28.518  26.925  1.00  0.00     0.014 A 
ATOM     19  Cl  UNL A   1      31.124  32.144  26.269  1.00  0.00    -0.084 Cl
ATOM     20  C   UNL A   1      32.311  29.861  27.077  1.00  0.00     0.021 A 
BRANCH  15  21
ATOM     21  O   UNL A   1      31.216  27.771  23.640  1.00  0.00    -0.496 OA
ATOM     22  C   UNL A   1      29.846  27.377  23.691  1.00  0.00     0.278 C 
ENDBRANCH  15  21
ENDBRANCH   9  14
ENDBRANCH   7   8
ENDBRANCH   4   7
ENDBRANCH   2   3
ENDBRANCH   1   2
BRANCH   1  23
ATOM     23  C   UNL A   1      38.559  24.002  26.667  1.00  0.00     0.118 C 
BRANCH  23  24
ATOM     24  N   UNL A   1      39.892  24.106  26.087  1.00  0.00    -0.352 N 
ATOM     25  C   UNL A   1      40.908  24.991  26.346  1.00  0.00     0.251 C 
ATOM     26  H   UNL A   1      40.097  23.432  25.400  1.00  0.00     0.163 HD
ATOM     27  O   UNL A   1      41.887  25.010  25.600  1.00  0.00    -0.269 OA
BRANCH  25  28
ATOM     28  C   UNL A   1      40.837  25.925  27.492  1.00  0.00     0.039 A 
ATOM     29  C   UNL A   1      41.754  26.978  27.558  1.00  0.00     0.014 A 
ATOM     30  C   UNL A   1      39.908  25.745  28.522  1.00  0.00     0.014 A 
ATOM     31  C   UNL A   1      41.700  27.884  28.620  1.00  0.00     0.010 A 
ATOM     32  C   UNL A   1      39.812  26.688  29.545  1.00  0.00     0.010 A 
ATOM     33  C   UNL A   1      40.707  27.767  29.606  1.00  0.00    -0.014 A 
BRANCH  33  34
ATOM     34  C   UNL A   1      40.585  28.765  30.700  1.00  0.00     0.031 A 
ATOM     35  C   UNL A   1      41.443  28.653  31.932  1.00  0.00     0.074 A 
ATOM     36  C   UNL A   1      39.654  29.737  30.613  1.00  0.00     0.049 A 
ATOM     37  N   UNL A   1      41.426  29.380  33.020  1.00  0.00    -0.248 NA
ATOM     38  C   UNL A   1      42.435  27.566  31.953  1.00  0.00     0.031 C 
ATOM     39  C   UNL A   1      38.733  29.926  29.490  1.00  0.00     0.029 A 
ATOM     40  N   UNL A   1      39.318  30.739  31.487  1.00  0.00    -0.354 N 
ATOM     41  C   UNL A   1      42.389  28.832  33.858  1.00  0.00     0.074 A 
ATOM     42  C   UNL A   1      42.940  27.682  33.173  1.00  0.00     0.031 C 
ATOM     43  C   UNL A   1      37.952  30.990  29.734  1.00  0.00     0.029 A 
ATOM     44  C   UNL A   1      38.286  31.535  31.046  1.00  0.00     0.049 A 
ATOM     45  H   UNL A   1      39.773  30.876  32.350  1.00  0.00     0.167 HD
ATOM     46  C   UNL A   1      42.793  29.260  35.079  1.00  0.00     0.037 A 
ATOM     47  C   UNL A   1      37.672  32.579  31.635  1.00  0.00     0.037 A 
ATOM     48  C   UNL A   1      42.258  30.419  35.746  1.00  0.00     0.049 A 
ATOM     49  C   UNL A   1      38.136  33.034  32.993  1.00  0.00     0.074 A 
ATOM     50  C   UNL A   1      42.637  30.965  36.960  1.00  0.00     0.029 A 
ATOM     51  N   UNL A   1      41.228  31.210  35.259  1.00  0.00    -0.354 N 
ATOM     52  N   UNL A   1      39.088  32.538  33.746  1.00  0.00    -0.248 NA
ATOM     53  C   UNL A   1      37.447  34.193  33.577  1.00  0.00     0.031 C 
ATOM     54  C   UNL A   1      41.809  32.061  37.226  1.00  0.00     0.029 A 
ATOM     55  C   UNL A   1      40.947  32.228  36.154  1.00  0.00     0.049 A 
ATOM     56  H   UNL A   1      40.765  31.069  34.401  1.00  0.00     0.167 HD
ATOM     57  C   UNL A   1      39.131  33.341  34.882  1.00  0.00     0.074 A 
ATOM     58  C   UNL A   1      38.117  34.361  34.710  1.00  0.00     0.031 C 
ATOM     59  C   UNL A   1      39.938  33.242  35.967  1.00  0.00     0.037 A 
BRANCH  46  60
ATOM     60  C   UNL A   1      43.872  28.472  35.773  1.00  0.00     0.058 A 
ATOM     61  C   UNL A   1      45.233  28.761  35.583  1.00  0.00     0.135 A 
ATOM     62  C   UNL A   1      43.542  27.441  36.668  1.00  0.00     0.135 A 
ATOM     63  F   UNL A   1      45.606  29.728  34.729  1.00  0.00    -0.206 F 
ATOM     64  C   UNL A   1      46.228  28.035  36.228  1.00  0.00     0.059 A 
ATOM     65  C   UNL A   1      44.521  26.721  37.347  1.00  0.00     0.059 A 
ATOM     66  F   UNL A   1      42.257  27.124  36.890  1.00  0.00    -0.206 F 
ATOM     67  C   UNL A   1      45.863  27.015  37.108  1.00  0.00     0.060 A 
BRANCH  67  68
ATOM     68  S   UNL A   1      47.167  26.084  37.938  1.00  0.00     0.124 S 
ATOM     69  O   UNL A   1      47.416  26.914  39.111  1.00  0.00    -0.237 OA
ATOM     70  O   UNL A   1      46.520  24.801  38.195  1.00  0.00    -0.237 OA
ATOM     71  O   UNL A   1      48.243  26.052  36.952  1.00  0.00    -0.744 OA
ENDBRANCH  67  68
ENDBRANCH  46  60
BRANCH  47  72
ATOM     72  C   UNL A   1      36.567  33.283  30.932  1.00  0.00     0.058 A 
ATOM     73  C   UNL A   1      35.235  33.119  31.341  1.00  0.00     0.135 A 
ATOM     74  C   UNL A   1      36.817  34.141  29.849  1.00  0.00     0.135 A 
ATOM     75  F   UNL A   1      34.945  32.306  32.368  1.00  0.00    -0.206 F 
ATOM     76  C   UNL A   1      34.189  33.767  30.694  1.00  0.00     0.059 A 
ATOM     77  C   UNL A   1      35.790  34.820  29.201  1.00  0.00     0.059 A 
ATOM     78  F   UNL A   1      38.076  34.347  29.431  1.00  0.00    -0.206 F 
ATOM     79  C   UNL A   1      34.477  34.617  29.624  1.00  0.00     0.060 A 
BRANCH  79  80
ATOM     80  S   UNL A   1      33.113  35.491  28.825  1.00  0.00     0.124 S 
ATOM     81  O   UNL A   1      32.471  34.414  28.079  1.00  0.00    -0.237 OA
ATOM     82  O   UNL A   1      32.368  36.010  29.968  1.00  0.00    -0.237 OA
ATOM     83  O   UNL A   1      33.790  36.502  28.018  1.00  0.00    -0.744 OA
ENDBRANCH  79  80
ENDBRANCH  47  72
BRANCH  59  84
ATOM     84  C   UNL A   1      39.785  34.283  37.041  1.00  0.00     0.058 A 
ATOM     85  C   UNL A   1      39.043  34.038  38.206  1.00  0.00     0.135 A 
ATOM     86  C   UNL A   1      40.432  35.524  36.924  1.00  0.00     0.135 A 
ATOM     87  F   UNL A   1      38.398  32.871  38.364  1.00  0.00    -0.206 F 
ATOM     88  C   UNL A   1      38.928  34.995  39.209  1.00  0.00     0.059 A 
ATOM     89  C   UNL A   1      40.354  36.486  37.926  1.00  0.00     0.059 A 
ATOM     90  F   UNL A   1      41.163  35.806  35.833  1.00  0.00    -0.206 F 
ATOM     91  C   UNL A   1      39.590  36.216  39.061  1.00  0.00     0.060 A 
BRANCH  91  92
ATOM     92  S   UNL A   1      39.463  37.436  40.385  1.00  0.00     0.124 S 
ATOM     93  O   UNL A   1      40.868  37.712  40.666  1.00  0.00    -0.237 OA
ATOM     94  O   UNL A   1      38.721  38.518  39.745  1.00  0.00    -0.237 OA
ATOM     95  O   UNL A   1      38.740  36.725  41.436  1.00  0.00    -0.744 OA
ENDBRANCH  91  92
ENDBRANCH  59  84
ENDBRANCH  33  34
ENDBRANCH  25  28
ENDBRANCH  23  24
ENDBRANCH   1  23
TORSDOF 16
ENDMDL
MODEL 3
REMARK VINA RESULT:      -9.3      1.605      2.934
REMARK SMILES COc1cc(Cl)ccc1-c1ccc(CC(=O)NCCCNC(=O)c2ccc(-c3c4nc(c(-c5c(F)cc(S(=O)(=O)[O-])cc5F)c5ccc([nH]5)c(-c5c(F)cc(S(=O)(=O)[O-])cc5F)c5nc(c(-c6c(F)cc(S(=O)(=O)[O-])cc6F)c6ccc3[nH]6)C=C5)C=C4)cc2)cc1
REMARK SMILES IDX 19 1 18 2 17 3 15 4 16 5 14 7 13 8 10 9 11 10 91 11 12 12
REMARK SMILES IDX 90 13 9 14 3 15 4 16 5 17 8 18 6 19 7 20 2 21 1 22 20 23
REMARK SMILES IDX 21 24 22 25 23 27 24 28 25 29 89 30 26 31 88 32 27 33 28 34
REMARK SMILES IDX 29 35 82 36 30 37 87 38 81 39 83 40 31 41 86 42 80 43 79 44
REMARK SMILES IDX 32 46 66 47 45 48 65 49 46 50 49 51 64 52 84 53 47 54 48 55
REMARK SMILES IDX 63 57 85 58 50 59 33 60 34 61 43 62 35 63 36 64 42 65 44 66
REMARK SMILES IDX 37 67 38 68 39 69 40 70 41 71 67 72 68 73 77 74 69 75 70 76
REMARK SMILES IDX 76 77 78 78 71 79 72 80 73 81 74 82 75 83 51 84 52 85 61 86
REMARK SMILES IDX 53 87 54 88 60 89 62 90 55 91 56 92 57 93 58 94 59 95
REMARK H PARENT 17 6 21 26 83 45 49 56
REMARK Flexibility Score: inf
ROOT
ATOM      1  C   UNL A   1      33.586  33.786  28.255  1.00  0.00     0.042 C 
ENDROOT
BRANCH   1   2
ATOM      2  C   UNL A   1      33.770  34.987  29.181  1.00  0.00     0.117 C 
BRANCH   2   3
ATOM      3  N   UNL A   1      32.899  34.929  30.341  1.00  0.00    -0.356 N 
ATOM      4  C   UNL A   1      33.207  35.121  31.657  1.00  0.00     0.224 C 
ATOM      5  O   UNL A   1      32.312  34.981  32.494  1.00  0.00    -0.275 OA
ATOM      6  H   UNL A   1      31.956  34.722  30.153  1.00  0.00     0.163 HD
BRANCH   4   7
ATOM      7  C   UNL A   1      34.607  35.550  32.060  1.00  0.00     0.135 C 
BRANCH   7   8
ATOM      8  C   UNL A   1      35.563  34.405  32.286  1.00  0.00    -0.039 A 
ATOM      9  C   UNL A   1      37.393  32.293  32.755  1.00  0.00    -0.015 A 
ATOM     10  C   UNL A   1      37.417  33.018  31.553  1.00  0.00     0.009 A 
ATOM     11  C   UNL A   1      36.425  32.639  33.709  1.00  0.00     0.009 A 
ATOM     12  C   UNL A   1      36.514  34.061  31.319  1.00  0.00     0.005 A 
ATOM     13  C   UNL A   1      35.510  33.667  33.474  1.00  0.00     0.005 A 
BRANCH   9  14
ATOM     14  C   UNL A   1      38.367  31.217  33.022  1.00  0.00     0.024 A 
ATOM     15  C   UNL A   1      39.680  31.475  33.474  1.00  0.00     0.128 A 
ATOM     16  C   UNL A   1      40.576  30.428  33.716  1.00  0.00     0.067 A 
ATOM     17  C   UNL A   1      40.184  29.113  33.476  1.00  0.00     0.044 A 
ATOM     18  C   UNL A   1      38.003  29.876  32.788  1.00  0.00     0.014 A 
ATOM     19  Cl  UNL A   1      41.285  27.828  33.782  1.00  0.00    -0.084 Cl
ATOM     20  C   UNL A   1      38.905  28.832  33.008  1.00  0.00     0.021 A 
BRANCH  15  21
ATOM     21  O   UNL A   1      40.029  32.775  33.762  1.00  0.00    -0.496 OA
ATOM     22  C   UNL A   1      40.002  33.060  35.159  1.00  0.00     0.278 C 
ENDBRANCH  15  21
ENDBRANCH   9  14
ENDBRANCH   7   8
ENDBRANCH   4   7
ENDBRANCH   2   3
ENDBRANCH   1   2
BRANCH   1  23
ATOM     23  C   UNL A   1      34.391  32.554  28.664  1.00  0.00     0.118 C 
BRANCH  23  24
ATOM     24  N   UNL A   1      33.820  31.316  28.150  1.00  0.00    -0.352 N 
ATOM     25  C   UNL A   1      34.425  30.134  27.803  1.00  0.00     0.251 C 
ATOM     26  H   UNL A   1      32.842  31.329  28.033  1.00  0.00     0.163 HD
ATOM     27  O   UNL A   1      33.766  29.279  27.211  1.00  0.00    -0.269 OA
BRANCH  25  28
ATOM     28  C   UNL A   1      35.848  29.882  28.116  1.00  0.00     0.039 A 
ATOM     29  C   UNL A   1      36.194  29.512  29.419  1.00  0.00     0.014 A 
ATOM     30  C   UNL A   1      36.848  30.052  27.153  1.00  0.00     0.014 A 
ATOM     31  C   UNL A   1      37.529  29.252  29.739  1.00  0.00     0.010 A 
ATOM     32  C   UNL A   1      38.170  29.727  27.456  1.00  0.00     0.010 A 
ATOM     33  C   UNL A   1      38.525  29.325  28.752  1.00  0.00    -0.014 A 
BRANCH  33  34
ATOM     34  C   UNL A   1      39.938  28.977  29.055  1.00  0.00     0.031 A 
ATOM     35  C   UNL A   1      40.861  30.001  29.660  1.00  0.00     0.074 A 
ATOM     36  C   UNL A   1      40.408  27.757  28.723  1.00  0.00     0.049 A 
ATOM     37  N   UNL A   1      42.140  29.908  29.922  1.00  0.00    -0.248 NA
ATOM     38  C   UNL A   1      40.275  31.308  29.993  1.00  0.00     0.031 C 
ATOM     39  C   UNL A   1      39.624  26.693  28.093  1.00  0.00     0.029 A 
ATOM     40  N   UNL A   1      41.659  27.210  28.858  1.00  0.00    -0.354 N 
ATOM     41  C   UNL A   1      42.514  31.143  30.436  1.00  0.00     0.074 A 
ATOM     42  C   UNL A   1      41.337  31.986  30.404  1.00  0.00     0.031 C 
ATOM     43  C   UNL A   1      40.405  25.616  27.914  1.00  0.00     0.029 A 
ATOM     44  C   UNL A   1      41.755  25.924  28.378  1.00  0.00     0.049 A 
ATOM     45  H   UNL A   1      42.417  27.693  29.260  1.00  0.00     0.167 HD
ATOM     46  C   UNL A   1      43.722  31.535  30.909  1.00  0.00     0.037 A 
ATOM     47  C   UNL A   1      42.811  25.092  28.310  1.00  0.00     0.037 A 
ATOM     48  C   UNL A   1      44.883  30.684  30.960  1.00  0.00     0.049 A 
ATOM     49  C   UNL A   1      44.143  25.549  28.840  1.00  0.00     0.074 A 
ATOM     50  C   UNL A   1      46.137  30.970  31.471  1.00  0.00     0.029 A 
ATOM     51  N   UNL A   1      44.934  29.383  30.483  1.00  0.00    -0.354 N 
ATOM     52  N   UNL A   1      44.464  26.704  29.374  1.00  0.00    -0.248 NA
ATOM     53  C   UNL A   1      45.255  24.592  28.762  1.00  0.00     0.031 C 
ATOM     54  C   UNL A   1      46.959  29.856  31.265  1.00  0.00     0.029 A 
ATOM     55  C   UNL A   1      46.203  28.858  30.671  1.00  0.00     0.049 A 
ATOM     56  H   UNL A   1      44.180  28.902  30.072  1.00  0.00     0.167 HD
ATOM     57  C   UNL A   1      45.807  26.601  29.722  1.00  0.00     0.074 A 
ATOM     58  C   UNL A   1      46.234  25.269  29.347  1.00  0.00     0.031 C 
ATOM     59  C   UNL A   1      46.612  27.526  30.300  1.00  0.00     0.037 A 
BRANCH  46  60
ATOM     60  C   UNL A   1      43.849  32.947  31.416  1.00  0.00     0.058 A 
ATOM     61  C   UNL A   1      44.201  34.006  30.564  1.00  0.00     0.135 A 
ATOM     62  C   UNL A   1      43.580  33.251  32.760  1.00  0.00     0.135 A 
ATOM     63  F   UNL A   1      44.481  33.771  29.272  1.00  0.00    -0.206 F 
ATOM     64  C   UNL A   1      44.313  35.311  31.033  1.00  0.00     0.059 A 
ATOM     65  C   UNL A   1      43.659  34.554  33.245  1.00  0.00     0.059 A 
ATOM     66  F   UNL A   1      43.237  32.277  33.619  1.00  0.00    -0.206 F 
ATOM     67  C   UNL A   1      44.042  35.575  32.376  1.00  0.00     0.060 A 
BRANCH  67  68
ATOM     68  S   UNL A   1      44.192  37.274  32.968  1.00  0.00     0.124 S 
ATOM     69  O   UNL A   1      43.024  37.383  33.836  1.00  0.00    -0.237 OA
ATOM     70  O   UNL A   1      45.485  37.256  33.645  1.00  0.00    -0.237 OA
ATOM     71  O   UNL A   1      44.141  38.067  31.744  1.00  0.00    -0.744 OA
ENDBRANCH  67  68
ENDBRANCH  46  60
BRANCH  47  72
ATOM     72  C   UNL A   1      42.645  23.727  27.740  1.00  0.00     0.058 A 
ATOM     73  C   UNL A   1      42.491  22.613  28.577  1.00  0.00     0.135 A 
ATOM     74  C   UNL A   1      42.624  23.511  26.353  1.00  0.00     0.135 A 
ATOM     75  F   UNL A   1      42.509  22.768  29.910  1.00  0.00    -0.206 F 
ATOM     76  C   UNL A   1      42.338  21.330  28.063  1.00  0.00     0.059 A 
ATOM     77  C   UNL A   1      42.447  22.241  25.814  1.00  0.00     0.059 A 
ATOM     78  F   UNL A   1      42.749  24.547  25.509  1.00  0.00    -0.206 F 
ATOM     79  C   UNL A   1      42.316  21.154  26.678  1.00  0.00     0.060 A 
BRANCH  79  80
ATOM     80  S   UNL A   1      42.066  19.489  26.023  1.00  0.00     0.124 S 
ATOM     81  O   UNL A   1      40.625  19.477  25.798  1.00  0.00    -0.237 OA
ATOM     82  O   UNL A   1      42.899  19.502  24.826  1.00  0.00    -0.237 OA
ATOM     83  O   UNL A   1      42.545  18.630  27.102  1.00  0.00    -0.744 OA
ENDBRANCH  79  80
ENDBRANCH  47  72
BRANCH  59  84
ATOM     84  C   UNL A   1      48.030  27.122  30.597  1.00  0.00     0.058 A 
ATOM     85  C   UNL A   1      49.053  27.267  29.649  1.00  0.00     0.135 A 
ATOM     86  C   UNL A   1      48.376  26.630  31.866  1.00  0.00     0.135 A 
ATOM     87  F   UNL A   1      48.775  27.725  28.419  1.00  0.00    -0.206 F 
ATOM     88  C   UNL A   1      50.368  26.918  29.940  1.00  0.00     0.059 A 
ATOM     89  C   UNL A   1      49.688  26.299  32.189  1.00  0.00     0.059 A 
ATOM     90  F   UNL A   1      47.436  26.480  32.814  1.00  0.00    -0.206 F 
ATOM     91  C   UNL A   1      50.676  26.437  31.214  1.00  0.00     0.060 A 
BRANCH  91  92
ATOM     92  S   UNL A   1      52.392  26.021  31.592  1.00  0.00     0.124 S 
ATOM     93  O   UNL A   1      52.698  26.971  32.657  1.00  0.00    -0.237 OA
ATOM     94  O   UNL A   1      52.293  24.622  31.999  1.00  0.00    -0.237 OA
ATOM     95  O   UNL A   1      53.084  26.250  30.326  1.00  0.00    -0.744 OA
ENDBRANCH  91  92
ENDBRANCH  59  84
ENDBRANCH  33  34
ENDBRANCH  25  28
ENDBRANCH  23  24
ENDBRANCH   1  23
TORSDOF 16
ENDMDL
