MODEL 1
REMARK VINA RESULT:     -12.0      0.000      0.000
REMARK SMILES CC[NH2+][C@]1(C(=O)NCCCNC(=O)c2ccc(-c3c4nc(c(-c5c(F)cc(S(=O)(=O)[O-])cc5F)c5ccc([nH]5)c(-c5c(F)cc(S(=O)(=O)[O-])cc5F)c5nc(c(-c6c(F)cc(S(=O)(=O)[O-])cc6F)c6ccc3[nH]6)C=C5)C=C4)cc2)CCC[C@@H]1CC[N@H+]1C[C@H](C)OC[C@@H]1C
REMARK SMILES IDX 9 1 8 2 7 3 5 4 6 5 4 7 80 8 83 9 81 10 82 11 3 12 2 15 1 16
REMARK SMILES IDX 84 17 85 18 86 19 87 20 92 21 88 23 91 24 93 25 90 26 89 27
REMARK SMILES IDX 10 28 11 29 12 30 13 32 14 33 15 34 79 35 16 36 78 37 17 38
REMARK SMILES IDX 18 39 19 40 72 41 20 42 77 43 71 44 73 45 21 46 76 47 70 48
REMARK SMILES IDX 69 49 22 51 56 52 35 53 55 54 36 55 39 56 54 57 74 58 37 59
REMARK SMILES IDX 38 60 53 62 75 63 40 64 23 65 24 66 33 67 25 68 26 69 32 70
REMARK SMILES IDX 34 71 27 72 28 73 29 74 30 75 31 76 57 77 58 78 67 79 59 80
REMARK SMILES IDX 60 81 66 82 68 83 61 84 62 85 63 86 64 87 65 88 41 89 42 90
REMARK SMILES IDX 51 91 43 92 44 93 50 94 52 95 45 96 46 97 47 98 48 99 49 100
REMARK H PARENT 7 6 3 13 3 14 86 22 11 31 73 50 39 61
REMARK Flexibility Score: inf
ROOT
ATOM      1  C   UNL A   1      38.957  22.192  26.240  1.00  0.00     0.042 C 
ENDROOT
BRANCH   1   2
ATOM      2  C   UNL A   1      37.705  22.914  25.781  1.00  0.00     0.118 C 
BRANCH   2   3
ATOM      3  N   UNL A   1      37.408  22.822  24.362  1.00  0.00    -0.351 N 
ATOM      4  C   UNL A   1      36.281  23.034  23.619  1.00  0.00     0.281 C 
ATOM      5  O   UNL A   1      36.486  23.051  22.390  1.00  0.00    -0.268 OA
ATOM      6  H   UNL A   1      38.184  22.548  23.821  1.00  0.00     0.163 HD
BRANCH   4   7
ATOM      7  C   UNL A   1      34.784  23.069  24.144  1.00  0.00     0.178 C 
ATOM      8  C   UNL A   1      34.041  23.790  22.980  1.00  0.00     0.079 C 
ATOM      9  C   UNL A   1      33.994  21.747  24.222  1.00  0.00     0.066 C 
ATOM     10  C   UNL A   1      32.574  23.410  23.077  1.00  0.00     0.008 C 
ATOM     11  C   UNL A   1      32.525  22.120  23.897  1.00  0.00     0.011 C 
BRANCH   7  12
ATOM     12  N   UNL A   1      34.739  23.943  25.353  1.00  0.00    -0.334 N 
ATOM     13  H   UNL A   1      33.975  23.599  25.935  1.00  0.00     0.347 HD
ATOM     14  H   UNL A   1      35.685  23.872  25.726  1.00  0.00     0.347 HD
BRANCH  12  15
ATOM     15  C   UNL A   1      34.545  25.373  25.214  1.00  0.00     0.257 C 
ATOM     16  C   UNL A   1      33.276  25.855  25.905  1.00  0.00     0.071 C 
ENDBRANCH  12  15
ENDBRANCH   7  12
BRANCH   9  17
ATOM     17  C   UNL A   1      34.113  20.777  25.430  1.00  0.00     0.072 C 
BRANCH  17  18
ATOM     18  C   UNL A   1      34.526  19.287  25.287  1.00  0.00     0.263 C 
BRANCH  18  19
ATOM     19  N   UNL A   1      33.436  18.308  25.259  1.00  0.00    -0.329 N 
ATOM     20  C   UNL A   1      32.518  18.545  24.124  1.00  0.00     0.294 C 
ATOM     21  C   UNL A   1      33.872  16.886  25.234  1.00  0.00     0.207 C 
ATOM     22  H   UNL A   1      32.955  18.453  26.145  1.00  0.00     0.348 HD
ATOM     23  C   UNL A   1      33.057  18.043  22.762  1.00  0.00     0.170 C 
ATOM     24  C   UNL A   1      34.398  16.438  23.853  1.00  0.00     0.225 C 
ATOM     25  C   UNL A   1      32.721  15.958  25.671  1.00  0.00     0.078 C 
ATOM     26  O   UNL A   1      33.426  16.657  22.821  1.00  0.00    -0.366 OA
ATOM     27  C   UNL A   1      31.996  18.193  21.681  1.00  0.00     0.045 C 
ENDBRANCH  18  19
ENDBRANCH  17  18
ENDBRANCH   9  17
ENDBRANCH   4   7
ENDBRANCH   2   3
ENDBRANCH   1   2
BRANCH   1  28
ATOM     28  C   UNL A   1      39.890  23.077  27.050  1.00  0.00     0.118 C 
BRANCH  28  29
ATOM     29  N   UNL A   1      41.025  23.594  26.279  1.00  0.00    -0.352 N 
ATOM     30  C   UNL A   1      41.637  24.831  26.230  1.00  0.00     0.251 C 
ATOM     31  H   UNL A   1      41.430  22.927  25.678  1.00  0.00     0.163 HD
ATOM     32  O   UNL A   1      42.470  25.047  25.362  1.00  0.00    -0.269 OA
BRANCH  30  33
ATOM     33  C   UNL A   1      41.263  25.899  27.186  1.00  0.00     0.039 A 
ATOM     34  C   UNL A   1      40.285  25.653  28.156  1.00  0.00     0.014 A 
ATOM     35  C   UNL A   1      41.880  27.143  27.137  1.00  0.00     0.014 A 
ATOM     36  C   UNL A   1      40.028  26.614  29.141  1.00  0.00     0.010 A 
ATOM     37  C   UNL A   1      41.743  28.024  28.198  1.00  0.00     0.010 A 
ATOM     38  C   UNL A   1      40.808  27.779  29.212  1.00  0.00    -0.014 A 
BRANCH  38  39
ATOM     39  C   UNL A   1      40.683  28.759  30.324  1.00  0.00     0.031 A 
ATOM     40  C   UNL A   1      41.536  28.614  31.561  1.00  0.00     0.074 A 
ATOM     41  C   UNL A   1      39.711  29.693  30.284  1.00  0.00     0.049 A 
ATOM     42  N   UNL A   1      41.471  29.267  32.693  1.00  0.00    -0.248 NA
ATOM     43  C   UNL A   1      42.554  27.550  31.545  1.00  0.00     0.031 C 
ATOM     44  C   UNL A   1      38.747  29.869  29.193  1.00  0.00     0.029 A 
ATOM     45  N   UNL A   1      39.356  30.657  31.193  1.00  0.00    -0.354 N 
ATOM     46  C   UNL A   1      42.398  28.660  33.533  1.00  0.00     0.074 A 
ATOM     47  C   UNL A   1      42.960  27.545  32.804  1.00  0.00     0.031 C 
ATOM     48  C   UNL A   1      37.935  30.896  29.482  1.00  0.00     0.029 A 
ATOM     49  C   UNL A   1      38.289  31.427  30.794  1.00  0.00     0.049 A 
ATOM     50  H   UNL A   1      39.822  30.785  32.051  1.00  0.00     0.167 HD
ATOM     51  C   UNL A   1      42.771  29.016  34.785  1.00  0.00     0.037 A 
ATOM     52  C   UNL A   1      37.661  32.444  31.414  1.00  0.00     0.037 A 
ATOM     53  C   UNL A   1      42.257  30.170  35.473  1.00  0.00     0.049 A 
ATOM     54  C   UNL A   1      38.154  32.888  32.762  1.00  0.00     0.074 A 
ATOM     55  C   UNL A   1      42.652  30.697  36.688  1.00  0.00     0.029 A 
ATOM     56  N   UNL A   1      41.235  30.979  34.997  1.00  0.00    -0.354 N 
ATOM     57  N   UNL A   1      39.101  32.365  33.504  1.00  0.00    -0.248 NA
ATOM     58  C   UNL A   1      37.505  34.066  33.351  1.00  0.00     0.031 C 
ATOM     59  C   UNL A   1      41.842  31.804  36.966  1.00  0.00     0.029 A 
ATOM     60  C   UNL A   1      40.971  31.992  35.904  1.00  0.00     0.049 A 
ATOM     61  H   UNL A   1      40.765  30.852  34.141  1.00  0.00     0.167 HD
ATOM     62  C   UNL A   1      39.169  33.154  34.646  1.00  0.00     0.074 A 
ATOM     63  C   UNL A   1      38.182  34.203  34.484  1.00  0.00     0.031 C 
ATOM     64  C   UNL A   1      39.974  33.020  35.730  1.00  0.00     0.037 A 
BRANCH  51  65
ATOM     65  C   UNL A   1      43.792  28.148  35.476  1.00  0.00     0.058 A 
ATOM     66  C   UNL A   1      45.173  28.346  35.302  1.00  0.00     0.135 A 
ATOM     67  C   UNL A   1      43.385  27.090  36.303  1.00  0.00     0.135 A 
ATOM     68  F   UNL A   1      45.621  29.335  34.512  1.00  0.00    -0.206 F 
ATOM     69  C   UNL A   1      46.109  27.488  35.869  1.00  0.00     0.059 A 
ATOM     70  C   UNL A   1      44.307  26.241  36.911  1.00  0.00     0.059 A 
ATOM     71  F   UNL A   1      42.080  26.857  36.513  1.00  0.00    -0.206 F 
ATOM     72  C   UNL A   1      45.665  26.431  36.664  1.00  0.00     0.060 A 
BRANCH  72  73
ATOM     73  S   UNL A   1      46.889  25.301  37.361  1.00  0.00     0.124 S 
ATOM     74  O   UNL A   1      46.918  25.731  38.755  1.00  0.00    -0.237 OA
ATOM     75  O   UNL A   1      46.288  23.994  37.113  1.00  0.00    -0.237 OA
ATOM     76  O   UNL A   1      48.093  25.590  36.589  1.00  0.00    -0.744 OA
ENDBRANCH  72  73
ENDBRANCH  51  65
BRANCH  52  77
ATOM     77  C   UNL A   1      36.533  33.129  30.730  1.00  0.00     0.058 A 
ATOM     78  C   UNL A   1      35.215  32.964  31.179  1.00  0.00     0.135 A 
ATOM     79  C   UNL A   1      36.758  34.024  29.672  1.00  0.00     0.135 A 
ATOM     80  F   UNL A   1      34.951  32.118  32.184  1.00  0.00    -0.206 F 
ATOM     81  C   UNL A   1      34.158  33.668  30.610  1.00  0.00     0.059 A 
ATOM     82  C   UNL A   1      35.720  34.754  29.100  1.00  0.00     0.059 A 
ATOM     83  F   UNL A   1      38.004  34.231  29.221  1.00  0.00    -0.206 F 
ATOM     84  C   UNL A   1      34.423  34.569  29.577  1.00  0.00     0.060 A 
BRANCH  84  85
ATOM     85  S   UNL A   1      33.060  35.557  28.920  1.00  0.00     0.124 S 
ATOM     86  O   UNL A   1      32.352  34.577  28.106  1.00  0.00    -0.237 OA
ATOM     87  O   UNL A   1      32.381  35.988  30.137  1.00  0.00    -0.237 OA
ATOM     88  O   UNL A   1      33.741  36.619  28.184  1.00  0.00    -0.744 OA
ENDBRANCH  84  85
ENDBRANCH  52  77
BRANCH  64  89
ATOM     89  C   UNL A   1      39.823  34.038  36.824  1.00  0.00     0.058 A 
ATOM     90  C   UNL A   1      40.483  35.275  36.769  1.00  0.00     0.135 A 
ATOM     91  C   UNL A   1      38.977  33.791  37.916  1.00  0.00     0.135 A 
ATOM     92  F   UNL A   1      41.308  35.558  35.749  1.00  0.00    -0.206 F 
ATOM     93  C   UNL A   1      40.328  36.224  37.774  1.00  0.00     0.059 A 
ATOM     94  C   UNL A   1      38.787  34.736  38.919  1.00  0.00     0.059 A 
ATOM     95  F   UNL A   1      38.315  32.626  38.009  1.00  0.00    -0.206 F 
ATOM     96  C   UNL A   1      39.478  35.944  38.845  1.00  0.00     0.060 A 
BRANCH  96  97
ATOM     97  S   UNL A   1      39.266  37.192  40.133  1.00  0.00     0.124 S 
ATOM     98  O   UNL A   1      38.545  36.438  41.153  1.00  0.00    -0.237 OA
ATOM     99  O   UNL A   1      40.645  37.542  40.461  1.00  0.00    -0.237 OA
ATOM    100  O   UNL A   1      38.501  38.240  39.467  1.00  0.00    -0.744 OA
ENDBRANCH  96  97
ENDBRANCH  64  89
ENDBRANCH  38  39
ENDBRANCH  30  33
ENDBRANCH  28  29
ENDBRANCH   1  28
TORSDOF 18
ENDMDL
MODEL 2
REMARK VINA RESULT:     -11.6      5.052     10.862
REMARK SMILES CC[NH2+][C@]1(C(=O)NCCCNC(=O)c2ccc(-c3c4nc(c(-c5c(F)cc(S(=O)(=O)[O-])cc5F)c5ccc([nH]5)c(-c5c(F)cc(S(=O)(=O)[O-])cc5F)c5nc(c(-c6c(F)cc(S(=O)(=O)[O-])cc6F)c6ccc3[nH]6)C=C5)C=C4)cc2)CCC[C@@H]1CC[N@H+]1C[C@H](C)OC[C@@H]1C
REMARK SMILES IDX 9 1 8 2 7 3 5 4 6 5 4 7 80 8 83 9 81 10 82 11 3 12 2 15 1 16
REMARK SMILES IDX 84 17 85 18 86 19 87 20 92 21 88 23 91 24 93 25 90 26 89 27
REMARK SMILES IDX 10 28 11 29 12 30 13 32 14 33 15 34 79 35 16 36 78 37 17 38
REMARK SMILES IDX 18 39 19 40 72 41 20 42 77 43 71 44 73 45 21 46 76 47 70 48
REMARK SMILES IDX 69 49 22 51 56 52 35 53 55 54 36 55 39 56 54 57 74 58 37 59
REMARK SMILES IDX 38 60 53 62 75 63 40 64 23 65 24 66 33 67 25 68 26 69 32 70
REMARK SMILES IDX 34 71 27 72 28 73 29 74 30 75 31 76 57 77 58 78 67 79 59 80
REMARK SMILES IDX 60 81 66 82 68 83 61 84 62 85 63 86 64 87 65 88 41 89 42 90
REMARK SMILES IDX 51 91 43 92 44 93 50 94 52 95 45 96 46 97 47 98 48 99 49 100
REMARK H PARENT 7 6 3 13 3 14 86 22 11 31 73 50 39 61
REMARK Flexibility Score: inf
ROOT
ATOM      1  C   UNL A   1      33.791  28.211  25.908  1.00  0.00     0.042 C 
ENDROOT
BRANCH   1   2
ATOM      2  C   UNL A   1      33.876  26.725  25.622  1.00  0.00     0.118 C 
BRANCH   2   3
ATOM      3  N   UNL A   1      34.043  26.361  24.225  1.00  0.00    -0.351 N 
ATOM      4  C   UNL A   1      33.330  25.572  23.365  1.00  0.00     0.281 C 
ATOM      5  O   UNL A   1      33.686  25.678  22.176  1.00  0.00    -0.268 OA
ATOM      6  H   UNL A   1      34.837  26.768  23.810  1.00  0.00     0.163 HD
BRANCH   4   7
ATOM      7  C   UNL A   1      32.273  24.453  23.749  1.00  0.00     0.178 C 
ATOM      8  C   UNL A   1      33.016  23.666  24.870  1.00  0.00     0.079 C 
ATOM      9  C   UNL A   1      30.985  24.872  24.487  1.00  0.00     0.066 C 
ATOM     10  C   UNL A   1      31.959  22.951  25.694  1.00  0.00     0.008 C 
ATOM     11  C   UNL A   1      30.647  23.692  25.435  1.00  0.00     0.011 C 
BRANCH   7  12
ATOM     12  N   UNL A   1      32.101  23.556  22.569  1.00  0.00    -0.334 N 
ATOM     13  H   UNL A   1      31.118  23.283  22.549  1.00  0.00     0.347 HD
ATOM     14  H   UNL A   1      32.449  24.121  21.795  1.00  0.00     0.347 HD
BRANCH  12  15
ATOM     15  C   UNL A   1      32.874  22.335  22.461  1.00  0.00     0.257 C 
ATOM     16  C   UNL A   1      31.991  21.098  22.354  1.00  0.00     0.071 C 
ENDBRANCH  12  15
ENDBRANCH   7  12
BRANCH   9  17
ATOM     17  C   UNL A   1      29.737  25.417  23.741  1.00  0.00     0.072 C 
BRANCH  17  18
ATOM     18  C   UNL A   1      29.285  26.900  23.809  1.00  0.00     0.263 C 
BRANCH  18  19
ATOM     19  N   UNL A   1      29.991  27.838  22.932  1.00  0.00    -0.329 N 
ATOM     20  C   UNL A   1      29.092  28.905  22.438  1.00  0.00     0.294 C 
ATOM     21  C   UNL A   1      31.198  28.468  23.529  1.00  0.00     0.207 C 
ATOM     22  H   UNL A   1      30.313  27.256  22.160  1.00  0.00     0.348 HD
ATOM     23  C   UNL A   1      28.812  30.022  23.472  1.00  0.00     0.170 C 
ATOM     24  C   UNL A   1      30.861  29.575  24.551  1.00  0.00     0.225 C 
ATOM     25  C   UNL A   1      32.110  29.045  22.429  1.00  0.00     0.078 C 
ATOM     26  O   UNL A   1      30.030  30.592  23.974  1.00  0.00    -0.366 OA
ATOM     27  C   UNL A   1      28.003  31.145  22.838  1.00  0.00     0.045 C 
ENDBRANCH  18  19
ENDBRANCH  17  18
ENDBRANCH   9  17
ENDBRANCH   4   7
ENDBRANCH   2   3
ENDBRANCH   1   2
BRANCH   1  28
ATOM     28  C   UNL A   1      33.265  28.519  27.301  1.00  0.00     0.118 C 
BRANCH  28  29
ATOM     29  N   UNL A   1      33.401  29.929  27.681  1.00  0.00    -0.352 N 
ATOM     30  C   UNL A   1      34.441  30.655  28.226  1.00  0.00     0.251 C 
ATOM     31  H   UNL A   1      32.590  30.462  27.514  1.00  0.00     0.163 HD
ATOM     32  O   UNL A   1      34.232  31.797  28.609  1.00  0.00    -0.269 OA
BRANCH  30  33
ATOM     33  C   UNL A   1      35.784  30.051  28.385  1.00  0.00     0.039 A 
ATOM     34  C   UNL A   1      36.694  30.087  27.323  1.00  0.00     0.014 A 
ATOM     35  C   UNL A   1      36.155  29.453  29.583  1.00  0.00     0.014 A 
ATOM     36  C   UNL A   1      38.004  29.635  27.517  1.00  0.00     0.010 A 
ATOM     37  C   UNL A   1      37.488  29.157  29.824  1.00  0.00     0.010 A 
ATOM     38  C   UNL A   1      38.432  29.234  28.792  1.00  0.00    -0.014 A 
BRANCH  38  39
ATOM     39  C   UNL A   1      39.849  28.893  29.090  1.00  0.00     0.031 A 
ATOM     40  C   UNL A   1      40.774  29.935  29.669  1.00  0.00     0.074 A 
ATOM     41  C   UNL A   1      40.339  27.694  28.714  1.00  0.00     0.049 A 
ATOM     42  N   UNL A   1      42.068  29.882  29.856  1.00  0.00    -0.248 NA
ATOM     43  C   UNL A   1      40.173  31.232  30.025  1.00  0.00     0.031 C 
ATOM     44  C   UNL A   1      39.576  26.637  28.044  1.00  0.00     0.029 A 
ATOM     45  N   UNL A   1      41.602  27.169  28.820  1.00  0.00    -0.354 N 
ATOM     46  C   UNL A   1      42.438  31.148  30.298  1.00  0.00     0.074 A 
ATOM     47  C   UNL A   1      41.245  31.964  30.284  1.00  0.00     0.031 C 
ATOM     48  C   UNL A   1      40.375  25.582  27.829  1.00  0.00     0.029 A 
ATOM     49  C   UNL A   1      41.718  25.899  28.306  1.00  0.00     0.049 A 
ATOM     50  H   UNL A   1      42.355  27.656  29.225  1.00  0.00     0.167 HD
ATOM     51  C   UNL A   1      43.653  31.583  30.709  1.00  0.00     0.037 A 
ATOM     52  C   UNL A   1      42.784  25.081  28.221  1.00  0.00     0.037 A 
ATOM     53  C   UNL A   1      44.817  30.742  30.786  1.00  0.00     0.049 A 
ATOM     54  C   UNL A   1      44.102  25.546  28.773  1.00  0.00     0.074 A 
ATOM     55  C   UNL A   1      46.064  31.041  31.302  1.00  0.00     0.029 A 
ATOM     56  N   UNL A   1      44.872  29.431  30.335  1.00  0.00    -0.354 N 
ATOM     57  N   UNL A   1      44.414  26.714  29.280  1.00  0.00    -0.248 NA
ATOM     58  C   UNL A   1      45.208  24.580  28.752  1.00  0.00     0.031 C 
ATOM     59  C   UNL A   1      46.886  29.921  31.130  1.00  0.00     0.029 A 
ATOM     60  C   UNL A   1      46.138  28.910  30.545  1.00  0.00     0.049 A 
ATOM     61  H   UNL A   1      44.121  28.942  29.927  1.00  0.00     0.167 HD
ATOM     62  C   UNL A   1      45.750  26.624  29.649  1.00  0.00     0.074 A 
ATOM     63  C   UNL A   1      46.179  25.278  29.325  1.00  0.00     0.031 C 
ATOM     64  C   UNL A   1      46.549  27.571  30.203  1.00  0.00     0.037 A 
BRANCH  51  65
ATOM     65  C   UNL A   1      43.768  33.031  31.114  1.00  0.00     0.058 A 
ATOM     66  C   UNL A   1      44.164  34.026  30.205  1.00  0.00     0.135 A 
ATOM     67  C   UNL A   1      43.502  33.424  32.435  1.00  0.00     0.135 A 
ATOM     68  F   UNL A   1      44.444  33.707  28.931  1.00  0.00    -0.206 F 
ATOM     69  C   UNL A   1      44.355  35.345  30.605  1.00  0.00     0.059 A 
ATOM     70  C   UNL A   1      43.651  34.746  32.849  1.00  0.00     0.059 A 
ATOM     71  F   UNL A   1      43.113  32.519  33.346  1.00  0.00    -0.206 F 
ATOM     72  C   UNL A   1      44.106  35.693  31.933  1.00  0.00     0.060 A 
BRANCH  72  73
ATOM     73  S   UNL A   1      44.397  37.398  32.448  1.00  0.00     0.124 S 
ATOM     74  O   UNL A   1      43.316  37.598  33.408  1.00  0.00    -0.237 OA
ATOM     75  O   UNL A   1      45.741  37.331  33.012  1.00  0.00    -0.237 OA
ATOM     76  O   UNL A   1      44.280  38.151  31.204  1.00  0.00    -0.744 OA
ENDBRANCH  72  73
ENDBRANCH  51  65
BRANCH  52  77
ATOM     77  C   UNL A   1      42.618  23.726  27.632  1.00  0.00     0.058 A 
ATOM     78  C   UNL A   1      42.781  23.516  26.256  1.00  0.00     0.135 A 
ATOM     79  C   UNL A   1      42.375  22.604  28.442  1.00  0.00     0.135 A 
ATOM     80  F   UNL A   1      43.011  24.558  25.443  1.00  0.00    -0.206 F 
ATOM     81  C   UNL A   1      42.720  22.242  25.700  1.00  0.00     0.059 A 
ATOM     82  C   UNL A   1      42.329  21.318  27.912  1.00  0.00     0.059 A 
ATOM     83  F   UNL A   1      42.232  22.751  29.768  1.00  0.00    -0.206 F 
ATOM     84  C   UNL A   1      42.504  21.147  26.539  1.00  0.00     0.060 A 
BRANCH  84  85
ATOM     85  S   UNL A   1      42.535  19.489  25.822  1.00  0.00     0.124 S 
ATOM     86  O   UNL A   1      42.881  18.674  26.980  1.00  0.00    -0.237 OA
ATOM     87  O   UNL A   1      41.172  19.346  25.323  1.00  0.00    -0.237 OA
ATOM     88  O   UNL A   1      43.563  19.591  24.789  1.00  0.00    -0.744 OA
ENDBRANCH  84  85
ENDBRANCH  52  77
BRANCH  64  89
ATOM     89  C   UNL A   1      47.969  27.180  30.498  1.00  0.00     0.058 A 
ATOM     90  C   UNL A   1      49.010  27.468  29.602  1.00  0.00     0.135 A 
ATOM     91  C   UNL A   1      48.299  26.550  31.708  1.00  0.00     0.135 A 
ATOM     92  F   UNL A   1      48.746  28.064  28.427  1.00  0.00    -0.206 F 
ATOM     93  C   UNL A   1      50.327  27.122  29.884  1.00  0.00     0.059 A 
ATOM     94  C   UNL A   1      49.613  26.219  32.023  1.00  0.00     0.059 A 
ATOM     95  F   UNL A   1      47.341  26.263  32.604  1.00  0.00    -0.206 F 
ATOM     96  C   UNL A   1      50.618  26.497  31.097  1.00  0.00     0.060 A 
BRANCH  96  97
ATOM     97  S   UNL A   1      52.333  26.073  31.464  1.00  0.00     0.124 S 
ATOM     98  O   UNL A   1      52.195  24.713  31.975  1.00  0.00    -0.237 OA
ATOM     99  O   UNL A   1      52.974  26.197  30.158  1.00  0.00    -0.237 OA
ATOM    100  O   UNL A   1      52.728  27.076  32.447  1.00  0.00    -0.744 OA
ENDBRANCH  96  97
ENDBRANCH  64  89
ENDBRANCH  38  39
ENDBRANCH  30  33
ENDBRANCH  28  29
ENDBRANCH   1  28
TORSDOF 18
ENDMDL
MODEL 3
REMARK VINA RESULT:     -11.6      3.986     10.269
REMARK SMILES CC[NH2+][C@]1(C(=O)NCCCNC(=O)c2ccc(-c3c4nc(c(-c5c(F)cc(S(=O)(=O)[O-])cc5F)c5ccc([nH]5)c(-c5c(F)cc(S(=O)(=O)[O-])cc5F)c5nc(c(-c6c(F)cc(S(=O)(=O)[O-])cc6F)c6ccc3[nH]6)C=C5)C=C4)cc2)CCC[C@@H]1CC[N@H+]1C[C@H](C)OC[C@@H]1C
REMARK SMILES IDX 9 1 8 2 7 3 5 4 6 5 4 7 80 8 83 9 81 10 82 11 3 12 2 15 1 16
REMARK SMILES IDX 84 17 85 18 86 19 87 20 92 21 88 23 91 24 93 25 90 26 89 27
REMARK SMILES IDX 10 28 11 29 12 30 13 32 14 33 15 34 79 35 16 36 78 37 17 38
REMARK SMILES IDX 18 39 19 40 72 41 20 42 77 43 71 44 73 45 21 46 76 47 70 48
REMARK SMILES IDX 69 49 22 51 56 52 35 53 55 54 36 55 39 56 54 57 74 58 37 59
REMARK SMILES IDX 38 60 53 62 75 63 40 64 23 65 24 66 33 67 25 68 26 69 32 70
REMARK SMILES IDX 34 71 27 72 28 73 29 74 30 75 31 76 57 77 58 78 67 79 59 80
REMARK SMILES IDX 60 81 66 82 68 83 61 84 62 85 63 86 64 87 65 88 41 89 42 90
REMARK SMILES IDX 51 91 43 92 44 93 50 94 52 95 45 96 46 97 47 98 48 99 49 100
REMARK H PARENT 7 6 3 13 3 14 86 22 11 31 73 50 39 61
REMARK Flexibility Score: inf
ROOT
ATOM      1  C   UNL A   1      32.997  28.412  27.386  1.00  0.00     0.042 C 
ENDROOT
BRANCH   1   2
ATOM      2  C   UNL A   1      31.529  28.267  27.038  1.00  0.00     0.118 C 
BRANCH   2   3
ATOM      3  N   UNL A   1      31.025  26.905  26.982  1.00  0.00    -0.351 N 
ATOM      4  C   UNL A   1      31.305  25.829  26.188  1.00  0.00     0.281 C 
ATOM      5  O   UNL A   1      30.804  24.763  26.593  1.00  0.00    -0.268 OA
ATOM      6  H   UNL A   1      30.336  26.718  27.661  1.00  0.00     0.163 HD
BRANCH   4   7
ATOM      7  C   UNL A   1      32.015  25.848  24.769  1.00  0.00     0.178 C 
ATOM      8  C   UNL A   1      31.734  24.412  24.237  1.00  0.00     0.079 C 
ATOM      9  C   UNL A   1      31.399  26.705  23.644  1.00  0.00     0.066 C 
ATOM     10  C   UNL A   1      31.855  24.460  22.724  1.00  0.00     0.008 C 
ATOM     11  C   UNL A   1      31.675  25.926  22.331  1.00  0.00     0.011 C 
BRANCH   7  12
ATOM     12  N   UNL A   1      33.484  25.997  24.989  1.00  0.00    -0.334 N 
ATOM     13  H   UNL A   1      33.917  26.029  24.066  1.00  0.00     0.347 HD
ATOM     14  H   UNL A   1      33.548  26.834  25.569  1.00  0.00     0.347 HD
BRANCH  12  15
ATOM     15  C   UNL A   1      34.211  25.007  25.757  1.00  0.00     0.257 C 
ATOM     16  C   UNL A   1      35.287  24.310  24.933  1.00  0.00     0.071 C 
ENDBRANCH  12  15
ENDBRANCH   7  12
BRANCH   9  17
ATOM     17  C   UNL A   1      31.679  28.227  23.507  1.00  0.00     0.072 C 
BRANCH  17  18
ATOM     18  C   UNL A   1      30.766  29.191  22.704  1.00  0.00     0.263 C 
BRANCH  18  19
ATOM     19  N   UNL A   1      29.453  29.483  23.287  1.00  0.00    -0.329 N 
ATOM     20  C   UNL A   1      29.339  30.903  23.688  1.00  0.00     0.294 C 
ATOM     21  C   UNL A   1      28.293  29.134  22.426  1.00  0.00     0.207 C 
ATOM     22  H   UNL A   1      29.409  28.876  24.104  1.00  0.00     0.348 HD
ATOM     23  C   UNL A   1      29.074  31.871  22.509  1.00  0.00     0.170 C 
ATOM     24  C   UNL A   1      28.074  30.132  21.268  1.00  0.00     0.225 C 
ATOM     25  C   UNL A   1      27.005  29.031  23.266  1.00  0.00     0.078 C 
ATOM     26  O   UNL A   1      27.922  31.474  21.751  1.00  0.00    -0.366 OA
ATOM     27  C   UNL A   1      28.826  33.282  23.023  1.00  0.00     0.045 C 
ENDBRANCH  18  19
ENDBRANCH  17  18
ENDBRANCH   9  17
ENDBRANCH   4   7
ENDBRANCH   2   3
ENDBRANCH   1   2
BRANCH   1  28
ATOM     28  C   UNL A   1      33.705  29.465  26.549  1.00  0.00     0.118 C 
BRANCH  28  29
ATOM     29  N   UNL A   1      33.705  30.798  27.161  1.00  0.00    -0.352 N 
ATOM     30  C   UNL A   1      34.549  31.414  28.063  1.00  0.00     0.251 C 
ATOM     31  H   UNL A   1      32.954  31.365  26.870  1.00  0.00     0.163 HD
ATOM     32  O   UNL A   1      34.221  32.487  28.546  1.00  0.00    -0.269 OA
BRANCH  30  33
ATOM     33  C   UNL A   1      35.816  30.767  28.476  1.00  0.00     0.039 A 
ATOM     34  C   UNL A   1      37.035  31.248  27.986  1.00  0.00     0.014 A 
ATOM     35  C   UNL A   1      35.810  29.690  29.354  1.00  0.00     0.014 A 
ATOM     36  C   UNL A   1      38.236  30.724  28.479  1.00  0.00     0.010 A 
ATOM     37  C   UNL A   1      36.990  29.284  29.958  1.00  0.00     0.010 A 
ATOM     38  C   UNL A   1      38.222  29.787  29.523  1.00  0.00    -0.014 A 
BRANCH  38  39
ATOM     39  C   UNL A   1      39.465  29.313  30.189  1.00  0.00     0.031 A 
ATOM     40  C   UNL A   1      39.998  30.035  31.402  1.00  0.00     0.074 A 
ATOM     41  C   UNL A   1      40.188  28.323  29.624  1.00  0.00     0.049 A 
ATOM     42  N   UNL A   1      41.135  29.873  32.029  1.00  0.00    -0.248 NA
ATOM     43  C   UNL A   1      39.170  31.126  31.942  1.00  0.00     0.031 C 
ATOM     44  C   UNL A   1      39.839  27.616  28.389  1.00  0.00     0.029 A 
ATOM     45  N   UNL A   1      41.377  27.755  30.002  1.00  0.00    -0.354 N 
ATOM     46  C   UNL A   1      41.178  30.872  32.997  1.00  0.00     0.074 A 
ATOM     47  C   UNL A   1      39.988  31.674  32.827  1.00  0.00     0.031 C 
ATOM     48  C   UNL A   1      40.774  26.690  28.130  1.00  0.00     0.029 A 
ATOM     49  C   UNL A   1      41.810  26.763  29.154  1.00  0.00     0.049 A 
ATOM     50  H   UNL A   1      41.875  28.032  30.806  1.00  0.00     0.167 HD
ATOM     51  C   UNL A   1      42.107  31.083  33.959  1.00  0.00     0.037 A 
ATOM     52  C   UNL A   1      42.919  25.999  29.192  1.00  0.00     0.037 A 
ATOM     53  C   UNL A   1      43.251  30.235  34.163  1.00  0.00     0.049 A 
ATOM     54  C   UNL A   1      43.890  26.183  30.324  1.00  0.00     0.074 A 
ATOM     55  C   UNL A   1      44.187  30.279  35.179  1.00  0.00     0.029 A 
ATOM     56  N   UNL A   1      43.610  29.183  33.332  1.00  0.00    -0.354 N 
ATOM     57  N   UNL A   1      43.866  27.069  31.291  1.00  0.00    -0.248 NA
ATOM     58  C   UNL A   1      45.028  25.258  30.378  1.00  0.00     0.031 C 
ATOM     59  C   UNL A   1      45.134  29.276  34.942  1.00  0.00     0.029 A 
ATOM     60  C   UNL A   1      44.765  28.581  33.801  1.00  0.00     0.049 A 
ATOM     61  H   UNL A   1      43.115  28.906  32.526  1.00  0.00     0.167 HD
ATOM     62  C   UNL A   1      44.982  26.804  32.076  1.00  0.00     0.074 A 
ATOM     63  C   UNL A   1      45.645  25.660  31.481  1.00  0.00     0.031 C 
ATOM     64  C   UNL A   1      45.417  27.450  33.187  1.00  0.00     0.037 A 
BRANCH  51  65
ATOM     65  C   UNL A   1      41.908  32.272  34.864  1.00  0.00     0.058 A 
ATOM     66  C   UNL A   1      41.043  32.225  35.970  1.00  0.00     0.135 A 
ATOM     67  C   UNL A   1      42.571  33.482  34.607  1.00  0.00     0.135 A 
ATOM     68  F   UNL A   1      40.372  31.098  36.258  1.00  0.00    -0.206 F 
ATOM     69  C   UNL A   1      40.794  33.351  36.749  1.00  0.00     0.059 A 
ATOM     70  C   UNL A   1      42.365  34.611  35.396  1.00  0.00     0.059 A 
ATOM     71  F   UNL A   1      43.415  33.585  33.568  1.00  0.00    -0.206 F 
ATOM     72  C   UNL A   1      41.452  34.543  36.447  1.00  0.00     0.060 A 
BRANCH  72  73
ATOM     73  S   UNL A   1      41.089  36.006  37.440  1.00  0.00     0.124 S 
ATOM     74  O   UNL A   1      40.951  35.423  38.772  1.00  0.00    -0.237 OA
ATOM     75  O   UNL A   1      42.273  36.831  37.231  1.00  0.00    -0.237 OA
ATOM     76  O   UNL A   1      39.858  36.519  36.848  1.00  0.00    -0.744 OA
ENDBRANCH  72  73
ENDBRANCH  51  65
BRANCH  52  77
ATOM     77  C   UNL A   1      43.127  24.966  28.144  1.00  0.00     0.058 A 
ATOM     78  C   UNL A   1      43.732  25.294  26.922  1.00  0.00     0.135 A 
ATOM     79  C   UNL A   1      42.804  23.619  28.374  1.00  0.00     0.135 A 
ATOM     80  F   UNL A   1      44.055  26.568  26.656  1.00  0.00    -0.206 F 
ATOM     81  C   UNL A   1      44.018  24.324  25.966  1.00  0.00     0.059 A 
ATOM     82  C   UNL A   1      43.098  22.628  27.442  1.00  0.00     0.059 A 
ATOM     83  F   UNL A   1      42.243  23.252  29.536  1.00  0.00    -0.206 F 
ATOM     84  C   UNL A   1      43.707  22.991  26.241  1.00  0.00     0.060 A 
BRANCH  84  85
ATOM     85  S   UNL A   1      44.181  21.728  25.040  1.00  0.00     0.124 S 
ATOM     86  O   UNL A   1      43.185  20.694  25.290  1.00  0.00    -0.237 OA
ATOM     87  O   UNL A   1      44.055  22.445  23.775  1.00  0.00    -0.237 OA
ATOM     88  O   UNL A   1      45.550  21.396  25.427  1.00  0.00    -0.744 OA
ENDBRANCH  84  85
ENDBRANCH  52  77
BRANCH  64  89
ATOM     89  C   UNL A   1      46.670  26.931  33.834  1.00  0.00     0.058 A 
ATOM     90  C   UNL A   1      47.929  27.469  33.528  1.00  0.00     0.135 A 
ATOM     91  C   UNL A   1      46.605  25.916  34.800  1.00  0.00     0.135 A 
ATOM     92  F   UNL A   1      48.045  28.438  32.605  1.00  0.00    -0.206 F 
ATOM     93  C   UNL A   1      49.086  27.000  34.141  1.00  0.00     0.059 A 
ATOM     94  C   UNL A   1      47.745  25.450  35.445  1.00  0.00     0.059 A 
ATOM     95  F   UNL A   1      45.422  25.376  35.136  1.00  0.00    -0.206 F 
ATOM     96  C   UNL A   1      48.983  25.989  35.097  1.00  0.00     0.060 A 
BRANCH  96  97
ATOM     97  S   UNL A   1      50.488  25.403  35.904  1.00  0.00     0.124 S 
ATOM     98  O   UNL A   1      50.869  24.292  35.038  1.00  0.00    -0.237 OA
ATOM     99  O   UNL A   1      51.354  26.578  35.846  1.00  0.00    -0.237 OA
ATOM    100  O   UNL A   1      50.035  25.032  37.240  1.00  0.00    -0.744 OA
ENDBRANCH  96  97
ENDBRANCH  64  89
ENDBRANCH  38  39
ENDBRANCH  30  33
ENDBRANCH  28  29
ENDBRANCH   1  28
TORSDOF 18
ENDMDL
