MODEL 1
REMARK VINA RESULT:     -12.2      0.000      0.000
REMARK SMILES C[C@]12C[C@@H](O)[C@@H]3[C@@H](CCC4=CC(=O)CC[C@]43C)[C@H]1CC[C@]2(O)C(=O)COC(=O)CCC(=O)NCCCNC(=O)c1ccc(-c2c3nc(c(-c4c(F)cc(S(=O)(=O)[O-])cc4F)c4ccc([nH]4)c(-c4c(F)cc(S(=O)(=O)[O-])cc4F)c4nc(c(-c5c(F)cc(S(=O)(=O)[O-])cc5F)c5ccc2[nH]5)C=C4)C=C3)cc1
REMARK SMILES IDX 31 1 32 2 33 3 30 5 29 6 27 7 28 8 26 9 25 10 23 11 24 12
REMARK SMILES IDX 21 13 17 14 16 15 15 16 10 17 6 18 14 19 11 20 9 21 7 22
REMARK SMILES IDX 4 23 12 24 8 25 18 26 3 27 13 28 2 29 19 30 1 31 20 32 5 33
REMARK SMILES IDX 22 35 34 37 35 38 36 39 37 40 38 41 39 43 40 44 41 45 105 46
REMARK SMILES IDX 42 47 104 48 43 49 44 50 45 51 98 52 46 53 103 54 97 55
REMARK SMILES IDX 99 56 47 57 102 58 96 59 95 60 48 62 82 63 61 64 81 65 62 66
REMARK SMILES IDX 65 67 80 68 100 69 63 70 64 71 79 73 101 74 66 75 49 76
REMARK SMILES IDX 50 77 59 78 51 79 52 80 58 81 60 82 53 83 54 84 55 85 56 86
REMARK SMILES IDX 57 87 83 88 84 89 93 90 85 91 86 92 92 93 94 94 87 95 88 96
REMARK SMILES IDX 89 97 90 98 91 99 67 100 68 101 77 102 69 103 70 104 76 105
REMARK SMILES IDX 78 106 71 107 72 108 73 109 74 110 75 111
REMARK H PARENT 33 4 5 34 22 36 37 42 99 61 65 72
REMARK Flexibility Score: inf
ROOT
ATOM      1  C   UNL A   1      42.212  20.660  26.360  1.00  0.00     0.220 C 
ATOM      2  O   UNL A   1      42.488  19.973  25.373  1.00  0.00    -0.275 OA
ATOM      3  N   UNL A   1      43.185  21.485  26.829  1.00  0.00    -0.356 N 
ATOM      4  H   UNL A   1      44.096  21.224  26.560  1.00  0.00     0.163 HD
ENDROOT
BRANCH   1   5
ATOM      5  C   UNL A   1      40.823  20.585  26.962  1.00  0.00     0.111 C 
BRANCH   5   6
ATOM      6  C   UNL A   1      39.777  21.447  26.274  1.00  0.00     0.132 C 
BRANCH   6   7
ATOM      7  C   UNL A   1      38.859  20.583  25.461  1.00  0.00     0.306 C 
ATOM      8  O   UNL A   1      38.980  19.363  25.302  1.00  0.00    -0.252 OA
BRANCH   7   9
ATOM      9  O   UNL A   1      37.951  21.341  24.823  1.00  0.00    -0.458 OA
BRANCH   9  10
ATOM     10  C   UNL A   1      37.359  22.388  25.576  1.00  0.00     0.311 C 
BRANCH  10  11
ATOM     11  C   UNL A   1      35.828  22.269  25.745  1.00  0.00     0.202 C 
ATOM     12  O   UNL A   1      35.452  21.378  26.505  1.00  0.00    -0.293 OA
BRANCH  11  13
ATOM     13  C   UNL A   1      34.811  23.065  24.868  1.00  0.00     0.132 C 
ATOM     14  C   UNL A   1      29.298  26.631  24.358  1.00  0.00     0.016 C 
ATOM     15  C   UNL A   1      30.750  26.618  23.773  1.00  0.00    -0.005 C 
ATOM     16  C   UNL A   1      30.649  27.298  22.375  1.00  0.00     0.020 C 
ATOM     17  C   UNL A   1      31.752  27.534  24.498  1.00  0.00    -0.060 C 
ATOM     18  C   UNL A   1      31.276  25.121  23.713  1.00  0.00     0.031 C 
ATOM     19  C   UNL A   1      30.586  28.842  22.458  1.00  0.00     0.081 C 
ATOM     20  C   UNL A   1      31.419  28.776  24.886  1.00  0.00     0.047 C 
ATOM     21  C   UNL A   1      33.216  27.360  24.183  1.00  0.00     0.032 C 
ATOM     22  C   UNL A   1      32.732  25.051  23.214  1.00  0.00    -0.000 C 
ATOM     23  C   UNL A   1      31.109  24.249  25.011  1.00  0.00     0.119 C 
ATOM     24  C   UNL A   1      30.531  29.417  23.876  1.00  0.00     0.155 C 
ATOM     25  C   UNL A   1      33.597  25.916  24.115  1.00  0.00     0.009 C 
ATOM     26  C   UNL A   1      33.141  23.573  23.087  1.00  0.00     0.002 C 
ATOM     27  C   UNL A   1      32.166  23.188  25.402  1.00  0.00     0.042 C 
ATOM     28  O   UNL A   1      29.947  30.459  24.150  1.00  0.00    -0.295 OA
ATOM     29  C   UNL A   1      33.273  22.763  24.411  1.00  0.00     0.009 C 
ATOM     30  C   UNL A   1      34.474  23.327  22.397  1.00  0.00     0.008 C 
ATOM     31  C   UNL A   1      32.972  21.302  23.975  1.00  0.00     0.015 C 
ATOM     32  C   UNL A   1      35.525  23.327  23.498  1.00  0.00     0.044 C 
BRANCH  23  33
ATOM     33  O   UNL A   1      30.904  25.035  26.188  1.00  0.00    -0.393 OA
ATOM     34  H   UNL A   1      30.395  25.830  25.963  1.00  0.00     0.210 HD
ENDBRANCH  23  33
BRANCH  13  35
ATOM     35  O   UNL A   1      34.896  24.283  25.621  1.00  0.00    -0.381 OA
ATOM     36  H   UNL A   1      34.748  24.093  26.560  1.00  0.00     0.212 HD
ENDBRANCH  13  35
ENDBRANCH  11  13
ENDBRANCH  10  11
ENDBRANCH   9  10
ENDBRANCH   7   9
ENDBRANCH   6   7
ENDBRANCH   5   6
ENDBRANCH   1   5
BRANCH   3  37
ATOM     37  C   UNL A   1      43.130  22.680  27.651  1.00  0.00     0.117 C 
BRANCH  37  38
ATOM     38  C   UNL A   1      44.476  23.331  27.947  1.00  0.00     0.042 C 
BRANCH  38  39
ATOM     39  C   UNL A   1      44.773  24.560  27.067  1.00  0.00     0.118 C 
BRANCH  39  40
ATOM     40  N   UNL A   1      43.789  24.948  26.051  1.00  0.00    -0.352 N 
ATOM     41  C   UNL A   1      42.712  25.821  26.040  1.00  0.00     0.251 C 
ATOM     42  H   UNL A   1      43.921  24.489  25.190  1.00  0.00     0.163 HD
ATOM     43  O   UNL A   1      42.056  25.933  25.002  1.00  0.00    -0.269 OA
BRANCH  41  44
ATOM     44  C   UNL A   1      42.317  26.604  27.235  1.00  0.00     0.039 A 
ATOM     45  C   UNL A   1      42.779  27.920  27.423  1.00  0.00     0.014 A 
ATOM     46  C   UNL A   1      41.537  26.012  28.219  1.00  0.00     0.014 A 
ATOM     47  C   UNL A   1      42.426  28.636  28.575  1.00  0.00     0.010 A 
ATOM     48  C   UNL A   1      41.089  26.757  29.297  1.00  0.00     0.010 A 
ATOM     49  C   UNL A   1      41.564  28.057  29.515  1.00  0.00    -0.014 A 
BRANCH  49  50
ATOM     50  C   UNL A   1      41.198  28.692  30.805  1.00  0.00     0.031 A 
ATOM     51  C   UNL A   1      40.037  29.657  30.818  1.00  0.00     0.074 A 
ATOM     52  C   UNL A   1      41.977  28.539  31.891  1.00  0.00     0.049 A 
ATOM     53  N   UNL A   1      39.711  30.555  31.709  1.00  0.00    -0.248 NA
ATOM     54  C   UNL A   1      39.166  29.648  29.628  1.00  0.00     0.031 C 
ATOM     55  C   UNL A   1      43.138  27.654  31.985  1.00  0.00     0.029 A 
ATOM     56  N   UNL A   1      41.931  29.161  33.113  1.00  0.00    -0.354 N 
ATOM     57  C   UNL A   1      38.634  31.248  31.165  1.00  0.00     0.074 A 
ATOM     58  C   UNL A   1      38.396  30.702  29.847  1.00  0.00     0.031 C 
ATOM     59  C   UNL A   1      43.698  27.792  33.199  1.00  0.00     0.029 A 
ATOM     60  C   UNL A   1      42.969  28.812  33.946  1.00  0.00     0.049 A 
ATOM     61  H   UNL A   1      41.224  29.796  33.369  1.00  0.00     0.167 HD
ATOM     62  C   UNL A   1      37.898  32.238  31.724  1.00  0.00     0.037 A 
ATOM     63  C   UNL A   1      43.307  29.288  35.159  1.00  0.00     0.037 A 
ATOM     64  C   UNL A   1      38.119  32.727  33.059  1.00  0.00     0.049 A 
ATOM     65  C   UNL A   1      42.465  30.375  35.773  1.00  0.00     0.074 A 
ATOM     66  C   UNL A   1      37.391  33.668  33.764  1.00  0.00     0.029 A 
ATOM     67  N   UNL A   1      39.143  32.303  33.894  1.00  0.00    -0.354 N 
ATOM     68  N   UNL A   1      41.424  30.996  35.267  1.00  0.00    -0.248 NA
ATOM     69  C   UNL A   1      42.840  30.827  37.119  1.00  0.00     0.031 C 
ATOM     70  C   UNL A   1      38.002  33.845  35.010  1.00  0.00     0.029 A 
ATOM     71  C   UNL A   1      39.078  32.977  35.101  1.00  0.00     0.049 A 
ATOM     72  H   UNL A   1      39.817  31.623  33.663  1.00  0.00     0.167 HD
ATOM     73  C   UNL A   1      41.005  31.894  36.242  1.00  0.00     0.074 A 
ATOM     74  C   UNL A   1      41.897  31.724  37.373  1.00  0.00     0.031 C 
ATOM     75  C   UNL A   1      39.980  32.782  36.211  1.00  0.00     0.037 A 
BRANCH  62  76
ATOM     76  C   UNL A   1      36.790  32.843  30.904  1.00  0.00     0.058 A 
ATOM     77  C   UNL A   1      37.043  33.800  29.906  1.00  0.00     0.135 A 
ATOM     78  C   UNL A   1      35.457  32.442  31.096  1.00  0.00     0.135 A 
ATOM     79  F   UNL A   1      38.294  34.235  29.688  1.00  0.00    -0.206 F 
ATOM     80  C   UNL A   1      36.015  34.359  29.154  1.00  0.00     0.059 A 
ATOM     81  C   UNL A   1      34.417  32.964  30.333  1.00  0.00     0.059 A 
ATOM     82  F   UNL A   1      35.154  31.535  32.038  1.00  0.00    -0.206 F 
ATOM     83  C   UNL A   1      34.704  33.933  29.372  1.00  0.00     0.060 A 
BRANCH  83  84
ATOM     84  S   UNL A   1      33.386  34.659  28.377  1.00  0.00     0.124 S 
ATOM     85  O   UNL A   1      32.529  35.240  29.406  1.00  0.00    -0.237 OA
ATOM     86  O   UNL A   1      34.112  35.614  27.546  1.00  0.00    -0.237 OA
ATOM     87  O   UNL A   1      32.825  33.514  27.667  1.00  0.00    -0.744 OA
ENDBRANCH  83  84
ENDBRANCH  62  76
BRANCH  63  88
ATOM     88  C   UNL A   1      44.483  28.727  35.876  1.00  0.00     0.058 A 
ATOM     89  C   UNL A   1      44.333  27.652  36.764  1.00  0.00     0.135 A 
ATOM     90  C   UNL A   1      45.779  29.225  35.669  1.00  0.00     0.135 A 
ATOM     91  F   UNL A   1      43.114  27.143  37.001  1.00  0.00    -0.206 F 
ATOM     92  C   UNL A   1      45.422  27.098  37.431  1.00  0.00     0.059 A 
ATOM     93  C   UNL A   1      46.887  28.671  36.304  1.00  0.00     0.059 A 
ATOM     94  F   UNL A   1      45.981  30.241  34.815  1.00  0.00    -0.206 F 
ATOM     95  C   UNL A   1      46.696  27.613  37.191  1.00  0.00     0.060 A 
BRANCH  95  96
ATOM     96  S   UNL A   1      48.107  26.848  38.019  1.00  0.00     0.124 S 
ATOM     97  O   UNL A   1      47.759  27.032  39.423  1.00  0.00    -0.237 OA
ATOM     98  O   UNL A   1      48.048  25.478  37.520  1.00  0.00    -0.237 OA
ATOM     99  O   UNL A   1      49.242  27.633  37.541  1.00  0.00    -0.744 OA
ENDBRANCH  95  96
ENDBRANCH  63  88
BRANCH  75 100
ATOM    100  C   UNL A   1      39.752  33.613  37.441  1.00  0.00     0.058 A 
ATOM    101  C   UNL A   1      40.354  34.871  37.602  1.00  0.00     0.135 A 
ATOM    102  C   UNL A   1      38.880  33.167  38.447  1.00  0.00     0.135 A 
ATOM    103  F   UNL A   1      41.201  35.339  36.672  1.00  0.00    -0.206 F 
ATOM    104  C   UNL A   1      40.119  35.647  38.731  1.00  0.00     0.059 A 
ATOM    105  C   UNL A   1      38.605  33.940  39.570  1.00  0.00     0.059 A 
ATOM    106  F   UNL A   1      38.268  31.977  38.334  1.00  0.00    -0.206 F 
ATOM    107  C   UNL A   1      39.241  35.173  39.709  1.00  0.00     0.060 A 
BRANCH 107 108
ATOM    108  S   UNL A   1      38.921  36.206  41.154  1.00  0.00     0.124 S 
ATOM    109  O   UNL A   1      38.686  37.507  40.538  1.00  0.00    -0.237 OA
ATOM    110  O   UNL A   1      37.753  35.562  41.745  1.00  0.00    -0.237 OA
ATOM    111  O   UNL A   1      40.152  36.092  41.931  1.00  0.00    -0.744 OA
ENDBRANCH 107 108
ENDBRANCH  75 100
ENDBRANCH  49  50
ENDBRANCH  41  44
ENDBRANCH  39  40
ENDBRANCH  38  39
ENDBRANCH  37  38
ENDBRANCH   3  37
TORSDOF 21
ENDMDL
MODEL 2
REMARK VINA RESULT:     -12.1      2.968      9.874
REMARK SMILES C[C@]12C[C@@H](O)[C@@H]3[C@@H](CCC4=CC(=O)CC[C@]43C)[C@H]1CC[C@]2(O)C(=O)COC(=O)CCC(=O)NCCCNC(=O)c1ccc(-c2c3nc(c(-c4c(F)cc(S(=O)(=O)[O-])cc4F)c4ccc([nH]4)c(-c4c(F)cc(S(=O)(=O)[O-])cc4F)c4nc(c(-c5c(F)cc(S(=O)(=O)[O-])cc5F)c5ccc2[nH]5)C=C4)C=C3)cc1
REMARK SMILES IDX 31 1 32 2 33 3 30 5 29 6 27 7 28 8 26 9 25 10 23 11 24 12
REMARK SMILES IDX 21 13 17 14 16 15 15 16 10 17 6 18 14 19 11 20 9 21 7 22
REMARK SMILES IDX 4 23 12 24 8 25 18 26 3 27 13 28 2 29 19 30 1 31 20 32 5 33
REMARK SMILES IDX 22 35 34 37 35 38 36 39 37 40 38 41 39 43 40 44 41 45 105 46
REMARK SMILES IDX 42 47 104 48 43 49 44 50 45 51 98 52 46 53 103 54 97 55
REMARK SMILES IDX 99 56 47 57 102 58 96 59 95 60 48 62 82 63 61 64 81 65 62 66
REMARK SMILES IDX 65 67 80 68 100 69 63 70 64 71 79 73 101 74 66 75 49 76
REMARK SMILES IDX 50 77 59 78 51 79 52 80 58 81 60 82 53 83 54 84 55 85 56 86
REMARK SMILES IDX 57 87 83 88 84 89 93 90 85 91 86 92 92 93 94 94 87 95 88 96
REMARK SMILES IDX 89 97 90 98 91 99 67 100 68 101 77 102 69 103 70 104 76 105
REMARK SMILES IDX 78 106 71 107 72 108 73 109 74 110 75 111
REMARK H PARENT 33 4 5 34 22 36 37 42 99 61 65 72
REMARK Flexibility Score: inf
ROOT
ATOM      1  C   UNL A   1      35.785  33.564  29.130  1.00  0.00     0.220 C 
ATOM      2  O   UNL A   1      36.985  33.520  29.413  1.00  0.00    -0.275 OA
ATOM      3  N   UNL A   1      35.250  34.792  28.900  1.00  0.00    -0.356 N 
ATOM      4  H   UNL A   1      35.764  35.533  29.294  1.00  0.00     0.163 HD
ENDROOT
BRANCH   1   5
ATOM      5  C   UNL A   1      34.993  32.276  29.012  1.00  0.00     0.111 C 
BRANCH   5   6
ATOM      6  C   UNL A   1      34.978  31.655  27.625  1.00  0.00     0.132 C 
BRANCH   6   7
ATOM      7  C   UNL A   1      35.270  30.186  27.722  1.00  0.00     0.306 C 
ATOM      8  O   UNL A   1      36.386  29.670  27.601  1.00  0.00    -0.252 OA
BRANCH   7   9
ATOM      9  O   UNL A   1      34.125  29.492  27.837  1.00  0.00    -0.458 OA
BRANCH   9  10
ATOM     10  C   UNL A   1      33.071  29.859  26.961  1.00  0.00     0.311 C 
BRANCH  10  11
ATOM     11  C   UNL A   1      33.036  29.072  25.633  1.00  0.00     0.202 C 
ATOM     12  O   UNL A   1      33.282  29.733  24.624  1.00  0.00    -0.293 OA
BRANCH  11  13
ATOM     13  C   UNL A   1      32.525  27.600  25.529  1.00  0.00     0.132 C 
ATOM     14  C   UNL A   1      32.735  21.687  22.639  1.00  0.00     0.016 C 
ATOM     15  C   UNL A   1      32.613  22.290  24.078  1.00  0.00    -0.005 C 
ATOM     16  C   UNL A   1      31.845  21.227  24.918  1.00  0.00     0.020 C 
ATOM     17  C   UNL A   1      33.939  22.404  24.850  1.00  0.00    -0.060 C 
ATOM     18  C   UNL A   1      31.871  23.691  23.997  1.00  0.00     0.031 C 
ATOM     19  C   UNL A   1      32.743  20.053  25.375  1.00  0.00     0.081 C 
ATOM     20  C   UNL A   1      34.851  21.418  24.835  1.00  0.00     0.047 C 
ATOM     21  C   UNL A   1      33.949  23.230  26.110  1.00  0.00     0.032 C 
ATOM     22  C   UNL A   1      31.788  24.370  25.378  1.00  0.00    -0.000 C 
ATOM     23  C   UNL A   1      32.389  24.716  22.923  1.00  0.00     0.119 C 
ATOM     24  C   UNL A   1      34.180  20.088  24.845  1.00  0.00     0.155 C 
ATOM     25  C   UNL A   1      33.194  24.509  25.936  1.00  0.00     0.009 C 
ATOM     26  C   UNL A   1      30.974  25.669  25.242  1.00  0.00     0.002 C 
ATOM     27  C   UNL A   1      32.376  26.239  23.201  1.00  0.00     0.042 C 
ATOM     28  O   UNL A   1      34.830  19.074  24.615  1.00  0.00    -0.295 OA
ATOM     29  C   UNL A   1      31.620  26.821  24.416  1.00  0.00     0.009 C 
ATOM     30  C   UNL A   1      30.612  26.346  26.555  1.00  0.00     0.008 C 
ATOM     31  C   UNL A   1      30.396  27.607  23.870  1.00  0.00     0.015 C 
ATOM     32  C   UNL A   1      31.747  27.312  26.859  1.00  0.00     0.044 C 
BRANCH  23  33
ATOM     33  O   UNL A   1      33.712  24.424  22.465  1.00  0.00    -0.393 OA
ATOM     34  H   UNL A   1      34.057  25.182  21.968  1.00  0.00     0.210 HD
ENDBRANCH  23  33
BRANCH  13  35
ATOM     35  O   UNL A   1      33.817  26.990  25.663  1.00  0.00    -0.381 OA
ATOM     36  H   UNL A   1      33.846  26.472  26.482  1.00  0.00     0.212 HD
ENDBRANCH  13  35
ENDBRANCH  11  13
ENDBRANCH  10  11
ENDBRANCH   9  10
ENDBRANCH   7   9
ENDBRANCH   6   7
ENDBRANCH   5   6
ENDBRANCH   1   5
BRANCH   3  37
ATOM     37  C   UNL A   1      34.063  35.213  28.179  1.00  0.00     0.117 C 
BRANCH  37  38
ATOM     38  C   UNL A   1      33.538  36.599  28.537  1.00  0.00     0.042 C 
BRANCH  38  39
ATOM     39  C   UNL A   1      33.783  36.990  30.006  1.00  0.00     0.118 C 
BRANCH  39  40
ATOM     40  N   UNL A   1      32.737  36.700  30.992  1.00  0.00    -0.352 N 
ATOM     41  C   UNL A   1      32.643  35.829  32.066  1.00  0.00     0.251 C 
ATOM     42  H   UNL A   1      31.925  37.242  30.864  1.00  0.00     0.163 HD
ATOM     43  O   UNL A   1      31.602  35.817  32.726  1.00  0.00    -0.269 OA
BRANCH  41  44
ATOM     44  C   UNL A   1      33.743  34.904  32.431  1.00  0.00     0.039 A 
ATOM     45  C   UNL A   1      33.484  33.551  32.718  1.00  0.00     0.014 A 
ATOM     46  C   UNL A   1      35.036  35.390  32.561  1.00  0.00     0.014 A 
ATOM     47  C   UNL A   1      34.529  32.695  33.096  1.00  0.00     0.010 A 
ATOM     48  C   UNL A   1      36.085  34.522  32.815  1.00  0.00     0.010 A 
ATOM     49  C   UNL A   1      35.842  33.179  33.134  1.00  0.00    -0.014 A 
BRANCH  49  50
ATOM     50  C   UNL A   1      37.005  32.385  33.602  1.00  0.00     0.031 A 
ATOM     51  C   UNL A   1      37.682  32.804  34.884  1.00  0.00     0.074 A 
ATOM     52  C   UNL A   1      37.539  31.426  32.824  1.00  0.00     0.049 A 
ATOM     53  N   UNL A   1      38.864  32.490  35.343  1.00  0.00    -0.248 NA
ATOM     54  C   UNL A   1      36.946  33.763  35.730  1.00  0.00     0.031 C 
ATOM     55  C   UNL A   1      36.985  30.957  31.554  1.00  0.00     0.029 A 
ATOM     56  N   UNL A   1      38.695  30.702  32.972  1.00  0.00    -0.354 N 
ATOM     57  C   UNL A   1      39.032  33.248  36.498  1.00  0.00     0.074 A 
ATOM     58  C   UNL A   1      37.855  34.075  36.640  1.00  0.00     0.031 C 
ATOM     59  C   UNL A   1      37.804  30.026  31.035  1.00  0.00     0.029 A 
ATOM     60  C   UNL A   1      38.964  29.874  31.907  1.00  0.00     0.049 A 
ATOM     61  H   UNL A   1      39.276  30.770  33.763  1.00  0.00     0.167 HD
ATOM     62  C   UNL A   1      40.067  33.239  37.370  1.00  0.00     0.037 A 
ATOM     63  C   UNL A   1      40.039  29.104  31.655  1.00  0.00     0.037 A 
ATOM     64  C   UNL A   1      41.204  32.366  37.237  1.00  0.00     0.049 A 
ATOM     65  C   UNL A   1      41.172  29.094  32.647  1.00  0.00     0.074 A 
ATOM     66  C   UNL A   1      42.275  32.208  38.097  1.00  0.00     0.029 A 
ATOM     67  N   UNL A   1      41.409  31.496  36.176  1.00  0.00    -0.354 N 
ATOM     68  N   UNL A   1      41.304  29.784  33.756  1.00  0.00    -0.248 NA
ATOM     69  C   UNL A   1      42.302  28.201  32.355  1.00  0.00     0.031 C 
ATOM     70  C   UNL A   1      43.150  31.274  37.533  1.00  0.00     0.029 A 
ATOM     71  C   UNL A   1      42.598  30.811  36.349  1.00  0.00     0.049 A 
ATOM     72  H   UNL A   1      40.797  31.382  35.412  1.00  0.00     0.167 HD
ATOM     73  C   UNL A   1      42.518  29.392  34.307  1.00  0.00     0.074 A 
ATOM     74  C   UNL A   1      43.075  28.392  33.417  1.00  0.00     0.031 C 
ATOM     75  C   UNL A   1      43.124  29.817  35.444  1.00  0.00     0.037 A 
BRANCH  62  76
ATOM     76  C   UNL A   1      40.013  34.186  38.539  1.00  0.00     0.058 A 
ATOM     77  C   UNL A   1      39.412  33.828  39.758  1.00  0.00     0.135 A 
ATOM     78  C   UNL A   1      40.596  35.462  38.452  1.00  0.00     0.135 A 
ATOM     79  F   UNL A   1      38.824  32.629  39.896  1.00  0.00    -0.206 F 
ATOM     80  C   UNL A   1      39.362  34.710  40.833  1.00  0.00     0.059 A 
ATOM     81  C   UNL A   1      40.586  36.348  39.526  1.00  0.00     0.059 A 
ATOM     82  F   UNL A   1      41.181  35.861  37.312  1.00  0.00    -0.206 F 
ATOM     83  C   UNL A   1      39.954  35.968  40.709  1.00  0.00     0.060 A 
BRANCH  83  84
ATOM     84  S   UNL A   1      39.891  37.092  42.119  1.00  0.00     0.124 S 
ATOM     85  O   UNL A   1      39.019  36.362  43.035  1.00  0.00    -0.237 OA
ATOM     86  O   UNL A   1      41.293  37.175  42.514  1.00  0.00    -0.237 OA
ATOM     87  O   UNL A   1      39.327  38.314  41.557  1.00  0.00    -0.744 OA
ENDBRANCH  83  84
ENDBRANCH  62  76
BRANCH  63  88
ATOM     88  C   UNL A   1      40.086  28.273  30.423  1.00  0.00     0.058 A 
ATOM     89  C   UNL A   1      40.916  28.630  29.350  1.00  0.00     0.135 A 
ATOM     90  C   UNL A   1      39.335  27.093  30.301  1.00  0.00     0.135 A 
ATOM     91  F   UNL A   1      41.649  29.752  29.415  1.00  0.00    -0.206 F 
ATOM     92  C   UNL A   1      40.990  27.857  28.196  1.00  0.00     0.059 A 
ATOM     93  C   UNL A   1      39.413  26.289  29.168  1.00  0.00     0.059 A 
ATOM     94  F   UNL A   1      38.540  26.695  31.307  1.00  0.00    -0.206 F 
ATOM     95  C   UNL A   1      40.238  26.686  28.116  1.00  0.00     0.060 A 
BRANCH  95  96
ATOM     96  S   UNL A   1      40.388  25.662  26.636  1.00  0.00     0.124 S 
ATOM     97  O   UNL A   1      41.393  24.690  27.050  1.00  0.00    -0.237 OA
ATOM     98  O   UNL A   1      39.029  25.150  26.480  1.00  0.00    -0.237 OA
ATOM     99  O   UNL A   1      40.812  26.612  25.612  1.00  0.00    -0.744 OA
ENDBRANCH  95  96
ENDBRANCH  63  88
BRANCH  75 100
ATOM    100  C   UNL A   1      44.439  29.184  35.802  1.00  0.00     0.058 A 
ATOM    101  C   UNL A   1      44.506  27.999  36.550  1.00  0.00     0.135 A 
ATOM    102  C   UNL A   1      45.643  29.745  35.346  1.00  0.00     0.135 A 
ATOM    103  F   UNL A   1      43.384  27.428  37.015  1.00  0.00    -0.206 F 
ATOM    104  C   UNL A   1      45.725  27.405  36.856  1.00  0.00     0.059 A 
ATOM    105  C   UNL A   1      46.871  29.151  35.613  1.00  0.00     0.059 A 
ATOM    106  F   UNL A   1      45.631  30.871  34.615  1.00  0.00    -0.206 F 
ATOM    107  C   UNL A   1      46.902  27.987  36.381  1.00  0.00     0.060 A 
BRANCH 107 108
ATOM    108  S   UNL A   1      48.475  27.186  36.759  1.00  0.00     0.124 S 
ATOM    109  O   UNL A   1      49.161  28.230  37.512  1.00  0.00    -0.237 OA
ATOM    110  O   UNL A   1      48.053  26.020  37.529  1.00  0.00    -0.237 OA
ATOM    111  O   UNL A   1      49.031  26.892  35.442  1.00  0.00    -0.744 OA
ENDBRANCH 107 108
ENDBRANCH  75 100
ENDBRANCH  49  50
ENDBRANCH  41  44
ENDBRANCH  39  40
ENDBRANCH  38  39
ENDBRANCH  37  38
ENDBRANCH   3  37
TORSDOF 21
ENDMDL
MODEL 3
REMARK VINA RESULT:     -11.9      5.653     12.027
REMARK SMILES C[C@]12C[C@@H](O)[C@@H]3[C@@H](CCC4=CC(=O)CC[C@]43C)[C@H]1CC[C@]2(O)C(=O)COC(=O)CCC(=O)NCCCNC(=O)c1ccc(-c2c3nc(c(-c4c(F)cc(S(=O)(=O)[O-])cc4F)c4ccc([nH]4)c(-c4c(F)cc(S(=O)(=O)[O-])cc4F)c4nc(c(-c5c(F)cc(S(=O)(=O)[O-])cc5F)c5ccc2[nH]5)C=C4)C=C3)cc1
REMARK SMILES IDX 31 1 32 2 33 3 30 5 29 6 27 7 28 8 26 9 25 10 23 11 24 12
REMARK SMILES IDX 21 13 17 14 16 15 15 16 10 17 6 18 14 19 11 20 9 21 7 22
REMARK SMILES IDX 4 23 12 24 8 25 18 26 3 27 13 28 2 29 19 30 1 31 20 32 5 33
REMARK SMILES IDX 22 35 34 37 35 38 36 39 37 40 38 41 39 43 40 44 41 45 105 46
REMARK SMILES IDX 42 47 104 48 43 49 44 50 45 51 98 52 46 53 103 54 97 55
REMARK SMILES IDX 99 56 47 57 102 58 96 59 95 60 48 62 82 63 61 64 81 65 62 66
REMARK SMILES IDX 65 67 80 68 100 69 63 70 64 71 79 73 101 74 66 75 49 76
REMARK SMILES IDX 50 77 59 78 51 79 52 80 58 81 60 82 53 83 54 84 55 85 56 86
REMARK SMILES IDX 57 87 83 88 84 89 93 90 85 91 86 92 92 93 94 94 87 95 88 96
REMARK SMILES IDX 89 97 90 98 91 99 67 100 68 101 77 102 69 103 70 104 76 105
REMARK SMILES IDX 78 106 71 107 72 108 73 109 74 110 75 111
REMARK H PARENT 33 4 5 34 22 36 37 42 99 61 65 72
REMARK Flexibility Score: inf
ROOT
ATOM      1  C   UNL A   1      35.801  33.739  29.731  1.00  0.00     0.220 C 
ATOM      2  O   UNL A   1      35.713  34.478  28.747  1.00  0.00    -0.275 OA
ATOM      3  N   UNL A   1      36.566  34.178  30.766  1.00  0.00    -0.356 N 
ATOM      4  H   UNL A   1      37.228  34.862  30.513  1.00  0.00     0.163 HD
ENDROOT
BRANCH   1   5
ATOM      5  C   UNL A   1      35.037  32.430  29.759  1.00  0.00     0.111 C 
BRANCH   5   6
ATOM      6  C   UNL A   1      34.061  32.231  28.611  1.00  0.00     0.132 C 
BRANCH   6   7
ATOM      7  C   UNL A   1      34.553  31.138  27.708  1.00  0.00     0.306 C 
ATOM      8  O   UNL A   1      35.738  30.833  27.535  1.00  0.00    -0.252 OA
BRANCH   7   9
ATOM      9  O   UNL A   1      33.529  30.613  27.014  1.00  0.00    -0.458 OA
BRANCH   9  10
ATOM     10  C   UNL A   1      33.836  29.520  26.162  1.00  0.00     0.311 C 
BRANCH  10  11
ATOM     11  C   UNL A   1      32.644  29.004  25.326  1.00  0.00     0.202 C 
ATOM     12  O   UNL A   1      31.946  29.878  24.814  1.00  0.00    -0.293 OA
BRANCH  11  13
ATOM     13  C   UNL A   1      32.213  27.504  25.294  1.00  0.00     0.132 C 
ATOM     14  C   UNL A   1      32.691  21.495  22.642  1.00  0.00     0.016 C 
ATOM     15  C   UNL A   1      32.565  22.150  24.058  1.00  0.00    -0.005 C 
ATOM     16  C   UNL A   1      31.873  21.083  24.958  1.00  0.00     0.020 C 
ATOM     17  C   UNL A   1      33.898  22.368  24.794  1.00  0.00    -0.060 C 
ATOM     18  C   UNL A   1      31.745  23.504  23.937  1.00  0.00     0.031 C 
ATOM     19  C   UNL A   1      32.844  19.980  25.442  1.00  0.00     0.081 C 
ATOM     20  C   UNL A   1      34.862  21.433  24.799  1.00  0.00     0.047 C 
ATOM     21  C   UNL A   1      33.887  23.246  26.020  1.00  0.00     0.032 C 
ATOM     22  C   UNL A   1      31.652  24.234  25.291  1.00  0.00    -0.000 C 
ATOM     23  C   UNL A   1      32.184  24.510  22.810  1.00  0.00     0.119 C 
ATOM     24  C   UNL A   1      34.265  20.070  24.878  1.00  0.00     0.155 C 
ATOM     25  C   UNL A   1      33.060  24.473  25.811  1.00  0.00     0.009 C 
ATOM     26  C   UNL A   1      30.766  25.481  25.121  1.00  0.00     0.002 C 
ATOM     27  C   UNL A   1      32.092  26.040  23.027  1.00  0.00     0.042 C 
ATOM     28  O   UNL A   1      34.966  19.084  24.675  1.00  0.00    -0.295 OA
ATOM     29  C   UNL A   1      31.330  26.631  24.234  1.00  0.00     0.009 C 
ATOM     30  C   UNL A   1      30.393  26.191  26.413  1.00  0.00     0.008 C 
ATOM     31  C   UNL A   1      30.053  27.326  23.684  1.00  0.00     0.015 C 
ATOM     32  C   UNL A   1      31.480  27.230  26.651  1.00  0.00     0.044 C 
BRANCH  23  33
ATOM     33  O   UNL A   1      33.511  24.271  22.335  1.00  0.00    -0.393 OA
ATOM     34  H   UNL A   1      33.942  23.608  22.897  1.00  0.00     0.210 HD
ENDBRANCH  23  33
BRANCH  13  35
ATOM     35  O   UNL A   1      33.539  26.971  25.423  1.00  0.00    -0.381 OA
ATOM     36  H   UNL A   1      33.717  26.366  24.686  1.00  0.00     0.212 HD
ENDBRANCH  13  35
ENDBRANCH  11  13
ENDBRANCH  10  11
ENDBRANCH   9  10
ENDBRANCH   7   9
ENDBRANCH   6   7
ENDBRANCH   5   6
ENDBRANCH   1   5
BRANCH   3  37
ATOM     37  C   UNL A   1      36.586  33.827  32.174  1.00  0.00     0.117 C 
BRANCH  37  38
ATOM     38  C   UNL A   1      37.946  33.411  32.723  1.00  0.00     0.042 C 
BRANCH  38  39
ATOM     39  C   UNL A   1      37.974  31.976  33.280  1.00  0.00     0.118 C 
BRANCH  39  40
ATOM     40  N   UNL A   1      37.096  30.971  32.670  1.00  0.00    -0.352 N 
ATOM     41  C   UNL A   1      37.250  30.061  31.636  1.00  0.00     0.251 C 
ATOM     42  H   UNL A   1      36.204  30.935  33.085  1.00  0.00     0.163 HD
ATOM     43  O   UNL A   1      36.301  29.329  31.349  1.00  0.00    -0.269 OA
BRANCH  41  44
ATOM     44  C   UNL A   1      38.508  29.956  30.857  1.00  0.00     0.039 A 
ATOM     45  C   UNL A   1      38.575  30.412  29.528  1.00  0.00     0.014 A 
ATOM     46  C   UNL A   1      39.616  29.337  31.419  1.00  0.00     0.014 A 
ATOM     47  C   UNL A   1      39.761  30.274  28.792  1.00  0.00     0.010 A 
ATOM     48  C   UNL A   1      40.821  29.308  30.737  1.00  0.00     0.010 A 
ATOM     49  C   UNL A   1      40.897  29.729  29.402  1.00  0.00    -0.014 A 
BRANCH  49  50
ATOM     50  C   UNL A   1      42.171  29.460  28.692  1.00  0.00     0.031 A 
ATOM     51  C   UNL A   1      42.419  28.062  28.182  1.00  0.00     0.074 A 
ATOM     52  C   UNL A   1      43.143  30.389  28.650  1.00  0.00     0.049 A 
ATOM     53  N   UNL A   1      43.538  27.495  27.815  1.00  0.00    -0.248 NA
ATOM     54  C   UNL A   1      41.251  27.161  28.147  1.00  0.00     0.031 C 
ATOM     55  C   UNL A   1      43.024  31.765  29.134  1.00  0.00     0.029 A 
ATOM     56  N   UNL A   1      44.441  30.300  28.212  1.00  0.00    -0.354 N 
ATOM     57  C   UNL A   1      43.217  26.166  27.555  1.00  0.00     0.074 A 
ATOM     58  C   UNL A   1      41.813  25.998  27.858  1.00  0.00     0.031 C 
ATOM     59  C   UNL A   1      44.202  32.391  28.972  1.00  0.00     0.029 A 
ATOM     60  C   UNL A   1      45.171  31.447  28.423  1.00  0.00     0.049 A 
ATOM     61  H   UNL A   1      44.813  29.494  27.789  1.00  0.00     0.167 HD
ATOM     62  C   UNL A   1      44.019  25.180  27.088  1.00  0.00     0.037 A 
ATOM     63  C   UNL A   1      46.479  31.693  28.223  1.00  0.00     0.037 A 
ATOM     64  C   UNL A   1      45.401  25.384  26.742  1.00  0.00     0.049 A 
ATOM     65  C   UNL A   1      47.351  30.589  27.685  1.00  0.00     0.074 A 
ATOM     66  C   UNL A   1      46.292  24.486  26.185  1.00  0.00     0.029 A 
ATOM     67  N   UNL A   1      46.087  26.578  26.912  1.00  0.00    -0.354 N 
ATOM     68  N   UNL A   1      47.030  29.346  27.406  1.00  0.00    -0.248 NA
ATOM     69  C   UNL A   1      48.761  30.917  27.435  1.00  0.00     0.031 C 
ATOM     70  C   UNL A   1      47.530  25.124  26.059  1.00  0.00     0.029 A 
ATOM     71  C   UNL A   1      47.397  26.435  26.489  1.00  0.00     0.049 A 
ATOM     72  H   UNL A   1      45.700  27.406  27.279  1.00  0.00     0.167 HD
ATOM     73  C   UNL A   1      48.191  28.752  26.924  1.00  0.00     0.074 A 
ATOM     74  C   UNL A   1      49.217  29.776  26.936  1.00  0.00     0.031 C 
ATOM     75  C   UNL A   1      48.395  27.477  26.510  1.00  0.00     0.037 A 
BRANCH  62  76
ATOM     76  C   UNL A   1      43.424  23.807  26.918  1.00  0.00     0.058 A 
ATOM     77  C   UNL A   1      43.185  22.960  28.014  1.00  0.00     0.135 A 
ATOM     78  C   UNL A   1      43.059  23.340  25.644  1.00  0.00     0.135 A 
ATOM     79  F   UNL A   1      43.529  23.345  29.254  1.00  0.00    -0.206 F 
ATOM     80  C   UNL A   1      42.639  21.692  27.850  1.00  0.00     0.059 A 
ATOM     81  C   UNL A   1      42.481  22.087  25.460  1.00  0.00     0.059 A 
ATOM     82  F   UNL A   1      43.268  24.102  24.560  1.00  0.00    -0.206 F 
ATOM     83  C   UNL A   1      42.287  21.263  26.569  1.00  0.00     0.060 A 
BRANCH  83  84
ATOM     84  S   UNL A   1      41.567  19.620  26.378  1.00  0.00     0.124 S 
ATOM     85  O   UNL A   1      41.923  18.996  27.649  1.00  0.00    -0.237 OA
ATOM     86  O   UNL A   1      40.151  19.921  26.197  1.00  0.00    -0.237 OA
ATOM     87  O   UNL A   1      42.247  19.084  25.204  1.00  0.00    -0.744 OA
ENDBRANCH  83  84
ENDBRANCH  62  76
BRANCH  63  88
ATOM     88  C   UNL A   1      47.036  33.040  28.517  1.00  0.00     0.058 A 
ATOM     89  C   UNL A   1      47.557  33.338  29.785  1.00  0.00     0.135 A 
ATOM     90  C   UNL A   1      47.092  34.044  27.538  1.00  0.00     0.135 A 
ATOM     91  F   UNL A   1      47.522  32.413  30.757  1.00  0.00    -0.206 F 
ATOM     92  C   UNL A   1      48.101  34.584  30.077  1.00  0.00     0.059 A 
ATOM     93  C   UNL A   1      47.655  35.290  27.797  1.00  0.00     0.059 A 
ATOM     94  F   UNL A   1      46.625  33.805  26.302  1.00  0.00    -0.206 F 
ATOM     95  C   UNL A   1      48.149  35.553  29.075  1.00  0.00     0.060 A 
BRANCH  95  96
ATOM     96  S   UNL A   1      48.909  37.148  29.450  1.00  0.00     0.124 S 
ATOM     97  O   UNL A   1      47.850  38.075  29.071  1.00  0.00    -0.237 OA
ATOM     98  O   UNL A   1      49.175  37.031  30.881  1.00  0.00    -0.237 OA
ATOM     99  O   UNL A   1      50.096  37.162  28.600  1.00  0.00    -0.744 OA
ENDBRANCH  95  96
ENDBRANCH  63  88
BRANCH  75 100
ATOM    100  C   UNL A   1      49.769  27.127  26.012  1.00  0.00     0.058 A 
ATOM    101  C   UNL A   1      50.729  26.540  26.851  1.00  0.00     0.135 A 
ATOM    102  C   UNL A   1      50.110  27.336  24.666  1.00  0.00     0.135 A 
ATOM    103  F   UNL A   1      50.454  26.326  28.147  1.00  0.00    -0.206 F 
ATOM    104  C   UNL A   1      51.990  26.196  26.377  1.00  0.00     0.059 A 
ATOM    105  C   UNL A   1      51.354  26.971  24.163  1.00  0.00     0.059 A 
ATOM    106  F   UNL A   1      49.222  27.882  23.819  1.00  0.00    -0.206 F 
ATOM    107  C   UNL A   1      52.292  26.413  25.032  1.00  0.00     0.060 A 
BRANCH 107 108
ATOM    108  S   UNL A   1      53.922  25.932  24.425  1.00  0.00     0.124 S 
ATOM    109  O   UNL A   1      53.717  25.958  22.981  1.00  0.00    -0.237 OA
ATOM    110  O   UNL A   1      54.778  26.983  24.964  1.00  0.00    -0.237 OA
ATOM    111  O   UNL A   1      54.123  24.608  25.006  1.00  0.00    -0.744 OA
ENDBRANCH 107 108
ENDBRANCH  75 100
ENDBRANCH  49  50
ENDBRANCH  41  44
ENDBRANCH  39  40
ENDBRANCH  38  39
ENDBRANCH  37  38
ENDBRANCH   3  37
TORSDOF 21
ENDMDL
