MODEL 1
REMARK VINA RESULT:     -12.3      0.000      0.000
REMARK SMILES CCN(c1cccc(F)c1)c1cc(C)c(N)c(C(=O)NCCCNC(=O)c2ccc(-c3c4nc(c(-c5c(F)cc(S(=O)(=O)[O-])cc5F)c5ccc([nH]5)c(-c5c(F)cc(S(=O)(=O)[O-])cc5F)c5nc(c(-c6c(F)cc(S(=O)(=O)[O-])cc6F)c6ccc3[nH]6)C=C5)C=C4)cc2)c1
REMARK SMILES IDX 22 1 21 2 20 3 18 4 19 5 17 7 11 8 12 9 93 10 13 11 14 12
REMARK SMILES IDX 15 13 3 14 2 15 1 16 4 17 5 18 10 19 6 20 8 21 7 22 9 23
REMARK SMILES IDX 16 24 23 27 24 28 25 29 26 31 27 32 28 33 92 34 29 35 91 36
REMARK SMILES IDX 30 37 31 38 32 39 85 40 33 41 90 42 84 43 86 44 34 45 89 46
REMARK SMILES IDX 83 47 82 48 35 50 69 51 48 52 68 53 49 54 52 55 67 56 87 57
REMARK SMILES IDX 50 58 51 59 66 61 88 62 53 63 36 64 37 65 46 66 38 67 39 68
REMARK SMILES IDX 45 69 47 70 40 71 41 72 42 73 43 74 44 75 70 76 71 77 80 78
REMARK SMILES IDX 72 79 73 80 79 81 81 82 74 83 75 84 76 85 77 86 78 87 54 88
REMARK SMILES IDX 55 89 64 90 56 91 57 92 63 93 65 94 58 95 59 96 60 97 61 98
REMARK SMILES IDX 62 99
REMARK H PARENT 20 6 16 25 16 26 24 30 86 49 52 60
REMARK Flexibility Score: inf
ROOT
ATOM      1  C   UNL A   1      39.463  22.393  26.548  1.00  0.00     0.042 C 
ENDROOT
BRANCH   1   2
ATOM      2  C   UNL A   1      38.374  23.388  26.141  1.00  0.00     0.118 C 
BRANCH   2   3
ATOM      3  N   UNL A   1      37.792  23.022  24.860  1.00  0.00    -0.352 N 
ATOM      4  C   UNL A   1      36.510  23.019  24.366  1.00  0.00     0.253 C 
ATOM      5  O   UNL A   1      36.380  22.622  23.203  1.00  0.00    -0.269 OA
ATOM      6  H   UNL A   1      38.459  22.710  24.206  1.00  0.00     0.163 HD
BRANCH   4   7
ATOM      7  C   UNL A   1      35.308  23.500  25.124  1.00  0.00     0.065 A 
ATOM      8  C   UNL A   1      33.522  25.150  25.468  1.00  0.00     0.042 A 
ATOM      9  C   UNL A   1      32.982  24.331  26.458  1.00  0.00     0.031 A 
ATOM     10  C   UNL A   1      34.715  24.739  24.857  1.00  0.00     0.042 A 
ATOM     11  C   UNL A   1      33.608  23.130  26.838  1.00  0.00    -0.025 A 
ATOM     12  C   UNL A   1      32.985  22.309  27.936  1.00  0.00     0.047 C 
ATOM     13  C   UNL A   1      34.778  22.703  26.172  1.00  0.00     0.047 A 
BRANCH   8  14
ATOM     14  N   UNL A   1      32.860  26.309  24.993  1.00  0.00    -0.342 N 
BRANCH  14  15
ATOM     15  C   UNL A   1      31.839  26.107  23.946  1.00  0.00     0.119 C 
ATOM     16  C   UNL A   1      32.194  26.781  22.626  1.00  0.00     0.027 C 
ENDBRANCH  14  15
BRANCH  14  17
ATOM     17  C   UNL A   1      32.865  27.528  25.716  1.00  0.00     0.044 A 
ATOM     18  C   UNL A   1      31.730  28.343  25.868  1.00  0.00     0.026 A 
ATOM     19  C   UNL A   1      34.040  27.929  26.377  1.00  0.00     0.065 A 
ATOM     20  C   UNL A   1      31.770  29.516  26.635  1.00  0.00     0.005 A 
ATOM     21  C   UNL A   1      34.074  29.096  27.135  1.00  0.00     0.125 A 
ATOM     22  C   UNL A   1      32.949  29.895  27.270  1.00  0.00     0.039 A 
ATOM     23  F   UNL A   1      35.211  29.449  27.751  1.00  0.00    -0.207 F 
ENDBRANCH  14  17
ENDBRANCH   8  14
BRANCH  13  24
ATOM     24  N   UNL A   1      35.292  21.427  26.444  1.00  0.00    -0.398 N 
ATOM     25  H   UNL A   1      34.737  20.630  26.287  1.00  0.00     0.156 HD
ATOM     26  H   UNL A   1      36.207  21.329  26.792  1.00  0.00     0.156 HD
ENDBRANCH  13  24
ENDBRANCH   4   7
ENDBRANCH   2   3
ENDBRANCH   1   2
BRANCH   1  27
ATOM     27  C   UNL A   1      40.700  23.063  27.148  1.00  0.00     0.118 C 
BRANCH  27  28
ATOM     28  N   UNL A   1      41.452  23.800  26.145  1.00  0.00    -0.352 N 
ATOM     29  C   UNL A   1      41.779  25.130  26.087  1.00  0.00     0.251 C 
ATOM     30  H   UNL A   1      41.777  23.259  25.390  1.00  0.00     0.163 HD
ATOM     31  O   UNL A   1      42.211  25.588  25.032  1.00  0.00    -0.269 OA
BRANCH  29  32
ATOM     32  C   UNL A   1      41.621  26.014  27.264  1.00  0.00     0.039 A 
ATOM     33  C   UNL A   1      40.481  25.859  28.062  1.00  0.00     0.014 A 
ATOM     34  C   UNL A   1      42.527  27.041  27.542  1.00  0.00     0.014 A 
ATOM     35  C   UNL A   1      40.264  26.715  29.144  1.00  0.00     0.010 A 
ATOM     36  C   UNL A   1      42.341  27.857  28.659  1.00  0.00     0.010 A 
ATOM     37  C   UNL A   1      41.197  27.714  29.460  1.00  0.00    -0.014 A 
BRANCH  37  38
ATOM     38  C   UNL A   1      40.969  28.634  30.604  1.00  0.00     0.031 A 
ATOM     39  C   UNL A   1      41.840  28.550  31.829  1.00  0.00     0.074 A 
ATOM     40  C   UNL A   1      39.965  29.531  30.548  1.00  0.00     0.049 A 
ATOM     41  N   UNL A   1      41.777  29.246  32.936  1.00  0.00    -0.248 NA
ATOM     42  C   UNL A   1      42.908  27.537  31.819  1.00  0.00     0.031 C 
ATOM     43  C   UNL A   1      39.035  29.685  29.428  1.00  0.00     0.029 A 
ATOM     44  N   UNL A   1      39.562  30.483  31.450  1.00  0.00    -0.354 N 
ATOM     45  C   UNL A   1      42.785  28.749  33.754  1.00  0.00     0.074 A 
ATOM     46  C   UNL A   1      43.413  27.662  33.039  1.00  0.00     0.031 C 
ATOM     47  C   UNL A   1      38.188  30.693  29.697  1.00  0.00     0.029 A 
ATOM     48  C   UNL A   1      38.496  31.236  31.017  1.00  0.00     0.049 A 
ATOM     49  H   UNL A   1      39.994  30.613  32.324  1.00  0.00     0.167 HD
ATOM     50  C   UNL A   1      43.167  29.176  34.982  1.00  0.00     0.037 A 
ATOM     51  C   UNL A   1      37.844  32.254  31.613  1.00  0.00     0.037 A 
ATOM     52  C   UNL A   1      42.556  30.280  35.679  1.00  0.00     0.049 A 
ATOM     53  C   UNL A   1      38.300  32.726  32.966  1.00  0.00     0.074 A 
ATOM     54  C   UNL A   1      42.889  30.809  36.913  1.00  0.00     0.029 A 
ATOM     55  N   UNL A   1      41.495  31.031  35.196  1.00  0.00    -0.354 N 
ATOM     56  N   UNL A   1      39.271  32.261  33.715  1.00  0.00    -0.248 NA
ATOM     57  C   UNL A   1      37.582  33.867  33.549  1.00  0.00     0.031 C 
ATOM     58  C   UNL A   1      42.011  31.863  37.190  1.00  0.00     0.029 A 
ATOM     59  C   UNL A   1      41.158  32.016  36.108  1.00  0.00     0.049 A 
ATOM     60  H   UNL A   1      41.046  30.884  34.332  1.00  0.00     0.167 HD
ATOM     61  C   UNL A   1      39.298  33.068  34.846  1.00  0.00     0.074 A 
ATOM     62  C   UNL A   1      38.251  34.055  34.679  1.00  0.00     0.031 C 
ATOM     63  C   UNL A   1      40.120  32.999  35.923  1.00  0.00     0.037 A 
BRANCH  50  64
ATOM     64  C   UNL A   1      44.308  28.459  35.647  1.00  0.00     0.058 A 
ATOM     65  C   UNL A   1      44.069  27.389  36.526  1.00  0.00     0.135 A 
ATOM     66  C   UNL A   1      45.641  28.856  35.450  1.00  0.00     0.135 A 
ATOM     67  F   UNL A   1      42.815  26.963  36.748  1.00  0.00    -0.206 F 
ATOM     68  C   UNL A   1      45.109  26.744  37.188  1.00  0.00     0.059 A 
ATOM     69  C   UNL A   1      46.699  28.209  36.083  1.00  0.00     0.059 A 
ATOM     70  F   UNL A   1      45.927  29.859  34.604  1.00  0.00    -0.206 F 
ATOM     71  C   UNL A   1      46.421  27.161  36.960  1.00  0.00     0.060 A 
BRANCH  71  72
ATOM     72  S   UNL A   1      47.765  26.284  37.788  1.00  0.00     0.124 S 
ATOM     73  O   UNL A   1      47.143  25.000  38.091  1.00  0.00    -0.237 OA
ATOM     74  O   UNL A   1      48.799  26.262  36.757  1.00  0.00    -0.237 OA
ATOM     75  O   UNL A   1      48.060  27.131  38.940  1.00  0.00    -0.744 OA
ENDBRANCH  71  72
ENDBRANCH  50  64
BRANCH  51  76
ATOM     76  C   UNL A   1      36.726  32.923  30.899  1.00  0.00     0.058 A 
ATOM     77  C   UNL A   1      36.964  33.817  29.844  1.00  0.00     0.135 A 
ATOM     78  C   UNL A   1      35.397  32.720  31.298  1.00  0.00     0.135 A 
ATOM     79  F   UNL A   1      38.219  34.054  29.432  1.00  0.00    -0.206 F 
ATOM     80  C   UNL A   1      35.926  34.508  29.229  1.00  0.00     0.059 A 
ATOM     81  C   UNL A   1      34.339  33.383  30.683  1.00  0.00     0.059 A 
ATOM     82  F   UNL A   1      35.120  31.866  32.296  1.00  0.00    -0.206 F 
ATOM     83  C   UNL A   1      34.617  34.291  29.662  1.00  0.00     0.060 A 
BRANCH  83  84
ATOM     84  S   UNL A   1      33.287  35.223  28.874  1.00  0.00     0.124 S 
ATOM     85  O   UNL A   1      32.497  35.634  30.031  1.00  0.00    -0.237 OA
ATOM     86  O   UNL A   1      34.018  36.287  28.194  1.00  0.00    -0.237 OA
ATOM     87  O   UNL A   1      32.657  34.239  28.000  1.00  0.00    -0.744 OA
ENDBRANCH  83  84
ENDBRANCH  51  76
BRANCH  63  88
ATOM     88  C   UNL A   1      39.947  34.037  36.995  1.00  0.00     0.058 A 
ATOM     89  C   UNL A   1      39.109  33.788  38.093  1.00  0.00     0.135 A 
ATOM     90  C   UNL A   1      40.557  35.298  36.905  1.00  0.00     0.135 A 
ATOM     91  F   UNL A   1      38.497  32.600  38.223  1.00  0.00    -0.206 F 
ATOM     92  C   UNL A   1      38.872  34.758  39.061  1.00  0.00     0.059 A 
ATOM     93  C   UNL A   1      40.354  36.276  37.874  1.00  0.00     0.059 A 
ATOM     94  F   UNL A   1      41.377  35.580  35.879  1.00  0.00    -0.206 F 
ATOM     95  C   UNL A   1      39.497  36.000  38.941  1.00  0.00     0.060 A 
BRANCH  95  96
ATOM     96  S   UNL A   1      39.201  37.241  40.220  1.00  0.00     0.124 S 
ATOM     97  O   UNL A   1      38.464  38.260  39.482  1.00  0.00    -0.237 OA
ATOM     98  O   UNL A   1      38.433  36.491  41.209  1.00  0.00    -0.237 OA
ATOM     99  O   UNL A   1      40.547  37.619  40.640  1.00  0.00    -0.744 OA
ENDBRANCH  95  96
ENDBRANCH  63  88
ENDBRANCH  37  38
ENDBRANCH  29  32
ENDBRANCH  27  28
ENDBRANCH   1  27
TORSDOF 17
ENDMDL
MODEL 2
REMARK VINA RESULT:     -12.2      6.629     12.009
REMARK SMILES CCN(c1cccc(F)c1)c1cc(C)c(N)c(C(=O)NCCCNC(=O)c2ccc(-c3c4nc(c(-c5c(F)cc(S(=O)(=O)[O-])cc5F)c5ccc([nH]5)c(-c5c(F)cc(S(=O)(=O)[O-])cc5F)c5nc(c(-c6c(F)cc(S(=O)(=O)[O-])cc6F)c6ccc3[nH]6)C=C5)C=C4)cc2)c1
REMARK SMILES IDX 22 1 21 2 20 3 18 4 19 5 17 7 11 8 12 9 93 10 13 11 14 12
REMARK SMILES IDX 15 13 3 14 2 15 1 16 4 17 5 18 10 19 6 20 8 21 7 22 9 23
REMARK SMILES IDX 16 24 23 27 24 28 25 29 26 31 27 32 28 33 92 34 29 35 91 36
REMARK SMILES IDX 30 37 31 38 32 39 85 40 33 41 90 42 84 43 86 44 34 45 89 46
REMARK SMILES IDX 83 47 82 48 35 50 69 51 48 52 68 53 49 54 52 55 67 56 87 57
REMARK SMILES IDX 50 58 51 59 66 61 88 62 53 63 36 64 37 65 46 66 38 67 39 68
REMARK SMILES IDX 45 69 47 70 40 71 41 72 42 73 43 74 44 75 70 76 71 77 80 78
REMARK SMILES IDX 72 79 73 80 79 81 81 82 74 83 75 84 76 85 77 86 78 87 54 88
REMARK SMILES IDX 55 89 64 90 56 91 57 92 63 93 65 94 58 95 59 96 60 97 61 98
REMARK SMILES IDX 62 99
REMARK H PARENT 20 6 16 25 16 26 24 30 86 49 52 60
REMARK Flexibility Score: inf
ROOT
ATOM      1  C   UNL A   1      34.223  29.075  27.277  1.00  0.00     0.042 C 
ENDROOT
BRANCH   1   2
ATOM      2  C   UNL A   1      33.161  29.715  26.381  1.00  0.00     0.118 C 
BRANCH   2   3
ATOM      3  N   UNL A   1      33.585  29.711  24.991  1.00  0.00    -0.352 N 
ATOM      4  C   UNL A   1      33.361  28.865  23.932  1.00  0.00     0.253 C 
ATOM      5  O   UNL A   1      33.904  29.176  22.867  1.00  0.00    -0.269 OA
ATOM      6  H   UNL A   1      34.155  30.480  24.758  1.00  0.00     0.163 HD
BRANCH   4   7
ATOM      7  C   UNL A   1      32.482  27.650  23.990  1.00  0.00     0.065 A 
ATOM      8  C   UNL A   1      32.198  25.237  24.350  1.00  0.00     0.042 A 
ATOM      9  C   UNL A   1      30.819  25.400  24.227  1.00  0.00     0.031 A 
ATOM     10  C   UNL A   1      33.010  26.366  24.171  1.00  0.00     0.042 A 
ATOM     11  C   UNL A   1      30.253  26.654  23.932  1.00  0.00    -0.025 A 
ATOM     12  C   UNL A   1      28.758  26.751  23.783  1.00  0.00     0.047 C 
ATOM     13  C   UNL A   1      31.081  27.791  23.811  1.00  0.00     0.047 A 
BRANCH   8  14
ATOM     14  N   UNL A   1      32.788  24.013  24.749  1.00  0.00    -0.342 N 
BRANCH  14  15
ATOM     15  C   UNL A   1      31.910  22.826  24.760  1.00  0.00     0.119 C 
ATOM     16  C   UNL A   1      32.299  21.804  25.822  1.00  0.00     0.027 C 
ENDBRANCH  14  15
BRANCH  14  17
ATOM     17  C   UNL A   1      34.192  23.823  24.761  1.00  0.00     0.044 A 
ATOM     18  C   UNL A   1      34.994  24.037  25.895  1.00  0.00     0.026 A 
ATOM     19  C   UNL A   1      34.828  23.332  23.606  1.00  0.00     0.065 A 
ATOM     20  C   UNL A   1      36.373  23.788  25.873  1.00  0.00     0.005 A 
ATOM     21  C   UNL A   1      36.198  23.088  23.590  1.00  0.00     0.125 A 
ATOM     22  C   UNL A   1      36.978  23.312  24.714  1.00  0.00     0.039 A 
ATOM     23  F   UNL A   1      36.772  22.621  22.471  1.00  0.00    -0.207 F 
ENDBRANCH  14  17
ENDBRANCH   8  14
BRANCH  13  24
ATOM     24  N   UNL A   1      30.490  29.057  23.687  1.00  0.00    -0.398 N 
ATOM     25  H   UNL A   1      30.555  29.705  24.424  1.00  0.00     0.156 HD
ATOM     26  H   UNL A   1      30.010  29.297  22.862  1.00  0.00     0.156 HD
ENDBRANCH  13  24
ENDBRANCH   4   7
ENDBRANCH   2   3
ENDBRANCH   1   2
BRANCH   1  27
ATOM     27  C   UNL A   1      35.324  30.048  27.702  1.00  0.00     0.118 C 
BRANCH  27  28
ATOM     28  N   UNL A   1      35.295  30.300  29.134  1.00  0.00    -0.352 N 
ATOM     29  C   UNL A   1      36.251  30.073  30.090  1.00  0.00     0.251 C 
ATOM     30  H   UNL A   1      34.458  30.694  29.469  1.00  0.00     0.163 HD
ATOM     31  O   UNL A   1      35.931  30.135  31.274  1.00  0.00    -0.269 OA
BRANCH  29  32
ATOM     32  C   UNL A   1      37.650  29.759  29.720  1.00  0.00     0.039 A 
ATOM     33  C   UNL A   1      38.024  29.876  28.377  1.00  0.00     0.014 A 
ATOM     34  C   UNL A   1      38.569  29.273  30.655  1.00  0.00     0.014 A 
ATOM     35  C   UNL A   1      39.316  29.530  27.977  1.00  0.00     0.010 A 
ATOM     36  C   UNL A   1      39.878  28.984  30.266  1.00  0.00     0.010 A 
ATOM     37  C   UNL A   1      40.259  29.091  28.920  1.00  0.00    -0.014 A 
BRANCH  37  38
ATOM     38  C   UNL A   1      41.633  28.711  28.503  1.00  0.00     0.031 A 
ATOM     39  C   UNL A   1      42.734  29.738  28.495  1.00  0.00     0.074 A 
ATOM     40  C   UNL A   1      41.885  27.447  28.111  1.00  0.00     0.049 A 
ATOM     41  N   UNL A   1      43.986  29.604  28.137  1.00  0.00    -0.248 NA
ATOM     42  C   UNL A   1      42.377  31.099  28.925  1.00  0.00     0.031 C 
ATOM     43  C   UNL A   1      40.894  26.371  28.046  1.00  0.00     0.029 A 
ATOM     44  N   UNL A   1      43.050  26.851  27.698  1.00  0.00    -0.354 N 
ATOM     45  C   UNL A   1      44.560  30.861  28.286  1.00  0.00     0.074 A 
ATOM     46  C   UNL A   1      43.512  31.756  28.722  1.00  0.00     0.031 C 
ATOM     47  C   UNL A   1      41.499  25.241  27.647  1.00  0.00     0.029 A 
ATOM     48  C   UNL A   1      42.912  25.516  27.401  1.00  0.00     0.049 A 
ATOM     49  H   UNL A   1      43.904  27.334  27.621  1.00  0.00     0.167 HD
ATOM     50  C   UNL A   1      45.851  31.230  28.101  1.00  0.00     0.037 A 
ATOM     51  C   UNL A   1      43.821  24.613  26.984  1.00  0.00     0.037 A 
ATOM     52  C   UNL A   1      46.898  30.327  27.695  1.00  0.00     0.049 A 
ATOM     53  C   UNL A   1      45.252  25.039  26.807  1.00  0.00     0.074 A 
ATOM     54  C   UNL A   1      48.242  30.596  27.508  1.00  0.00     0.029 A 
ATOM     55  N   UNL A   1      46.720  28.978  27.427  1.00  0.00    -0.354 N 
ATOM     56  N   UNL A   1      45.782  26.227  26.978  1.00  0.00    -0.248 NA
ATOM     57  C   UNL A   1      46.208  24.004  26.394  1.00  0.00     0.031 C 
ATOM     58  C   UNL A   1      48.873  29.416  27.099  1.00  0.00     0.029 A 
ATOM     59  C   UNL A   1      47.929  28.403  27.073  1.00  0.00     0.049 A 
ATOM     60  H   UNL A   1      45.861  28.500  27.479  1.00  0.00     0.167 HD
ATOM     61  C   UNL A   1      47.140  26.077  26.718  1.00  0.00     0.074 A 
ATOM     62  C   UNL A   1      47.349  24.681  26.386  1.00  0.00     0.031 C 
ATOM     63  C   UNL A   1      48.123  27.010  26.755  1.00  0.00     0.037 A 
BRANCH  50  64
ATOM     64  C   UNL A   1      46.208  32.669  28.348  1.00  0.00     0.058 A 
ATOM     65  C   UNL A   1      46.164  33.609  27.305  1.00  0.00     0.135 A 
ATOM     66  C   UNL A   1      46.635  33.114  29.610  1.00  0.00     0.135 A 
ATOM     67  F   UNL A   1      45.758  33.240  26.079  1.00  0.00    -0.206 F 
ATOM     68  C   UNL A   1      46.537  34.935  27.503  1.00  0.00     0.059 A 
ATOM     69  C   UNL A   1      46.989  34.441  29.836  1.00  0.00     0.059 A 
ATOM     70  F   UNL A   1      46.675  32.262  30.647  1.00  0.00    -0.206 F 
ATOM     71  C   UNL A   1      46.948  35.341  28.773  1.00  0.00     0.060 A 
BRANCH  71  72
ATOM     72  S   UNL A   1      47.383  37.075  29.028  1.00  0.00     0.124 S 
ATOM     73  O   UNL A   1      47.734  37.092  30.443  1.00  0.00    -0.237 OA
ATOM     74  O   UNL A   1      48.491  37.256  28.095  1.00  0.00    -0.237 OA
ATOM     75  O   UNL A   1      46.157  37.786  28.674  1.00  0.00    -0.744 OA
ENDBRANCH  71  72
ENDBRANCH  50  64
BRANCH  51  76
ATOM     76  C   UNL A   1      43.403  23.205  26.762  1.00  0.00     0.058 A 
ATOM     77  C   UNL A   1      43.120  22.348  27.836  1.00  0.00     0.135 A 
ATOM     78  C   UNL A   1      43.333  22.674  25.465  1.00  0.00     0.135 A 
ATOM     79  F   UNL A   1      43.185  22.805  29.096  1.00  0.00    -0.206 F 
ATOM     80  C   UNL A   1      42.810  21.008  27.635  1.00  0.00     0.059 A 
ATOM     81  C   UNL A   1      43.002  21.341  25.237  1.00  0.00     0.059 A 
ATOM     82  F   UNL A   1      43.585  23.458  24.406  1.00  0.00    -0.206 F 
ATOM     83  C   UNL A   1      42.762  20.511  26.332  1.00  0.00     0.060 A 
BRANCH  83  84
ATOM     84  S   UNL A   1      42.392  18.760  26.093  1.00  0.00     0.124 S 
ATOM     85  O   UNL A   1      43.351  18.400  25.053  1.00  0.00    -0.237 OA
ATOM     86  O   UNL A   1      42.654  18.207  27.417  1.00  0.00    -0.237 OA
ATOM     87  O   UNL A   1      40.991  18.764  25.683  1.00  0.00    -0.744 OA
ENDBRANCH  83  84
ENDBRANCH  51  76
BRANCH  63  88
ATOM     88  C   UNL A   1      49.525  26.553  26.463  1.00  0.00     0.058 A 
ATOM     89  C   UNL A   1      50.045  26.656  25.164  1.00  0.00     0.135 A 
ATOM     90  C   UNL A   1      50.327  25.958  27.449  1.00  0.00     0.135 A 
ATOM     91  F   UNL A   1      49.317  27.214  24.184  1.00  0.00    -0.206 F 
ATOM     92  C   UNL A   1      51.311  26.174  24.848  1.00  0.00     0.059 A 
ATOM     93  C   UNL A   1      51.605  25.489  27.162  1.00  0.00     0.059 A 
ATOM     94  F   UNL A   1      49.876  25.847  28.709  1.00  0.00    -0.206 F 
ATOM     95  C   UNL A   1      52.082  25.589  25.854  1.00  0.00     0.060 A 
BRANCH  95  96
ATOM     96  S   UNL A   1      53.734  24.991  25.435  1.00  0.00     0.124 S 
ATOM     97  O   UNL A   1      54.502  25.388  26.610  1.00  0.00    -0.237 OA
ATOM     98  O   UNL A   1      53.514  23.557  25.273  1.00  0.00    -0.237 OA
ATOM     99  O   UNL A   1      54.050  25.710  24.205  1.00  0.00    -0.744 OA
ENDBRANCH  95  96
ENDBRANCH  63  88
ENDBRANCH  37  38
ENDBRANCH  29  32
ENDBRANCH  27  28
ENDBRANCH   1  27
TORSDOF 17
ENDMDL
MODEL 3
REMARK VINA RESULT:     -12.2      1.253      2.079
REMARK SMILES CCN(c1cccc(F)c1)c1cc(C)c(N)c(C(=O)NCCCNC(=O)c2ccc(-c3c4nc(c(-c5c(F)cc(S(=O)(=O)[O-])cc5F)c5ccc([nH]5)c(-c5c(F)cc(S(=O)(=O)[O-])cc5F)c5nc(c(-c6c(F)cc(S(=O)(=O)[O-])cc6F)c6ccc3[nH]6)C=C5)C=C4)cc2)c1
REMARK SMILES IDX 22 1 21 2 20 3 18 4 19 5 17 7 11 8 12 9 93 10 13 11 14 12
REMARK SMILES IDX 15 13 3 14 2 15 1 16 4 17 5 18 10 19 6 20 8 21 7 22 9 23
REMARK SMILES IDX 16 24 23 27 24 28 25 29 26 31 27 32 28 33 92 34 29 35 91 36
REMARK SMILES IDX 30 37 31 38 32 39 85 40 33 41 90 42 84 43 86 44 34 45 89 46
REMARK SMILES IDX 83 47 82 48 35 50 69 51 48 52 68 53 49 54 52 55 67 56 87 57
REMARK SMILES IDX 50 58 51 59 66 61 88 62 53 63 36 64 37 65 46 66 38 67 39 68
REMARK SMILES IDX 45 69 47 70 40 71 41 72 42 73 43 74 44 75 70 76 71 77 80 78
REMARK SMILES IDX 72 79 73 80 79 81 81 82 74 83 75 84 76 85 77 86 78 87 54 88
REMARK SMILES IDX 55 89 64 90 56 91 57 92 63 93 65 94 58 95 59 96 60 97 61 98
REMARK SMILES IDX 62 99
REMARK H PARENT 20 6 16 25 16 26 24 30 86 49 52 60
REMARK Flexibility Score: inf
ROOT
ATOM      1  C   UNL A   1      38.114  23.083  25.743  1.00  0.00     0.042 C 
ENDROOT
BRANCH   1   2
ATOM      2  C   UNL A   1      36.716  23.653  25.995  1.00  0.00     0.118 C 
BRANCH   2   3
ATOM      3  N   UNL A   1      35.907  22.721  26.763  1.00  0.00    -0.352 N 
ATOM      4  C   UNL A   1      34.613  22.275  26.655  1.00  0.00     0.253 C 
ATOM      5  O   UNL A   1      34.246  21.467  27.514  1.00  0.00    -0.269 OA
ATOM      6  H   UNL A   1      36.392  22.323  27.523  1.00  0.00     0.163 HD
BRANCH   4   7
ATOM      7  C   UNL A   1      33.669  22.671  25.557  1.00  0.00     0.065 A 
ATOM      8  C   UNL A   1      32.343  24.381  24.397  1.00  0.00     0.042 A 
ATOM      9  C   UNL A   1      32.009  23.437  23.427  1.00  0.00     0.031 A 
ATOM     10  C   UNL A   1      33.126  23.959  25.480  1.00  0.00     0.042 A 
ATOM     11  C   UNL A   1      32.440  22.102  23.525  1.00  0.00    -0.025 A 
ATOM     12  C   UNL A   1      32.018  21.128  22.456  1.00  0.00     0.047 C 
ATOM     13  C   UNL A   1      33.276  21.706  24.592  1.00  0.00     0.047 A 
BRANCH   8  14
ATOM     14  N   UNL A   1      32.012  25.753  24.270  1.00  0.00    -0.342 N 
BRANCH  14  15
ATOM     15  C   UNL A   1      30.943  26.092  23.310  1.00  0.00     0.119 C 
ATOM     16  C   UNL A   1      31.403  27.045  22.214  1.00  0.00     0.027 C 
ENDBRANCH  14  15
BRANCH  14  17
ATOM     17  C   UNL A   1      32.376  26.708  25.252  1.00  0.00     0.044 A 
ATOM     18  C   UNL A   1      33.605  27.389  25.252  1.00  0.00     0.026 A 
ATOM     19  C   UNL A   1      31.448  27.053  26.251  1.00  0.00     0.065 A 
ATOM     20  C   UNL A   1      33.901  28.363  26.217  1.00  0.00     0.005 A 
ATOM     21  C   UNL A   1      31.749  28.019  27.207  1.00  0.00     0.125 A 
ATOM     22  C   UNL A   1      32.968  28.678  27.199  1.00  0.00     0.039 A 
ATOM     23  F   UNL A   1      30.840  28.323  28.145  1.00  0.00    -0.207 F 
ENDBRANCH  14  17
ENDBRANCH   8  14
BRANCH  13  24
ATOM     24  N   UNL A   1      33.833  20.420  24.583  1.00  0.00    -0.398 N 
ATOM     25  H   UNL A   1      34.670  20.243  25.070  1.00  0.00     0.156 HD
ATOM     26  H   UNL A   1      33.387  19.694  24.091  1.00  0.00     0.156 HD
ENDBRANCH  13  24
ENDBRANCH   4   7
ENDBRANCH   2   3
ENDBRANCH   1   2
BRANCH   1  27
ATOM     27  C   UNL A   1      39.141  23.511  26.791  1.00  0.00     0.118 C 
BRANCH  27  28
ATOM     28  N   UNL A   1      40.419  23.849  26.185  1.00  0.00    -0.352 N 
ATOM     29  C   UNL A   1      41.200  24.966  26.334  1.00  0.00     0.251 C 
ATOM     30  H   UNL A   1      40.779  23.169  25.571  1.00  0.00     0.163 HD
ATOM     31  O   UNL A   1      42.122  25.154  25.545  1.00  0.00    -0.269 OA
BRANCH  29  32
ATOM     32  C   UNL A   1      40.951  25.939  27.422  1.00  0.00     0.039 A 
ATOM     33  C   UNL A   1      41.805  27.041  27.535  1.00  0.00     0.014 A 
ATOM     34  C   UNL A   1      39.949  25.738  28.376  1.00  0.00     0.014 A 
ATOM     35  C   UNL A   1      41.642  27.947  28.585  1.00  0.00     0.010 A 
ATOM     36  C   UNL A   1      39.748  26.676  29.391  1.00  0.00     0.010 A 
ATOM     37  C   UNL A   1      40.606  27.779  29.515  1.00  0.00    -0.014 A 
BRANCH  37  38
ATOM     38  C   UNL A   1      40.431  28.734  30.640  1.00  0.00     0.031 A 
ATOM     39  C   UNL A   1      41.310  28.637  31.860  1.00  0.00     0.074 A 
ATOM     40  C   UNL A   1      39.469  29.675  30.574  1.00  0.00     0.049 A 
ATOM     41  N   UNL A   1      41.290  29.360  32.951  1.00  0.00    -0.248 NA
ATOM     42  C   UNL A   1      42.329  27.577  31.863  1.00  0.00     0.031 C 
ATOM     43  C   UNL A   1      38.536  29.848  29.459  1.00  0.00     0.029 A 
ATOM     44  N   UNL A   1      39.119  30.664  31.458  1.00  0.00    -0.354 N 
ATOM     45  C   UNL A   1      42.282  28.835  33.772  1.00  0.00     0.074 A 
ATOM     46  C   UNL A   1      42.852  27.704  33.075  1.00  0.00     0.031 C 
ATOM     47  C   UNL A   1      37.739  30.899  29.713  1.00  0.00     0.029 A 
ATOM     48  C   UNL A   1      38.085  31.456  31.018  1.00  0.00     0.049 A 
ATOM     49  H   UNL A   1      39.565  30.794  32.325  1.00  0.00     0.167 HD
ATOM     50  C   UNL A   1      42.695  29.271  34.986  1.00  0.00     0.037 A 
ATOM     51  C   UNL A   1      37.487  32.516  31.596  1.00  0.00     0.037 A 
ATOM     52  C   UNL A   1      42.143  30.417  35.663  1.00  0.00     0.049 A 
ATOM     53  C   UNL A   1      37.977  32.997  32.934  1.00  0.00     0.074 A 
ATOM     54  C   UNL A   1      42.512  30.957  36.882  1.00  0.00     0.029 A 
ATOM     55  N   UNL A   1      41.113  31.205  35.173  1.00  0.00    -0.354 N 
ATOM     56  N   UNL A   1      38.933  32.504  33.684  1.00  0.00    -0.248 NA
ATOM     57  C   UNL A   1      37.318  34.182  33.497  1.00  0.00     0.031 C 
ATOM     58  C   UNL A   1      41.686  32.056  37.142  1.00  0.00     0.029 A 
ATOM     59  C   UNL A   1      40.831  32.225  36.066  1.00  0.00     0.049 A 
ATOM     60  H   UNL A   1      40.649  31.061  34.317  1.00  0.00     0.167 HD
ATOM     61  C   UNL A   1      39.009  33.334  34.797  1.00  0.00     0.074 A 
ATOM     62  C   UNL A   1      38.006  34.364  34.617  1.00  0.00     0.031 C 
ATOM     63  C   UNL A   1      39.837  33.250  35.867  1.00  0.00     0.037 A 
BRANCH  50  64
ATOM     64  C   UNL A   1      43.809  28.516  35.657  1.00  0.00     0.058 A 
ATOM     65  C   UNL A   1      45.152  28.826  35.384  1.00  0.00     0.135 A 
ATOM     66  C   UNL A   1      43.549  27.455  36.540  1.00  0.00     0.135 A 
ATOM     67  F   UNL A   1      45.459  29.833  34.552  1.00  0.00    -0.206 F 
ATOM     68  C   UNL A   1      46.196  28.106  35.958  1.00  0.00     0.059 A 
ATOM     69  C   UNL A   1      44.578  26.739  37.145  1.00  0.00     0.059 A 
ATOM     70  F   UNL A   1      42.284  27.132  36.852  1.00  0.00    -0.206 F 
ATOM     71  C   UNL A   1      45.899  27.064  36.838  1.00  0.00     0.060 A 
BRANCH  71  72
ATOM     72  S   UNL A   1      47.263  26.170  37.613  1.00  0.00     0.124 S 
ATOM     73  O   UNL A   1      47.724  25.321  36.521  1.00  0.00    -0.237 OA
ATOM     74  O   UNL A   1      48.161  27.254  38.000  1.00  0.00    -0.237 OA
ATOM     75  O   UNL A   1      46.621  25.475  38.726  1.00  0.00    -0.744 OA
ENDBRANCH  71  72
ENDBRANCH  50  64
BRANCH  51  76
ATOM     76  C   UNL A   1      36.393  33.220  30.877  1.00  0.00     0.058 A 
ATOM     77  C   UNL A   1      36.657  34.043  29.772  1.00  0.00     0.135 A 
ATOM     78  C   UNL A   1      35.066  33.125  31.320  1.00  0.00     0.135 A 
ATOM     79  F   UNL A   1      37.912  34.176  29.316  1.00  0.00    -0.206 F 
ATOM     80  C   UNL A   1      35.648  34.769  29.149  1.00  0.00     0.059 A 
ATOM     81  C   UNL A   1      34.035  33.824  30.699  1.00  0.00     0.059 A 
ATOM     82  F   UNL A   1      34.764  32.342  32.368  1.00  0.00    -0.206 F 
ATOM     83  C   UNL A   1      34.341  34.659  29.626  1.00  0.00     0.060 A 
BRANCH  83  84
ATOM     84  S   UNL A   1      33.051  35.636  28.825  1.00  0.00     0.124 S 
ATOM     85  O   UNL A   1      32.390  34.625  28.004  1.00  0.00    -0.237 OA
ATOM     86  O   UNL A   1      32.285  36.129  29.965  1.00  0.00    -0.237 OA
ATOM     87  O   UNL A   1      33.801  36.649  28.090  1.00  0.00    -0.744 OA
ENDBRANCH  83  84
ENDBRANCH  51  76
BRANCH  63  88
ATOM     88  C   UNL A   1      39.723  34.319  36.917  1.00  0.00     0.058 A 
ATOM     89  C   UNL A   1      40.464  35.506  36.801  1.00  0.00     0.135 A 
ATOM     90  C   UNL A   1      38.936  34.144  38.066  1.00  0.00     0.135 A 
ATOM     91  F   UNL A   1      41.237  35.720  35.725  1.00  0.00    -0.206 F 
ATOM     92  C   UNL A   1      40.436  36.480  37.794  1.00  0.00     0.059 A 
ATOM     93  C   UNL A   1      38.874  35.115  39.061  1.00  0.00     0.059 A 
ATOM     94  F   UNL A   1      38.201  33.030  38.217  1.00  0.00    -0.206 F 
ATOM     95  C   UNL A   1      39.640  36.274  38.922  1.00  0.00     0.060 A 
BRANCH  95  96
ATOM     96  S   UNL A   1      39.594  37.558  40.190  1.00  0.00     0.124 S 
ATOM     97  O   UNL A   1      40.978  38.019  40.198  1.00  0.00    -0.237 OA
ATOM     98  O   UNL A   1      38.614  38.495  39.649  1.00  0.00    -0.237 OA
ATOM     99  O   UNL A   1      39.165  36.836  41.384  1.00  0.00    -0.744 OA
ENDBRANCH  95  96
ENDBRANCH  63  88
ENDBRANCH  37  38
ENDBRANCH  29  32
ENDBRANCH  27  28
ENDBRANCH   1  27
TORSDOF 17
ENDMDL
