MODEL 1
REMARK VINA RESULT:     -14.1      0.000      0.000
REMARK SMILES Cc1c(CC(=O)NCCCNC(=O)c2ccc(-c3c4nc(c(-c5c(F)cc(S(=O)(=O)[O-])cc5F)c5ccc([nH]5)c(-c5c(F)cc(S(=O)(=O)[O-])cc5F)c5nc(c(-c6c(F)cc(S(=O)(=O)[O-])cc6F)c6ccc3[nH]6)C=C5)C=C4)cc2)cc(-c2ccccc2)cc1-c1ccccc1
REMARK SMILES IDX 9 1 8 2 7 3 5 4 6 5 4 7 3 8 1 9 2 10 89 11 80 12 88 13 81 14
REMARK SMILES IDX 90 15 91 16 95 17 92 18 94 19 93 20 82 21 83 22 87 23 84 24
REMARK SMILES IDX 86 25 85 26 10 27 11 28 12 29 13 31 14 32 15 33 79 34 16 35
REMARK SMILES IDX 78 36 17 37 18 38 19 39 72 40 20 41 77 42 71 43 73 44 21 45
REMARK SMILES IDX 76 46 70 47 69 48 22 50 56 51 35 52 55 53 36 54 39 55 54 56
REMARK SMILES IDX 74 57 37 58 38 59 53 61 75 62 40 63 23 64 24 65 33 66 25 67
REMARK SMILES IDX 26 68 32 69 34 70 27 71 28 72 29 73 30 74 31 75 57 76 58 77
REMARK SMILES IDX 67 78 59 79 60 80 66 81 68 82 61 83 62 84 63 85 64 86 65 87
REMARK SMILES IDX 41 88 42 89 51 90 43 91 44 92 50 93 52 94 45 95 46 96 47 97
REMARK SMILES IDX 48 98 49 99
REMARK H PARENT 7 6 11 30 73 49 39 60
REMARK Flexibility Score: inf
ROOT
ATOM      1  C   UNL A   1      33.585  28.474  25.442  1.00  0.00     0.042 C 
ENDROOT
BRANCH   1   2
ATOM      2  C   UNL A   1      33.400  26.963  25.345  1.00  0.00     0.117 C 
BRANCH   2   3
ATOM      3  N   UNL A   1      33.807  26.422  24.055  1.00  0.00    -0.356 N 
ATOM      4  C   UNL A   1      33.664  25.158  23.557  1.00  0.00     0.224 C 
ATOM      5  O   UNL A   1      34.057  24.925  22.411  1.00  0.00    -0.275 OA
ATOM      6  H   UNL A   1      34.253  27.062  23.453  1.00  0.00     0.163 HD
BRANCH   4   7
ATOM      7  C   UNL A   1      33.023  24.055  24.396  1.00  0.00     0.135 C 
BRANCH   7   8
ATOM      8  C   UNL A   1      33.916  22.840  24.584  1.00  0.00    -0.035 A 
ATOM      9  C   UNL A   1      32.093  21.210  23.856  1.00  0.00     0.045 C 
ATOM     10  C   UNL A   1      33.470  21.506  24.406  1.00  0.00    -0.040 A 
ATOM     11  C   UNL A   1      34.347  20.436  24.735  1.00  0.00    -0.015 A 
ATOM     12  C   UNL A   1      35.243  23.077  25.007  1.00  0.00     0.013 A 
ATOM     13  C   UNL A   1      35.654  20.726  25.180  1.00  0.00     0.017 A 
ATOM     14  C   UNL A   1      36.127  22.037  25.308  1.00  0.00    -0.017 A 
BRANCH  11  15
ATOM     15  C   UNL A   1      33.929  19.022  24.704  1.00  0.00    -0.018 A 
ATOM     16  C   UNL A   1      32.910  18.569  25.561  1.00  0.00     0.009 A 
ATOM     17  C   UNL A   1      34.512  18.102  23.819  1.00  0.00     0.009 A 
ATOM     18  C   UNL A   1      32.478  17.242  25.525  1.00  0.00     0.001 A 
ATOM     19  C   UNL A   1      34.071  16.777  23.774  1.00  0.00     0.001 A 
ATOM     20  C   UNL A   1      33.056  16.348  24.627  1.00  0.00     0.000 A 
ENDBRANCH  11  15
BRANCH  14  21
ATOM     21  C   UNL A   1      37.501  22.308  25.764  1.00  0.00    -0.018 A 
ATOM     22  C   UNL A   1      37.886  23.588  26.198  1.00  0.00     0.009 A 
ATOM     23  C   UNL A   1      38.470  21.290  25.776  1.00  0.00     0.009 A 
ATOM     24  C   UNL A   1      39.193  23.842  26.625  1.00  0.00     0.001 A 
ATOM     25  C   UNL A   1      39.778  21.543  26.199  1.00  0.00     0.001 A 
ATOM     26  C   UNL A   1      40.138  22.819  26.624  1.00  0.00     0.000 A 
ENDBRANCH  14  21
ENDBRANCH   7   8
ENDBRANCH   4   7
ENDBRANCH   2   3
ENDBRANCH   1   2
BRANCH   1  27
ATOM     27  C   UNL A   1      33.195  29.037  26.801  1.00  0.00     0.118 C 
BRANCH  27  28
ATOM     28  N   UNL A   1      33.498  30.455  26.935  1.00  0.00    -0.352 N 
ATOM     29  C   UNL A   1      34.522  31.030  27.667  1.00  0.00     0.251 C 
ATOM     30  H   UNL A   1      32.907  31.075  26.450  1.00  0.00     0.163 HD
ATOM     31  O   UNL A   1      34.552  32.214  27.941  1.00  0.00    -0.269 OA
BRANCH  29  32
ATOM     32  C   UNL A   1      35.668  30.151  27.978  1.00  0.00     0.039 A 
ATOM     33  C   UNL A   1      35.789  29.720  29.304  1.00  0.00     0.014 A 
ATOM     34  C   UNL A   1      36.721  30.029  27.077  1.00  0.00     0.014 A 
ATOM     35  C   UNL A   1      37.033  29.308  29.777  1.00  0.00     0.010 A 
ATOM     36  C   UNL A   1      37.969  29.704  27.572  1.00  0.00     0.010 A 
ATOM     37  C   UNL A   1      38.135  29.381  28.929  1.00  0.00    -0.014 A 
BRANCH  37  38
ATOM     38  C   UNL A   1      39.515  29.231  29.385  1.00  0.00     0.031 A 
ATOM     39  C   UNL A   1      40.308  28.036  29.002  1.00  0.00     0.074 A 
ATOM     40  C   UNL A   1      40.112  30.224  30.080  1.00  0.00     0.049 A 
ATOM     41  N   UNL A   1      41.374  27.641  29.615  1.00  0.00    -0.248 NA
ATOM     42  C   UNL A   1      39.926  27.159  27.901  1.00  0.00     0.031 C 
ATOM     43  C   UNL A   1      41.547  30.409  30.282  1.00  0.00     0.029 A 
ATOM     44  N   UNL A   1      39.525  31.181  30.904  1.00  0.00    -0.354 N 
ATOM     45  C   UNL A   1      41.962  26.658  28.850  1.00  0.00     0.074 A 
ATOM     46  C   UNL A   1      40.995  26.361  27.818  1.00  0.00     0.031 C 
ATOM     47  C   UNL A   1      41.740  31.239  31.317  1.00  0.00     0.029 A 
ATOM     48  C   UNL A   1      40.445  31.498  31.918  1.00  0.00     0.049 A 
ATOM     49  H   UNL A   1      38.625  31.566  30.795  1.00  0.00     0.167 HD
ATOM     50  C   UNL A   1      43.255  26.292  29.089  1.00  0.00     0.037 A 
ATOM     51  C   UNL A   1      40.152  31.290  33.237  1.00  0.00     0.037 A 
ATOM     52  C   UNL A   1      43.809  27.006  30.237  1.00  0.00     0.049 A 
ATOM     53  C   UNL A   1      41.059  30.296  33.926  1.00  0.00     0.074 A 
ATOM     54  C   UNL A   1      44.585  28.150  30.339  1.00  0.00     0.029 A 
ATOM     55  N   UNL A   1      43.335  26.737  31.515  1.00  0.00    -0.354 N 
ATOM     56  N   UNL A   1      41.866  29.487  33.297  1.00  0.00    -0.248 NA
ATOM     57  C   UNL A   1      41.117  30.115  35.376  1.00  0.00     0.031 C 
ATOM     58  C   UNL A   1      44.533  28.601  31.679  1.00  0.00     0.029 A 
ATOM     59  C   UNL A   1      43.738  27.724  32.396  1.00  0.00     0.049 A 
ATOM     60  H   UNL A   1      42.790  25.954  31.759  1.00  0.00     0.167 HD
ATOM     61  C   UNL A   1      42.498  28.669  34.197  1.00  0.00     0.074 A 
ATOM     62  C   UNL A   1      42.022  29.125  35.489  1.00  0.00     0.031 C 
ATOM     63  C   UNL A   1      43.350  27.678  33.798  1.00  0.00     0.037 A 
BRANCH  50  64
ATOM     64  C   UNL A   1      44.095  25.522  28.089  1.00  0.00     0.058 A 
ATOM     65  C   UNL A   1      44.654  26.164  26.962  1.00  0.00     0.135 A 
ATOM     66  C   UNL A   1      44.330  24.135  28.151  1.00  0.00     0.135 A 
ATOM     67  F   UNL A   1      44.611  27.495  26.817  1.00  0.00    -0.206 F 
ATOM     68  C   UNL A   1      45.272  25.471  25.920  1.00  0.00     0.059 A 
ATOM     69  C   UNL A   1      44.895  23.410  27.096  1.00  0.00     0.059 A 
ATOM     70  F   UNL A   1      44.051  23.435  29.261  1.00  0.00    -0.206 F 
ATOM     71  C   UNL A   1      45.348  24.087  25.972  1.00  0.00     0.060 A 
BRANCH  71  72
ATOM     72  S   UNL A   1      46.032  23.202  24.558  1.00  0.00     0.124 S 
ATOM     73  O   UNL A   1      46.517  21.968  25.169  1.00  0.00    -0.237 OA
ATOM     74  O   UNL A   1      44.867  23.067  23.692  1.00  0.00    -0.237 OA
ATOM     75  O   UNL A   1      47.076  24.099  24.070  1.00  0.00    -0.744 OA
ENDBRANCH  71  72
ENDBRANCH  50  64
BRANCH  51  76
ATOM     76  C   UNL A   1      38.720  31.535  33.561  1.00  0.00     0.058 A 
ATOM     77  C   UNL A   1      38.351  32.856  33.876  1.00  0.00     0.135 A 
ATOM     78  C   UNL A   1      37.717  30.669  33.107  1.00  0.00     0.135 A 
ATOM     79  F   UNL A   1      39.272  33.718  34.339  1.00  0.00    -0.206 F 
ATOM     80  C   UNL A   1      37.090  33.353  33.570  1.00  0.00     0.059 A 
ATOM     81  C   UNL A   1      36.439  31.145  32.800  1.00  0.00     0.059 A 
ATOM     82  F   UNL A   1      38.008  29.395  32.803  1.00  0.00    -0.206 F 
ATOM     83  C   UNL A   1      36.169  32.505  32.960  1.00  0.00     0.060 A 
BRANCH  83  84
ATOM     84  S   UNL A   1      34.705  33.258  32.209  1.00  0.00     0.124 S 
ATOM     85  O   UNL A   1      34.473  32.394  31.056  1.00  0.00    -0.237 OA
ATOM     86  O   UNL A   1      33.725  33.142  33.289  1.00  0.00    -0.237 OA
ATOM     87  O   UNL A   1      35.145  34.614  31.903  1.00  0.00    -0.744 OA
ENDBRANCH  83  84
ENDBRANCH  51  76
BRANCH  63  88
ATOM     88  C   UNL A   1      43.965  26.623  34.685  1.00  0.00     0.058 A 
ATOM     89  C   UNL A   1      43.244  25.564  35.263  1.00  0.00     0.135 A 
ATOM     90  C   UNL A   1      45.369  26.575  34.865  1.00  0.00     0.135 A 
ATOM     91  F   UNL A   1      41.922  25.441  35.078  1.00  0.00    -0.206 F 
ATOM     92  C   UNL A   1      43.861  24.561  36.014  1.00  0.00     0.059 A 
ATOM     93  C   UNL A   1      46.010  25.556  35.565  1.00  0.00     0.059 A 
ATOM     94  F   UNL A   1      46.172  27.520  34.351  1.00  0.00    -0.206 F 
ATOM     95  C   UNL A   1      45.244  24.563  36.158  1.00  0.00     0.060 A 
BRANCH  95  96
ATOM     96  S   UNL A   1      46.065  23.238  37.065  1.00  0.00     0.124 S 
ATOM     97  O   UNL A   1      47.453  23.686  37.044  1.00  0.00    -0.237 OA
ATOM     98  O   UNL A   1      45.411  23.278  38.370  1.00  0.00    -0.237 OA
ATOM     99  O   UNL A   1      45.766  22.057  36.261  1.00  0.00    -0.744 OA
ENDBRANCH  95  96
ENDBRANCH  63  88
ENDBRANCH  37  38
ENDBRANCH  29  32
ENDBRANCH  27  28
ENDBRANCH   1  27
TORSDOF 16
ENDMDL
MODEL 2
REMARK VINA RESULT:     -13.6      4.080     10.672
REMARK SMILES Cc1c(CC(=O)NCCCNC(=O)c2ccc(-c3c4nc(c(-c5c(F)cc(S(=O)(=O)[O-])cc5F)c5ccc([nH]5)c(-c5c(F)cc(S(=O)(=O)[O-])cc5F)c5nc(c(-c6c(F)cc(S(=O)(=O)[O-])cc6F)c6ccc3[nH]6)C=C5)C=C4)cc2)cc(-c2ccccc2)cc1-c1ccccc1
REMARK SMILES IDX 9 1 8 2 7 3 5 4 6 5 4 7 3 8 1 9 2 10 89 11 80 12 88 13 81 14
REMARK SMILES IDX 90 15 91 16 95 17 92 18 94 19 93 20 82 21 83 22 87 23 84 24
REMARK SMILES IDX 86 25 85 26 10 27 11 28 12 29 13 31 14 32 15 33 79 34 16 35
REMARK SMILES IDX 78 36 17 37 18 38 19 39 72 40 20 41 77 42 71 43 73 44 21 45
REMARK SMILES IDX 76 46 70 47 69 48 22 50 56 51 35 52 55 53 36 54 39 55 54 56
REMARK SMILES IDX 74 57 37 58 38 59 53 61 75 62 40 63 23 64 24 65 33 66 25 67
REMARK SMILES IDX 26 68 32 69 34 70 27 71 28 72 29 73 30 74 31 75 57 76 58 77
REMARK SMILES IDX 67 78 59 79 60 80 66 81 68 82 61 83 62 84 63 85 64 86 65 87
REMARK SMILES IDX 41 88 42 89 51 90 43 91 44 92 50 93 52 94 45 95 46 96 47 97
REMARK SMILES IDX 48 98 49 99
REMARK H PARENT 7 6 11 30 73 49 39 60
REMARK Flexibility Score: inf
ROOT
ATOM      1  C   UNL A   1      36.020  23.456  26.067  1.00  0.00     0.042 C 
ENDROOT
BRANCH   1   2
ATOM      2  C   UNL A   1      34.823  24.061  25.341  1.00  0.00     0.117 C 
BRANCH   2   3
ATOM      3  N   UNL A   1      33.647  24.191  26.191  1.00  0.00    -0.356 N 
ATOM      4  C   UNL A   1      32.459  24.820  25.944  1.00  0.00     0.224 C 
ATOM      5  O   UNL A   1      31.577  24.777  26.805  1.00  0.00    -0.275 OA
ATOM      6  H   UNL A   1      33.719  23.763  27.075  1.00  0.00     0.163 HD
BRANCH   4   7
ATOM      7  C   UNL A   1      32.224  25.556  24.627  1.00  0.00     0.135 C 
BRANCH   7   8
ATOM      8  C   UNL A   1      31.930  27.036  24.804  1.00  0.00    -0.035 A 
ATOM      9  C   UNL A   1      29.936  26.976  23.213  1.00  0.00     0.045 C 
ATOM     10  C   UNL A   1      30.913  27.723  24.094  1.00  0.00    -0.040 A 
ATOM     11  C   UNL A   1      30.806  29.134  24.233  1.00  0.00    -0.015 A 
ATOM     12  C   UNL A   1      32.760  27.755  25.693  1.00  0.00     0.013 A 
ATOM     13  C   UNL A   1      31.679  29.809  25.113  1.00  0.00     0.017 A 
ATOM     14  C   UNL A   1      32.651  29.138  25.863  1.00  0.00    -0.017 A 
BRANCH  11  15
ATOM     15  C   UNL A   1      29.866  29.947  23.439  1.00  0.00    -0.018 A 
ATOM     16  C   UNL A   1      29.122  30.968  24.057  1.00  0.00     0.009 A 
ATOM     17  C   UNL A   1      29.702  29.745  22.061  1.00  0.00     0.009 A 
ATOM     18  C   UNL A   1      28.251  31.770  23.318  1.00  0.00     0.001 A 
ATOM     19  C   UNL A   1      28.838  30.555  21.318  1.00  0.00     0.001 A 
ATOM     20  C   UNL A   1      28.114  31.566  21.947  1.00  0.00     0.000 A 
ENDBRANCH  11  15
BRANCH  14  21
ATOM     21  C   UNL A   1      33.540  29.869  26.782  1.00  0.00    -0.018 A 
ATOM     22  C   UNL A   1      33.245  31.179  27.193  1.00  0.00     0.009 A 
ATOM     23  C   UNL A   1      34.714  29.274  27.274  1.00  0.00     0.009 A 
ATOM     24  C   UNL A   1      34.094  31.871  28.062  1.00  0.00     0.001 A 
ATOM     25  C   UNL A   1      35.566  29.965  28.139  1.00  0.00     0.001 A 
ATOM     26  C   UNL A   1      35.255  31.264  28.533  1.00  0.00     0.000 A 
ENDBRANCH  14  21
ENDBRANCH   7   8
ENDBRANCH   4   7
ENDBRANCH   2   3
ENDBRANCH   1   2
BRANCH   1  27
ATOM     27  C   UNL A   1      37.132  23.020  25.126  1.00  0.00     0.118 C 
BRANCH  27  28
ATOM     28  N   UNL A   1      38.140  22.198  25.781  1.00  0.00    -0.352 N 
ATOM     29  C   UNL A   1      39.318  22.623  26.370  1.00  0.00     0.251 C 
ATOM     30  H   UNL A   1      37.963  21.229  25.808  1.00  0.00     0.163 HD
ATOM     31  O   UNL A   1      40.222  21.863  26.659  1.00  0.00    -0.269 OA
BRANCH  29  32
ATOM     32  C   UNL A   1      39.365  24.044  26.770  1.00  0.00     0.039 A 
ATOM     33  C   UNL A   1      40.138  24.897  25.974  1.00  0.00     0.014 A 
ATOM     34  C   UNL A   1      38.927  24.430  28.034  1.00  0.00     0.014 A 
ATOM     35  C   UNL A   1      40.613  26.090  26.514  1.00  0.00     0.010 A 
ATOM     36  C   UNL A   1      39.471  25.570  28.593  1.00  0.00     0.010 A 
ATOM     37  C   UNL A   1      40.344  26.381  27.850  1.00  0.00    -0.014 A 
BRANCH  37  38
ATOM     38  C   UNL A   1      41.002  27.455  28.589  1.00  0.00     0.031 A 
ATOM     39  C   UNL A   1      40.246  28.672  28.979  1.00  0.00     0.074 A 
ATOM     40  C   UNL A   1      42.278  27.309  29.008  1.00  0.00     0.049 A 
ATOM     41  N   UNL A   1      40.792  29.796  29.308  1.00  0.00    -0.248 NA
ATOM     42  C   UNL A   1      38.789  28.722  28.988  1.00  0.00     0.031 C 
ATOM     43  C   UNL A   1      42.951  28.085  30.046  1.00  0.00     0.029 A 
ATOM     44  N   UNL A   1      43.293  26.537  28.446  1.00  0.00    -0.354 N 
ATOM     45  C   UNL A   1      39.808  30.607  29.829  1.00  0.00     0.074 A 
ATOM     46  C   UNL A   1      38.570  29.910  29.562  1.00  0.00     0.031 C 
ATOM     47  C   UNL A   1      44.277  27.936  29.914  1.00  0.00     0.029 A 
ATOM     48  C   UNL A   1      44.515  27.186  28.695  1.00  0.00     0.049 A 
ATOM     49  H   UNL A   1      43.174  25.689  27.961  1.00  0.00     0.167 HD
ATOM     50  C   UNL A   1      40.150  31.717  30.546  1.00  0.00     0.037 A 
ATOM     51  C   UNL A   1      45.318  27.611  27.673  1.00  0.00     0.037 A 
ATOM     52  C   UNL A   1      41.598  31.903  30.584  1.00  0.00     0.049 A 
ATOM     53  C   UNL A   1      45.529  29.107  27.629  1.00  0.00     0.074 A 
ATOM     54  C   UNL A   1      42.560  31.552  31.518  1.00  0.00     0.029 A 
ATOM     55  N   UNL A   1      42.282  32.252  29.426  1.00  0.00    -0.354 N 
ATOM     56  N   UNL A   1      44.813  29.965  28.301  1.00  0.00    -0.248 NA
ATOM     57  C   UNL A   1      46.547  29.762  26.811  1.00  0.00     0.031 C 
ATOM     58  C   UNL A   1      43.830  31.640  30.898  1.00  0.00     0.029 A 
ATOM     59  C   UNL A   1      43.642  32.059  29.593  1.00  0.00     0.049 A 
ATOM     60  H   UNL A   1      41.860  32.590  28.604  1.00  0.00     0.167 HD
ATOM     61  C   UNL A   1      45.208  31.241  27.996  1.00  0.00     0.074 A 
ATOM     62  C   UNL A   1      46.321  31.061  27.084  1.00  0.00     0.031 C 
ATOM     63  C   UNL A   1      44.574  32.337  28.510  1.00  0.00     0.037 A 
BRANCH  50  64
ATOM     64  C   UNL A   1      39.181  32.440  31.462  1.00  0.00     0.058 A 
ATOM     65  C   UNL A   1      39.046  32.067  32.817  1.00  0.00     0.135 A 
ATOM     66  C   UNL A   1      38.313  33.467  31.045  1.00  0.00     0.135 A 
ATOM     67  F   UNL A   1      39.874  31.184  33.390  1.00  0.00    -0.206 F 
ATOM     68  C   UNL A   1      38.043  32.571  33.648  1.00  0.00     0.059 A 
ATOM     69  C   UNL A   1      37.264  33.946  31.838  1.00  0.00     0.059 A 
ATOM     70  F   UNL A   1      38.473  34.070  29.857  1.00  0.00    -0.206 F 
ATOM     71  C   UNL A   1      37.127  33.478  33.138  1.00  0.00     0.060 A 
BRANCH  71  72
ATOM     72  S   UNL A   1      35.763  34.015  34.188  1.00  0.00     0.124 S 
ATOM     73  O   UNL A   1      36.234  33.649  35.520  1.00  0.00    -0.237 OA
ATOM     74  O   UNL A   1      35.707  35.445  33.905  1.00  0.00    -0.237 OA
ATOM     75  O   UNL A   1      34.630  33.234  33.698  1.00  0.00    -0.744 OA
ENDBRANCH  71  72
ENDBRANCH  50  64
BRANCH  51  76
ATOM     76  C   UNL A   1      45.295  26.698  26.498  1.00  0.00     0.058 A 
ATOM     77  C   UNL A   1      46.163  25.590  26.530  1.00  0.00     0.135 A 
ATOM     78  C   UNL A   1      44.175  26.624  25.660  1.00  0.00     0.135 A 
ATOM     79  F   UNL A   1      47.265  25.623  27.299  1.00  0.00    -0.206 F 
ATOM     80  C   UNL A   1      45.834  24.389  25.913  1.00  0.00     0.059 A 
ATOM     81  C   UNL A   1      43.830  25.428  25.023  1.00  0.00     0.059 A 
ATOM     82  F   UNL A   1      43.319  27.654  25.580  1.00  0.00    -0.206 F 
ATOM     83  C   UNL A   1      44.625  24.300  25.228  1.00  0.00     0.060 A 
BRANCH  83  84
ATOM     84  S   UNL A   1      44.030  22.648  24.789  1.00  0.00     0.124 S 
ATOM     85  O   UNL A   1      44.700  21.809  25.777  1.00  0.00    -0.237 OA
ATOM     86  O   UNL A   1      42.585  22.797  24.967  1.00  0.00    -0.237 OA
ATOM     87  O   UNL A   1      44.480  22.485  23.412  1.00  0.00    -0.744 OA
ENDBRANCH  83  84
ENDBRANCH  51  76
BRANCH  63  88
ATOM     88  C   UNL A   1      44.818  33.772  28.115  1.00  0.00     0.058 A 
ATOM     89  C   UNL A   1      44.319  34.360  26.941  1.00  0.00     0.135 A 
ATOM     90  C   UNL A   1      45.466  34.657  29.012  1.00  0.00     0.135 A 
ATOM     91  F   UNL A   1      43.598  33.650  26.060  1.00  0.00    -0.206 F 
ATOM     92  C   UNL A   1      44.497  35.714  26.646  1.00  0.00     0.059 A 
ATOM     93  C   UNL A   1      45.609  36.020  28.763  1.00  0.00     0.059 A 
ATOM     94  F   UNL A   1      45.975  34.223  30.176  1.00  0.00    -0.206 F 
ATOM     95  C   UNL A   1      45.142  36.537  27.564  1.00  0.00     0.060 A 
BRANCH  95  96
ATOM     96  S   UNL A   1      45.320  38.301  27.233  1.00  0.00     0.124 S 
ATOM     97  O   UNL A   1      45.714  38.805  28.544  1.00  0.00    -0.237 OA
ATOM     98  O   UNL A   1      46.357  38.339  26.206  1.00  0.00    -0.237 OA
ATOM     99  O   UNL A   1      43.988  38.685  26.778  1.00  0.00    -0.744 OA
ENDBRANCH  95  96
ENDBRANCH  63  88
ENDBRANCH  37  38
ENDBRANCH  29  32
ENDBRANCH  27  28
ENDBRANCH   1  27
TORSDOF 16
ENDMDL
MODEL 3
REMARK VINA RESULT:     -13.1      1.794      2.678
REMARK SMILES Cc1c(CC(=O)NCCCNC(=O)c2ccc(-c3c4nc(c(-c5c(F)cc(S(=O)(=O)[O-])cc5F)c5ccc([nH]5)c(-c5c(F)cc(S(=O)(=O)[O-])cc5F)c5nc(c(-c6c(F)cc(S(=O)(=O)[O-])cc6F)c6ccc3[nH]6)C=C5)C=C4)cc2)cc(-c2ccccc2)cc1-c1ccccc1
REMARK SMILES IDX 9 1 8 2 7 3 5 4 6 5 4 7 3 8 1 9 2 10 89 11 80 12 88 13 81 14
REMARK SMILES IDX 90 15 91 16 95 17 92 18 94 19 93 20 82 21 83 22 87 23 84 24
REMARK SMILES IDX 86 25 85 26 10 27 11 28 12 29 13 31 14 32 15 33 79 34 16 35
REMARK SMILES IDX 78 36 17 37 18 38 19 39 72 40 20 41 77 42 71 43 73 44 21 45
REMARK SMILES IDX 76 46 70 47 69 48 22 50 56 51 35 52 55 53 36 54 39 55 54 56
REMARK SMILES IDX 74 57 37 58 38 59 53 61 75 62 40 63 23 64 24 65 33 66 25 67
REMARK SMILES IDX 26 68 32 69 34 70 27 71 28 72 29 73 30 74 31 75 57 76 58 77
REMARK SMILES IDX 67 78 59 79 60 80 66 81 68 82 61 83 62 84 63 85 64 86 65 87
REMARK SMILES IDX 41 88 42 89 51 90 43 91 44 92 50 93 52 94 45 95 46 96 47 97
REMARK SMILES IDX 48 98 49 99
REMARK H PARENT 7 6 11 30 73 49 39 60
REMARK Flexibility Score: inf
ROOT
ATOM      1  C   UNL A   1      32.742  30.467  27.255  1.00  0.00     0.042 C 
ENDROOT
BRANCH   1   2
ATOM      2  C   UNL A   1      33.160  29.002  27.174  1.00  0.00     0.117 C 
BRANCH   2   3
ATOM      3  N   UNL A   1      33.561  28.598  25.833  1.00  0.00    -0.356 N 
ATOM      4  C   UNL A   1      33.673  27.346  25.298  1.00  0.00     0.224 C 
ATOM      5  O   UNL A   1      34.001  27.235  24.114  1.00  0.00    -0.275 OA
ATOM      6  H   UNL A   1      33.784  29.337  25.221  1.00  0.00     0.163 HD
BRANCH   4   7
ATOM      7  C   UNL A   1      33.392  26.107  26.144  1.00  0.00     0.135 C 
BRANCH   7   8
ATOM      8  C   UNL A   1      33.997  24.834  25.576  1.00  0.00    -0.035 A 
ATOM      9  C   UNL A   1      31.860  24.201  24.335  1.00  0.00     0.045 C 
ATOM     10  C   UNL A   1      33.269  23.902  24.793  1.00  0.00    -0.040 A 
ATOM     11  C   UNL A   1      33.891  22.679  24.421  1.00  0.00    -0.015 A 
ATOM     12  C   UNL A   1      35.345  24.563  25.901  1.00  0.00     0.013 A 
ATOM     13  C   UNL A   1      35.231  22.444  24.794  1.00  0.00     0.017 A 
ATOM     14  C   UNL A   1      35.981  23.377  25.520  1.00  0.00    -0.017 A 
BRANCH  11  15
ATOM     15  C   UNL A   1      33.173  21.599  23.719  1.00  0.00    -0.018 A 
ATOM     16  C   UNL A   1      32.544  21.855  22.487  1.00  0.00     0.009 A 
ATOM     17  C   UNL A   1      33.115  20.297  24.238  1.00  0.00     0.009 A 
ATOM     18  C   UNL A   1      31.887  20.839  21.791  1.00  0.00     0.001 A 
ATOM     19  C   UNL A   1      32.467  19.276  23.536  1.00  0.00     0.001 A 
ATOM     20  C   UNL A   1      31.854  19.549  22.314  1.00  0.00     0.000 A 
ENDBRANCH  11  15
BRANCH  14  21
ATOM     21  C   UNL A   1      37.382  23.108  25.885  1.00  0.00    -0.018 A 
ATOM     22  C   UNL A   1      37.966  21.851  25.655  1.00  0.00     0.009 A 
ATOM     23  C   UNL A   1      38.175  24.104  26.478  1.00  0.00     0.009 A 
ATOM     24  C   UNL A   1      39.295  21.598  26.008  1.00  0.00     0.001 A 
ATOM     25  C   UNL A   1      39.503  23.852  26.835  1.00  0.00     0.001 A 
ATOM     26  C   UNL A   1      40.062  22.599  26.599  1.00  0.00     0.000 A 
ENDBRANCH  14  21
ENDBRANCH   7   8
ENDBRANCH   4   7
ENDBRANCH   2   3
ENDBRANCH   1   2
BRANCH   1  27
ATOM     27  C   UNL A   1      33.918  31.428  27.198  1.00  0.00     0.118 C 
BRANCH  27  28
ATOM     28  N   UNL A   1      34.066  32.218  28.413  1.00  0.00    -0.352 N 
ATOM     29  C   UNL A   1      34.837  31.917  29.523  1.00  0.00     0.251 C 
ATOM     30  H   UNL A   1      33.560  33.062  28.449  1.00  0.00     0.163 HD
ATOM     31  O   UNL A   1      34.705  32.485  30.589  1.00  0.00    -0.269 OA
BRANCH  29  32
ATOM     32  C   UNL A   1      35.941  30.961  29.303  1.00  0.00     0.039 A 
ATOM     33  C   UNL A   1      36.180  30.031  30.321  1.00  0.00     0.014 A 
ATOM     34  C   UNL A   1      36.873  31.187  28.295  1.00  0.00     0.014 A 
ATOM     35  C   UNL A   1      37.435  29.435  30.422  1.00  0.00     0.010 A 
ATOM     36  C   UNL A   1      38.141  30.662  28.448  1.00  0.00     0.010 A 
ATOM     37  C   UNL A   1      38.436  29.817  29.531  1.00  0.00    -0.014 A 
BRANCH  37  38
ATOM     38  C   UNL A   1      39.843  29.466  29.701  1.00  0.00     0.031 A 
ATOM     39  C   UNL A   1      40.372  28.193  29.149  1.00  0.00     0.074 A 
ATOM     40  C   UNL A   1      40.697  30.339  30.279  1.00  0.00     0.049 A 
ATOM     41  N   UNL A   1      41.471  27.633  29.531  1.00  0.00    -0.248 NA
ATOM     42  C   UNL A   1      39.665  27.424  28.132  1.00  0.00     0.031 C 
ATOM     43  C   UNL A   1      42.155  30.321  30.196  1.00  0.00     0.029 A 
ATOM     44  N   UNL A   1      40.421  31.328  31.220  1.00  0.00    -0.354 N 
ATOM     45  C   UNL A   1      41.757  26.615  28.648  1.00  0.00     0.074 A 
ATOM     46  C   UNL A   1      40.575  26.495  27.824  1.00  0.00     0.031 C 
ATOM     47  C   UNL A   1      42.660  31.072  31.185  1.00  0.00     0.029 A 
ATOM     48  C   UNL A   1      41.556  31.475  32.036  1.00  0.00     0.049 A 
ATOM     49  H   UNL A   1      39.580  31.834  31.299  1.00  0.00     0.167 HD
ATOM     50  C   UNL A   1      43.008  26.069  28.619  1.00  0.00     0.037 A 
ATOM     51  C   UNL A   1      41.500  31.251  33.383  1.00  0.00     0.037 A 
ATOM     52  C   UNL A   1      43.868  26.652  29.645  1.00  0.00     0.049 A 
ATOM     53  C   UNL A   1      42.376  30.115  33.861  1.00  0.00     0.074 A 
ATOM     54  C   UNL A   1      44.801  27.677  29.610  1.00  0.00     0.029 A 
ATOM     55  N   UNL A   1      43.619  26.393  30.988  1.00  0.00    -0.354 N 
ATOM     56  N   UNL A   1      42.924  29.235  33.071  1.00  0.00    -0.248 NA
ATOM     57  C   UNL A   1      42.689  29.865  35.267  1.00  0.00     0.031 C 
ATOM     58  C   UNL A   1      45.074  28.072  30.941  1.00  0.00     0.029 A 
ATOM     59  C   UNL A   1      44.320  27.279  31.787  1.00  0.00     0.049 A 
ATOM     60  H   UNL A   1      43.029  25.680  31.322  1.00  0.00     0.167 HD
ATOM     61  C   UNL A   1      43.599  28.301  33.813  1.00  0.00     0.074 A 
ATOM     62  C   UNL A   1      43.452  28.759  35.181  1.00  0.00     0.031 C 
ATOM     63  C   UNL A   1      44.210  27.223  33.237  1.00  0.00     0.037 A 
BRANCH  50  64
ATOM     64  C   UNL A   1      43.521  25.239  27.459  1.00  0.00     0.058 A 
ATOM     65  C   UNL A   1      43.495  23.828  27.507  1.00  0.00     0.135 A 
ATOM     66  C   UNL A   1      44.109  25.777  26.298  1.00  0.00     0.135 A 
ATOM     67  F   UNL A   1      42.872  23.168  28.492  1.00  0.00    -0.206 F 
ATOM     68  C   UNL A   1      44.121  23.023  26.554  1.00  0.00     0.059 A 
ATOM     69  C   UNL A   1      44.793  24.996  25.359  1.00  0.00     0.059 A 
ATOM     70  F   UNL A   1      44.010  27.084  26.014  1.00  0.00    -0.206 F 
ATOM     71  C   UNL A   1      44.808  23.616  25.505  1.00  0.00     0.060 A 
BRANCH  71  72
ATOM     72  S   UNL A   1      45.720  22.563  24.360  1.00  0.00     0.124 S 
ATOM     73  O   UNL A   1      44.673  22.127  23.439  1.00  0.00    -0.237 OA
ATOM     74  O   UNL A   1      46.702  23.490  23.811  1.00  0.00    -0.237 OA
ATOM     75  O   UNL A   1      46.259  21.514  25.220  1.00  0.00    -0.744 OA
ENDBRANCH  71  72
ENDBRANCH  50  64
BRANCH  51  76
ATOM     76  C   UNL A   1      40.207  31.669  33.989  1.00  0.00     0.058 A 
ATOM     77  C   UNL A   1      39.309  30.648  34.354  1.00  0.00     0.135 A 
ATOM     78  C   UNL A   1      40.072  32.911  34.624  1.00  0.00     0.135 A 
ATOM     79  F   UNL A   1      39.381  29.446  33.757  1.00  0.00    -0.206 F 
ATOM     80  C   UNL A   1      38.447  30.787  35.435  1.00  0.00     0.059 A 
ATOM     81  C   UNL A   1      39.206  33.076  35.708  1.00  0.00     0.059 A 
ATOM     82  F   UNL A   1      40.892  33.925  34.308  1.00  0.00    -0.206 F 
ATOM     83  C   UNL A   1      38.463  31.981  36.152  1.00  0.00     0.060 A 
BRANCH  83  84
ATOM     84  S   UNL A   1      37.652  31.999  37.769  1.00  0.00     0.124 S 
ATOM     85  O   UNL A   1      37.176  30.625  37.889  1.00  0.00    -0.237 OA
ATOM     86  O   UNL A   1      38.762  32.358  38.653  1.00  0.00    -0.237 OA
ATOM     87  O   UNL A   1      36.618  33.014  37.615  1.00  0.00    -0.744 OA
ENDBRANCH  83  84
ENDBRANCH  51  76
BRANCH  63  88
ATOM     88  C   UNL A   1      44.833  26.058  33.966  1.00  0.00     0.058 A 
ATOM     89  C   UNL A   1      44.099  25.087  34.668  1.00  0.00     0.135 A 
ATOM     90  C   UNL A   1      46.222  25.808  33.852  1.00  0.00     0.135 A 
ATOM     91  F   UNL A   1      42.763  25.157  34.759  1.00  0.00    -0.206 F 
ATOM     92  C   UNL A   1      44.703  23.978  35.265  1.00  0.00     0.059 A 
ATOM     93  C   UNL A   1      46.838  24.682  34.394  1.00  0.00     0.059 A 
ATOM     94  F   UNL A   1      47.032  26.652  33.194  1.00  0.00    -0.206 F 
ATOM     95  C   UNL A   1      46.073  23.782  35.121  1.00  0.00     0.060 A 
BRANCH  95  96
ATOM     96  S   UNL A   1      46.860  22.320  35.825  1.00  0.00     0.124 S 
ATOM     97  O   UNL A   1      48.087  22.885  36.375  1.00  0.00    -0.237 OA
ATOM     98  O   UNL A   1      45.883  21.862  36.808  1.00  0.00    -0.237 OA
ATOM     99  O   UNL A   1      47.025  21.448  34.666  1.00  0.00    -0.744 OA
ENDBRANCH  95  96
ENDBRANCH  63  88
ENDBRANCH  37  38
ENDBRANCH  29  32
ENDBRANCH  27  28
ENDBRANCH   1  27
TORSDOF 16
ENDMDL
