MODEL 1
REMARK VINA RESULT:     -12.5      0.000      0.000
REMARK SMILES CC(C)(C)n1cc([C@@H]2[C@@H](C(=O)NCCCNC(=O)c3ccc(-c4c5nc(c(-c6c(F)cc(S(=O)(=O)[O-])cc6F)c6ccc([nH]6)c(-c6c(F)cc(S(=O)(=O)[O-])cc6F)c6nc(c(-c7c(F)cc(S(=O)(=O)[O-])cc7F)c7ccc4[nH]7)C=C6)C=C5)cc3)CC(=O)N2Cc2cccnc2)cn1
REMARK SMILES IDX 14 1 13 2 12 3 10 4 11 5 9 7 8 8 88 9 85 10 86 11 87 12 7 13
REMARK SMILES IDX 5 14 6 15 97 16 96 17 2 18 1 19 3 20 4 21 89 22 90 23 91 24
REMARK SMILES IDX 95 25 92 26 94 27 93 28 15 29 16 30 17 31 18 33 19 34 20 35
REMARK SMILES IDX 84 36 21 37 83 38 22 39 23 40 24 41 77 42 25 43 82 44 76 45
REMARK SMILES IDX 78 46 26 47 81 48 75 49 74 50 27 52 61 53 40 54 60 55 41 56
REMARK SMILES IDX 44 57 59 58 79 59 42 60 43 61 58 63 80 64 45 65 28 66 29 67
REMARK SMILES IDX 38 68 30 69 31 70 37 71 39 72 32 73 33 74 34 75 35 76 36 77
REMARK SMILES IDX 62 78 63 79 72 80 64 81 65 82 71 83 73 84 66 85 67 86 68 87
REMARK SMILES IDX 69 88 70 89 46 90 47 91 56 92 48 93 49 94 55 95 57 96 50 97
REMARK SMILES IDX 51 98 52 99 53 100 54 101
REMARK H PARENT 12 6 16 32 78 51 44 62
REMARK Flexibility Score: inf
ROOT
ATOM      1  C   UNL A   1      38.491  21.674  25.689  1.00  0.00     0.042 C 
ENDROOT
BRANCH   1   2
ATOM      2  C   UNL A   1      37.419  22.755  25.625  1.00  0.00     0.117 C 
BRANCH   2   3
ATOM      3  N   UNL A   1      36.259  22.480  26.467  1.00  0.00    -0.356 N 
ATOM      4  C   UNL A   1      34.935  22.745  26.309  1.00  0.00     0.226 C 
ATOM      5  O   UNL A   1      34.164  22.346  27.184  1.00  0.00    -0.275 OA
ATOM      6  H   UNL A   1      36.478  22.017  27.308  1.00  0.00     0.163 HD
BRANCH   4   7
ATOM      7  C   UNL A   1      34.391  23.470  25.101  1.00  0.00     0.115 C 
ATOM      8  C   UNL A   1      32.903  23.754  25.260  1.00  0.00     0.132 C 
ATOM      9  N   UNL A   1      32.340  23.529  23.943  1.00  0.00    -0.330 N 
ATOM     10  C   UNL A   1      34.548  22.710  23.791  1.00  0.00     0.116 C 
ATOM     11  C   UNL A   1      33.230  22.900  23.090  1.00  0.00     0.224 C 
ATOM     12  O   UNL A   1      32.992  22.527  21.952  1.00  0.00    -0.275 OA
BRANCH   8  13
ATOM     13  C   UNL A   1      32.612  25.113  25.783  1.00  0.00     0.013 A 
ATOM     14  N   UNL A   1      32.577  27.264  26.246  1.00  0.00    -0.267 N 
ATOM     15  C   UNL A   1      33.204  26.318  25.481  1.00  0.00     0.115 A 
ATOM     16  N   UNL A   1      31.598  26.746  27.012  1.00  0.00    -0.181 NA
ATOM     17  C   UNL A   1      31.653  25.440  26.767  1.00  0.00     0.141 A 
BRANCH  14  18
ATOM     18  C   UNL A   1      32.959  28.678  26.386  1.00  0.00     0.054 C 
ATOM     19  C   UNL A   1      32.985  29.395  25.018  1.00  0.00     0.036 C 
ATOM     20  C   UNL A   1      34.364  28.799  27.005  1.00  0.00     0.036 C 
ATOM     21  C   UNL A   1      31.922  29.363  27.293  1.00  0.00     0.036 C 
ENDBRANCH  14  18
ENDBRANCH   8  13
BRANCH   9  22
ATOM     22  C   UNL A   1      30.948  23.777  23.588  1.00  0.00     0.157 C 
BRANCH  22  23
ATOM     23  C   UNL A   1      30.637  25.209  23.237  1.00  0.00    -0.010 A 
ATOM     24  C   UNL A   1      29.635  25.938  23.886  1.00  0.00     0.009 A 
ATOM     25  C   UNL A   1      31.382  25.891  22.280  1.00  0.00     0.116 A 
ATOM     26  C   UNL A   1      29.395  27.265  23.551  1.00  0.00     0.020 A 
ATOM     27  N   UNL A   1      31.191  27.192  21.949  1.00  0.00    -0.264 NA
ATOM     28  C   UNL A   1      30.198  27.847  22.589  1.00  0.00     0.111 A 
ENDBRANCH  22  23
ENDBRANCH   9  22
ENDBRANCH   4   7
ENDBRANCH   2   3
ENDBRANCH   1   2
BRANCH   1  29
ATOM     29  C   UNL A   1      39.632  22.037  26.616  1.00  0.00     0.118 C 
BRANCH  29  30
ATOM     30  N   UNL A   1      40.889  21.378  26.263  1.00  0.00    -0.352 N 
ATOM     31  C   UNL A   1      42.124  21.967  26.045  1.00  0.00     0.251 C 
ATOM     32  H   UNL A   1      40.853  20.399  26.169  1.00  0.00     0.163 HD
ATOM     33  O   UNL A   1      42.993  21.372  25.435  1.00  0.00    -0.269 OA
BRANCH  31  34
ATOM     34  C   UNL A   1      42.352  23.332  26.561  1.00  0.00     0.039 A 
ATOM     35  C   UNL A   1      42.181  24.451  25.745  1.00  0.00     0.014 A 
ATOM     36  C   UNL A   1      42.699  23.477  27.901  1.00  0.00     0.014 A 
ATOM     37  C   UNL A   1      42.280  25.717  26.318  1.00  0.00     0.010 A 
ATOM     38  C   UNL A   1      42.619  24.709  28.499  1.00  0.00     0.010 A 
ATOM     39  C   UNL A   1      42.473  25.836  27.705  1.00  0.00    -0.014 A 
BRANCH  39  40
ATOM     40  C   UNL A   1      42.377  27.134  28.369  1.00  0.00     0.031 A 
ATOM     41  C   UNL A   1      43.476  28.063  28.000  1.00  0.00     0.074 A 
ATOM     42  C   UNL A   1      41.290  27.537  29.064  1.00  0.00     0.049 A 
ATOM     43  N   UNL A   1      44.488  28.405  28.725  1.00  0.00    -0.248 NA
ATOM     44  C   UNL A   1      43.585  28.500  26.596  1.00  0.00     0.031 C 
ATOM     45  C   UNL A   1      40.006  26.843  29.222  1.00  0.00     0.029 A 
ATOM     46  N   UNL A   1      41.059  28.717  29.702  1.00  0.00    -0.354 N 
ATOM     47  C   UNL A   1      45.198  29.329  27.964  1.00  0.00     0.074 A 
ATOM     48  C   UNL A   1      44.755  29.144  26.610  1.00  0.00     0.031 C 
ATOM     49  C   UNL A   1      39.077  27.702  29.694  1.00  0.00     0.029 A 
ATOM     50  C   UNL A   1      39.725  28.955  30.031  1.00  0.00     0.049 A 
ATOM     51  H   UNL A   1      41.780  29.354  29.915  1.00  0.00     0.167 HD
ATOM     52  C   UNL A   1      45.856  30.361  28.565  1.00  0.00     0.037 A 
ATOM     53  C   UNL A   1      39.194  30.106  30.525  1.00  0.00     0.037 A 
ATOM     54  C   UNL A   1      45.990  30.116  29.984  1.00  0.00     0.049 A 
ATOM     55  C   UNL A   1      40.324  30.884  31.097  1.00  0.00     0.074 A 
ATOM     56  C   UNL A   1      46.531  29.100  30.750  1.00  0.00     0.029 A 
ATOM     57  N   UNL A   1      45.150  30.812  30.822  1.00  0.00    -0.354 N 
ATOM     58  N   UNL A   1      41.002  30.511  32.149  1.00  0.00    -0.248 NA
ATOM     59  C   UNL A   1      41.003  31.828  30.222  1.00  0.00     0.031 C 
ATOM     60  C   UNL A   1      45.633  28.947  31.847  1.00  0.00     0.029 A 
ATOM     61  C   UNL A   1      44.650  29.933  31.746  1.00  0.00     0.049 A 
ATOM     62  H   UNL A   1      44.946  31.773  30.768  1.00  0.00     0.167 HD
ATOM     63  C   UNL A   1      42.323  30.804  31.838  1.00  0.00     0.074 A 
ATOM     64  C   UNL A   1      42.250  31.692  30.679  1.00  0.00     0.031 C 
ATOM     65  C   UNL A   1      43.347  30.067  32.359  1.00  0.00     0.037 A 
BRANCH  52  66
ATOM     66  C   UNL A   1      45.995  31.756  27.984  1.00  0.00     0.058 A 
ATOM     67  C   UNL A   1      47.271  32.363  27.986  1.00  0.00     0.135 A 
ATOM     68  C   UNL A   1      44.918  32.624  27.701  1.00  0.00     0.135 A 
ATOM     69  F   UNL A   1      48.375  31.639  28.232  1.00  0.00    -0.206 F 
ATOM     70  C   UNL A   1      47.449  33.738  27.828  1.00  0.00     0.059 A 
ATOM     71  C   UNL A   1      45.079  33.987  27.485  1.00  0.00     0.059 A 
ATOM     72  F   UNL A   1      43.643  32.225  27.704  1.00  0.00    -0.206 F 
ATOM     73  C   UNL A   1      46.342  34.543  27.594  1.00  0.00     0.060 A 
BRANCH  73  74
ATOM     74  S   UNL A   1      46.553  36.326  27.474  1.00  0.00     0.124 S 
ATOM     75  O   UNL A   1      47.859  36.505  28.097  1.00  0.00    -0.237 OA
ATOM     76  O   UNL A   1      46.495  36.538  26.031  1.00  0.00    -0.237 OA
ATOM     77  O   UNL A   1      45.415  36.849  28.224  1.00  0.00    -0.744 OA
ENDBRANCH  73  74
ENDBRANCH  52  66
BRANCH  53  78
ATOM     78  C   UNL A   1      37.858  30.718  30.274  1.00  0.00     0.058 A 
ATOM     79  C   UNL A   1      37.179  31.424  31.287  1.00  0.00     0.135 A 
ATOM     80  C   UNL A   1      37.353  30.882  28.969  1.00  0.00     0.135 A 
ATOM     81  F   UNL A   1      37.591  31.340  32.561  1.00  0.00    -0.206 F 
ATOM     82  C   UNL A   1      36.114  32.294  31.015  1.00  0.00     0.059 A 
ATOM     83  C   UNL A   1      36.286  31.734  28.674  1.00  0.00     0.059 A 
ATOM     84  F   UNL A   1      37.943  30.293  27.919  1.00  0.00    -0.206 F 
ATOM     85  C   UNL A   1      35.691  32.462  29.698  1.00  0.00     0.060 A 
BRANCH  85  86
ATOM     86  S   UNL A   1      34.457  33.729  29.311  1.00  0.00     0.124 S 
ATOM     87  O   UNL A   1      33.822  33.940  30.608  1.00  0.00    -0.237 OA
ATOM     88  O   UNL A   1      35.283  34.826  28.820  1.00  0.00    -0.237 OA
ATOM     89  O   UNL A   1      33.617  33.087  28.302  1.00  0.00    -0.744 OA
ENDBRANCH  85  86
ENDBRANCH  53  78
BRANCH  65  90
ATOM     90  C   UNL A   1      43.069  29.174  33.541  1.00  0.00     0.058 A 
ATOM     91  C   UNL A   1      43.024  29.591  34.883  1.00  0.00     0.135 A 
ATOM     92  C   UNL A   1      42.671  27.855  33.267  1.00  0.00     0.135 A 
ATOM     93  F   UNL A   1      43.292  30.859  35.224  1.00  0.00    -0.206 F 
ATOM     94  C   UNL A   1      42.635  28.722  35.907  1.00  0.00     0.059 A 
ATOM     95  C   UNL A   1      42.247  26.986  34.264  1.00  0.00     0.059 A 
ATOM     96  F   UNL A   1      42.638  27.413  31.998  1.00  0.00    -0.206 F 
ATOM     97  C   UNL A   1      42.244  27.422  35.586  1.00  0.00     0.060 A 
BRANCH  97  98
ATOM     98  S   UNL A   1      41.671  26.318  36.896  1.00  0.00     0.124 S 
ATOM     99  O   UNL A   1      42.809  26.308  37.809  1.00  0.00    -0.237 OA
ATOM    100  O   UNL A   1      40.474  26.997  37.382  1.00  0.00    -0.237 OA
ATOM    101  O   UNL A   1      41.421  25.059  36.198  1.00  0.00    -0.744 OA
ENDBRANCH  97  98
ENDBRANCH  65  90
ENDBRANCH  39  40
ENDBRANCH  31  34
ENDBRANCH  29  30
ENDBRANCH   1  29
TORSDOF 17
ENDMDL
MODEL 2
REMARK VINA RESULT:     -12.4      2.598      7.294
REMARK SMILES CC(C)(C)n1cc([C@@H]2[C@@H](C(=O)NCCCNC(=O)c3ccc(-c4c5nc(c(-c6c(F)cc(S(=O)(=O)[O-])cc6F)c6ccc([nH]6)c(-c6c(F)cc(S(=O)(=O)[O-])cc6F)c6nc(c(-c7c(F)cc(S(=O)(=O)[O-])cc7F)c7ccc4[nH]7)C=C6)C=C5)cc3)CC(=O)N2Cc2cccnc2)cn1
REMARK SMILES IDX 14 1 13 2 12 3 10 4 11 5 9 7 8 8 88 9 85 10 86 11 87 12 7 13
REMARK SMILES IDX 5 14 6 15 97 16 96 17 2 18 1 19 3 20 4 21 89 22 90 23 91 24
REMARK SMILES IDX 95 25 92 26 94 27 93 28 15 29 16 30 17 31 18 33 19 34 20 35
REMARK SMILES IDX 84 36 21 37 83 38 22 39 23 40 24 41 77 42 25 43 82 44 76 45
REMARK SMILES IDX 78 46 26 47 81 48 75 49 74 50 27 52 61 53 40 54 60 55 41 56
REMARK SMILES IDX 44 57 59 58 79 59 42 60 43 61 58 63 80 64 45 65 28 66 29 67
REMARK SMILES IDX 38 68 30 69 31 70 37 71 39 72 32 73 33 74 34 75 35 76 36 77
REMARK SMILES IDX 62 78 63 79 72 80 64 81 65 82 71 83 73 84 66 85 67 86 68 87
REMARK SMILES IDX 69 88 70 89 46 90 47 91 56 92 48 93 49 94 55 95 57 96 50 97
REMARK SMILES IDX 51 98 52 99 53 100 54 101
REMARK H PARENT 12 6 16 32 78 51 44 62
REMARK Flexibility Score: inf
ROOT
ATOM      1  C   UNL A   1      38.015  20.027  25.002  1.00  0.00     0.042 C 
ENDROOT
BRANCH   1   2
ATOM      2  C   UNL A   1      37.173  21.284  24.815  1.00  0.00     0.117 C 
BRANCH   2   3
ATOM      3  N   UNL A   1      36.330  21.600  25.962  1.00  0.00    -0.356 N 
ATOM      4  C   UNL A   1      35.127  22.225  26.064  1.00  0.00     0.226 C 
ATOM      5  O   UNL A   1      34.622  22.312  27.185  1.00  0.00    -0.275 OA
ATOM      6  H   UNL A   1      36.703  21.306  26.825  1.00  0.00     0.163 HD
BRANCH   4   7
ATOM      7  C   UNL A   1      34.393  22.773  24.864  1.00  0.00     0.115 C 
ATOM      8  C   UNL A   1      33.126  23.506  25.287  1.00  0.00     0.132 C 
ATOM      9  N   UNL A   1      32.142  23.154  24.284  1.00  0.00    -0.330 N 
ATOM     10  C   UNL A   1      33.964  21.717  23.855  1.00  0.00     0.116 C 
ATOM     11  C   UNL A   1      32.562  22.113  23.475  1.00  0.00     0.224 C 
ATOM     12  O   UNL A   1      31.903  21.570  22.602  1.00  0.00    -0.275 OA
BRANCH   8  13
ATOM     13  C   UNL A   1      33.307  24.973  25.421  1.00  0.00     0.013 A 
ATOM     14  N   UNL A   1      33.242  27.091  26.019  1.00  0.00    -0.267 N 
ATOM     15  C   UNL A   1      32.773  25.846  26.343  1.00  0.00     0.115 A 
ATOM     16  N   UNL A   1      34.065  27.074  24.953  1.00  0.00    -0.181 NA
ATOM     17  C   UNL A   1      34.065  25.802  24.565  1.00  0.00     0.141 A 
BRANCH  14  18
ATOM     18  C   UNL A   1      32.832  28.370  26.621  1.00  0.00     0.054 C 
ATOM     19  C   UNL A   1      31.638  28.186  27.582  1.00  0.00     0.036 C 
ATOM     20  C   UNL A   1      32.404  29.367  25.527  1.00  0.00     0.036 C 
ATOM     21  C   UNL A   1      34.029  28.930  27.406  1.00  0.00     0.036 C 
ENDBRANCH  14  18
ENDBRANCH   8  13
BRANCH   9  22
ATOM     22  C   UNL A   1      30.793  23.705  24.222  1.00  0.00     0.157 C 
BRANCH  22  23
ATOM     23  C   UNL A   1      30.702  25.068  23.585  1.00  0.00    -0.010 A 
ATOM     24  C   UNL A   1      29.974  26.114  24.158  1.00  0.00     0.009 A 
ATOM     25  C   UNL A   1      31.396  25.359  22.415  1.00  0.00     0.116 A 
ATOM     26  C   UNL A   1      29.935  27.365  23.551  1.00  0.00     0.020 A 
ATOM     27  N   UNL A   1      31.400  26.574  21.813  1.00  0.00    -0.264 NA
ATOM     28  C   UNL A   1      30.665  27.547  22.393  1.00  0.00     0.111 A 
ENDBRANCH  22  23
ENDBRANCH   9  22
ENDBRANCH   4   7
ENDBRANCH   2   3
ENDBRANCH   1   2
BRANCH   1  29
ATOM     29  C   UNL A   1      39.137  20.219  26.000  1.00  0.00     0.118 C 
BRANCH  29  30
ATOM     30  N   UNL A   1      40.289  19.355  25.742  1.00  0.00    -0.352 N 
ATOM     31  C   UNL A   1      41.629  19.706  25.739  1.00  0.00     0.251 C 
ATOM     32  H   UNL A   1      40.087  18.413  25.545  1.00  0.00     0.163 HD
ATOM     33  O   UNL A   1      42.451  19.000  25.185  1.00  0.00    -0.269 OA
BRANCH  31  34
ATOM     34  C   UNL A   1      42.029  20.957  26.415  1.00  0.00     0.039 A 
ATOM     35  C   UNL A   1      42.318  22.111  25.685  1.00  0.00     0.014 A 
ATOM     36  C   UNL A   1      42.065  20.969  27.806  1.00  0.00     0.014 A 
ATOM     37  C   UNL A   1      42.561  23.295  26.379  1.00  0.00     0.010 A 
ATOM     38  C   UNL A   1      42.124  22.162  28.479  1.00  0.00     0.010 A 
ATOM     39  C   UNL A   1      42.434  23.318  27.778  1.00  0.00    -0.014 A 
BRANCH  39  40
ATOM     40  C   UNL A   1      42.477  24.577  28.518  1.00  0.00     0.031 A 
ATOM     41  C   UNL A   1      41.284  25.432  28.287  1.00  0.00     0.074 A 
ATOM     42  C   UNL A   1      43.384  24.842  29.485  1.00  0.00     0.049 A 
ATOM     43  N   UNL A   1      41.220  26.509  27.578  1.00  0.00    -0.248 NA
ATOM     44  C   UNL A   1      39.966  24.929  28.713  1.00  0.00     0.031 C 
ATOM     45  C   UNL A   1      44.408  23.948  30.038  1.00  0.00     0.029 A 
ATOM     46  N   UNL A   1      43.519  25.951  30.263  1.00  0.00    -0.354 N 
ATOM     47  C   UNL A   1      39.914  26.969  27.715  1.00  0.00     0.074 A 
ATOM     48  C   UNL A   1      39.151  25.847  28.187  1.00  0.00     0.031 C 
ATOM     49  C   UNL A   1      44.882  24.457  31.197  1.00  0.00     0.029 A 
ATOM     50  C   UNL A   1      44.328  25.784  31.388  1.00  0.00     0.049 A 
ATOM     51  H   UNL A   1      43.080  26.806  30.049  1.00  0.00     0.167 HD
ATOM     52  C   UNL A   1      39.648  28.307  27.719  1.00  0.00     0.037 A 
ATOM     53  C   UNL A   1      44.508  26.665  32.407  1.00  0.00     0.037 A 
ATOM     54  C   UNL A   1      40.784  29.048  27.218  1.00  0.00     0.049 A 
ATOM     55  C   UNL A   1      44.093  27.998  31.895  1.00  0.00     0.074 A 
ATOM     56  C   UNL A   1      41.524  29.026  26.050  1.00  0.00     0.029 A 
ATOM     57  N   UNL A   1      41.565  29.702  28.143  1.00  0.00    -0.354 N 
ATOM     58  N   UNL A   1      44.730  28.646  30.958  1.00  0.00    -0.248 NA
ATOM     59  C   UNL A   1      42.705  28.390  32.090  1.00  0.00     0.031 C 
ATOM     60  C   UNL A   1      42.873  29.225  26.463  1.00  0.00     0.029 A 
ATOM     61  C   UNL A   1      42.877  29.453  27.841  1.00  0.00     0.049 A 
ATOM     62  H   UNL A   1      41.237  30.251  28.891  1.00  0.00     0.167 HD
ATOM     63  C   UNL A   1      43.730  29.185  30.161  1.00  0.00     0.074 A 
ATOM     64  C   UNL A   1      42.509  29.069  30.957  1.00  0.00     0.031 C 
ATOM     65  C   UNL A   1      43.933  29.398  28.828  1.00  0.00     0.037 A 
BRANCH  52  66
ATOM     66  C   UNL A   1      38.571  28.974  28.554  1.00  0.00     0.058 A 
ATOM     67  C   UNL A   1      37.714  29.907  27.928  1.00  0.00     0.135 A 
ATOM     68  C   UNL A   1      38.523  28.969  29.965  1.00  0.00     0.135 A 
ATOM     69  F   UNL A   1      37.661  29.999  26.589  1.00  0.00    -0.206 F 
ATOM     70  C   UNL A   1      36.954  30.830  28.646  1.00  0.00     0.059 A 
ATOM     71  C   UNL A   1      37.732  29.844  30.700  1.00  0.00     0.059 A 
ATOM     72  F   UNL A   1      39.302  28.184  30.716  1.00  0.00    -0.206 F 
ATOM     73  C   UNL A   1      36.985  30.800  30.035  1.00  0.00     0.060 A 
BRANCH  73  74
ATOM     74  S   UNL A   1      36.077  32.042  30.968  1.00  0.00     0.124 S 
ATOM     75  O   UNL A   1      34.882  32.203  30.149  1.00  0.00    -0.237 OA
ATOM     76  O   UNL A   1      35.891  31.374  32.252  1.00  0.00    -0.237 OA
ATOM     77  O   UNL A   1      36.991  33.180  30.988  1.00  0.00    -0.744 OA
ENDBRANCH  73  74
ENDBRANCH  52  66
BRANCH  53  78
ATOM     78  C   UNL A   1      44.717  26.404  33.860  1.00  0.00     0.058 A 
ATOM     79  C   UNL A   1      45.927  26.750  34.495  1.00  0.00     0.135 A 
ATOM     80  C   UNL A   1      43.644  26.090  34.717  1.00  0.00     0.135 A 
ATOM     81  F   UNL A   1      47.004  27.076  33.764  1.00  0.00    -0.206 F 
ATOM     82  C   UNL A   1      46.045  26.849  35.888  1.00  0.00     0.059 A 
ATOM     83  C   UNL A   1      43.741  26.169  36.108  1.00  0.00     0.059 A 
ATOM     84  F   UNL A   1      42.433  25.787  34.227  1.00  0.00    -0.206 F 
ATOM     85  C   UNL A   1      44.936  26.580  36.687  1.00  0.00     0.060 A 
BRANCH  85  86
ATOM     86  S   UNL A   1      45.019  26.898  38.467  1.00  0.00     0.124 S 
ATOM     87  O   UNL A   1      46.026  25.935  38.901  1.00  0.00    -0.237 OA
ATOM     88  O   UNL A   1      45.417  28.300  38.513  1.00  0.00    -0.237 OA
ATOM     89  O   UNL A   1      43.658  26.626  38.924  1.00  0.00    -0.744 OA
ENDBRANCH  85  86
ENDBRANCH  53  78
BRANCH  65  90
ATOM     90  C   UNL A   1      45.344  29.385  28.298  1.00  0.00     0.058 A 
ATOM     91  C   UNL A   1      46.243  30.465  28.352  1.00  0.00     0.135 A 
ATOM     92  C   UNL A   1      45.850  28.152  27.857  1.00  0.00     0.135 A 
ATOM     93  F   UNL A   1      45.872  31.651  28.853  1.00  0.00    -0.206 F 
ATOM     94  C   UNL A   1      47.576  30.329  27.951  1.00  0.00     0.059 A 
ATOM     95  C   UNL A   1      47.179  27.985  27.487  1.00  0.00     0.059 A 
ATOM     96  F   UNL A   1      45.055  27.068  27.835  1.00  0.00    -0.206 F 
ATOM     97  C   UNL A   1      48.035  29.082  27.523  1.00  0.00     0.060 A 
BRANCH  97  98
ATOM     98  S   UNL A   1      49.773  28.883  27.074  1.00  0.00     0.124 S 
ATOM     99  O   UNL A   1      49.982  29.998  26.156  1.00  0.00    -0.237 OA
ATOM    100  O   UNL A   1      50.449  28.987  28.363  1.00  0.00    -0.237 OA
ATOM    101  O   UNL A   1      49.818  27.557  26.462  1.00  0.00    -0.744 OA
ENDBRANCH  97  98
ENDBRANCH  65  90
ENDBRANCH  39  40
ENDBRANCH  31  34
ENDBRANCH  29  30
ENDBRANCH   1  29
TORSDOF 17
ENDMDL
MODEL 3
REMARK VINA RESULT:     -12.4      2.627      8.957
REMARK SMILES CC(C)(C)n1cc([C@@H]2[C@@H](C(=O)NCCCNC(=O)c3ccc(-c4c5nc(c(-c6c(F)cc(S(=O)(=O)[O-])cc6F)c6ccc([nH]6)c(-c6c(F)cc(S(=O)(=O)[O-])cc6F)c6nc(c(-c7c(F)cc(S(=O)(=O)[O-])cc7F)c7ccc4[nH]7)C=C6)C=C5)cc3)CC(=O)N2Cc2cccnc2)cn1
REMARK SMILES IDX 14 1 13 2 12 3 10 4 11 5 9 7 8 8 88 9 85 10 86 11 87 12 7 13
REMARK SMILES IDX 5 14 6 15 97 16 96 17 2 18 1 19 3 20 4 21 89 22 90 23 91 24
REMARK SMILES IDX 95 25 92 26 94 27 93 28 15 29 16 30 17 31 18 33 19 34 20 35
REMARK SMILES IDX 84 36 21 37 83 38 22 39 23 40 24 41 77 42 25 43 82 44 76 45
REMARK SMILES IDX 78 46 26 47 81 48 75 49 74 50 27 52 61 53 40 54 60 55 41 56
REMARK SMILES IDX 44 57 59 58 79 59 42 60 43 61 58 63 80 64 45 65 28 66 29 67
REMARK SMILES IDX 38 68 30 69 31 70 37 71 39 72 32 73 33 74 34 75 35 76 36 77
REMARK SMILES IDX 62 78 63 79 72 80 64 81 65 82 71 83 73 84 66 85 67 86 68 87
REMARK SMILES IDX 69 88 70 89 46 90 47 91 56 92 48 93 49 94 55 95 57 96 50 97
REMARK SMILES IDX 51 98 52 99 53 100 54 101
REMARK H PARENT 12 6 16 32 78 51 44 62
REMARK Flexibility Score: inf
ROOT
ATOM      1  C   UNL A   1      33.381  30.386  27.522  1.00  0.00     0.042 C 
ENDROOT
BRANCH   1   2
ATOM      2  C   UNL A   1      34.255  29.345  26.831  1.00  0.00     0.117 C 
BRANCH   2   3
ATOM      3  N   UNL A   1      34.080  29.302  25.383  1.00  0.00    -0.356 N 
ATOM      4  C   UNL A   1      33.455  28.412  24.567  1.00  0.00     0.226 C 
ATOM      5  O   UNL A   1      33.431  28.663  23.361  1.00  0.00    -0.275 OA
ATOM      6  H   UNL A   1      34.495  30.058  24.909  1.00  0.00     0.163 HD
BRANCH   4   7
ATOM      7  C   UNL A   1      32.776  27.169  25.090  1.00  0.00     0.115 C 
ATOM      8  C   UNL A   1      32.619  26.129  23.989  1.00  0.00     0.132 C 
ATOM      9  N   UNL A   1      31.313  25.544  24.216  1.00  0.00    -0.330 N 
ATOM     10  C   UNL A   1      31.385  27.408  25.662  1.00  0.00     0.116 C 
ATOM     11  C   UNL A   1      30.563  26.264  25.130  1.00  0.00     0.224 C 
ATOM     12  O   UNL A   1      29.407  26.038  25.448  1.00  0.00    -0.275 OA
BRANCH   8  13
ATOM     13  C   UNL A   1      33.704  25.117  23.969  1.00  0.00     0.013 A 
ATOM     14  N   UNL A   1      35.260  23.639  24.461  1.00  0.00    -0.267 N 
ATOM     15  C   UNL A   1      34.312  24.457  25.014  1.00  0.00     0.115 A 
ATOM     16  N   UNL A   1      35.290  23.715  23.116  1.00  0.00    -0.181 NA
ATOM     17  C   UNL A   1      34.383  24.643  22.825  1.00  0.00     0.141 A 
BRANCH  14  18
ATOM     18  C   UNL A   1      36.269  22.847  25.183  1.00  0.00     0.054 C 
ATOM     19  C   UNL A   1      37.238  23.752  25.975  1.00  0.00     0.036 C 
ATOM     20  C   UNL A   1      37.107  22.014  24.195  1.00  0.00     0.036 C 
ATOM     21  C   UNL A   1      35.532  21.919  26.163  1.00  0.00     0.036 C 
ENDBRANCH  14  18
ENDBRANCH   8  13
BRANCH   9  22
ATOM     22  C   UNL A   1      30.768  24.424  23.459  1.00  0.00     0.157 C 
BRANCH  22  23
ATOM     23  C   UNL A   1      31.251  23.069  23.908  1.00  0.00    -0.010 A 
ATOM     24  C   UNL A   1      31.926  22.194  23.052  1.00  0.00     0.009 A 
ATOM     25  C   UNL A   1      31.095  22.653  25.227  1.00  0.00     0.116 A 
ATOM     26  C   UNL A   1      32.378  20.962  23.511  1.00  0.00     0.020 A 
ATOM     27  N   UNL A   1      31.547  21.471  25.712  1.00  0.00    -0.264 NA
ATOM     28  C   UNL A   1      32.174  20.651  24.842  1.00  0.00     0.111 A 
ENDBRANCH  22  23
ENDBRANCH   9  22
ENDBRANCH   4   7
ENDBRANCH   2   3
ENDBRANCH   1   2
BRANCH   1  29
ATOM     29  C   UNL A   1      34.063  31.731  27.648  1.00  0.00     0.118 C 
BRANCH  29  30
ATOM     30  N   UNL A   1      33.956  32.304  28.989  1.00  0.00    -0.352 N 
ATOM     31  C   UNL A   1      34.783  32.078  30.077  1.00  0.00     0.251 C 
ATOM     32  H   UNL A   1      33.206  32.924  29.136  1.00  0.00     0.163 HD
ATOM     33  O   UNL A   1      34.404  32.333  31.206  1.00  0.00    -0.269 OA
BRANCH  31  34
ATOM     34  C   UNL A   1      36.126  31.513  29.833  1.00  0.00     0.039 A 
ATOM     35  C   UNL A   1      37.220  32.339  29.570  1.00  0.00     0.014 A 
ATOM     36  C   UNL A   1      36.282  30.132  29.917  1.00  0.00     0.014 A 
ATOM     37  C   UNL A   1      38.485  31.761  29.479  1.00  0.00     0.010 A 
ATOM     38  C   UNL A   1      37.539  29.590  30.006  1.00  0.00     0.010 A 
ATOM     39  C   UNL A   1      38.639  30.386  29.726  1.00  0.00    -0.014 A 
BRANCH  39  40
ATOM     40  C   UNL A   1      39.966  29.787  29.842  1.00  0.00     0.031 A 
ATOM     41  C   UNL A   1      40.369  29.525  31.248  1.00  0.00     0.074 A 
ATOM     42  C   UNL A   1      40.661  29.307  28.786  1.00  0.00     0.049 A 
ATOM     43  N   UNL A   1      41.230  30.183  31.950  1.00  0.00    -0.248 NA
ATOM     44  C   UNL A   1      39.581  28.561  32.037  1.00  0.00     0.031 C 
ATOM     45  C   UNL A   1      40.230  29.203  27.387  1.00  0.00     0.029 A 
ATOM     46  N   UNL A   1      41.883  28.705  28.756  1.00  0.00    -0.354 N 
ATOM     47  C   UNL A   1      41.296  29.524  33.173  1.00  0.00     0.074 A 
ATOM     48  C   UNL A   1      40.102  28.728  33.254  1.00  0.00     0.031 C 
ATOM     49  C   UNL A   1      41.059  28.377  26.713  1.00  0.00     0.029 A 
ATOM     50  C   UNL A   1      42.172  28.023  27.574  1.00  0.00     0.049 A 
ATOM     51  H   UNL A   1      42.513  28.747  29.512  1.00  0.00     0.167 HD
ATOM     52  C   UNL A   1      42.470  29.462  33.864  1.00  0.00     0.037 A 
ATOM     53  C   UNL A   1      43.237  27.212  27.334  1.00  0.00     0.037 A 
ATOM     54  C   UNL A   1      43.413  30.428  33.343  1.00  0.00     0.049 A 
ATOM     55  C   UNL A   1      44.268  27.554  28.349  1.00  0.00     0.074 A 
ATOM     56  C   UNL A   1      43.400  31.796  33.152  1.00  0.00     0.029 A 
ATOM     57  N   UNL A   1      44.427  29.947  32.546  1.00  0.00    -0.354 N 
ATOM     58  N   UNL A   1      44.895  28.699  28.390  1.00  0.00    -0.248 NA
ATOM     59  C   UNL A   1      44.256  26.806  29.597  1.00  0.00     0.031 C 
ATOM     60  C   UNL A   1      44.065  32.002  31.908  1.00  0.00     0.029 A 
ATOM     61  C   UNL A   1      44.531  30.767  31.454  1.00  0.00     0.049 A 
ATOM     62  H   UNL A   1      44.979  29.154  32.730  1.00  0.00     0.167 HD
ATOM     63  C   UNL A   1      44.956  29.018  29.738  1.00  0.00     0.074 A 
ATOM     64  C   UNL A   1      44.628  27.776  30.437  1.00  0.00     0.031 C 
ATOM     65  C   UNL A   1      44.974  30.319  30.152  1.00  0.00     0.037 A 
BRANCH  52  66
ATOM     66  C   UNL A   1      42.925  28.278  34.696  1.00  0.00     0.058 A 
ATOM     67  C   UNL A   1      43.313  28.504  36.036  1.00  0.00     0.135 A 
ATOM     68  C   UNL A   1      43.275  27.012  34.176  1.00  0.00     0.135 A 
ATOM     69  F   UNL A   1      43.027  29.666  36.645  1.00  0.00    -0.206 F 
ATOM     70  C   UNL A   1      44.077  27.590  36.762  1.00  0.00     0.059 A 
ATOM     71  C   UNL A   1      43.989  26.065  34.901  1.00  0.00     0.059 A 
ATOM     72  F   UNL A   1      43.027  26.651  32.913  1.00  0.00    -0.206 F 
ATOM     73  C   UNL A   1      44.424  26.379  36.176  1.00  0.00     0.060 A 
BRANCH  73  74
ATOM     74  S   UNL A   1      45.481  25.232  37.073  1.00  0.00     0.124 S 
ATOM     75  O   UNL A   1      46.703  25.283  36.279  1.00  0.00    -0.237 OA
ATOM     76  O   UNL A   1      45.546  25.855  38.392  1.00  0.00    -0.237 OA
ATOM     77  O   UNL A   1      44.739  23.977  37.016  1.00  0.00    -0.744 OA
ENDBRANCH  73  74
ENDBRANCH  52  66
BRANCH  53  78
ATOM     78  C   UNL A   1      43.319  25.976  26.505  1.00  0.00     0.058 A 
ATOM     79  C   UNL A   1      44.330  25.815  25.536  1.00  0.00     0.135 A 
ATOM     80  C   UNL A   1      42.604  24.811  26.843  1.00  0.00     0.135 A 
ATOM     81  F   UNL A   1      45.074  26.865  25.156  1.00  0.00    -0.206 F 
ATOM     82  C   UNL A   1      44.658  24.567  24.991  1.00  0.00     0.059 A 
ATOM     83  C   UNL A   1      42.904  23.557  26.305  1.00  0.00     0.059 A 
ATOM     84  F   UNL A   1      41.648  24.834  27.783  1.00  0.00    -0.206 F 
ATOM     85  C   UNL A   1      43.954  23.437  25.402  1.00  0.00     0.060 A 
BRANCH  85  86
ATOM     86  S   UNL A   1      44.500  21.797  24.860  1.00  0.00     0.124 S 
ATOM     87  O   UNL A   1      43.437  20.939  25.372  1.00  0.00    -0.237 OA
ATOM     88  O   UNL A   1      44.552  21.952  23.411  1.00  0.00    -0.237 OA
ATOM     89  O   UNL A   1      45.798  21.639  25.512  1.00  0.00    -0.744 OA
ENDBRANCH  85  86
ENDBRANCH  53  78
BRANCH  65  90
ATOM     90  C   UNL A   1      45.287  31.395  29.145  1.00  0.00     0.058 A 
ATOM     91  C   UNL A   1      46.576  31.761  28.719  1.00  0.00     0.135 A 
ATOM     92  C   UNL A   1      44.202  31.971  28.466  1.00  0.00     0.135 A 
ATOM     93  F   UNL A   1      47.668  31.188  29.244  1.00  0.00    -0.206 F 
ATOM     94  C   UNL A   1      46.772  32.684  27.687  1.00  0.00     0.059 A 
ATOM     95  C   UNL A   1      44.373  32.863  27.415  1.00  0.00     0.059 A 
ATOM     96  F   UNL A   1      42.945  31.620  28.788  1.00  0.00    -0.206 F 
ATOM     97  C   UNL A   1      45.662  33.227  27.038  1.00  0.00     0.060 A 
BRANCH  97  98
ATOM     98  S   UNL A   1      45.910  34.364  25.657  1.00  0.00     0.124 S 
ATOM     99  O   UNL A   1      47.333  34.202  25.378  1.00  0.00    -0.237 OA
ATOM    100  O   UNL A   1      45.001  33.835  24.644  1.00  0.00    -0.237 OA
ATOM    101  O   UNL A   1      45.526  35.661  26.208  1.00  0.00    -0.744 OA
ENDBRANCH  97  98
ENDBRANCH  65  90
ENDBRANCH  39  40
ENDBRANCH  31  34
ENDBRANCH  29  30
ENDBRANCH   1  29
TORSDOF 17
ENDMDL
