MODEL 1
REMARK VINA RESULT:     -10.9      0.000      0.000
REMARK SMILES CC(C)[C@H]([NH2+]Cc1ccc(N(C)C)cc1)C(=O)NCCCNC(=O)c1ccc(-c2c3nc(c(-c4c(F)cc(S(=O)(=O)[O-])cc4F)c4ccc([nH]4)c(-c4c(F)cc(S(=O)(=O)[O-])cc4F)c4nc(c(-c5c(F)cc(S(=O)(=O)[O-])cc5F)c5ccc2[nH]5)C=C4)C=C3)cc1
REMARK SMILES IDX 19 1 18 2 16 3 17 4 4 6 2 7 1 8 3 9 5 10 6 13 7 14 8 15
REMARK SMILES IDX 15 16 9 17 14 18 10 19 11 20 12 21 13 22 20 23 21 24 22 25
REMARK SMILES IDX 23 26 24 28 25 29 26 30 90 31 27 32 89 33 28 34 29 35 30 36
REMARK SMILES IDX 83 37 31 38 88 39 82 40 84 41 32 42 87 43 81 44 80 45 33 47
REMARK SMILES IDX 67 48 46 49 66 50 47 51 50 52 65 53 85 54 48 55 49 56 64 58
REMARK SMILES IDX 86 59 51 60 34 61 35 62 44 63 36 64 37 65 43 66 45 67 38 68
REMARK SMILES IDX 39 69 40 70 41 71 42 72 68 73 69 74 78 75 70 76 71 77 77 78
REMARK SMILES IDX 79 79 72 80 73 81 74 82 75 83 76 84 52 85 53 86 62 87 54 88
REMARK SMILES IDX 55 89 61 90 63 91 56 92 57 93 58 94 59 95 60 96
REMARK H PARENT 18 5 5 11 5 12 22 27 84 46 50 57
REMARK Flexibility Score: inf
ROOT
ATOM      1  C   UNL A   1      32.440  27.637  25.116  1.00  0.00     0.118 C 
ENDROOT
BRANCH   1   2
ATOM      2  N   UNL A   1      31.614  26.811  25.977  1.00  0.00    -0.351 N 
ATOM      3  C   UNL A   1      30.937  25.649  25.749  1.00  0.00     0.278 C 
ATOM      4  O   UNL A   1      30.435  25.098  26.736  1.00  0.00    -0.268 OA
ATOM      5  H   UNL A   1      31.527  27.152  26.897  1.00  0.00     0.163 HD
BRANCH   3   6
ATOM      6  C   UNL A   1      30.814  24.999  24.343  1.00  0.00     0.275 C 
BRANCH   6   7
ATOM      7  C   UNL A   1      32.098  24.242  23.884  1.00  0.00     0.051 C 
ATOM      8  C   UNL A   1      32.066  22.717  23.932  1.00  0.00     0.014 C 
ATOM      9  C   UNL A   1      32.505  24.676  22.468  1.00  0.00     0.014 C 
ENDBRANCH   6   7
BRANCH   6  10
ATOM     10  N   UNL A   1      30.191  25.965  23.425  1.00  0.00    -0.332 N 
ATOM     11  H   UNL A   1      30.032  25.491  22.537  1.00  0.00     0.347 HD
ATOM     12  H   UNL A   1      30.839  26.749  23.374  1.00  0.00     0.347 HD
BRANCH  10  13
ATOM     13  C   UNL A   1      28.925  26.536  23.855  1.00  0.00     0.297 C 
BRANCH  13  14
ATOM     14  C   UNL A   1      28.773  27.908  23.240  1.00  0.00     0.006 A 
ATOM     15  C   UNL A   1      29.893  28.599  22.771  1.00  0.00     0.012 A 
ATOM     16  C   UNL A   1      27.542  28.559  23.204  1.00  0.00     0.012 A 
ATOM     17  C   UNL A   1      29.781  29.912  22.289  1.00  0.00     0.026 A 
ATOM     18  C   UNL A   1      27.444  29.873  22.716  1.00  0.00     0.026 A 
ATOM     19  C   UNL A   1      28.559  30.601  22.257  1.00  0.00     0.036 A 
BRANCH  19  20
ATOM     20  N   UNL A   1      28.449  31.916  21.827  1.00  0.00    -0.378 N 
ATOM     21  C   UNL A   1      28.846  33.074  22.628  1.00  0.00     0.143 C 
ATOM     22  C   UNL A   1      27.970  32.227  20.483  1.00  0.00     0.143 C 
ENDBRANCH  19  20
ENDBRANCH  13  14
ENDBRANCH  10  13
ENDBRANCH   6  10
ENDBRANCH   3   6
ENDBRANCH   1   2
BRANCH   1  23
ATOM     23  C   UNL A   1      33.707  28.133  25.786  1.00  0.00     0.042 C 
BRANCH  23  24
ATOM     24  C   UNL A   1      33.534  28.412  27.270  1.00  0.00     0.118 C 
BRANCH  24  25
ATOM     25  N   UNL A   1      33.543  29.839  27.582  1.00  0.00    -0.352 N 
ATOM     26  C   UNL A   1      34.506  30.625  28.169  1.00  0.00     0.251 C 
ATOM     27  H   UNL A   1      32.721  30.318  27.329  1.00  0.00     0.163 HD
ATOM     28  O   UNL A   1      34.222  31.761  28.527  1.00  0.00    -0.269 OA
BRANCH  26  29
ATOM     29  C   UNL A   1      35.870  30.095  28.384  1.00  0.00     0.039 A 
ATOM     30  C   UNL A   1      36.782  30.109  27.326  1.00  0.00     0.014 A 
ATOM     31  C   UNL A   1      36.248  29.583  29.625  1.00  0.00     0.014 A 
ATOM     32  C   UNL A   1      38.096  29.686  27.543  1.00  0.00     0.010 A 
ATOM     33  C   UNL A   1      37.580  29.277  29.869  1.00  0.00     0.010 A 
ATOM     34  C   UNL A   1      38.518  29.314  28.829  1.00  0.00    -0.014 A 
BRANCH  34  35
ATOM     35  C   UNL A   1      39.932  28.959  29.113  1.00  0.00     0.031 A 
ATOM     36  C   UNL A   1      40.872  29.990  29.679  1.00  0.00     0.074 A 
ATOM     37  C   UNL A   1      40.392  27.740  28.769  1.00  0.00     0.049 A 
ATOM     38  N   UNL A   1      42.155  29.897  29.916  1.00  0.00    -0.248 NA
ATOM     39  C   UNL A   1      40.303  31.315  29.980  1.00  0.00     0.031 C 
ATOM     40  C   UNL A   1      39.598  26.685  28.133  1.00  0.00     0.029 A 
ATOM     41  N   UNL A   1      41.641  27.187  28.886  1.00  0.00    -0.354 N 
ATOM     42  C   UNL A   1      42.549  31.154  30.361  1.00  0.00     0.074 A 
ATOM     43  C   UNL A   1      41.383  32.007  30.305  1.00  0.00     0.031 C 
ATOM     44  C   UNL A   1      40.373  25.609  27.935  1.00  0.00     0.029 A 
ATOM     45  C   UNL A   1      41.727  25.907  28.392  1.00  0.00     0.049 A 
ATOM     46  H   UNL A   1      42.405  27.662  29.288  1.00  0.00     0.167 HD
ATOM     47  C   UNL A   1      43.767  31.553  30.798  1.00  0.00     0.037 A 
ATOM     48  C   UNL A   1      42.779  25.070  28.304  1.00  0.00     0.037 A 
ATOM     49  C   UNL A   1      44.911  30.683  30.883  1.00  0.00     0.049 A 
ATOM     50  C   UNL A   1      44.110  25.514  28.840  1.00  0.00     0.074 A 
ATOM     51  C   UNL A   1      46.162  30.956  31.405  1.00  0.00     0.029 A 
ATOM     52  N   UNL A   1      44.945  29.374  30.424  1.00  0.00    -0.354 N 
ATOM     53  N   UNL A   1      44.444  26.675  29.354  1.00  0.00    -0.248 NA
ATOM     54  C   UNL A   1      45.205  24.537  28.798  1.00  0.00     0.031 C 
ATOM     55  C   UNL A   1      46.970  29.830  31.213  1.00  0.00     0.029 A 
ATOM     56  C   UNL A   1      46.205  28.835  30.623  1.00  0.00     0.049 A 
ATOM     57  H   UNL A   1      44.186  28.898  30.017  1.00  0.00     0.167 HD
ATOM     58  C   UNL A   1      45.783  26.564  29.709  1.00  0.00     0.074 A 
ATOM     59  C   UNL A   1      46.191  25.214  29.369  1.00  0.00     0.031 C 
ATOM     60  C   UNL A   1      46.599  27.492  30.269  1.00  0.00     0.037 A 
BRANCH  47  61
ATOM     61  C   UNL A   1      43.920  32.993  31.211  1.00  0.00     0.058 A 
ATOM     62  C   UNL A   1      44.409  33.972  30.331  1.00  0.00     0.135 A 
ATOM     63  C   UNL A   1      43.568  33.401  32.509  1.00  0.00     0.135 A 
ATOM     64  F   UNL A   1      44.772  33.639  29.082  1.00  0.00    -0.206 F 
ATOM     65  C   UNL A   1      44.592  35.291  30.736  1.00  0.00     0.059 A 
ATOM     66  C   UNL A   1      43.711  34.722  32.925  1.00  0.00     0.059 A 
ATOM     67  F   UNL A   1      43.092  32.510  33.392  1.00  0.00    -0.206 F 
ATOM     68  C   UNL A   1      44.244  35.655  32.038  1.00  0.00     0.060 A 
BRANCH  68  69
ATOM     69  S   UNL A   1      44.508  37.365  32.555  1.00  0.00     0.124 S 
ATOM     70  O   UNL A   1      43.758  38.094  31.537  1.00  0.00    -0.237 OA
ATOM     71  O   UNL A   1      43.932  37.378  33.896  1.00  0.00    -0.237 OA
ATOM     72  O   UNL A   1      45.958  37.517  32.496  1.00  0.00    -0.744 OA
ENDBRANCH  68  69
ENDBRANCH  47  61
BRANCH  48  73
ATOM     73  C   UNL A   1      42.592  23.724  27.701  1.00  0.00     0.058 A 
ATOM     74  C   UNL A   1      42.671  23.532  26.314  1.00  0.00     0.135 A 
ATOM     75  C   UNL A   1      42.398  22.591  28.507  1.00  0.00     0.135 A 
ATOM     76  F   UNL A   1      42.849  24.586  25.501  1.00  0.00    -0.206 F 
ATOM     77  C   UNL A   1      42.569  22.266  25.746  1.00  0.00     0.059 A 
ATOM     78  C   UNL A   1      42.317  21.313  27.965  1.00  0.00     0.059 A 
ATOM     79  F   UNL A   1      42.334  22.719  29.842  1.00  0.00    -0.206 F 
ATOM     80  C   UNL A   1      42.402  21.161  26.583  1.00  0.00     0.060 A 
BRANCH  80  81
ATOM     81  S   UNL A   1      42.371  19.512  25.846  1.00  0.00     0.124 S 
ATOM     82  O   UNL A   1      42.742  18.675  26.981  1.00  0.00    -0.237 OA
ATOM     83  O   UNL A   1      40.986  19.404  25.397  1.00  0.00    -0.237 OA
ATOM     84  O   UNL A   1      43.361  19.604  24.777  1.00  0.00    -0.744 OA
ENDBRANCH  80  81
ENDBRANCH  48  73
BRANCH  60  85
ATOM     85  C   UNL A   1      48.015  27.079  30.564  1.00  0.00     0.058 A 
ATOM     86  C   UNL A   1      49.044  27.247  29.625  1.00  0.00     0.135 A 
ATOM     87  C   UNL A   1      48.356  26.559  31.824  1.00  0.00     0.135 A 
ATOM     88  F   UNL A   1      48.772  27.733  28.403  1.00  0.00    -0.206 F 
ATOM     89  C   UNL A   1      50.357  26.889  29.914  1.00  0.00     0.059 A 
ATOM     90  C   UNL A   1      49.666  26.223  32.146  1.00  0.00     0.059 A 
ATOM     91  F   UNL A   1      47.411  26.389  32.763  1.00  0.00    -0.206 F 
ATOM     92  C   UNL A   1      50.658  26.380  31.179  1.00  0.00     0.060 A 
BRANCH  92  93
ATOM     93  S   UNL A   1      52.370  25.947  31.552  1.00  0.00     0.124 S 
ATOM     94  O   UNL A   1      52.703  26.929  32.580  1.00  0.00    -0.237 OA
ATOM     95  O   UNL A   1      52.252  24.566  32.009  1.00  0.00    -0.237 OA
ATOM     96  O   UNL A   1      53.052  26.122  30.273  1.00  0.00    -0.744 OA
ENDBRANCH  92  93
ENDBRANCH  60  85
ENDBRANCH  34  35
ENDBRANCH  26  29
ENDBRANCH  24  25
ENDBRANCH  23  24
ENDBRANCH   1  23
TORSDOF 18
ENDMDL
MODEL 2
REMARK VINA RESULT:     -10.9      2.344      3.134
REMARK SMILES CC(C)[C@H]([NH2+]Cc1ccc(N(C)C)cc1)C(=O)NCCCNC(=O)c1ccc(-c2c3nc(c(-c4c(F)cc(S(=O)(=O)[O-])cc4F)c4ccc([nH]4)c(-c4c(F)cc(S(=O)(=O)[O-])cc4F)c4nc(c(-c5c(F)cc(S(=O)(=O)[O-])cc5F)c5ccc2[nH]5)C=C4)C=C3)cc1
REMARK SMILES IDX 19 1 18 2 16 3 17 4 4 6 2 7 1 8 3 9 5 10 6 13 7 14 8 15
REMARK SMILES IDX 15 16 9 17 14 18 10 19 11 20 12 21 13 22 20 23 21 24 22 25
REMARK SMILES IDX 23 26 24 28 25 29 26 30 90 31 27 32 89 33 28 34 29 35 30 36
REMARK SMILES IDX 83 37 31 38 88 39 82 40 84 41 32 42 87 43 81 44 80 45 33 47
REMARK SMILES IDX 67 48 46 49 66 50 47 51 50 52 65 53 85 54 48 55 49 56 64 58
REMARK SMILES IDX 86 59 51 60 34 61 35 62 44 63 36 64 37 65 43 66 45 67 38 68
REMARK SMILES IDX 39 69 40 70 41 71 42 72 68 73 69 74 78 75 70 76 71 77 77 78
REMARK SMILES IDX 79 79 72 80 73 81 74 82 75 83 76 84 52 85 53 86 62 87 54 88
REMARK SMILES IDX 55 89 61 90 63 91 56 92 57 93 58 94 59 95 60 96
REMARK H PARENT 18 5 5 11 5 12 22 27 84 46 50 57
REMARK Flexibility Score: inf
ROOT
ATOM      1  C   UNL A   1      31.861  27.619  26.286  1.00  0.00     0.118 C 
ENDROOT
BRANCH   1   2
ATOM      2  N   UNL A   1      31.161  26.435  26.746  1.00  0.00    -0.351 N 
ATOM      3  C   UNL A   1      30.805  25.281  26.112  1.00  0.00     0.278 C 
ATOM      4  O   UNL A   1      30.339  24.381  26.820  1.00  0.00    -0.268 OA
ATOM      5  H   UNL A   1      30.894  26.470  27.694  1.00  0.00     0.163 HD
BRANCH   3   6
ATOM      6  C   UNL A   1      30.996  25.057  24.586  1.00  0.00     0.275 C 
BRANCH   6   7
ATOM      7  C   UNL A   1      32.348  24.376  24.213  1.00  0.00     0.051 C 
ATOM      8  C   UNL A   1      32.282  23.095  23.385  1.00  0.00     0.014 C 
ATOM      9  C   UNL A   1      33.277  25.369  23.499  1.00  0.00     0.014 C 
ENDBRANCH   6   7
BRANCH   6  10
ATOM     10  N   UNL A   1      30.594  26.279  23.872  1.00  0.00    -0.332 N 
ATOM     11  H   UNL A   1      30.957  26.216  22.921  1.00  0.00     0.347 HD
ATOM     12  H   UNL A   1      30.974  27.051  24.418  1.00  0.00     0.347 HD
BRANCH  10  13
ATOM     13  C   UNL A   1      29.165  26.532  23.784  1.00  0.00     0.297 C 
BRANCH  13  14
ATOM     14  C   UNL A   1      28.946  27.887  23.152  1.00  0.00     0.006 A 
ATOM     15  C   UNL A   1      30.024  28.602  22.624  1.00  0.00     0.012 A 
ATOM     16  C   UNL A   1      27.695  28.500  23.155  1.00  0.00     0.012 A 
ATOM     17  C   UNL A   1      29.852  29.901  22.123  1.00  0.00     0.026 A 
ATOM     18  C   UNL A   1      27.537  29.801  22.648  1.00  0.00     0.026 A 
ATOM     19  C   UNL A   1      28.609  30.552  22.129  1.00  0.00     0.036 A 
BRANCH  19  20
ATOM     20  N   UNL A   1      28.441  31.855  21.680  1.00  0.00    -0.378 N 
ATOM     21  C   UNL A   1      27.947  32.203  20.348  1.00  0.00     0.143 C 
ATOM     22  C   UNL A   1      28.702  32.990  22.561  1.00  0.00     0.143 C 
ENDBRANCH  19  20
ENDBRANCH  13  14
ENDBRANCH  10  13
ENDBRANCH   6  10
ENDBRANCH   3   6
ENDBRANCH   1   2
BRANCH   1  23
ATOM     23  C   UNL A   1      33.364  27.547  26.476  1.00  0.00     0.042 C 
BRANCH  23  24
ATOM     24  C   UNL A   1      34.114  28.672  25.781  1.00  0.00     0.118 C 
BRANCH  24  25
ATOM     25  N   UNL A   1      33.844  29.980  26.371  1.00  0.00    -0.352 N 
ATOM     26  C   UNL A   1      34.452  30.640  27.413  1.00  0.00     0.251 C 
ATOM     27  H   UNL A   1      33.101  30.473  25.952  1.00  0.00     0.163 HD
ATOM     28  O   UNL A   1      33.928  31.643  27.880  1.00  0.00    -0.269 OA
BRANCH  26  29
ATOM     29  C   UNL A   1      35.720  30.130  27.977  1.00  0.00     0.039 A 
ATOM     30  C   UNL A   1      36.917  30.377  27.300  1.00  0.00     0.014 A 
ATOM     31  C   UNL A   1      35.730  29.407  29.170  1.00  0.00     0.014 A 
ATOM     32  C   UNL A   1      38.127  29.971  27.868  1.00  0.00     0.010 A 
ATOM     33  C   UNL A   1      36.936  29.110  29.788  1.00  0.00     0.010 A 
ATOM     34  C   UNL A   1      38.149  29.378  29.141  1.00  0.00    -0.014 A 
BRANCH  34  35
ATOM     35  C   UNL A   1      39.425  29.028  29.815  1.00  0.00     0.031 A 
ATOM     36  C   UNL A   1      39.915  29.847  30.979  1.00  0.00     0.074 A 
ATOM     37  C   UNL A   1      40.189  28.036  29.317  1.00  0.00     0.049 A 
ATOM     38  N   UNL A   1      41.038  29.752  31.643  1.00  0.00    -0.248 NA
ATOM     39  C   UNL A   1      39.046  30.947  31.431  1.00  0.00     0.031 C 
ATOM     40  C   UNL A   1      39.863  27.227  28.139  1.00  0.00     0.029 A 
ATOM     41  N   UNL A   1      41.405  27.550  29.723  1.00  0.00    -0.354 N 
ATOM     42  C   UNL A   1      41.024  30.793  32.564  1.00  0.00     0.074 A 
ATOM     43  C   UNL A   1      39.809  31.543  32.334  1.00  0.00     0.031 C 
ATOM     44  C   UNL A   1      40.842  26.335  27.932  1.00  0.00     0.029 A 
ATOM     45  C   UNL A   1      41.885  26.532  28.933  1.00  0.00     0.049 A 
ATOM     46  H   UNL A   1      41.889  27.897  30.508  1.00  0.00     0.167 HD
ATOM     47  C   UNL A   1      41.929  31.084  33.529  1.00  0.00     0.037 A 
ATOM     48  C   UNL A   1      43.040  25.842  29.000  1.00  0.00     0.037 A 
ATOM     49  C   UNL A   1      43.117  30.307  33.770  1.00  0.00     0.049 A 
ATOM     50  C   UNL A   1      44.009  26.145  30.106  1.00  0.00     0.074 A 
ATOM     51  C   UNL A   1      44.048  30.451  34.782  1.00  0.00     0.029 A 
ATOM     52  N   UNL A   1      43.542  29.246  32.983  1.00  0.00    -0.354 N 
ATOM     53  N   UNL A   1      43.933  27.069  31.035  1.00  0.00    -0.248 NA
ATOM     54  C   UNL A   1      45.214  25.310  30.185  1.00  0.00     0.031 C 
ATOM     55  C   UNL A   1      45.065  29.513  34.576  1.00  0.00     0.029 A 
ATOM     56  C   UNL A   1      44.738  28.745  33.469  1.00  0.00     0.049 A 
ATOM     57  H   UNL A   1      43.064  28.900  32.195  1.00  0.00     0.167 HD
ATOM     58  C   UNL A   1      45.071  26.918  31.818  1.00  0.00     0.074 A 
ATOM     59  C   UNL A   1      45.809  25.800  31.264  1.00  0.00     0.031 C 
ATOM     60  C   UNL A   1      45.467  27.637  32.899  1.00  0.00     0.037 A 
BRANCH  47  61
ATOM     61  C   UNL A   1      41.668  32.293  34.386  1.00  0.00     0.058 A 
ATOM     62  C   UNL A   1      40.833  32.239  35.515  1.00  0.00     0.135 A 
ATOM     63  C   UNL A   1      42.264  33.527  34.076  1.00  0.00     0.135 A 
ATOM     64  F   UNL A   1      40.225  31.090  35.853  1.00  0.00    -0.206 F 
ATOM     65  C   UNL A   1      40.558  33.373  36.274  1.00  0.00     0.059 A 
ATOM     66  C   UNL A   1      42.030  34.666  34.841  1.00  0.00     0.059 A 
ATOM     67  F   UNL A   1      43.074  33.638  33.011  1.00  0.00    -0.206 F 
ATOM     68  C   UNL A   1      41.159  34.584  35.925  1.00  0.00     0.060 A 
BRANCH  68  69
ATOM     69  S   UNL A   1      40.776  36.050  36.907  1.00  0.00     0.124 S 
ATOM     70  O   UNL A   1      42.062  36.740  36.910  1.00  0.00    -0.237 OA
ATOM     71  O   UNL A   1      39.721  36.684  36.123  1.00  0.00    -0.237 OA
ATOM     72  O   UNL A   1      40.355  35.498  38.191  1.00  0.00    -0.744 OA
ENDBRANCH  68  69
ENDBRANCH  47  61
BRANCH  48  73
ATOM     73  C   UNL A   1      43.316  24.784  27.991  1.00  0.00     0.058 A 
ATOM     74  C   UNL A   1      43.997  25.076  26.800  1.00  0.00     0.135 A 
ATOM     75  C   UNL A   1      42.964  23.446  28.232  1.00  0.00     0.135 A 
ATOM     76  F   UNL A   1      44.349  26.341  26.522  1.00  0.00    -0.206 F 
ATOM     77  C   UNL A   1      44.322  24.080  25.884  1.00  0.00     0.059 A 
ATOM     78  C   UNL A   1      43.299  22.431  27.343  1.00  0.00     0.059 A 
ATOM     79  F   UNL A   1      42.327  23.112  29.366  1.00  0.00    -0.206 F 
ATOM     80  C   UNL A   1      43.978  22.758  26.171  1.00  0.00     0.060 A 
BRANCH  80  81
ATOM     81  S   UNL A   1      44.493  21.459  25.025  1.00  0.00     0.124 S 
ATOM     82  O   UNL A   1      44.389  22.141  23.741  1.00  0.00    -0.237 OA
ATOM     83  O   UNL A   1      45.845  21.163  25.486  1.00  0.00    -0.237 OA
ATOM     84  O   UNL A   1      43.516  20.400  25.260  1.00  0.00    -0.744 OA
ENDBRANCH  80  81
ENDBRANCH  48  73
BRANCH  60  85
ATOM     85  C   UNL A   1      46.752  27.229  33.566  1.00  0.00     0.058 A 
ATOM     86  C   UNL A   1      46.781  26.260  34.580  1.00  0.00     0.135 A 
ATOM     87  C   UNL A   1      47.976  27.777  33.146  1.00  0.00     0.135 A 
ATOM     88  F   UNL A   1      45.640  25.709  35.024  1.00  0.00    -0.206 F 
ATOM     89  C   UNL A   1      47.977  25.866  35.174  1.00  0.00     0.059 A 
ATOM     90  C   UNL A   1      49.185  27.377  33.704  1.00  0.00     0.059 A 
ATOM     91  F   UNL A   1      48.004  28.700  32.171  1.00  0.00    -0.206 F 
ATOM     92  C   UNL A   1      49.174  26.429  34.726  1.00  0.00     0.060 A 
BRANCH  92  93
ATOM     93  S   UNL A   1      50.720  25.888  35.484  1.00  0.00     0.124 S 
ATOM     94  O   UNL A   1      51.261  25.010  34.452  1.00  0.00    -0.237 OA
ATOM     95  O   UNL A   1      51.430  27.149  35.680  1.00  0.00    -0.237 OA
ATOM     96  O   UNL A   1      50.285  25.223  36.709  1.00  0.00    -0.744 OA
ENDBRANCH  92  93
ENDBRANCH  60  85
ENDBRANCH  34  35
ENDBRANCH  26  29
ENDBRANCH  24  25
ENDBRANCH  23  24
ENDBRANCH   1  23
TORSDOF 18
ENDMDL
MODEL 3
REMARK VINA RESULT:     -10.8      5.049     10.520
REMARK SMILES CC(C)[C@H]([NH2+]Cc1ccc(N(C)C)cc1)C(=O)NCCCNC(=O)c1ccc(-c2c3nc(c(-c4c(F)cc(S(=O)(=O)[O-])cc4F)c4ccc([nH]4)c(-c4c(F)cc(S(=O)(=O)[O-])cc4F)c4nc(c(-c5c(F)cc(S(=O)(=O)[O-])cc5F)c5ccc2[nH]5)C=C4)C=C3)cc1
REMARK SMILES IDX 19 1 18 2 16 3 17 4 4 6 2 7 1 8 3 9 5 10 6 13 7 14 8 15
REMARK SMILES IDX 15 16 9 17 14 18 10 19 11 20 12 21 13 22 20 23 21 24 22 25
REMARK SMILES IDX 23 26 24 28 25 29 26 30 90 31 27 32 89 33 28 34 29 35 30 36
REMARK SMILES IDX 83 37 31 38 88 39 82 40 84 41 32 42 87 43 81 44 80 45 33 47
REMARK SMILES IDX 67 48 46 49 66 50 47 51 50 52 65 53 85 54 48 55 49 56 64 58
REMARK SMILES IDX 86 59 51 60 34 61 35 62 44 63 36 64 37 65 43 66 45 67 38 68
REMARK SMILES IDX 39 69 40 70 41 71 42 72 68 73 69 74 78 75 70 76 71 77 77 78
REMARK SMILES IDX 79 79 72 80 73 81 74 82 75 83 76 84 52 85 53 86 62 87 54 88
REMARK SMILES IDX 55 89 61 90 63 91 56 92 57 93 58 94 59 95 60 96
REMARK H PARENT 18 5 5 11 5 12 22 27 84 46 50 57
REMARK Flexibility Score: inf
ROOT
ATOM      1  C   UNL A   1      36.228  23.304  25.726  1.00  0.00     0.118 C 
ENDROOT
BRANCH   1   2
ATOM      2  N   UNL A   1      35.730  21.956  25.530  1.00  0.00    -0.351 N 
ATOM      3  C   UNL A   1      34.528  21.482  25.091  1.00  0.00     0.278 C 
ATOM      4  O   UNL A   1      34.454  20.264  24.888  1.00  0.00    -0.268 OA
ATOM      5  H   UNL A   1      36.380  21.251  25.755  1.00  0.00     0.163 HD
BRANCH   3   6
ATOM      6  C   UNL A   1      33.305  22.399  24.811  1.00  0.00     0.275 C 
BRANCH   6   7
ATOM      7  C   UNL A   1      32.183  22.300  25.889  1.00  0.00     0.051 C 
ATOM      8  C   UNL A   1      32.557  22.664  27.324  1.00  0.00     0.014 C 
ATOM      9  C   UNL A   1      30.961  23.135  25.478  1.00  0.00     0.014 C 
ENDBRANCH   6   7
BRANCH   6  10
ATOM     10  N   UNL A   1      32.939  22.282  23.390  1.00  0.00    -0.332 N 
ATOM     11  H   UNL A   1      31.932  22.417  23.318  1.00  0.00     0.347 HD
ATOM     12  H   UNL A   1      33.263  21.360  23.101  1.00  0.00     0.347 HD
BRANCH  10  13
ATOM     13  C   UNL A   1      33.578  23.220  22.483  1.00  0.00     0.297 C 
BRANCH  13  14
ATOM     14  C   UNL A   1      33.158  24.624  22.854  1.00  0.00     0.006 A 
ATOM     15  C   UNL A   1      33.980  25.417  23.658  1.00  0.00     0.012 A 
ATOM     16  C   UNL A   1      31.915  25.135  22.487  1.00  0.00     0.012 A 
ATOM     17  C   UNL A   1      33.559  26.683  24.092  1.00  0.00     0.026 A 
ATOM     18  C   UNL A   1      31.508  26.406  22.926  1.00  0.00     0.026 A 
ATOM     19  C   UNL A   1      32.306  27.217  23.755  1.00  0.00     0.036 A 
BRANCH  19  20
ATOM     20  N   UNL A   1      31.865  28.448  24.220  1.00  0.00    -0.378 N 
ATOM     21  C   UNL A   1      32.661  29.336  25.067  1.00  0.00     0.143 C 
ATOM     22  C   UNL A   1      30.558  28.972  23.830  1.00  0.00     0.143 C 
ENDBRANCH  19  20
ENDBRANCH  13  14
ENDBRANCH  10  13
ENDBRANCH   6  10
ENDBRANCH   3   6
ENDBRANCH   1   2
BRANCH   1  23
ATOM     23  C   UNL A   1      37.695  23.464  25.378  1.00  0.00     0.042 C 
BRANCH  23  24
ATOM     24  C   UNL A   1      38.546  23.921  26.552  1.00  0.00     0.118 C 
BRANCH  24  25
ATOM     25  N   UNL A   1      39.978  23.842  26.276  1.00  0.00    -0.352 N 
ATOM     26  C   UNL A   1      41.008  24.685  26.620  1.00  0.00     0.251 C 
ATOM     27  H   UNL A   1      40.252  23.052  25.755  1.00  0.00     0.163 HD
ATOM     28  O   UNL A   1      42.108  24.535  26.104  1.00  0.00    -0.269 OA
BRANCH  26  29
ATOM     29  C   UNL A   1      40.783  25.776  27.592  1.00  0.00     0.039 A 
ATOM     30  C   UNL A   1      39.752  25.655  28.527  1.00  0.00     0.014 A 
ATOM     31  C   UNL A   1      41.585  26.917  27.582  1.00  0.00     0.014 A 
ATOM     32  C   UNL A   1      39.585  26.642  29.501  1.00  0.00     0.010 A 
ATOM     33  C   UNL A   1      41.494  27.835  28.619  1.00  0.00     0.010 A 
ATOM     34  C   UNL A   1      40.487  27.716  29.585  1.00  0.00    -0.014 A 
BRANCH  34  35
ATOM     35  C   UNL A   1      40.398  28.725  30.671  1.00  0.00     0.031 A 
ATOM     36  C   UNL A   1      41.244  28.582  31.908  1.00  0.00     0.074 A 
ATOM     37  C   UNL A   1      39.485  29.713  30.585  1.00  0.00     0.049 A 
ATOM     38  N   UNL A   1      41.248  29.310  32.995  1.00  0.00    -0.248 NA
ATOM     39  C   UNL A   1      42.179  27.446  31.946  1.00  0.00     0.031 C 
ATOM     40  C   UNL A   1      38.548  29.905  29.475  1.00  0.00     0.029 A 
ATOM     41  N   UNL A   1      39.181  30.730  31.453  1.00  0.00    -0.354 N 
ATOM     42  C   UNL A   1      42.158  28.704  33.853  1.00  0.00     0.074 A 
ATOM     43  C   UNL A   1      42.642  27.516  33.184  1.00  0.00     0.031 C 
ATOM     44  C   UNL A   1      37.789  30.983  29.720  1.00  0.00     0.029 A 
ATOM     45  C   UNL A   1      38.155  31.537  31.019  1.00  0.00     0.049 A 
ATOM     46  H   UNL A   1      39.653  30.870  32.305  1.00  0.00     0.167 HD
ATOM     47  C   UNL A   1      42.571  29.112  35.076  1.00  0.00     0.037 A 
ATOM     48  C   UNL A   1      37.567  32.597  31.607  1.00  0.00     0.037 A 
ATOM     49  C   UNL A   1      42.107  30.317  35.715  1.00  0.00     0.049 A 
ATOM     50  C   UNL A   1      38.071  33.065  32.942  1.00  0.00     0.074 A 
ATOM     51  C   UNL A   1      42.533  30.877  36.906  1.00  0.00     0.029 A 
ATOM     52  N   UNL A   1      41.107  31.140  35.220  1.00  0.00    -0.354 N 
ATOM     53  N   UNL A   1      39.007  32.539  33.697  1.00  0.00    -0.248 NA
ATOM     54  C   UNL A   1      37.454  34.274  33.502  1.00  0.00     0.031 C 
ATOM     55  C   UNL A   1      41.752  32.010  37.157  1.00  0.00     0.029 A 
ATOM     56  C   UNL A   1      40.879  32.189  36.095  1.00  0.00     0.049 A 
ATOM     57  H   UNL A   1      40.629  31.000  34.370  1.00  0.00     0.167 HD
ATOM     58  C   UNL A   1      39.101  33.359  34.815  1.00  0.00     0.074 A 
ATOM     59  C   UNL A   1      38.139  34.428  34.626  1.00  0.00     0.031 C 
ATOM     60  C   UNL A   1      39.910  33.241  35.897  1.00  0.00     0.037 A 
BRANCH  47  61
ATOM     61  C   UNL A   1      43.566  28.245  35.800  1.00  0.00     0.058 A 
ATOM     62  C   UNL A   1      44.951  28.380  35.606  1.00  0.00     0.135 A 
ATOM     63  C   UNL A   1      43.128  27.265  36.706  1.00  0.00     0.135 A 
ATOM     64  F   UNL A   1      45.427  29.292  34.743  1.00  0.00    -0.206 F 
ATOM     65  C   UNL A   1      45.862  27.542  36.243  1.00  0.00     0.059 A 
ATOM     66  C   UNL A   1      44.023  26.438  37.379  1.00  0.00     0.059 A 
ATOM     67  F   UNL A   1      41.817  27.092  36.935  1.00  0.00    -0.206 F 
ATOM     68  C   UNL A   1      45.387  26.570  37.124  1.00  0.00     0.060 A 
BRANCH  68  69
ATOM     69  S   UNL A   1      46.580  25.477  37.926  1.00  0.00     0.124 S 
ATOM     70  O   UNL A   1      46.849  26.201  39.165  1.00  0.00    -0.237 OA
ATOM     71  O   UNL A   1      45.822  24.238  38.069  1.00  0.00    -0.237 OA
ATOM     72  O   UNL A   1      47.685  25.426  36.974  1.00  0.00    -0.744 OA
ENDBRANCH  68  69
ENDBRANCH  47  61
BRANCH  48  73
ATOM     73  C   UNL A   1      36.450  33.290  30.910  1.00  0.00     0.058 A 
ATOM     74  C   UNL A   1      35.124  33.153  31.348  1.00  0.00     0.135 A 
ATOM     75  C   UNL A   1      36.696  34.157  29.833  1.00  0.00     0.135 A 
ATOM     76  F   UNL A   1      34.838  32.331  32.370  1.00  0.00    -0.206 F 
ATOM     77  C   UNL A   1      34.083  33.853  30.748  1.00  0.00     0.059 A 
ATOM     78  C   UNL A   1      35.675  34.885  29.233  1.00  0.00     0.059 A 
ATOM     79  F   UNL A   1      37.950  34.336  29.388  1.00  0.00    -0.206 F 
ATOM     80  C   UNL A   1      34.371  34.726  29.696  1.00  0.00     0.060 A 
BRANCH  80  81
ATOM     81  S   UNL A   1      33.028  35.705  28.989  1.00  0.00     0.124 S 
ATOM     82  O   UNL A   1      32.357  34.721  28.148  1.00  0.00    -0.237 OA
ATOM     83  O   UNL A   1      32.301  36.133  30.180  1.00  0.00    -0.237 OA
ATOM     84  O   UNL A   1      33.730  36.770  28.278  1.00  0.00    -0.744 OA
ENDBRANCH  80  81
ENDBRANCH  48  73
BRANCH  60  85
ATOM     85  C   UNL A   1      39.805  34.301  36.958  1.00  0.00     0.058 A 
ATOM     86  C   UNL A   1      40.404  35.561  36.804  1.00  0.00     0.135 A 
ATOM     87  C   UNL A   1      39.048  34.072  38.120  1.00  0.00     0.135 A 
ATOM     88  F   UNL A   1      41.143  35.831  35.717  1.00  0.00    -0.206 F 
ATOM     89  C   UNL A   1      40.278  36.549  37.777  1.00  0.00     0.059 A 
ATOM     90  C   UNL A   1      38.885  35.054  39.091  1.00  0.00     0.059 A 
ATOM     91  F   UNL A   1      38.445  32.888  38.311  1.00  0.00    -0.206 F 
ATOM     92  C   UNL A   1      39.515  36.285  38.916  1.00  0.00     0.060 A 
BRANCH  92  93
ATOM     93  S   UNL A   1      39.336  37.584  40.156  1.00  0.00     0.124 S 
ATOM     94  O   UNL A   1      38.308  38.427  39.552  1.00  0.00    -0.237 OA
ATOM     95  O   UNL A   1      38.925  36.834  41.339  1.00  0.00    -0.237 OA
ATOM     96  O   UNL A   1      40.669  38.174  40.226  1.00  0.00    -0.744 OA
ENDBRANCH  92  93
ENDBRANCH  60  85
ENDBRANCH  34  35
ENDBRANCH  26  29
ENDBRANCH  24  25
ENDBRANCH  23  24
ENDBRANCH   1  23
TORSDOF 18
ENDMDL
