MODEL 1
REMARK VINA RESULT:     -12.0      0.000      0.000
REMARK SMILES C[C@H]1[C@H](C(=O)NCCCNC(=O)c2ccc(-c3c4nc(c(-c5c(F)cc(S(=O)(=O)[O-])cc5F)c5ccc([nH]5)c(-c5c(F)cc(S(=O)(=O)[O-])cc5F)c5nc(c(-c6c(F)cc(S(=O)(=O)[O-])cc6F)c6ccc3[nH]6)C=C5)C=C4)cc2)CCN1C(=O)COc1ccccc1F
REMARK SMILES IDX 7 1 6 2 4 3 5 4 3 6 1 7 2 8 81 9 79 10 80 11 82 12 83 13
REMARK SMILES IDX 84 14 85 15 86 16 87 17 91 18 88 19 90 20 92 21 89 22 8 23
REMARK SMILES IDX 9 24 10 25 11 26 12 28 13 29 14 30 78 31 15 32 77 33 16 34
REMARK SMILES IDX 17 35 18 36 71 37 19 38 76 39 70 40 72 41 20 42 75 43 69 44
REMARK SMILES IDX 68 45 21 47 55 48 34 49 54 50 35 51 38 52 53 53 73 54 36 55
REMARK SMILES IDX 37 56 52 58 74 59 39 60 22 61 23 62 32 63 24 64 25 65 31 66
REMARK SMILES IDX 33 67 26 68 27 69 28 70 29 71 30 72 56 73 57 74 66 75 58 76
REMARK SMILES IDX 59 77 65 78 67 79 60 80 61 81 62 82 63 83 64 84 40 85 41 86
REMARK SMILES IDX 50 87 42 88 43 89 49 90 51 91 44 92 45 93 46 94 47 95 48 96
REMARK H PARENT 6 5 10 27 72 46 38 57
REMARK Flexibility Score: inf
ROOT
ATOM      1  C   UNL A   1      33.712  29.804  26.821  1.00  0.00     0.117 C 
ENDROOT
BRANCH   1   2
ATOM      2  N   UNL A   1      32.606  29.203  27.549  1.00  0.00    -0.356 N 
ATOM      3  C   UNL A   1      31.831  28.123  27.273  1.00  0.00     0.225 C 
ATOM      4  O   UNL A   1      30.940  27.841  28.080  1.00  0.00    -0.275 OA
ATOM      5  H   UNL A   1      32.378  29.660  28.391  1.00  0.00     0.163 HD
BRANCH   3   6
ATOM      6  C   UNL A   1      32.025  27.269  26.034  1.00  0.00     0.102 C 
ATOM      7  C   UNL A   1      34.041  25.856  25.613  1.00  0.00     0.032 C 
ATOM      8  C   UNL A   1      32.694  25.912  26.336  1.00  0.00     0.094 C 
ATOM      9  N   UNL A   1      31.721  24.921  25.871  1.00  0.00    -0.336 N 
ATOM     10  C   UNL A   1      30.733  26.990  25.268  1.00  0.00     0.037 C 
ATOM     11  C   UNL A   1      30.763  25.509  24.955  1.00  0.00     0.121 C 
BRANCH   9  12
ATOM     12  C   UNL A   1      31.533  23.617  26.287  1.00  0.00     0.260 C 
ATOM     13  O   UNL A   1      31.174  23.366  27.444  1.00  0.00    -0.271 OA
BRANCH  12  14
ATOM     14  C   UNL A   1      31.785  22.456  25.315  1.00  0.00     0.329 C 
BRANCH  14  15
ATOM     15  O   UNL A   1      32.933  21.639  25.394  1.00  0.00    -0.481 OA
BRANCH  15  16
ATOM     16  C   UNL A   1      34.147  22.119  24.989  1.00  0.00     0.155 A 
ATOM     17  C   UNL A   1      35.088  22.223  26.020  1.00  0.00     0.049 A 
ATOM     18  C   UNL A   1      34.492  22.617  23.733  1.00  0.00     0.165 A 
ATOM     19  C   UNL A   1      36.338  22.810  25.797  1.00  0.00     0.004 A 
ATOM     20  C   UNL A   1      35.733  23.216  23.508  1.00  0.00     0.043 A 
ATOM     21  F   UNL A   1      33.644  22.611  22.702  1.00  0.00    -0.203 F 
ATOM     22  C   UNL A   1      36.658  23.317  24.541  1.00  0.00     0.003 A 
ENDBRANCH  15  16
ENDBRANCH  14  15
ENDBRANCH  12  14
ENDBRANCH   9  12
ENDBRANCH   3   6
ENDBRANCH   1   2
BRANCH   1  23
ATOM     23  C   UNL A   1      35.048  29.589  27.520  1.00  0.00     0.042 C 
BRANCH  23  24
ATOM     24  C   UNL A   1      35.572  30.827  28.236  1.00  0.00     0.118 C 
BRANCH  24  25
ATOM     25  N   UNL A   1      35.511  30.700  29.687  1.00  0.00    -0.352 N 
ATOM     26  C   UNL A   1      36.438  30.209  30.567  1.00  0.00     0.251 C 
ATOM     27  H   UNL A   1      34.674  31.015  30.096  1.00  0.00     0.163 HD
ATOM     28  O   UNL A   1      36.103  30.002  31.738  1.00  0.00    -0.269 OA
BRANCH  26  29
ATOM     29  C   UNL A   1      37.819  29.918  30.131  1.00  0.00     0.039 A 
ATOM     30  C   UNL A   1      38.754  29.503  31.083  1.00  0.00     0.014 A 
ATOM     31  C   UNL A   1      38.204  30.077  28.797  1.00  0.00     0.014 A 
ATOM     32  C   UNL A   1      40.056  29.193  30.685  1.00  0.00     0.010 A 
ATOM     33  C   UNL A   1      39.476  29.685  28.388  1.00  0.00     0.010 A 
ATOM     34  C   UNL A   1      40.418  29.247  29.329  1.00  0.00    -0.014 A 
BRANCH  34  35
ATOM     35  C   UNL A   1      41.778  28.851  28.883  1.00  0.00     0.031 A 
ATOM     36  C   UNL A   1      42.883  29.871  28.810  1.00  0.00     0.074 A 
ATOM     37  C   UNL A   1      42.003  27.581  28.490  1.00  0.00     0.049 A 
ATOM     38  N   UNL A   1      44.117  29.724  28.404  1.00  0.00    -0.248 NA
ATOM     39  C   UNL A   1      42.548  31.245  29.221  1.00  0.00     0.031 C 
ATOM     40  C   UNL A   1      40.997  26.517  28.455  1.00  0.00     0.029 A 
ATOM     41  N   UNL A   1      43.145  26.972  28.038  1.00  0.00    -0.354 N 
ATOM     42  C   UNL A   1      44.703  30.981  28.502  1.00  0.00     0.074 A 
ATOM     43  C   UNL A   1      43.671  31.892  28.946  1.00  0.00     0.031 C 
ATOM     44  C   UNL A   1      41.572  25.381  28.030  1.00  0.00     0.029 A 
ATOM     45  C   UNL A   1      42.976  25.643  27.727  1.00  0.00     0.049 A 
ATOM     46  H   UNL A   1      44.006  27.442  27.944  1.00  0.00     0.167 HD
ATOM     47  C   UNL A   1      45.989  31.339  28.270  1.00  0.00     0.037 A 
ATOM     48  C   UNL A   1      43.851  24.738  27.249  1.00  0.00     0.037 A 
ATOM     49  C   UNL A   1      47.015  30.421  27.847  1.00  0.00     0.049 A 
ATOM     50  C   UNL A   1      45.276  25.153  27.015  1.00  0.00     0.074 A 
ATOM     51  C   UNL A   1      48.360  30.672  27.633  1.00  0.00     0.029 A 
ATOM     52  N   UNL A   1      46.812  29.077  27.572  1.00  0.00    -0.354 N 
ATOM     53  N   UNL A   1      45.828  26.333  27.174  1.00  0.00    -0.248 NA
ATOM     54  C   UNL A   1      46.202  24.113  26.546  1.00  0.00     0.031 C 
ATOM     55  C   UNL A   1      48.961  29.488  27.190  1.00  0.00     0.029 A 
ATOM     56  C   UNL A   1      48.002  28.488  27.176  1.00  0.00     0.049 A 
ATOM     57  H   UNL A   1      45.949  28.609  27.648  1.00  0.00     0.167 HD
ATOM     58  C   UNL A   1      47.169  26.173  26.843  1.00  0.00     0.074 A 
ATOM     59  C   UNL A   1      47.349  24.778  26.496  1.00  0.00     0.031 C 
ATOM     60  C   UNL A   1      48.162  27.098  26.828  1.00  0.00     0.037 A 
BRANCH  47  61
ATOM     61  C   UNL A   1      46.357  32.783  28.481  1.00  0.00     0.058 A 
ATOM     62  C   UNL A   1      46.783  33.259  29.732  1.00  0.00     0.135 A 
ATOM     63  C   UNL A   1      46.307  33.700  27.418  1.00  0.00     0.135 A 
ATOM     64  F   UNL A   1      46.835  32.432  30.789  1.00  0.00    -0.206 F 
ATOM     65  C   UNL A   1      47.112  34.595  29.931  1.00  0.00     0.059 A 
ATOM     66  C   UNL A   1      46.660  35.036  27.587  1.00  0.00     0.059 A 
ATOM     67  F   UNL A   1      45.907  33.301  26.200  1.00  0.00    -0.206 F 
ATOM     68  C   UNL A   1      47.045  35.478  28.852  1.00  0.00     0.060 A 
BRANCH  68  69
ATOM     69  S   UNL A   1      47.473  37.210  29.127  1.00  0.00     0.124 S 
ATOM     70  O   UNL A   1      46.169  37.854  29.002  1.00  0.00    -0.237 OA
ATOM     71  O   UNL A   1      48.041  37.182  30.471  1.00  0.00    -0.237 OA
ATOM     72  O   UNL A   1      48.421  37.501  28.056  1.00  0.00    -0.744 OA
ENDBRANCH  68  69
ENDBRANCH  47  61
BRANCH  48  73
ATOM     73  C   UNL A   1      43.402  23.344  26.987  1.00  0.00     0.058 A 
ATOM     74  C   UNL A   1      43.282  22.857  25.677  1.00  0.00     0.135 A 
ATOM     75  C   UNL A   1      43.111  22.464  28.041  1.00  0.00     0.135 A 
ATOM     76  F   UNL A   1      43.545  23.662  24.636  1.00  0.00    -0.206 F 
ATOM     77  C   UNL A   1      42.874  21.552  25.419  1.00  0.00     0.059 A 
ATOM     78  C   UNL A   1      42.726  21.148  27.809  1.00  0.00     0.059 A 
ATOM     79  F   UNL A   1      43.230  22.875  29.312  1.00  0.00    -0.206 F 
ATOM     80  C   UNL A   1      42.602  20.703  26.493  1.00  0.00     0.060 A 
BRANCH  80  81
ATOM     81  S   UNL A   1      42.128  18.995  26.149  1.00  0.00     0.124 S 
ATOM     82  O   UNL A   1      40.713  19.141  25.831  1.00  0.00    -0.237 OA
ATOM     83  O   UNL A   1      43.002  18.653  25.032  1.00  0.00    -0.237 OA
ATOM     84  O   UNL A   1      42.426  18.307  27.402  1.00  0.00    -0.744 OA
ENDBRANCH  80  81
ENDBRANCH  48  73
BRANCH  60  85
ATOM     85  C   UNL A   1      49.536  26.623  26.442  1.00  0.00     0.058 A 
ATOM     86  C   UNL A   1      50.388  26.000  27.369  1.00  0.00     0.135 A 
ATOM     87  C   UNL A   1      49.995  26.767  25.123  1.00  0.00     0.135 A 
ATOM     88  F   UNL A   1      49.999  25.842  28.644  1.00  0.00    -0.206 F 
ATOM     89  C   UNL A   1      51.659  25.567  27.009  1.00  0.00     0.059 A 
ATOM     90  C   UNL A   1      51.253  26.316  24.734  1.00  0.00     0.059 A 
ATOM     91  F   UNL A   1      49.216  27.345  24.195  1.00  0.00    -0.206 F 
ATOM     92  C   UNL A   1      52.084  25.732  25.689  1.00  0.00     0.060 A 
BRANCH  92  93
ATOM     93  S   UNL A   1      53.733  25.155  25.231  1.00  0.00     0.124 S 
ATOM     94  O   UNL A   1      54.561  25.801  26.244  1.00  0.00    -0.237 OA
ATOM     95  O   UNL A   1      53.601  23.706  25.348  1.00  0.00    -0.237 OA
ATOM     96  O   UNL A   1      53.901  25.654  23.869  1.00  0.00    -0.744 OA
ENDBRANCH  92  93
ENDBRANCH  60  85
ENDBRANCH  34  35
ENDBRANCH  26  29
ENDBRANCH  24  25
ENDBRANCH  23  24
ENDBRANCH   1  23
TORSDOF 17
ENDMDL
MODEL 2
REMARK VINA RESULT:     -11.8      2.173      3.597
REMARK SMILES C[C@H]1[C@H](C(=O)NCCCNC(=O)c2ccc(-c3c4nc(c(-c5c(F)cc(S(=O)(=O)[O-])cc5F)c5ccc([nH]5)c(-c5c(F)cc(S(=O)(=O)[O-])cc5F)c5nc(c(-c6c(F)cc(S(=O)(=O)[O-])cc6F)c6ccc3[nH]6)C=C5)C=C4)cc2)CCN1C(=O)COc1ccccc1F
REMARK SMILES IDX 7 1 6 2 4 3 5 4 3 6 1 7 2 8 81 9 79 10 80 11 82 12 83 13
REMARK SMILES IDX 84 14 85 15 86 16 87 17 91 18 88 19 90 20 92 21 89 22 8 23
REMARK SMILES IDX 9 24 10 25 11 26 12 28 13 29 14 30 78 31 15 32 77 33 16 34
REMARK SMILES IDX 17 35 18 36 71 37 19 38 76 39 70 40 72 41 20 42 75 43 69 44
REMARK SMILES IDX 68 45 21 47 55 48 34 49 54 50 35 51 38 52 53 53 73 54 36 55
REMARK SMILES IDX 37 56 52 58 74 59 39 60 22 61 23 62 32 63 24 64 25 65 31 66
REMARK SMILES IDX 33 67 26 68 27 69 28 70 29 71 30 72 56 73 57 74 66 75 58 76
REMARK SMILES IDX 59 77 65 78 67 79 60 80 61 81 62 82 63 83 64 84 40 85 41 86
REMARK SMILES IDX 50 87 42 88 43 89 49 90 51 91 44 92 45 93 46 94 47 95 48 96
REMARK H PARENT 6 5 10 27 72 46 38 57
REMARK Flexibility Score: inf
ROOT
ATOM      1  C   UNL A   1      33.917  32.213  27.824  1.00  0.00     0.117 C 
ENDROOT
BRANCH   1   2
ATOM      2  N   UNL A   1      34.610  31.002  27.415  1.00  0.00    -0.356 N 
ATOM      3  C   UNL A   1      34.141  29.785  27.034  1.00  0.00     0.225 C 
ATOM      4  O   UNL A   1      34.975  28.920  26.746  1.00  0.00    -0.275 OA
ATOM      5  H   UNL A   1      35.591  31.076  27.415  1.00  0.00     0.163 HD
BRANCH   3   6
ATOM      6  C   UNL A   1      32.661  29.464  26.952  1.00  0.00     0.102 C 
ATOM      7  C   UNL A   1      31.093  30.515  25.316  1.00  0.00     0.032 C 
ATOM      8  C   UNL A   1      32.135  29.411  25.503  1.00  0.00     0.094 C 
ATOM      9  N   UNL A   1      31.604  28.053  25.364  1.00  0.00    -0.336 N 
ATOM     10  C   UNL A   1      32.273  28.154  27.636  1.00  0.00     0.037 C 
ATOM     11  C   UNL A   1      31.362  27.445  26.657  1.00  0.00     0.121 C 
BRANCH   9  12
ATOM     12  C   UNL A   1      31.455  27.284  24.225  1.00  0.00     0.260 C 
ATOM     13  O   UNL A   1      31.294  26.060  24.305  1.00  0.00    -0.271 OA
BRANCH  12  14
ATOM     14  C   UNL A   1      31.502  27.943  22.841  1.00  0.00     0.329 C 
BRANCH  14  15
ATOM     15  O   UNL A   1      30.366  28.044  22.010  1.00  0.00    -0.481 OA
BRANCH  15  16
ATOM     16  C   UNL A   1      29.388  28.957  22.292  1.00  0.00     0.155 A 
ATOM     17  C   UNL A   1      29.701  30.263  21.900  1.00  0.00     0.049 A 
ATOM     18  C   UNL A   1      28.214  28.753  23.017  1.00  0.00     0.165 A 
ATOM     19  C   UNL A   1      28.861  31.334  22.225  1.00  0.00     0.004 A 
ATOM     20  C   UNL A   1      27.379  29.818  23.357  1.00  0.00     0.043 A 
ATOM     21  F   UNL A   1      27.857  27.553  23.480  1.00  0.00    -0.203 F 
ATOM     22  C   UNL A   1      27.702  31.113  22.964  1.00  0.00     0.003 A 
ENDBRANCH  15  16
ENDBRANCH  14  15
ENDBRANCH  12  14
ENDBRANCH   9  12
ENDBRANCH   3   6
ENDBRANCH   1   2
BRANCH   1  23
ATOM     23  C   UNL A   1      34.819  33.158  28.606  1.00  0.00     0.042 C 
BRANCH  23  24
ATOM     24  C   UNL A   1      36.076  32.494  29.152  1.00  0.00     0.118 C 
BRANCH  24  25
ATOM     25  N   UNL A   1      35.797  31.612  30.279  1.00  0.00    -0.352 N 
ATOM     26  C   UNL A   1      36.501  30.537  30.752  1.00  0.00     0.251 C 
ATOM     27  H   UNL A   1      34.975  31.823  30.777  1.00  0.00     0.163 HD
ATOM     28  O   UNL A   1      35.980  29.802  31.596  1.00  0.00    -0.269 OA
BRANCH  26  29
ATOM     29  C   UNL A   1      37.862  30.245  30.258  1.00  0.00     0.039 A 
ATOM     30  C   UNL A   1      38.903  30.118  31.182  1.00  0.00     0.014 A 
ATOM     31  C   UNL A   1      38.124  30.123  28.891  1.00  0.00     0.014 A 
ATOM     32  C   UNL A   1      40.191  29.811  30.736  1.00  0.00     0.010 A 
ATOM     33  C   UNL A   1      39.387  29.732  28.455  1.00  0.00     0.010 A 
ATOM     34  C   UNL A   1      40.436  29.580  29.372  1.00  0.00    -0.014 A 
BRANCH  34  35
ATOM     35  C   UNL A   1      41.784  29.182  28.894  1.00  0.00     0.031 A 
ATOM     36  C   UNL A   1      42.889  30.201  28.798  1.00  0.00     0.074 A 
ATOM     37  C   UNL A   1      41.998  27.914  28.493  1.00  0.00     0.049 A 
ATOM     38  N   UNL A   1      44.113  30.053  28.363  1.00  0.00    -0.248 NA
ATOM     39  C   UNL A   1      42.566  31.574  29.220  1.00  0.00     0.031 C 
ATOM     40  C   UNL A   1      40.989  26.851  28.479  1.00  0.00     0.029 A 
ATOM     41  N   UNL A   1      43.127  27.303  28.012  1.00  0.00    -0.354 N 
ATOM     42  C   UNL A   1      44.704  31.308  28.450  1.00  0.00     0.074 A 
ATOM     43  C   UNL A   1      43.684  32.220  28.921  1.00  0.00     0.031 C 
ATOM     44  C   UNL A   1      41.552  25.715  28.037  1.00  0.00     0.029 A 
ATOM     45  C   UNL A   1      42.948  25.976  27.702  1.00  0.00     0.049 A 
ATOM     46  H   UNL A   1      43.987  27.772  27.899  1.00  0.00     0.167 HD
ATOM     47  C   UNL A   1      45.984  31.664  28.190  1.00  0.00     0.037 A 
ATOM     48  C   UNL A   1      43.810  25.070  27.201  1.00  0.00     0.037 A 
ATOM     49  C   UNL A   1      46.999  30.746  27.740  1.00  0.00     0.049 A 
ATOM     50  C   UNL A   1      45.231  25.483  26.934  1.00  0.00     0.074 A 
ATOM     51  C   UNL A   1      48.338  30.995  27.495  1.00  0.00     0.029 A 
ATOM     52  N   UNL A   1      46.787  29.403  27.466  1.00  0.00    -0.354 N 
ATOM     53  N   UNL A   1      45.788  26.661  27.084  1.00  0.00    -0.248 NA
ATOM     54  C   UNL A   1      46.143  24.443  26.442  1.00  0.00     0.031 C 
ATOM     55  C   UNL A   1      48.926  29.811  27.035  1.00  0.00     0.029 A 
ATOM     56  C   UNL A   1      47.966  28.812  27.041  1.00  0.00     0.049 A 
ATOM     57  H   UNL A   1      45.925  28.936  27.561  1.00  0.00     0.167 HD
ATOM     58  C   UNL A   1      47.121  26.500  26.721  1.00  0.00     0.074 A 
ATOM     59  C   UNL A   1      47.289  25.105  26.367  1.00  0.00     0.031 C 
ATOM     60  C   UNL A   1      48.114  27.423  26.685  1.00  0.00     0.037 A 
BRANCH  47  61
ATOM     61  C   UNL A   1      46.360  33.107  28.395  1.00  0.00     0.058 A 
ATOM     62  C   UNL A   1      46.328  34.033  27.340  1.00  0.00     0.135 A 
ATOM     63  C   UNL A   1      46.735  33.578  29.664  1.00  0.00     0.135 A 
ATOM     64  F   UNL A   1      45.993  33.637  26.101  1.00  0.00    -0.206 F 
ATOM     65  C   UNL A   1      46.687  35.364  27.526  1.00  0.00     0.059 A 
ATOM     66  C   UNL A   1      47.069  34.913  29.881  1.00  0.00     0.059 A 
ATOM     67  F   UNL A   1      46.783  32.737  30.710  1.00  0.00    -0.206 F 
ATOM     68  C   UNL A   1      47.058  35.795  28.801  1.00  0.00     0.060 A 
BRANCH  68  69
ATOM     69  S   UNL A   1      47.523  37.524  29.025  1.00  0.00     0.124 S 
ATOM     70  O   UNL A   1      47.697  37.592  30.473  1.00  0.00    -0.237 OA
ATOM     71  O   UNL A   1      48.745  37.624  28.234  1.00  0.00    -0.237 OA
ATOM     72  O   UNL A   1      46.377  38.257  28.496  1.00  0.00    -0.744 OA
ENDBRANCH  68  69
ENDBRANCH  47  61
BRANCH  48  73
ATOM     73  C   UNL A   1      43.353  23.678  26.946  1.00  0.00     0.058 A 
ATOM     74  C   UNL A   1      43.055  23.241  25.646  1.00  0.00     0.135 A 
ATOM     75  C   UNL A   1      43.230  22.750  27.992  1.00  0.00     0.135 A 
ATOM     76  F   UNL A   1      43.154  24.093  24.614  1.00  0.00    -0.206 F 
ATOM     77  C   UNL A   1      42.638  21.938  25.393  1.00  0.00     0.059 A 
ATOM     78  C   UNL A   1      42.839  21.436  27.761  1.00  0.00     0.059 A 
ATOM     79  F   UNL A   1      43.521  23.113  29.250  1.00  0.00    -0.206 F 
ATOM     80  C   UNL A   1      42.536  21.041  26.458  1.00  0.00     0.060 A 
BRANCH  80  81
ATOM     81  S   UNL A   1      42.047  19.337  26.112  1.00  0.00     0.124 S 
ATOM     82  O   UNL A   1      42.856  19.034  24.937  1.00  0.00    -0.237 OA
ATOM     83  O   UNL A   1      42.428  18.653  27.343  1.00  0.00    -0.237 OA
ATOM     84  O   UNL A   1      40.610  19.441  25.879  1.00  0.00    -0.744 OA
ENDBRANCH  80  81
ENDBRANCH  48  73
BRANCH  60  85
ATOM     85  C   UNL A   1      49.478  26.946  26.266  1.00  0.00     0.058 A 
ATOM     86  C   UNL A   1      49.945  27.108  24.952  1.00  0.00     0.135 A 
ATOM     87  C   UNL A   1      50.340  26.346  27.199  1.00  0.00     0.135 A 
ATOM     88  F   UNL A   1      49.159  27.672  24.021  1.00  0.00    -0.206 F 
ATOM     89  C   UNL A   1      51.204  26.661  24.568  1.00  0.00     0.059 A 
ATOM     90  C   UNL A   1      51.615  25.916  26.843  1.00  0.00     0.059 A 
ATOM     91  F   UNL A   1      49.948  26.177  28.471  1.00  0.00    -0.206 F 
ATOM     92  C   UNL A   1      52.032  26.064  25.521  1.00  0.00     0.060 A 
BRANCH  92  93
ATOM     93  S   UNL A   1      53.670  25.498  25.014  1.00  0.00     0.124 S 
ATOM     94  O   UNL A   1      53.500  25.365  23.571  1.00  0.00    -0.237 OA
ATOM     95  O   UNL A   1      54.529  26.593  25.453  1.00  0.00    -0.237 OA
ATOM     96  O   UNL A   1      53.838  24.246  25.746  1.00  0.00    -0.744 OA
ENDBRANCH  92  93
ENDBRANCH  60  85
ENDBRANCH  34  35
ENDBRANCH  26  29
ENDBRANCH  24  25
ENDBRANCH  23  24
ENDBRANCH   1  23
TORSDOF 17
ENDMDL
MODEL 3
REMARK VINA RESULT:     -11.7      6.583     12.069
REMARK SMILES C[C@H]1[C@H](C(=O)NCCCNC(=O)c2ccc(-c3c4nc(c(-c5c(F)cc(S(=O)(=O)[O-])cc5F)c5ccc([nH]5)c(-c5c(F)cc(S(=O)(=O)[O-])cc5F)c5nc(c(-c6c(F)cc(S(=O)(=O)[O-])cc6F)c6ccc3[nH]6)C=C5)C=C4)cc2)CCN1C(=O)COc1ccccc1F
REMARK SMILES IDX 7 1 6 2 4 3 5 4 3 6 1 7 2 8 81 9 79 10 80 11 82 12 83 13
REMARK SMILES IDX 84 14 85 15 86 16 87 17 91 18 88 19 90 20 92 21 89 22 8 23
REMARK SMILES IDX 9 24 10 25 11 26 12 28 13 29 14 30 78 31 15 32 77 33 16 34
REMARK SMILES IDX 17 35 18 36 71 37 19 38 76 39 70 40 72 41 20 42 75 43 69 44
REMARK SMILES IDX 68 45 21 47 55 48 34 49 54 50 35 51 38 52 53 53 73 54 36 55
REMARK SMILES IDX 37 56 52 58 74 59 39 60 22 61 23 62 32 63 24 64 25 65 31 66
REMARK SMILES IDX 33 67 26 68 27 69 28 70 29 71 30 72 56 73 57 74 66 75 58 76
REMARK SMILES IDX 59 77 65 78 67 79 60 80 61 81 62 82 63 83 64 84 40 85 41 86
REMARK SMILES IDX 50 87 42 88 43 89 49 90 51 91 44 92 45 93 46 94 47 95 48 96
REMARK H PARENT 6 5 10 27 72 46 38 57
REMARK Flexibility Score: inf
ROOT
ATOM      1  C   UNL A   1      37.391  22.733  25.206  1.00  0.00     0.117 C 
ENDROOT
BRANCH   1   2
ATOM      2  N   UNL A   1      36.521  23.190  24.134  1.00  0.00    -0.356 N 
ATOM      3  C   UNL A   1      35.211  22.944  23.874  1.00  0.00     0.225 C 
ATOM      4  O   UNL A   1      34.723  23.467  22.868  1.00  0.00    -0.275 OA
ATOM      5  H   UNL A   1      36.958  23.784  23.482  1.00  0.00     0.163 HD
BRANCH   3   6
ATOM      6  C   UNL A   1      34.349  22.068  24.763  1.00  0.00     0.102 C 
ATOM      7  C   UNL A   1      34.437  22.095  27.259  1.00  0.00     0.032 C 
ATOM      8  C   UNL A   1      33.856  22.796  26.030  1.00  0.00     0.094 C 
ATOM      9  N   UNL A   1      32.395  22.730  25.936  1.00  0.00    -0.336 N 
ATOM     10  C   UNL A   1      33.127  21.484  24.057  1.00  0.00     0.037 C 
ATOM     11  C   UNL A   1      31.971  21.698  25.011  1.00  0.00     0.121 C 
BRANCH   9  12
ATOM     12  C   UNL A   1      31.444  23.574  26.477  1.00  0.00     0.260 C 
ATOM     13  O   UNL A   1      30.745  23.212  27.431  1.00  0.00    -0.271 OA
BRANCH  12  14
ATOM     14  C   UNL A   1      31.232  24.974  25.884  1.00  0.00     0.329 C 
BRANCH  14  15
ATOM     15  O   UNL A   1      32.100  26.052  26.158  1.00  0.00    -0.481 OA
BRANCH  15  16
ATOM     16  C   UNL A   1      31.738  27.327  25.827  1.00  0.00     0.155 A 
ATOM     17  C   UNL A   1      31.119  27.435  24.576  1.00  0.00     0.049 A 
ATOM     18  C   UNL A   1      32.025  28.503  26.520  1.00  0.00     0.165 A 
ATOM     19  C   UNL A   1      30.798  28.685  24.036  1.00  0.00     0.004 A 
ATOM     20  C   UNL A   1      31.719  29.754  25.981  1.00  0.00     0.043 A 
ATOM     21  F   UNL A   1      32.659  28.506  27.694  1.00  0.00    -0.203 F 
ATOM     22  C   UNL A   1      31.107  29.848  24.735  1.00  0.00     0.003 A 
ENDBRANCH  15  16
ENDBRANCH  14  15
ENDBRANCH  12  14
ENDBRANCH   9  12
ENDBRANCH   3   6
ENDBRANCH   1   2
BRANCH   1  23
ATOM     23  C   UNL A   1      37.826  23.869  26.121  1.00  0.00     0.042 C 
BRANCH  23  24
ATOM     24  C   UNL A   1      39.122  23.591  26.871  1.00  0.00     0.118 C 
BRANCH  24  25
ATOM     25  N   UNL A   1      40.303  23.967  26.102  1.00  0.00    -0.352 N 
ATOM     26  C   UNL A   1      41.123  25.057  26.225  1.00  0.00     0.251 C 
ATOM     27  H   UNL A   1      40.548  23.340  25.385  1.00  0.00     0.163 HD
ATOM     28  O   UNL A   1      41.949  25.289  25.337  1.00  0.00    -0.269 OA
BRANCH  26  29
ATOM     29  C   UNL A   1      41.021  25.956  27.392  1.00  0.00     0.039 A 
ATOM     30  C   UNL A   1      41.953  26.987  27.534  1.00  0.00     0.014 A 
ATOM     31  C   UNL A   1      40.030  25.772  28.361  1.00  0.00     0.014 A 
ATOM     32  C   UNL A   1      41.855  27.866  28.614  1.00  0.00     0.010 A 
ATOM     33  C   UNL A   1      39.881  26.700  29.388  1.00  0.00     0.010 A 
ATOM     34  C   UNL A   1      40.796  27.751  29.532  1.00  0.00    -0.014 A 
BRANCH  34  35
ATOM     35  C   UNL A   1      40.638  28.723  30.643  1.00  0.00     0.031 A 
ATOM     36  C   UNL A   1      41.484  28.604  31.884  1.00  0.00     0.074 A 
ATOM     37  C   UNL A   1      39.694  29.680  30.558  1.00  0.00     0.049 A 
ATOM     38  N   UNL A   1      41.458  29.328  32.973  1.00  0.00    -0.248 NA
ATOM     39  C   UNL A   1      42.468  27.509  31.916  1.00  0.00     0.031 C 
ATOM     40  C   UNL A   1      38.770  29.858  29.434  1.00  0.00     0.029 A 
ATOM     41  N   UNL A   1      39.346  30.677  31.432  1.00  0.00    -0.354 N 
ATOM     42  C   UNL A   1      42.412  28.775  33.820  1.00  0.00     0.074 A 
ATOM     43  C   UNL A   1      42.954  27.617  33.144  1.00  0.00     0.031 C 
ATOM     44  C   UNL A   1      37.979  30.915  29.677  1.00  0.00     0.029 A 
ATOM     45  C   UNL A   1      38.313  31.468  30.986  1.00  0.00     0.049 A 
ATOM     46  H   UNL A   1      39.794  30.814  32.299  1.00  0.00     0.167 HD
ATOM     47  C   UNL A   1      42.818  29.208  35.037  1.00  0.00     0.037 A 
ATOM     48  C   UNL A   1      37.701  32.517  31.567  1.00  0.00     0.037 A 
ATOM     49  C   UNL A   1      42.286  30.373  35.696  1.00  0.00     0.049 A 
ATOM     50  C   UNL A   1      38.179  32.990  32.911  1.00  0.00     0.074 A 
ATOM     51  C   UNL A   1      42.665  30.926  36.907  1.00  0.00     0.029 A 
ATOM     52  N   UNL A   1      41.262  31.166  35.199  1.00  0.00    -0.354 N 
ATOM     53  N   UNL A   1      39.126  32.493  33.671  1.00  0.00    -0.248 NA
ATOM     54  C   UNL A   1      37.514  34.172  33.474  1.00  0.00     0.031 C 
ATOM     55  C   UNL A   1      41.841  32.029  37.161  1.00  0.00     0.029 A 
ATOM     56  C   UNL A   1      40.984  32.194  36.085  1.00  0.00     0.049 A 
ATOM     57  H   UNL A   1      40.800  31.020  34.341  1.00  0.00     0.167 HD
ATOM     58  C   UNL A   1      39.183  33.312  34.793  1.00  0.00     0.074 A 
ATOM     59  C   UNL A   1      38.190  34.349  34.601  1.00  0.00     0.031 C 
ATOM     60  C   UNL A   1      39.986  33.215  35.882  1.00  0.00     0.037 A 
BRANCH  47  61
ATOM     61  C   UNL A   1      43.898  28.420  35.730  1.00  0.00     0.058 A 
ATOM     62  C   UNL A   1      45.259  28.688  35.510  1.00  0.00     0.135 A 
ATOM     63  C   UNL A   1      43.573  27.401  36.641  1.00  0.00     0.135 A 
ATOM     64  F   UNL A   1      45.630  29.640  34.639  1.00  0.00    -0.206 F 
ATOM     65  C   UNL A   1      46.258  27.953  36.140  1.00  0.00     0.059 A 
ATOM     66  C   UNL A   1      44.556  26.673  37.306  1.00  0.00     0.059 A 
ATOM     67  F   UNL A   1      42.287  27.102  36.889  1.00  0.00    -0.206 F 
ATOM     68  C   UNL A   1      45.896  26.945  37.036  1.00  0.00     0.060 A 
BRANCH  68  69
ATOM     69  S   UNL A   1      47.204  25.999  37.843  1.00  0.00     0.124 S 
ATOM     70  O   UNL A   1      48.395  26.539  37.195  1.00  0.00    -0.237 OA
ATOM     71  O   UNL A   1      47.028  26.358  39.247  1.00  0.00    -0.237 OA
ATOM     72  O   UNL A   1      46.880  24.616  37.509  1.00  0.00    -0.744 OA
ENDBRANCH  68  69
ENDBRANCH  47  61
BRANCH  48  73
ATOM     73  C   UNL A   1      36.585  33.203  30.862  1.00  0.00     0.058 A 
ATOM     74  C   UNL A   1      35.248  32.954  31.208  1.00  0.00     0.135 A 
ATOM     75  C   UNL A   1      36.833  34.140  29.848  1.00  0.00     0.135 A 
ATOM     76  F   UNL A   1      34.960  32.062  32.169  1.00  0.00    -0.206 F 
ATOM     77  C   UNL A   1      34.196  33.598  30.565  1.00  0.00     0.059 A 
ATOM     78  C   UNL A   1      35.800  34.816  29.207  1.00  0.00     0.059 A 
ATOM     79  F   UNL A   1      38.095  34.429  29.493  1.00  0.00    -0.206 F 
ATOM     80  C   UNL A   1      34.483  34.530  29.566  1.00  0.00     0.060 A 
BRANCH  80  81
ATOM     81  S   UNL A   1      33.113  35.403  28.776  1.00  0.00     0.124 S 
ATOM     82  O   UNL A   1      32.383  35.910  29.932  1.00  0.00    -0.237 OA
ATOM     83  O   UNL A   1      33.809  36.401  27.972  1.00  0.00    -0.237 OA
ATOM     84  O   UNL A   1      32.442  34.353  28.016  1.00  0.00    -0.744 OA
ENDBRANCH  80  81
ENDBRANCH  48  73
BRANCH  60  85
ATOM     85  C   UNL A   1      39.835  34.272  36.942  1.00  0.00     0.058 A 
ATOM     86  C   UNL A   1      40.537  35.487  36.877  1.00  0.00     0.135 A 
ATOM     87  C   UNL A   1      38.956  34.079  38.020  1.00  0.00     0.135 A 
ATOM     88  F   UNL A   1      41.393  35.719  35.870  1.00  0.00    -0.206 F 
ATOM     89  C   UNL A   1      40.398  36.458  37.862  1.00  0.00     0.059 A 
ATOM     90  C   UNL A   1      38.781  35.049  39.001  1.00  0.00     0.059 A 
ATOM     91  F   UNL A   1      38.252  32.940  38.123  1.00  0.00    -0.206 F 
ATOM     92  C   UNL A   1      39.519  36.229  38.923  1.00  0.00     0.060 A 
BRANCH  92  93
ATOM     93  S   UNL A   1      39.338  37.503  40.189  1.00  0.00     0.124 S 
ATOM     94  O   UNL A   1      38.950  36.710  41.350  1.00  0.00    -0.237 OA
ATOM     95  O   UNL A   1      40.675  38.088  40.238  1.00  0.00    -0.237 OA
ATOM     96  O   UNL A   1      38.300  38.375  39.647  1.00  0.00    -0.744 OA
ENDBRANCH  92  93
ENDBRANCH  60  85
ENDBRANCH  34  35
ENDBRANCH  26  29
ENDBRANCH  24  25
ENDBRANCH  23  24
ENDBRANCH   1  23
TORSDOF 17
ENDMDL
