MODEL 1
REMARK VINA RESULT:      -9.9      0.000      0.000
REMARK SMILES O=C(NCCCNC(=O)C1(CCc2ccccn2)CCCCC1)c1ccc(-c2c3nc(c(-c4c(F)cc(S(=O)(=O)[O-])cc4F)c4ccc([nH]4)c(-c4c(F)cc(S(=O)(=O)[O-])cc4F)c4nc(c(-c5c(F)cc(S(=O)(=O)[O-])cc5F)c5ccc2[nH]5)C=C4)C=C3)cc1
REMARK SMILES IDX 5 1 4 2 3 3 1 4 2 5 24 7 25 8 89 9 26 10 88 11 27 12 28 13
REMARK SMILES IDX 29 14 82 15 30 16 87 17 81 18 83 19 31 20 86 21 80 22 79 23
REMARK SMILES IDX 32 25 66 26 45 27 65 28 46 29 49 30 64 31 84 32 47 33 48 34
REMARK SMILES IDX 63 36 85 37 50 38 33 39 34 40 43 41 35 42 36 43 42 44 44 45
REMARK SMILES IDX 37 46 38 47 39 48 40 49 41 50 67 51 68 52 77 53 69 54 70 55
REMARK SMILES IDX 76 56 78 57 71 58 72 59 73 60 74 61 75 62 51 63 52 64 61 65
REMARK SMILES IDX 53 66 54 67 60 68 62 69 55 70 56 71 57 72 58 73 59 74 6 75
REMARK SMILES IDX 7 76 8 77 9 79 10 80 19 81 23 82 20 83 22 84 21 85 11 86
REMARK SMILES IDX 12 87 13 88 14 89 18 90 15 91 17 92 16 93
REMARK H PARENT 3 6 83 24 49 35 7 78
REMARK Flexibility Score: inf
ROOT
ATOM      1  C   UNL A   1      41.719  21.230  26.043  1.00  0.00     0.042 C 
ENDROOT
BRANCH   1   2
ATOM      2  C   UNL A   1      40.411  21.458  26.785  1.00  0.00     0.118 C 
BRANCH   2   3
ATOM      3  N   UNL A   1      39.353  21.932  25.892  1.00  0.00    -0.352 N 
ATOM      4  O   UNL A   1      37.670  23.274  25.218  1.00  0.00    -0.269 OA
ATOM      5  C   UNL A   1      38.700  23.145  25.866  1.00  0.00     0.251 C 
ATOM      6  H   UNL A   1      39.063  21.287  25.208  1.00  0.00     0.163 HD
BRANCH   5   7
ATOM      7  C   UNL A   1      39.254  24.278  26.637  1.00  0.00     0.039 A 
ATOM      8  C   UNL A   1      38.904  24.427  27.976  1.00  0.00     0.014 A 
ATOM      9  C   UNL A   1      40.108  25.201  26.029  1.00  0.00     0.014 A 
ATOM     10  C   UNL A   1      39.214  25.601  28.637  1.00  0.00     0.010 A 
ATOM     11  C   UNL A   1      40.553  26.315  26.755  1.00  0.00     0.010 A 
ATOM     12  C   UNL A   1      40.078  26.542  28.054  1.00  0.00    -0.014 A 
BRANCH  12  13
ATOM     13  C   UNL A   1      40.507  27.690  28.895  1.00  0.00     0.031 A 
ATOM     14  C   UNL A   1      39.605  28.864  29.156  1.00  0.00     0.074 A 
ATOM     15  C   UNL A   1      41.704  27.596  29.512  1.00  0.00     0.049 A 
ATOM     16  N   UNL A   1      39.808  29.888  29.944  1.00  0.00    -0.248 NA
ATOM     17  C   UNL A   1      38.321  28.906  28.440  1.00  0.00     0.031 C 
ATOM     18  C   UNL A   1      42.670  26.509  29.307  1.00  0.00     0.029 A 
ATOM     19  N   UNL A   1      42.288  28.373  30.476  1.00  0.00    -0.354 N 
ATOM     20  C   UNL A   1      38.694  30.707  29.805  1.00  0.00     0.074 A 
ATOM     21  C   UNL A   1      37.824  30.071  28.838  1.00  0.00     0.031 C 
ATOM     22  C   UNL A   1      43.671  26.633  30.186  1.00  0.00     0.029 A 
ATOM     23  C   UNL A   1      43.469  27.854  30.955  1.00  0.00     0.049 A 
ATOM     24  H   UNL A   1      41.902  29.221  30.795  1.00  0.00     0.167 HD
ATOM     25  C   UNL A   1      38.425  31.879  30.431  1.00  0.00     0.037 A 
ATOM     26  C   UNL A   1      44.310  28.312  31.899  1.00  0.00     0.037 A 
ATOM     27  C   UNL A   1      39.295  32.490  31.406  1.00  0.00     0.049 A 
ATOM     28  C   UNL A   1      43.968  29.593  32.598  1.00  0.00     0.074 A 
ATOM     29  C   UNL A   1      39.122  33.681  32.091  1.00  0.00     0.029 A 
ATOM     30  N   UNL A   1      40.497  31.951  31.844  1.00  0.00    -0.354 N 
ATOM     31  N   UNL A   1      42.917  30.360  32.435  1.00  0.00    -0.248 NA
ATOM     32  C   UNL A   1      44.927  30.078  33.596  1.00  0.00     0.031 C 
ATOM     33  C   UNL A   1      40.231  33.875  32.923  1.00  0.00     0.029 A 
ATOM     34  C   UNL A   1      41.076  32.786  32.786  1.00  0.00     0.049 A 
ATOM     35  H   UNL A   1      40.880  31.100  31.533  1.00  0.00     0.167 HD
ATOM     36  C   UNL A   1      43.095  31.430  33.300  1.00  0.00     0.074 A 
ATOM     37  C   UNL A   1      44.332  31.185  34.017  1.00  0.00     0.031 C 
ATOM     38  C   UNL A   1      42.316  32.526  33.473  1.00  0.00     0.037 A 
BRANCH  25  39
ATOM     39  C   UNL A   1      37.146  32.589  30.077  1.00  0.00     0.058 A 
ATOM     40  C   UNL A   1      35.943  32.317  30.747  1.00  0.00     0.135 A 
ATOM     41  C   UNL A   1      37.133  33.590  29.092  1.00  0.00     0.135 A 
ATOM     42  F   UNL A   1      35.892  31.357  31.683  1.00  0.00    -0.206 F 
ATOM     43  C   UNL A   1      34.770  33.005  30.445  1.00  0.00     0.059 A 
ATOM     44  C   UNL A   1      35.977  34.306  28.789  1.00  0.00     0.059 A 
ATOM     45  F   UNL A   1      38.255  33.889  28.418  1.00  0.00    -0.206 F 
ATOM     46  C   UNL A   1      34.797  33.998  29.464  1.00  0.00     0.060 A 
BRANCH  46  47
ATOM     47  S   UNL A   1      33.272  34.891  29.096  1.00  0.00     0.124 S 
ATOM     48  O   UNL A   1      33.791  36.171  28.622  1.00  0.00    -0.237 OA
ATOM     49  O   UNL A   1      32.651  34.046  28.081  1.00  0.00    -0.237 OA
ATOM     50  O   UNL A   1      32.582  34.931  30.381  1.00  0.00    -0.744 OA
ENDBRANCH  46  47
ENDBRANCH  25  39
BRANCH  26  51
ATOM     51  C   UNL A   1      45.560  27.567  32.200  1.00  0.00     0.058 A 
ATOM     52  C   UNL A   1      45.585  26.527  33.139  1.00  0.00     0.135 A 
ATOM     53  C   UNL A   1      46.752  27.863  31.518  1.00  0.00     0.135 A 
ATOM     54  F   UNL A   1      44.472  26.207  33.817  1.00  0.00    -0.206 F 
ATOM     55  C   UNL A   1      46.750  25.815  33.403  1.00  0.00     0.059 A 
ATOM     56  C   UNL A   1      47.920  27.145  31.741  1.00  0.00     0.059 A 
ATOM     57  F   UNL A   1      46.775  28.834  30.592  1.00  0.00    -0.206 F 
ATOM     58  C   UNL A   1      47.914  26.130  32.697  1.00  0.00     0.060 A 
BRANCH  58  59
ATOM     59  S   UNL A   1      49.413  25.170  33.000  1.00  0.00     0.124 S 
ATOM     60  O   UNL A   1      48.889  24.050  33.773  1.00  0.00    -0.237 OA
ATOM     61  O   UNL A   1      49.861  24.858  31.645  1.00  0.00    -0.237 OA
ATOM     62  O   UNL A   1      50.262  26.104  33.732  1.00  0.00    -0.744 OA
ENDBRANCH  58  59
ENDBRANCH  26  51
BRANCH  38  63
ATOM     63  C   UNL A   1      42.797  33.534  34.477  1.00  0.00     0.058 A 
ATOM     64  C   UNL A   1      43.642  34.589  34.103  1.00  0.00     0.135 A 
ATOM     65  C   UNL A   1      42.414  33.439  35.824  1.00  0.00     0.135 A 
ATOM     66  F   UNL A   1      44.042  34.716  32.827  1.00  0.00    -0.206 F 
ATOM     67  C   UNL A   1      44.126  35.496  35.038  1.00  0.00     0.059 A 
ATOM     68  C   UNL A   1      42.866  34.350  36.772  1.00  0.00     0.059 A 
ATOM     69  F   UNL A   1      41.600  32.451  36.227  1.00  0.00    -0.206 F 
ATOM     70  C   UNL A   1      43.737  35.364  36.373  1.00  0.00     0.060 A 
BRANCH  70  71
ATOM     71  S   UNL A   1      44.375  36.541  37.583  1.00  0.00     0.124 S 
ATOM     72  O   UNL A   1      44.967  35.649  38.573  1.00  0.00    -0.237 OA
ATOM     73  O   UNL A   1      45.318  37.326  36.792  1.00  0.00    -0.237 OA
ATOM     74  O   UNL A   1      43.180  37.259  38.016  1.00  0.00    -0.744 OA
ENDBRANCH  70  71
ENDBRANCH  38  63
ENDBRANCH  12  13
ENDBRANCH   5   7
ENDBRANCH   2   3
ENDBRANCH   1   2
BRANCH   1  75
ATOM     75  C   UNL A   1      42.620  22.447  26.139  1.00  0.00     0.117 C 
BRANCH  75  76
ATOM     76  N   UNL A   1      43.584  22.457  25.053  1.00  0.00    -0.356 N 
ATOM     77  C   UNL A   1      44.606  23.252  24.667  1.00  0.00     0.226 C 
ATOM     78  H   UNL A   1      43.461  21.693  24.444  1.00  0.00     0.163 HD
ATOM     79  O   UNL A   1      45.067  22.980  23.550  1.00  0.00    -0.274 OA
BRANCH  77  80
ATOM     80  C   UNL A   1      45.256  24.357  25.533  1.00  0.00     0.050 C 
ATOM     81  C   UNL A   1      45.596  23.623  26.878  1.00  0.00     0.017 C 
ATOM     82  C   UNL A   1      46.562  24.961  24.970  1.00  0.00     0.017 C 
ATOM     83  C   UNL A   1      46.485  24.394  27.849  1.00  0.00     0.001 C 
ATOM     84  C   UNL A   1      47.446  25.703  25.970  1.00  0.00     0.001 C 
ATOM     85  C   UNL A   1      47.769  24.843  27.176  1.00  0.00     0.000 C 
BRANCH  80  86
ATOM     86  C   UNL A   1      44.179  25.458  25.819  1.00  0.00     0.023 C 
BRANCH  86  87
ATOM     87  C   UNL A   1      44.405  26.877  25.246  1.00  0.00     0.057 C 
BRANCH  87  88
ATOM     88  C   UNL A   1      44.171  28.016  26.210  1.00  0.00     0.040 A 
ATOM     89  C   UNL A   1      45.100  28.306  27.207  1.00  0.00     0.024 A 
ATOM     90  N   UNL A   1      43.040  28.743  26.056  1.00  0.00    -0.261 NA
ATOM     91  C   UNL A   1      44.927  29.450  27.985  1.00  0.00     0.003 A 
ATOM     92  C   UNL A   1      42.892  29.844  26.825  1.00  0.00     0.111 A 
ATOM     93  C   UNL A   1      43.809  30.246  27.781  1.00  0.00     0.020 A 
ENDBRANCH  87  88
ENDBRANCH  86  87
ENDBRANCH  80  86
ENDBRANCH  77  80
ENDBRANCH  75  76
ENDBRANCH   1  75
TORSDOF 16
ENDMDL
MODEL 2
REMARK VINA RESULT:      -9.9      4.810     11.514
REMARK SMILES O=C(NCCCNC(=O)C1(CCc2ccccn2)CCCCC1)c1ccc(-c2c3nc(c(-c4c(F)cc(S(=O)(=O)[O-])cc4F)c4ccc([nH]4)c(-c4c(F)cc(S(=O)(=O)[O-])cc4F)c4nc(c(-c5c(F)cc(S(=O)(=O)[O-])cc5F)c5ccc2[nH]5)C=C4)C=C3)cc1
REMARK SMILES IDX 5 1 4 2 3 3 1 4 2 5 24 7 25 8 89 9 26 10 88 11 27 12 28 13
REMARK SMILES IDX 29 14 82 15 30 16 87 17 81 18 83 19 31 20 86 21 80 22 79 23
REMARK SMILES IDX 32 25 66 26 45 27 65 28 46 29 49 30 64 31 84 32 47 33 48 34
REMARK SMILES IDX 63 36 85 37 50 38 33 39 34 40 43 41 35 42 36 43 42 44 44 45
REMARK SMILES IDX 37 46 38 47 39 48 40 49 41 50 67 51 68 52 77 53 69 54 70 55
REMARK SMILES IDX 76 56 78 57 71 58 72 59 73 60 74 61 75 62 51 63 52 64 61 65
REMARK SMILES IDX 53 66 54 67 60 68 62 69 55 70 56 71 57 72 58 73 59 74 6 75
REMARK SMILES IDX 7 76 8 77 9 79 10 80 19 81 23 82 20 83 22 84 21 85 11 86
REMARK SMILES IDX 12 87 13 88 14 89 18 90 15 91 17 92 16 93
REMARK H PARENT 3 6 83 24 49 35 7 78
REMARK Flexibility Score: inf
ROOT
ATOM      1  C   UNL A   1      37.950  19.999  24.964  1.00  0.00     0.042 C 
ENDROOT
BRANCH   1   2
ATOM      2  C   UNL A   1      39.063  20.441  25.902  1.00  0.00     0.118 C 
BRANCH   2   3
ATOM      3  N   UNL A   1      40.138  19.451  25.979  1.00  0.00    -0.352 N 
ATOM      4  O   UNL A   1      42.266  18.709  25.911  1.00  0.00    -0.269 OA
ATOM      5  C   UNL A   1      41.496  19.635  26.123  1.00  0.00     0.251 C 
ATOM      6  H   UNL A   1      39.848  18.513  25.917  1.00  0.00     0.163 HD
BRANCH   5   7
ATOM      7  C   UNL A   1      42.004  20.964  26.525  1.00  0.00     0.039 A 
ATOM      8  C   UNL A   1      42.243  21.926  25.548  1.00  0.00     0.014 A 
ATOM      9  C   UNL A   1      42.259  21.251  27.868  1.00  0.00     0.014 A 
ATOM     10  C   UNL A   1      42.939  23.075  25.875  1.00  0.00     0.010 A 
ATOM     11  C   UNL A   1      42.822  22.487  28.217  1.00  0.00     0.010 A 
ATOM     12  C   UNL A   1      43.200  23.394  27.218  1.00  0.00    -0.014 A 
BRANCH  12  13
ATOM     13  C   UNL A   1      43.792  24.727  27.502  1.00  0.00     0.031 A 
ATOM     14  C   UNL A   1      45.226  25.043  27.185  1.00  0.00     0.074 A 
ATOM     15  C   UNL A   1      42.963  25.690  27.957  1.00  0.00     0.049 A 
ATOM     16  N   UNL A   1      45.851  26.188  27.290  1.00  0.00    -0.248 NA
ATOM     17  C   UNL A   1      46.074  23.942  26.704  1.00  0.00     0.031 C 
ATOM     18  C   UNL A   1      41.556  25.482  28.322  1.00  0.00     0.029 A 
ATOM     19  N   UNL A   1      43.149  27.035  28.131  1.00  0.00    -0.354 N 
ATOM     20  C   UNL A   1      47.166  25.945  26.910  1.00  0.00     0.074 A 
ATOM     21  C   UNL A   1      47.256  24.535  26.592  1.00  0.00     0.031 C 
ATOM     22  C   UNL A   1      40.984  26.665  28.576  1.00  0.00     0.029 A 
ATOM     23  C   UNL A   1      42.000  27.705  28.484  1.00  0.00     0.049 A 
ATOM     24  H   UNL A   1      44.020  27.480  28.016  1.00  0.00     0.167 HD
ATOM     25  C   UNL A   1      48.197  26.821  26.833  1.00  0.00     0.037 A 
ATOM     26  C   UNL A   1      41.782  29.011  28.722  1.00  0.00     0.037 A 
ATOM     27  C   UNL A   1      48.084  28.227  27.135  1.00  0.00     0.049 A 
ATOM     28  C   UNL A   1      42.935  29.960  28.594  1.00  0.00     0.074 A 
ATOM     29  C   UNL A   1      49.070  29.199  27.099  1.00  0.00     0.029 A 
ATOM     30  N   UNL A   1      46.912  28.864  27.518  1.00  0.00    -0.354 N 
ATOM     31  N   UNL A   1      44.175  29.703  28.253  1.00  0.00    -0.248 NA
ATOM     32  C   UNL A   1      42.667  31.370  28.896  1.00  0.00     0.031 C 
ATOM     33  C   UNL A   1      48.500  30.418  27.486  1.00  0.00     0.029 A 
ATOM     34  C   UNL A   1      47.151  30.214  27.724  1.00  0.00     0.049 A 
ATOM     35  H   UNL A   1      46.039  28.422  27.625  1.00  0.00     0.167 HD
ATOM     36  C   UNL A   1      44.841  30.918  28.313  1.00  0.00     0.074 A 
ATOM     37  C   UNL A   1      43.854  31.916  28.679  1.00  0.00     0.031 C 
ATOM     38  C   UNL A   1      46.154  31.183  28.104  1.00  0.00     0.037 A 
BRANCH  25  39
ATOM     39  C   UNL A   1      49.542  26.290  26.416  1.00  0.00     0.058 A 
ATOM     40  C   UNL A   1      50.020  26.441  25.104  1.00  0.00     0.135 A 
ATOM     41  C   UNL A   1      50.387  25.669  27.350  1.00  0.00     0.135 A 
ATOM     42  F   UNL A   1      49.248  27.010  24.165  1.00  0.00    -0.206 F 
ATOM     43  C   UNL A   1      51.282  25.985  24.732  1.00  0.00     0.059 A 
ATOM     44  C   UNL A   1      51.660  25.224  27.006  1.00  0.00     0.059 A 
ATOM     45  F   UNL A   1      49.978  25.495  28.618  1.00  0.00    -0.206 F 
ATOM     46  C   UNL A   1      52.095  25.378  25.690  1.00  0.00     0.060 A 
BRANCH  46  47
ATOM     47  S   UNL A   1      53.735  24.806  25.195  1.00  0.00     0.124 S 
ATOM     48  O   UNL A   1      53.957  25.577  23.975  1.00  0.00    -0.237 OA
ATOM     49  O   UNL A   1      54.558  25.183  26.341  1.00  0.00    -0.237 OA
ATOM     50  O   UNL A   1      53.552  23.370  25.006  1.00  0.00    -0.744 OA
ENDBRANCH  46  47
ENDBRANCH  25  39
BRANCH  26  51
ATOM     51  C   UNL A   1      40.431  29.472  29.134  1.00  0.00     0.058 A 
ATOM     52  C   UNL A   1      40.146  29.809  30.464  1.00  0.00     0.135 A 
ATOM     53  C   UNL A   1      39.404  29.617  28.187  1.00  0.00     0.135 A 
ATOM     54  F   UNL A   1      41.094  29.686  31.406  1.00  0.00    -0.206 F 
ATOM     55  C   UNL A   1      38.888  30.262  30.845  1.00  0.00     0.059 A 
ATOM     56  C   UNL A   1      38.149  30.098  28.537  1.00  0.00     0.059 A 
ATOM     57  F   UNL A   1      39.633  29.329  26.896  1.00  0.00    -0.206 F 
ATOM     58  C   UNL A   1      37.895  30.405  29.873  1.00  0.00     0.060 A 
BRANCH  58  59
ATOM     59  S   UNL A   1      36.277  31.044  30.357  1.00  0.00     0.124 S 
ATOM     60  O   UNL A   1      35.903  30.116  31.417  1.00  0.00    -0.237 OA
ATOM     61  O   UNL A   1      36.594  32.405  30.780  1.00  0.00    -0.237 OA
ATOM     62  O   UNL A   1      35.500  30.946  29.125  1.00  0.00    -0.744 OA
ENDBRANCH  58  59
ENDBRANCH  26  51
BRANCH  38  63
ATOM     63  C   UNL A   1      46.581  32.612  28.274  1.00  0.00     0.058 A 
ATOM     64  C   UNL A   1      46.514  33.525  27.211  1.00  0.00     0.135 A 
ATOM     65  C   UNL A   1      47.067  33.069  29.509  1.00  0.00     0.135 A 
ATOM     66  F   UNL A   1      46.064  33.131  26.009  1.00  0.00    -0.206 F 
ATOM     67  C   UNL A   1      46.952  34.836  27.353  1.00  0.00     0.059 A 
ATOM     68  C   UNL A   1      47.488  34.383  29.680  1.00  0.00     0.059 A 
ATOM     69  F   UNL A   1      47.143  32.235  30.557  1.00  0.00    -0.206 F 
ATOM     70  C   UNL A   1      47.445  35.254  28.591  1.00  0.00     0.060 A 
BRANCH  70  71
ATOM     71  S   UNL A   1      48.018  36.956  28.765  1.00  0.00     0.124 S 
ATOM     72  O   UNL A   1      49.362  36.757  29.299  1.00  0.00    -0.237 OA
ATOM     73  O   UNL A   1      47.947  37.455  27.396  1.00  0.00    -0.237 OA
ATOM     74  O   UNL A   1      47.054  37.543  29.691  1.00  0.00    -0.744 OA
ENDBRANCH  70  71
ENDBRANCH  38  63
ENDBRANCH  12  13
ENDBRANCH   5   7
ENDBRANCH   2   3
ENDBRANCH   1   2
BRANCH   1  75
ATOM     75  C   UNL A   1      36.937  21.109  24.757  1.00  0.00     0.117 C 
BRANCH  75  76
ATOM     76  N   UNL A   1      35.964  21.122  25.835  1.00  0.00    -0.356 N 
ATOM     77  C   UNL A   1      34.709  21.589  26.006  1.00  0.00     0.226 C 
ATOM     78  H   UNL A   1      36.307  20.680  26.645  1.00  0.00     0.163 HD
ATOM     79  O   UNL A   1      34.302  21.538  27.175  1.00  0.00    -0.274 OA
BRANCH  77  80
ATOM     80  C   UNL A   1      33.770  22.070  24.873  1.00  0.00     0.050 C 
ATOM     81  C   UNL A   1      32.525  22.640  25.640  1.00  0.00     0.017 C 
ATOM     82  C   UNL A   1      34.336  23.188  23.971  1.00  0.00     0.017 C 
ATOM     83  C   UNL A   1      31.529  23.426  24.794  1.00  0.00     0.001 C 
ATOM     84  C   UNL A   1      33.313  23.978  23.157  1.00  0.00     0.001 C 
ATOM     85  C   UNL A   1      32.217  24.547  24.037  1.00  0.00     0.000 C 
BRANCH  80  86
ATOM     86  C   UNL A   1      33.320  20.820  24.043  1.00  0.00     0.023 C 
BRANCH  86  87
ATOM     87  C   UNL A   1      32.398  19.778  24.720  1.00  0.00     0.057 C 
BRANCH  87  88
ATOM     88  C   UNL A   1      32.956  18.377  24.816  1.00  0.00     0.040 A 
ATOM     89  C   UNL A   1      34.241  18.091  24.360  1.00  0.00     0.024 A 
ATOM     90  N   UNL A   1      32.168  17.428  25.372  1.00  0.00    -0.261 NA
ATOM     91  C   UNL A   1      34.780  16.827  24.597  1.00  0.00     0.003 A 
ATOM     92  C   UNL A   1      32.710  16.209  25.586  1.00  0.00     0.111 A 
ATOM     93  C   UNL A   1      34.006  15.869  25.237  1.00  0.00     0.020 A 
ENDBRANCH  87  88
ENDBRANCH  86  87
ENDBRANCH  80  86
ENDBRANCH  77  80
ENDBRANCH  75  76
ENDBRANCH   1  75
TORSDOF 16
ENDMDL
MODEL 3
REMARK VINA RESULT:      -9.9      3.449     10.129
REMARK SMILES O=C(NCCCNC(=O)C1(CCc2ccccn2)CCCCC1)c1ccc(-c2c3nc(c(-c4c(F)cc(S(=O)(=O)[O-])cc4F)c4ccc([nH]4)c(-c4c(F)cc(S(=O)(=O)[O-])cc4F)c4nc(c(-c5c(F)cc(S(=O)(=O)[O-])cc5F)c5ccc2[nH]5)C=C4)C=C3)cc1
REMARK SMILES IDX 5 1 4 2 3 3 1 4 2 5 24 7 25 8 89 9 26 10 88 11 27 12 28 13
REMARK SMILES IDX 29 14 82 15 30 16 87 17 81 18 83 19 31 20 86 21 80 22 79 23
REMARK SMILES IDX 32 25 66 26 45 27 65 28 46 29 49 30 64 31 84 32 47 33 48 34
REMARK SMILES IDX 63 36 85 37 50 38 33 39 34 40 43 41 35 42 36 43 42 44 44 45
REMARK SMILES IDX 37 46 38 47 39 48 40 49 41 50 67 51 68 52 77 53 69 54 70 55
REMARK SMILES IDX 76 56 78 57 71 58 72 59 73 60 74 61 75 62 51 63 52 64 61 65
REMARK SMILES IDX 53 66 54 67 60 68 62 69 55 70 56 71 57 72 58 73 59 74 6 75
REMARK SMILES IDX 7 76 8 77 9 79 10 80 19 81 23 82 20 83 22 84 21 85 11 86
REMARK SMILES IDX 12 87 13 88 14 89 18 90 15 91 17 92 16 93
REMARK H PARENT 3 6 83 24 49 35 7 78
REMARK Flexibility Score: inf
ROOT
ATOM      1  C   UNL A   1      38.924  22.691  26.449  1.00  0.00     0.042 C 
ENDROOT
BRANCH   1   2
ATOM      2  C   UNL A   1      40.136  23.361  27.080  1.00  0.00     0.118 C 
BRANCH   2   3
ATOM      3  N   UNL A   1      40.910  24.124  26.100  1.00  0.00    -0.352 N 
ATOM      4  O   UNL A   1      41.619  25.970  25.018  1.00  0.00    -0.269 OA
ATOM      5  C   UNL A   1      41.171  25.475  26.043  1.00  0.00     0.251 C 
ATOM      6  H   UNL A   1      41.304  23.591  25.373  1.00  0.00     0.163 HD
BRANCH   5   7
ATOM      7  C   UNL A   1      40.892  26.313  27.228  1.00  0.00     0.039 A 
ATOM      8  C   UNL A   1      41.609  27.492  27.413  1.00  0.00     0.014 A 
ATOM      9  C   UNL A   1      39.931  25.924  28.164  1.00  0.00     0.014 A 
ATOM     10  C   UNL A   1      41.534  28.155  28.624  1.00  0.00     0.010 A 
ATOM     11  C   UNL A   1      39.743  26.689  29.323  1.00  0.00     0.010 A 
ATOM     12  C   UNL A   1      40.571  27.791  29.579  1.00  0.00    -0.014 A 
BRANCH  12  13
ATOM     13  C   UNL A   1      40.431  28.660  30.777  1.00  0.00     0.031 A 
ATOM     14  C   UNL A   1      41.403  28.595  31.922  1.00  0.00     0.074 A 
ATOM     15  C   UNL A   1      39.460  29.596  30.756  1.00  0.00     0.049 A 
ATOM     16  N   UNL A   1      41.462  29.355  32.985  1.00  0.00    -0.248 NA
ATOM     17  C   UNL A   1      42.429  27.542  31.883  1.00  0.00     0.031 C 
ATOM     18  C   UNL A   1      38.446  29.728  29.702  1.00  0.00     0.029 A 
ATOM     19  N   UNL A   1      39.197  30.646  31.595  1.00  0.00    -0.354 N 
ATOM     20  C   UNL A   1      42.511  28.864  33.752  1.00  0.00     0.074 A 
ATOM     21  C   UNL A   1      43.051  27.723  33.042  1.00  0.00     0.031 C 
ATOM     22  C   UNL A   1      37.742  30.849  29.902  1.00  0.00     0.029 A 
ATOM     23  C   UNL A   1      38.188  31.466  31.144  1.00  0.00     0.049 A 
ATOM     24  H   UNL A   1      39.681  30.798  32.438  1.00  0.00     0.167 HD
ATOM     25  C   UNL A   1      42.980  29.328  34.936  1.00  0.00     0.037 A 
ATOM     26  C   UNL A   1      37.664  32.586  31.673  1.00  0.00     0.037 A 
ATOM     27  C   UNL A   1      42.442  30.478  35.621  1.00  0.00     0.049 A 
ATOM     28  C   UNL A   1      38.227  33.094  32.966  1.00  0.00     0.074 A 
ATOM     29  C   UNL A   1      42.836  31.025  36.830  1.00  0.00     0.029 A 
ATOM     30  N   UNL A   1      41.401  31.267  35.149  1.00  0.00    -0.354 N 
ATOM     31  N   UNL A   1      39.208  32.600  33.683  1.00  0.00    -0.248 NA
ATOM     32  C   UNL A   1      37.607  34.297  33.529  1.00  0.00     0.031 C 
ATOM     33  C   UNL A   1      42.017  32.127  37.103  1.00  0.00     0.029 A 
ATOM     34  C   UNL A   1      41.138  32.291  36.045  1.00  0.00     0.049 A 
ATOM     35  H   UNL A   1      40.922  31.120  34.302  1.00  0.00     0.167 HD
ATOM     36  C   UNL A   1      39.314  33.425  34.793  1.00  0.00     0.074 A 
ATOM     37  C   UNL A   1      38.328  34.475  34.627  1.00  0.00     0.031 C 
ATOM     38  C   UNL A   1      40.140  33.315  35.863  1.00  0.00     0.037 A 
BRANCH  25  39
ATOM     39  C   UNL A   1      44.123  28.590  35.579  1.00  0.00     0.058 A 
ATOM     40  C   UNL A   1      45.460  28.924  35.309  1.00  0.00     0.135 A 
ATOM     41  C   UNL A   1      43.881  27.572  36.515  1.00  0.00     0.135 A 
ATOM     42  F   UNL A   1      45.751  29.876  34.409  1.00  0.00    -0.206 F 
ATOM     43  C   UNL A   1      46.515  28.266  35.936  1.00  0.00     0.059 A 
ATOM     44  C   UNL A   1      44.920  26.916  37.170  1.00  0.00     0.059 A 
ATOM     45  F   UNL A   1      42.621  27.210  36.808  1.00  0.00    -0.206 F 
ATOM     46  C   UNL A   1      46.235  27.263  36.866  1.00  0.00     0.060 A 
BRANCH  46  47
ATOM     47  S   UNL A   1      47.614  26.431  37.682  1.00  0.00     0.124 S 
ATOM     48  O   UNL A   1      46.951  25.264  38.256  1.00  0.00    -0.237 OA
ATOM     49  O   UNL A   1      48.520  26.161  36.570  1.00  0.00    -0.237 OA
ATOM     50  O   UNL A   1      48.087  27.421  38.645  1.00  0.00    -0.744 OA
ENDBRANCH  46  47
ENDBRANCH  25  39
BRANCH  26  51
ATOM     51  C   UNL A   1      36.533  33.267  30.992  1.00  0.00     0.058 A 
ATOM     52  C   UNL A   1      35.231  33.217  31.506  1.00  0.00     0.135 A 
ATOM     53  C   UNL A   1      36.748  34.015  29.822  1.00  0.00     0.135 A 
ATOM     54  F   UNL A   1      34.976  32.514  32.621  1.00  0.00    -0.206 F 
ATOM     55  C   UNL A   1      34.176  33.873  30.880  1.00  0.00     0.059 A 
ATOM     56  C   UNL A   1      35.717  34.705  29.196  1.00  0.00     0.059 A 
ATOM     57  F   UNL A   1      37.980  34.113  29.301  1.00  0.00    -0.206 F 
ATOM     58  C   UNL A   1      34.430  34.617  29.725  1.00  0.00     0.060 A 
BRANCH  58  59
ATOM     59  S   UNL A   1      33.072  35.514  28.942  1.00  0.00     0.124 S 
ATOM     60  O   UNL A   1      33.791  36.558  28.221  1.00  0.00    -0.237 OA
ATOM     61  O   UNL A   1      32.451  34.480  28.118  1.00  0.00    -0.237 OA
ATOM     62  O   UNL A   1      32.273  35.962  30.077  1.00  0.00    -0.744 OA
ENDBRANCH  58  59
ENDBRANCH  26  51
BRANCH  38  63
ATOM     63  C   UNL A   1      39.994  34.362  36.929  1.00  0.00     0.058 A 
ATOM     64  C   UNL A   1      40.719  35.561  36.877  1.00  0.00     0.135 A 
ATOM     65  C   UNL A   1      39.125  34.160  38.013  1.00  0.00     0.135 A 
ATOM     66  F   UNL A   1      41.569  35.794  35.864  1.00  0.00    -0.206 F 
ATOM     67  C   UNL A   1      40.620  36.512  37.886  1.00  0.00     0.059 A 
ATOM     68  C   UNL A   1      38.993  35.109  39.021  1.00  0.00     0.059 A 
ATOM     69  F   UNL A   1      38.403  33.032  38.101  1.00  0.00    -0.206 F 
ATOM     70  C   UNL A   1      39.759  36.273  38.958  1.00  0.00     0.060 A 
BRANCH  70  71
ATOM     71  S   UNL A   1      39.642  37.509  40.268  1.00  0.00     0.124 S 
ATOM     72  O   UNL A   1      39.961  36.713  41.449  1.00  0.00    -0.237 OA
ATOM     73  O   UNL A   1      40.650  38.486  39.871  1.00  0.00    -0.237 OA
ATOM     74  O   UNL A   1      38.260  37.969  40.173  1.00  0.00    -0.744 OA
ENDBRANCH  70  71
ENDBRANCH  38  63
ENDBRANCH  12  13
ENDBRANCH   5   7
ENDBRANCH   2   3
ENDBRANCH   1   2
BRANCH   1  75
ATOM     75  C   UNL A   1      37.855  23.711  26.103  1.00  0.00     0.117 C 
BRANCH  75  76
ATOM     76  N   UNL A   1      37.511  23.633  24.695  1.00  0.00    -0.356 N 
ATOM     77  C   UNL A   1      36.470  23.166  23.972  1.00  0.00     0.226 C 
ATOM     78  H   UNL A   1      38.214  24.017  24.122  1.00  0.00     0.163 HD
ATOM     79  O   UNL A   1      36.670  23.142  22.750  1.00  0.00    -0.274 OA
BRANCH  77  80
ATOM     80  C   UNL A   1      35.088  22.770  24.546  1.00  0.00     0.050 C 
ATOM     81  C   UNL A   1      34.170  22.681  23.276  1.00  0.00     0.017 C 
ATOM     82  C   UNL A   1      35.036  21.410  25.276  1.00  0.00     0.017 C 
ATOM     83  C   UNL A   1      32.796  22.056  23.493  1.00  0.00     0.001 C 
ATOM     84  C   UNL A   1      33.649  20.795  25.454  1.00  0.00     0.001 C 
ATOM     85  C   UNL A   1      32.912  20.686  24.133  1.00  0.00     0.000 C 
BRANCH  80  86
ATOM     86  C   UNL A   1      34.577  23.940  25.453  1.00  0.00     0.023 C 
BRANCH  86  87
ATOM     87  C   UNL A   1      34.132  25.258  24.775  1.00  0.00     0.057 C 
BRANCH  87  88
ATOM     88  C   UNL A   1      33.280  26.174  25.623  1.00  0.00     0.040 A 
ATOM     89  C   UNL A   1      33.847  27.260  26.288  1.00  0.00     0.024 A 
ATOM     90  N   UNL A   1      31.956  25.906  25.695  1.00  0.00    -0.261 NA
ATOM     91  C   UNL A   1      33.014  28.167  26.940  1.00  0.00     0.003 A 
ATOM     92  C   UNL A   1      31.169  26.797  26.338  1.00  0.00     0.111 A 
ATOM     93  C   UNL A   1      31.644  27.942  26.953  1.00  0.00     0.020 A 
ENDBRANCH  87  88
ENDBRANCH  86  87
ENDBRANCH  80  86
ENDBRANCH  77  80
ENDBRANCH  75  76
ENDBRANCH   1  75
TORSDOF 16
ENDMDL
