MODEL 1
REMARK VINA RESULT:     -10.2      0.000      0.000
REMARK SMILES CCCC(=O)/C(=C/NC(N)=O)C(=O)NCCCNC(=O)c1ccc(-c2c3nc(c(-c4c(F)cc(S(=O)(=O)[O-])cc4F)c4ccc([nH]4)c(-c4c(F)cc(S(=O)(=O)[O-])cc4F)c4nc(c(-c5c(F)cc(S(=O)(=O)[O-])cc5F)c5ccc2[nH]5)C=C4)C=C3)cc1
REMARK SMILES IDX 16 1 15 2 14 3 12 4 13 5 6 7 7 8 4 9 5 10 3 11 2 12 1 13
REMARK SMILES IDX 8 14 9 15 10 17 11 18 17 21 18 22 19 23 20 25 21 26 22 27
REMARK SMILES IDX 86 28 23 29 85 30 24 31 25 32 26 33 79 34 27 35 84 36 78 37
REMARK SMILES IDX 80 38 28 39 83 40 77 41 76 42 29 44 63 45 42 46 62 47 43 48
REMARK SMILES IDX 46 49 61 50 81 51 44 52 45 53 60 55 82 56 47 57 30 58 31 59
REMARK SMILES IDX 40 60 32 61 33 62 39 63 41 64 34 65 35 66 36 67 37 68 38 69
REMARK SMILES IDX 64 70 65 71 74 72 66 73 67 74 73 75 75 76 68 77 69 78 70 79
REMARK SMILES IDX 71 80 72 81 48 82 49 83 58 84 50 85 51 86 57 87 59 88 52 89
REMARK SMILES IDX 53 90 54 91 55 92 56 93
REMARK H PARENT 14 6 8 16 10 19 10 20 18 24 80 43 46 54
REMARK Flexibility Score: inf
ROOT
ATOM      1  C   UNL A   1      35.054  33.804  29.481  1.00  0.00     0.042 C 
ENDROOT
BRANCH   1   2
ATOM      2  C   UNL A   1      35.452  32.902  30.635  1.00  0.00     0.118 C 
BRANCH   2   3
ATOM      3  N   UNL A   1      34.419  32.634  31.620  1.00  0.00    -0.352 N 
ATOM      4  C   UNL A   1      34.119  33.271  32.795  1.00  0.00     0.256 C 
ATOM      5  O   UNL A   1      33.054  32.986  33.343  1.00  0.00    -0.269 OA
ATOM      6  H   UNL A   1      33.836  31.869  31.408  1.00  0.00     0.163 HD
BRANCH   4   7
ATOM      7  C   UNL A   1      35.053  34.262  33.419  1.00  0.00     0.098 C 
ATOM      8  C   UNL A   1      35.178  35.540  33.017  1.00  0.00     0.105 C 
BRANCH   7   9
ATOM      9  C   UNL A   1      35.920  33.769  34.558  1.00  0.00     0.169 C 
ATOM     10  O   UNL A   1      35.548  33.902  35.726  1.00  0.00    -0.294 OA
BRANCH   9  11
ATOM     11  C   UNL A   1      37.231  33.033  34.297  1.00  0.00     0.081 C 
BRANCH  11  12
ATOM     12  C   UNL A   1      38.451  33.946  34.422  1.00  0.00     0.005 C 
ATOM     13  C   UNL A   1      38.924  34.553  33.110  1.00  0.00     0.004 C 
ENDBRANCH  11  12
ENDBRANCH   9  11
ENDBRANCH   7   9
BRANCH   8  14
ATOM     14  N   UNL A   1      34.534  36.155  31.969  1.00  0.00    -0.314 N 
ATOM     15  C   UNL A   1      33.628  37.167  32.193  1.00  0.00     0.316 C 
ATOM     16  H   UNL A   1      34.724  35.868  31.047  1.00  0.00     0.171 HD
ATOM     17  N   UNL A   1      33.452  37.974  31.116  1.00  0.00    -0.351 N 
ATOM     18  O   UNL A   1      33.110  37.425  33.265  1.00  0.00    -0.249 OA
ATOM     19  H   UNL A   1      33.879  37.749  30.258  1.00  0.00     0.161 HD
ATOM     20  H   UNL A   1      32.898  38.784  31.193  1.00  0.00     0.161 HD
ENDBRANCH   8  14
ENDBRANCH   4   7
ENDBRANCH   2   3
ENDBRANCH   1   2
BRANCH   1  21
ATOM     21  C   UNL A   1      35.352  33.248  28.093  1.00  0.00     0.118 C 
BRANCH  21  22
ATOM     22  N   UNL A   1      34.493  32.136  27.687  1.00  0.00    -0.352 N 
ATOM     23  C   UNL A   1      34.690  30.772  27.651  1.00  0.00     0.251 C 
ATOM     24  H   UNL A   1      33.600  32.416  27.380  1.00  0.00     0.163 HD
ATOM     25  O   UNL A   1      33.822  30.070  27.134  1.00  0.00    -0.269 OA
BRANCH  23  26
ATOM     26  C   UNL A   1      35.932  30.151  28.167  1.00  0.00     0.039 A 
ATOM     27  C   UNL A   1      37.102  30.213  27.400  1.00  0.00     0.014 A 
ATOM     28  C   UNL A   1      35.960  29.496  29.394  1.00  0.00     0.014 A 
ATOM     29  C   UNL A   1      38.310  29.732  27.923  1.00  0.00     0.010 A 
ATOM     30  C   UNL A   1      37.177  29.141  29.966  1.00  0.00     0.010 A 
ATOM     31  C   UNL A   1      38.371  29.252  29.240  1.00  0.00    -0.014 A 
BRANCH  31  32
ATOM     32  C   UNL A   1      39.644  28.833  29.890  1.00  0.00     0.031 A 
ATOM     33  C   UNL A   1      40.140  29.583  31.102  1.00  0.00     0.074 A 
ATOM     34  C   UNL A   1      40.406  27.865  29.339  1.00  0.00     0.049 A 
ATOM     35  N   UNL A   1      41.313  29.542  31.680  1.00  0.00    -0.248 NA
ATOM     36  C   UNL A   1      39.206  30.546  31.714  1.00  0.00     0.031 C 
ATOM     37  C   UNL A   1      40.068  27.090  28.141  1.00  0.00     0.029 A 
ATOM     38  N   UNL A   1      41.638  27.381  29.703  1.00  0.00    -0.354 N 
ATOM     39  C   UNL A   1      41.266  30.489  32.697  1.00  0.00     0.074 A 
ATOM     40  C   UNL A   1      39.976  31.137  32.616  1.00  0.00     0.031 C 
ATOM     41  C   UNL A   1      41.056  26.217  27.884  1.00  0.00     0.029 A 
ATOM     42  C   UNL A   1      42.121  26.402  28.863  1.00  0.00     0.049 A 
ATOM     43  H   UNL A   1      42.132  27.704  30.491  1.00  0.00     0.167 HD
ATOM     44  C   UNL A   1      42.196  30.771  33.640  1.00  0.00     0.037 A 
ATOM     45  C   UNL A   1      43.296  25.741  28.872  1.00  0.00     0.037 A 
ATOM     46  C   UNL A   1      43.453  30.083  33.758  1.00  0.00     0.049 A 
ATOM     47  C   UNL A   1      44.308  26.061  29.942  1.00  0.00     0.074 A 
ATOM     48  C   UNL A   1      44.454  30.270  34.696  1.00  0.00     0.029 A 
ATOM     49  N   UNL A   1      43.869  29.053  32.928  1.00  0.00    -0.354 N 
ATOM     50  N   UNL A   1      44.236  26.949  30.904  1.00  0.00    -0.248 NA
ATOM     51  C   UNL A   1      45.557  25.287  29.931  1.00  0.00     0.031 C 
ATOM     52  C   UNL A   1      45.482  29.362  34.424  1.00  0.00     0.029 A 
ATOM     53  C   UNL A   1      45.106  28.587  33.340  1.00  0.00     0.049 A 
ATOM     54  H   UNL A   1      43.360  28.705  32.160  1.00  0.00     0.167 HD
ATOM     55  C   UNL A   1      45.410  26.811  31.636  1.00  0.00     0.074 A 
ATOM     56  C   UNL A   1      46.173  25.752  31.009  1.00  0.00     0.031 C 
ATOM     57  C   UNL A   1      45.824  27.500  32.727  1.00  0.00     0.037 A 
BRANCH  44  58
ATOM     58  C   UNL A   1      41.873  31.840  34.646  1.00  0.00     0.058 A 
ATOM     59  C   UNL A   1      41.190  31.536  35.836  1.00  0.00     0.135 A 
ATOM     60  C   UNL A   1      42.289  33.167  34.451  1.00  0.00     0.135 A 
ATOM     61  F   UNL A   1      40.752  30.288  36.063  1.00  0.00    -0.206 F 
ATOM     62  C   UNL A   1      40.912  32.513  36.785  1.00  0.00     0.059 A 
ATOM     63  C   UNL A   1      42.046  34.156  35.401  1.00  0.00     0.059 A 
ATOM     64  F   UNL A   1      42.943  33.513  33.331  1.00  0.00    -0.206 F 
ATOM     65  C   UNL A   1      41.347  33.820  36.560  1.00  0.00     0.060 A 
BRANCH  65  66
ATOM     66  S   UNL A   1      41.000  35.067  37.818  1.00  0.00     0.124 S 
ATOM     67  O   UNL A   1      40.483  34.244  38.907  1.00  0.00    -0.237 OA
ATOM     68  O   UNL A   1      42.316  35.659  38.041  1.00  0.00    -0.237 OA
ATOM     69  O   UNL A   1      40.024  35.939  37.173  1.00  0.00    -0.744 OA
ENDBRANCH  65  66
ENDBRANCH  44  58
BRANCH  45  70
ATOM     70  C   UNL A   1      43.588  24.698  27.851  1.00  0.00     0.058 A 
ATOM     71  C   UNL A   1      43.154  23.375  28.030  1.00  0.00     0.135 A 
ATOM     72  C   UNL A   1      44.341  24.986  26.702  1.00  0.00     0.135 A 
ATOM     73  F   UNL A   1      42.433  23.049  29.114  1.00  0.00    -0.206 F 
ATOM     74  C   UNL A   1      43.491  22.367  27.133  1.00  0.00     0.059 A 
ATOM     75  C   UNL A   1      44.666  24.000  25.775  1.00  0.00     0.059 A 
ATOM     76  F   UNL A   1      44.761  26.239  26.469  1.00  0.00    -0.206 F 
ATOM     77  C   UNL A   1      44.257  22.688  26.012  1.00  0.00     0.060 A 
BRANCH  77  78
ATOM     78  S   UNL A   1      44.696  21.373  24.855  1.00  0.00     0.124 S 
ATOM     79  O   UNL A   1      46.060  21.064  25.270  1.00  0.00    -0.237 OA
ATOM     80  O   UNL A   1      43.692  20.355  25.147  1.00  0.00    -0.237 OA
ATOM     81  O   UNL A   1      44.563  22.018  23.552  1.00  0.00    -0.744 OA
ENDBRANCH  77  78
ENDBRANCH  45  70
BRANCH  57  82
ATOM     82  C   UNL A   1      47.120  27.085  33.362  1.00  0.00     0.058 A 
ATOM     83  C   UNL A   1      47.175  26.087  34.345  1.00  0.00     0.135 A 
ATOM     84  C   UNL A   1      48.331  27.645  32.921  1.00  0.00     0.135 A 
ATOM     85  F   UNL A   1      46.045  25.526  34.802  1.00  0.00    -0.206 F 
ATOM     86  C   UNL A   1      48.387  25.668  34.884  1.00  0.00     0.059 A 
ATOM     87  C   UNL A   1      49.555  27.223  33.427  1.00  0.00     0.059 A 
ATOM     88  F   UNL A   1      48.330  28.597  31.973  1.00  0.00    -0.206 F 
ATOM     89  C   UNL A   1      49.573  26.239  34.414  1.00  0.00     0.060 A 
BRANCH  89  90
ATOM     90  S   UNL A   1      51.141  25.648  35.082  1.00  0.00     0.124 S 
ATOM     91  O   UNL A   1      50.807  25.452  36.488  1.00  0.00    -0.237 OA
ATOM     92  O   UNL A   1      51.372  24.431  34.309  1.00  0.00    -0.237 OA
ATOM     93  O   UNL A   1      52.064  26.744  34.802  1.00  0.00    -0.744 OA
ENDBRANCH  89  90
ENDBRANCH  57  82
ENDBRANCH  31  32
ENDBRANCH  23  26
ENDBRANCH  21  22
ENDBRANCH   1  21
TORSDOF 17
ENDMDL
MODEL 2
REMARK VINA RESULT:     -10.1      3.334     11.861
REMARK SMILES CCCC(=O)/C(=C/NC(N)=O)C(=O)NCCCNC(=O)c1ccc(-c2c3nc(c(-c4c(F)cc(S(=O)(=O)[O-])cc4F)c4ccc([nH]4)c(-c4c(F)cc(S(=O)(=O)[O-])cc4F)c4nc(c(-c5c(F)cc(S(=O)(=O)[O-])cc5F)c5ccc2[nH]5)C=C4)C=C3)cc1
REMARK SMILES IDX 16 1 15 2 14 3 12 4 13 5 6 7 7 8 4 9 5 10 3 11 2 12 1 13
REMARK SMILES IDX 8 14 9 15 10 17 11 18 17 21 18 22 19 23 20 25 21 26 22 27
REMARK SMILES IDX 86 28 23 29 85 30 24 31 25 32 26 33 79 34 27 35 84 36 78 37
REMARK SMILES IDX 80 38 28 39 83 40 77 41 76 42 29 44 63 45 42 46 62 47 43 48
REMARK SMILES IDX 46 49 61 50 81 51 44 52 45 53 60 55 82 56 47 57 30 58 31 59
REMARK SMILES IDX 40 60 32 61 33 62 39 63 41 64 34 65 35 66 36 67 37 68 38 69
REMARK SMILES IDX 64 70 65 71 74 72 66 73 67 74 73 75 75 76 68 77 69 78 70 79
REMARK SMILES IDX 71 80 72 81 48 82 49 83 58 84 50 85 51 86 57 87 59 88 52 89
REMARK SMILES IDX 53 90 54 91 55 92 56 93
REMARK H PARENT 14 6 8 16 10 19 10 20 18 24 80 43 46 54
REMARK Flexibility Score: inf
ROOT
ATOM      1  C   UNL A   1      41.407  21.222  26.052  1.00  0.00     0.042 C 
ENDROOT
BRANCH   1   2
ATOM      2  C   UNL A   1      42.208  22.505  25.917  1.00  0.00     0.118 C 
BRANCH   2   3
ATOM      3  N   UNL A   1      42.828  22.736  24.624  1.00  0.00    -0.352 N 
ATOM      4  C   UNL A   1      44.132  22.606  24.224  1.00  0.00     0.256 C 
ATOM      5  O   UNL A   1      44.364  22.650  23.016  1.00  0.00    -0.269 OA
ATOM      6  H   UNL A   1      42.209  23.033  23.918  1.00  0.00     0.163 HD
BRANCH   4   7
ATOM      7  C   UNL A   1      45.250  22.441  25.206  1.00  0.00     0.098 C 
ATOM      8  C   UNL A   1      46.191  21.483  25.127  1.00  0.00     0.105 C 
BRANCH   7   9
ATOM      9  C   UNL A   1      45.293  23.409  26.369  1.00  0.00     0.169 C 
ATOM     10  O   UNL A   1      45.069  24.609  26.189  1.00  0.00    -0.294 OA
BRANCH   9  11
ATOM     11  C   UNL A   1      45.536  22.927  27.797  1.00  0.00     0.081 C 
BRANCH  11  12
ATOM     12  C   UNL A   1      44.676  23.668  28.820  1.00  0.00     0.005 C 
ATOM     13  C   UNL A   1      43.468  22.887  29.317  1.00  0.00     0.004 C 
ENDBRANCH  11  12
ENDBRANCH   9  11
ENDBRANCH   7   9
BRANCH   8  14
ATOM     14  N   UNL A   1      46.287  20.478  24.194  1.00  0.00    -0.314 N 
ATOM     15  C   UNL A   1      45.379  19.444  24.173  1.00  0.00     0.316 C 
ATOM     16  H   UNL A   1      47.016  20.498  23.533  1.00  0.00     0.171 HD
ATOM     17  N   UNL A   1      45.300  18.827  22.966  1.00  0.00    -0.351 N 
ATOM     18  O   UNL A   1      44.615  19.157  25.078  1.00  0.00    -0.249 OA
ATOM     19  H   UNL A   1      45.926  19.072  22.247  1.00  0.00     0.161 HD
ATOM     20  H   UNL A   1      44.617  18.135  22.811  1.00  0.00     0.161 HD
ENDBRANCH   8  14
ENDBRANCH   4   7
ENDBRANCH   2   3
ENDBRANCH   1   2
BRANCH   1  21
ATOM     21  C   UNL A   1      40.042  21.379  26.712  1.00  0.00     0.118 C 
BRANCH  21  22
ATOM     22  N   UNL A   1      39.040  22.050  25.885  1.00  0.00    -0.352 N 
ATOM     23  C   UNL A   1      38.583  23.350  25.847  1.00  0.00     0.251 C 
ATOM     24  H   UNL A   1      38.609  21.459  25.227  1.00  0.00     0.163 HD
ATOM     25  O   UNL A   1      37.625  23.612  25.122  1.00  0.00    -0.269 OA
BRANCH  23  26
ATOM     26  C   UNL A   1      39.181  24.411  26.692  1.00  0.00     0.039 A 
ATOM     27  C   UNL A   1      40.044  25.348  26.111  1.00  0.00     0.014 A 
ATOM     28  C   UNL A   1      38.912  24.492  28.054  1.00  0.00     0.014 A 
ATOM     29  C   UNL A   1      40.526  26.424  26.869  1.00  0.00     0.010 A 
ATOM     30  C   UNL A   1      39.279  25.625  28.771  1.00  0.00     0.010 A 
ATOM     31  C   UNL A   1      40.093  26.609  28.190  1.00  0.00    -0.014 A 
BRANCH  31  32
ATOM     32  C   UNL A   1      40.480  27.791  29.010  1.00  0.00     0.031 A 
ATOM     33  C   UNL A   1      41.775  27.765  29.784  1.00  0.00     0.074 A 
ATOM     34  C   UNL A   1      39.632  28.831  29.151  1.00  0.00     0.049 A 
ATOM     35  N   UNL A   1      42.194  28.570  30.726  1.00  0.00    -0.248 NA
ATOM     36  C   UNL A   1      42.700  26.654  29.493  1.00  0.00     0.031 C 
ATOM     37  C   UNL A   1      38.327  28.964  28.496  1.00  0.00     0.029 A 
ATOM     38  N   UNL A   1      39.731  29.970  29.913  1.00  0.00    -0.354 N 
ATOM     39  C   UNL A   1      43.408  28.046  31.158  1.00  0.00     0.074 A 
ATOM     40  C   UNL A   1      43.627  26.820  30.424  1.00  0.00     0.031 C 
ATOM     41  C   UNL A   1      37.761  30.125  28.867  1.00  0.00     0.029 A 
ATOM     42  C   UNL A   1      38.633  30.796  29.825  1.00  0.00     0.049 A 
ATOM     43  H   UNL A   1      40.515  30.176  30.472  1.00  0.00     0.167 HD
ATOM     44  C   UNL A   1      44.283  28.557  32.056  1.00  0.00     0.037 A 
ATOM     45  C   UNL A   1      38.354  31.953  30.457  1.00  0.00     0.037 A 
ATOM     46  C   UNL A   1      44.094  29.809  32.738  1.00  0.00     0.049 A 
ATOM     47  C   UNL A   1      39.352  32.510  31.440  1.00  0.00     0.074 A 
ATOM     48  C   UNL A   1      44.934  30.433  33.645  1.00  0.00     0.029 A 
ATOM     49  N   UNL A   1      43.000  30.644  32.566  1.00  0.00    -0.354 N 
ATOM     50  N   UNL A   1      40.502  32.006  31.820  1.00  0.00    -0.248 NA
ATOM     51  C   UNL A   1      39.018  33.792  32.075  1.00  0.00     0.031 C 
ATOM     52  C   UNL A   1      44.341  31.638  34.032  1.00  0.00     0.029 A 
ATOM     53  C   UNL A   1      43.150  31.781  33.340  1.00  0.00     0.049 A 
ATOM     54  H   UNL A   1      42.232  30.454  31.980  1.00  0.00     0.167 HD
ATOM     55  C   UNL A   1      41.045  32.930  32.706  1.00  0.00     0.074 A 
ATOM     56  C   UNL A   1      40.103  34.025  32.801  1.00  0.00     0.031 C 
ATOM     57  C   UNL A   1      42.218  32.878  33.382  1.00  0.00     0.037 A 
BRANCH  44  58
ATOM     58  C   UNL A   1      45.547  27.787  32.321  1.00  0.00     0.058 A 
ATOM     59  C   UNL A   1      46.713  28.024  31.574  1.00  0.00     0.135 A 
ATOM     60  C   UNL A   1      45.614  26.841  33.356  1.00  0.00     0.135 A 
ATOM     61  F   UNL A   1      46.699  28.903  30.560  1.00  0.00    -0.206 F 
ATOM     62  C   UNL A   1      47.893  27.336  31.831  1.00  0.00     0.059 A 
ATOM     63  C   UNL A   1      46.793  26.161  33.649  1.00  0.00     0.059 A 
ATOM     64  F   UNL A   1      44.528  26.573  34.099  1.00  0.00    -0.206 F 
ATOM     65  C   UNL A   1      47.925  26.409  32.873  1.00  0.00     0.060 A 
BRANCH  65  66
ATOM     66  S   UNL A   1      49.475  25.547  33.208  1.00  0.00     0.124 S 
ATOM     67  O   UNL A   1      49.900  25.182  31.860  1.00  0.00    -0.237 OA
ATOM     68  O   UNL A   1      50.270  26.580  33.865  1.00  0.00    -0.237 OA
ATOM     69  O   UNL A   1      49.069  24.435  34.061  1.00  0.00    -0.744 OA
ENDBRANCH  65  66
ENDBRANCH  44  58
BRANCH  45  70
ATOM     70  C   UNL A   1      37.086  32.682  30.182  1.00  0.00     0.058 A 
ATOM     71  C   UNL A   1      37.023  33.658  29.175  1.00  0.00     0.135 A 
ATOM     72  C   UNL A   1      35.927  32.455  30.941  1.00  0.00     0.135 A 
ATOM     73  F   UNL A   1      38.105  33.914  28.422  1.00  0.00    -0.206 F 
ATOM     74  C   UNL A   1      35.875  34.413  28.958  1.00  0.00     0.059 A 
ATOM     75  C   UNL A   1      34.757  33.178  30.724  1.00  0.00     0.059 A 
ATOM     76  F   UNL A   1      35.925  31.517  31.900  1.00  0.00    -0.206 F 
ATOM     77  C   UNL A   1      34.749  34.171  29.746  1.00  0.00     0.060 A 
BRANCH  77  78
ATOM     78  S   UNL A   1      33.264  35.160  29.465  1.00  0.00     0.124 S 
ATOM     79  O   UNL A   1      33.837  36.424  29.018  1.00  0.00    -0.237 OA
ATOM     80  O   UNL A   1      32.561  34.382  28.450  1.00  0.00    -0.237 OA
ATOM     81  O   UNL A   1      32.627  35.184  30.779  1.00  0.00    -0.744 OA
ENDBRANCH  77  78
ENDBRANCH  45  70
BRANCH  57  82
ATOM     82  C   UNL A   1      42.589  34.065  34.225  1.00  0.00     0.058 A 
ATOM     83  C   UNL A   1      42.264  34.134  35.587  1.00  0.00     0.135 A 
ATOM     84  C   UNL A   1      43.346  35.112  33.672  1.00  0.00     0.135 A 
ATOM     85  F   UNL A   1      41.538  33.162  36.159  1.00  0.00    -0.206 F 
ATOM     86  C   UNL A   1      42.664  35.211  36.371  1.00  0.00     0.059 A 
ATOM     87  C   UNL A   1      43.778  36.184  34.443  1.00  0.00     0.059 A 
ATOM     88  F   UNL A   1      43.690  35.085  32.374  1.00  0.00    -0.206 F 
ATOM     89  C   UNL A   1      43.425  36.229  35.791  1.00  0.00     0.060 A 
BRANCH  89  90
ATOM     90  S   UNL A   1      43.984  37.592  36.834  1.00  0.00     0.124 S 
ATOM     91  O   UNL A   1      42.981  37.583  37.892  1.00  0.00    -0.237 OA
ATOM     92  O   UNL A   1      45.322  37.160  37.224  1.00  0.00    -0.237 OA
ATOM     93  O   UNL A   1      43.941  38.744  35.937  1.00  0.00    -0.744 OA
ENDBRANCH  89  90
ENDBRANCH  57  82
ENDBRANCH  31  32
ENDBRANCH  23  26
ENDBRANCH  21  22
ENDBRANCH   1  21
TORSDOF 17
ENDMDL
MODEL 3
REMARK VINA RESULT:     -10.1      5.029     11.823
REMARK SMILES CCCC(=O)/C(=C/NC(N)=O)C(=O)NCCCNC(=O)c1ccc(-c2c3nc(c(-c4c(F)cc(S(=O)(=O)[O-])cc4F)c4ccc([nH]4)c(-c4c(F)cc(S(=O)(=O)[O-])cc4F)c4nc(c(-c5c(F)cc(S(=O)(=O)[O-])cc5F)c5ccc2[nH]5)C=C4)C=C3)cc1
REMARK SMILES IDX 16 1 15 2 14 3 12 4 13 5 6 7 7 8 4 9 5 10 3 11 2 12 1 13
REMARK SMILES IDX 8 14 9 15 10 17 11 18 17 21 18 22 19 23 20 25 21 26 22 27
REMARK SMILES IDX 86 28 23 29 85 30 24 31 25 32 26 33 79 34 27 35 84 36 78 37
REMARK SMILES IDX 80 38 28 39 83 40 77 41 76 42 29 44 63 45 42 46 62 47 43 48
REMARK SMILES IDX 46 49 61 50 81 51 44 52 45 53 60 55 82 56 47 57 30 58 31 59
REMARK SMILES IDX 40 60 32 61 33 62 39 63 41 64 34 65 35 66 36 67 37 68 38 69
REMARK SMILES IDX 64 70 65 71 74 72 66 73 67 74 73 75 75 76 68 77 69 78 70 79
REMARK SMILES IDX 71 80 72 81 48 82 49 83 58 84 50 85 51 86 57 87 59 88 52 89
REMARK SMILES IDX 53 90 54 91 55 92 56 93
REMARK H PARENT 14 6 8 16 10 19 10 20 18 24 80 43 46 54
REMARK Flexibility Score: inf
ROOT
ATOM      1  C   UNL A   1      37.449  23.545  25.246  1.00  0.00     0.042 C 
ENDROOT
BRANCH   1   2
ATOM      2  C   UNL A   1      36.368  22.480  25.297  1.00  0.00     0.118 C 
BRANCH   2   3
ATOM      3  N   UNL A   1      35.592  22.419  26.524  1.00  0.00    -0.352 N 
ATOM      4  C   UNL A   1      34.337  21.924  26.762  1.00  0.00     0.256 C 
ATOM      5  O   UNL A   1      33.991  21.789  27.936  1.00  0.00    -0.269 OA
ATOM      6  H   UNL A   1      36.044  22.793  27.315  1.00  0.00     0.163 HD
BRANCH   4   7
ATOM      7  C   UNL A   1      33.398  21.577  25.649  1.00  0.00     0.098 C 
ATOM      8  C   UNL A   1      32.946  20.335  25.400  1.00  0.00     0.105 C 
BRANCH   7   9
ATOM      9  C   UNL A   1      32.960  22.707  24.741  1.00  0.00     0.169 C 
ATOM     10  O   UNL A   1      33.794  23.345  24.094  1.00  0.00    -0.294 OA
BRANCH   9  11
ATOM     11  C   UNL A   1      31.484  23.040  24.543  1.00  0.00     0.081 C 
BRANCH  11  12
ATOM     12  C   UNL A   1      30.959  24.025  25.588  1.00  0.00     0.005 C 
ATOM     13  C   UNL A   1      30.208  23.381  26.744  1.00  0.00     0.004 C 
ENDBRANCH  11  12
ENDBRANCH   9  11
ENDBRANCH   7   9
BRANCH   8  14
ATOM     14  N   UNL A   1      33.274  19.176  26.062  1.00  0.00    -0.314 N 
ATOM     15  C   UNL A   1      32.799  17.958  25.632  1.00  0.00     0.316 C 
ATOM     16  H   UNL A   1      33.856  19.218  26.855  1.00  0.00     0.171 HD
ATOM     17  N   UNL A   1      33.556  16.912  26.050  1.00  0.00    -0.351 N 
ATOM     18  O   UNL A   1      31.875  17.796  24.855  1.00  0.00    -0.249 OA
ATOM     19  H   UNL A   1      34.299  17.061  26.678  1.00  0.00     0.161 HD
ATOM     20  H   UNL A   1      33.362  16.003  25.724  1.00  0.00     0.161 HD
ENDBRANCH   8  14
ENDBRANCH   4   7
ENDBRANCH   2   3
ENDBRANCH   1   2
BRANCH   1  21
ATOM     21  C   UNL A   1      38.351  23.611  26.473  1.00  0.00     0.118 C 
BRANCH  21  22
ATOM     22  N   UNL A   1      39.782  23.619  26.175  1.00  0.00    -0.352 N 
ATOM     23  C   UNL A   1      40.802  24.477  26.529  1.00  0.00     0.251 C 
ATOM     24  H   UNL A   1      40.076  22.865  25.613  1.00  0.00     0.163 HD
ATOM     25  O   UNL A   1      41.910  24.309  26.024  1.00  0.00    -0.269 OA
BRANCH  23  26
ATOM     26  C   UNL A   1      40.578  25.613  27.453  1.00  0.00     0.039 A 
ATOM     27  C   UNL A   1      39.585  25.516  28.437  1.00  0.00     0.014 A 
ATOM     28  C   UNL A   1      41.326  26.783  27.361  1.00  0.00     0.014 A 
ATOM     29  C   UNL A   1      39.438  26.533  29.389  1.00  0.00     0.010 A 
ATOM     30  C   UNL A   1      41.271  27.727  28.379  1.00  0.00     0.010 A 
ATOM     31  C   UNL A   1      40.326  27.618  29.410  1.00  0.00    -0.014 A 
BRANCH  31  32
ATOM     32  C   UNL A   1      40.293  28.671  30.463  1.00  0.00     0.031 A 
ATOM     33  C   UNL A   1      41.201  28.550  31.662  1.00  0.00     0.074 A 
ATOM     34  C   UNL A   1      39.384  29.667  30.404  1.00  0.00     0.049 A 
ATOM     35  N   UNL A   1      41.178  29.213  32.790  1.00  0.00    -0.248 NA
ATOM     36  C   UNL A   1      42.242  27.508  31.604  1.00  0.00     0.031 C 
ATOM     37  C   UNL A   1      38.415  29.876  29.324  1.00  0.00     0.029 A 
ATOM     38  N   UNL A   1      39.109  30.681  31.289  1.00  0.00    -0.354 N 
ATOM     39  C   UNL A   1      42.174  28.648  33.580  1.00  0.00     0.074 A 
ATOM     40  C   UNL A   1      42.737  27.548  32.831  1.00  0.00     0.031 C 
ATOM     41  C   UNL A   1      37.671  30.960  29.599  1.00  0.00     0.029 A 
ATOM     42  C   UNL A   1      38.070  31.495  30.897  1.00  0.00     0.049 A 
ATOM     43  H   UNL A   1      39.609  30.814  32.126  1.00  0.00     0.167 HD
ATOM     44  C   UNL A   1      42.609  29.034  34.803  1.00  0.00     0.037 A 
ATOM     45  C   UNL A   1      37.494  32.542  31.520  1.00  0.00     0.037 A 
ATOM     46  C   UNL A   1      42.090  30.168  35.519  1.00  0.00     0.049 A 
ATOM     47  C   UNL A   1      38.008  32.961  32.873  1.00  0.00     0.074 A 
ATOM     48  C   UNL A   1      42.481  30.663  36.751  1.00  0.00     0.029 A 
ATOM     49  N   UNL A   1      41.086  31.003  35.053  1.00  0.00    -0.354 N 
ATOM     50  N   UNL A   1      38.962  32.424  33.595  1.00  0.00    -0.248 NA
ATOM     51  C   UNL A   1      37.371  34.131  33.495  1.00  0.00     0.031 C 
ATOM     52  C   UNL A   1      41.704  31.789  37.036  1.00  0.00     0.029 A 
ATOM     53  C   UNL A   1      40.853  32.015  35.967  1.00  0.00     0.049 A 
ATOM     54  H   UNL A   1      40.609  30.891  34.198  1.00  0.00     0.167 HD
ATOM     55  C   UNL A   1      39.067  33.215  34.734  1.00  0.00     0.074 A 
ATOM     56  C   UNL A   1      38.084  34.269  34.604  1.00  0.00     0.031 C 
ATOM     57  C   UNL A   1      39.900  33.081  35.794  1.00  0.00     0.037 A 
BRANCH  44  58
ATOM     58  C   UNL A   1      43.731  28.251  35.427  1.00  0.00     0.058 A 
ATOM     59  C   UNL A   1      43.473  27.180  36.299  1.00  0.00     0.135 A 
ATOM     60  C   UNL A   1      45.070  28.535  35.118  1.00  0.00     0.135 A 
ATOM     61  F   UNL A   1      42.212  26.879  36.644  1.00  0.00    -0.206 F 
ATOM     62  C   UNL A   1      44.503  26.433  36.858  1.00  0.00     0.059 A 
ATOM     63  C   UNL A   1      46.117  27.783  35.644  1.00  0.00     0.059 A 
ATOM     64  F   UNL A   1      45.374  29.550  34.292  1.00  0.00    -0.206 F 
ATOM     65  C   UNL A   1      45.822  26.739  36.522  1.00  0.00     0.060 A 
BRANCH  65  66
ATOM     66  S   UNL A   1      47.144  25.739  37.236  1.00  0.00     0.124 S 
ATOM     67  O   UNL A   1      46.816  24.414  36.721  1.00  0.00    -0.237 OA
ATOM     68  O   UNL A   1      48.341  26.358  36.675  1.00  0.00    -0.237 OA
ATOM     69  O   UNL A   1      46.965  25.916  38.674  1.00  0.00    -0.744 OA
ENDBRANCH  65  66
ENDBRANCH  44  58
BRANCH  45  70
ATOM     70  C   UNL A   1      36.375  33.285  30.879  1.00  0.00     0.058 A 
ATOM     71  C   UNL A   1      36.611  34.140  29.791  1.00  0.00     0.135 A 
ATOM     72  C   UNL A   1      35.060  33.194  31.362  1.00  0.00     0.135 A 
ATOM     73  F   UNL A   1      37.852  34.263  29.294  1.00  0.00    -0.206 F 
ATOM     74  C   UNL A   1      35.597  34.911  29.233  1.00  0.00     0.059 A 
ATOM     75  C   UNL A   1      34.022  33.934  30.802  1.00  0.00     0.059 A 
ATOM     76  F   UNL A   1      34.774  32.374  32.385  1.00  0.00    -0.206 F 
ATOM     77  C   UNL A   1      34.305  34.808  29.753  1.00  0.00     0.060 A 
BRANCH  77  78
ATOM     78  S   UNL A   1      32.995  35.817  29.028  1.00  0.00     0.124 S 
ATOM     79  O   UNL A   1      33.764  36.875  28.386  1.00  0.00    -0.237 OA
ATOM     80  O   UNL A   1      32.334  34.872  28.133  1.00  0.00    -0.237 OA
ATOM     81  O   UNL A   1      32.208  36.223  30.190  1.00  0.00    -0.744 OA
ENDBRANCH  77  78
ENDBRANCH  45  70
BRANCH  57  82
ATOM     82  C   UNL A   1      39.843  34.135  36.862  1.00  0.00     0.058 A 
ATOM     83  C   UNL A   1      40.479  35.375  36.711  1.00  0.00     0.135 A 
ATOM     84  C   UNL A   1      39.074  33.924  38.019  1.00  0.00     0.135 A 
ATOM     85  F   UNL A   1      41.229  35.622  35.625  1.00  0.00    -0.206 F 
ATOM     86  C   UNL A   1      40.370  36.367  37.680  1.00  0.00     0.059 A 
ATOM     87  C   UNL A   1      38.931  34.910  38.988  1.00  0.00     0.059 A 
ATOM     88  F   UNL A   1      38.437  32.756  38.204  1.00  0.00    -0.206 F 
ATOM     89  C   UNL A   1      39.589  36.126  38.813  1.00  0.00     0.060 A 
BRANCH  89  90
ATOM     90  S   UNL A   1      39.411  37.442  40.036  1.00  0.00     0.124 S 
ATOM     91  O   UNL A   1      38.821  36.721  41.158  1.00  0.00    -0.237 OA
ATOM     92  O   UNL A   1      40.789  37.886  40.221  1.00  0.00    -0.237 OA
ATOM     93  O   UNL A   1      38.533  38.403  39.374  1.00  0.00    -0.744 OA
ENDBRANCH  89  90
ENDBRANCH  57  82
ENDBRANCH  31  32
ENDBRANCH  23  26
ENDBRANCH  21  22
ENDBRANCH   1  21
TORSDOF 17
ENDMDL
