MODEL 1
REMARK VINA RESULT:     -12.9      0.000      0.000
REMARK SMILES O=C(NCCCNC(=O)c1ccc(-c2c3nc(c(-c4c(F)cc(S(=O)(=O)[O-])cc4F)c4ccc([nH]4)c(-c4c(F)cc(S(=O)(=O)[O-])cc4F)c4nc(c(-c5c(F)cc(S(=O)(=O)[O-])cc5F)c5ccc2[nH]5)C=C4)C=C3)cc1)C1=CN(c2ccccc2)C[NH2+][C@H]1c1ccc(NC(=S)NC(=O)c2cc3ccccc3o2)cc1
REMARK SMILES IDX 4 1 3 2 1 3 2 4 76 6 77 7 87 8 78 9 86 10 85 11 88 14 89 15
REMARK SMILES IDX 108 16 90 17 107 18 91 19 92 20 93 22 94 23 95 24 96 25
REMARK SMILES IDX 97 27 98 28 99 29 106 30 100 31 105 32 101 33 104 34 102 35
REMARK SMILES IDX 103 36 79 37 80 38 84 39 81 40 83 41 82 42 5 43 6 44 7 45
REMARK SMILES IDX 8 46 9 48 10 49 11 50 75 51 12 52 74 53 13 54 14 55 15 56
REMARK SMILES IDX 68 57 16 58 73 59 67 60 69 61 17 62 72 63 66 64 65 65 18 67
REMARK SMILES IDX 52 68 31 69 51 70 32 71 35 72 50 73 70 74 33 75 34 76 49 78
REMARK SMILES IDX 71 79 36 80 19 81 20 82 29 83 21 84 22 85 28 86 30 87 23 88
REMARK SMILES IDX 24 89 25 90 26 91 27 92 53 93 54 94 63 95 55 96 56 97 62 98
REMARK SMILES IDX 64 99 57 100 58 101 59 102 60 103 61 104 37 105 38 106
REMARK SMILES IDX 47 107 39 108 40 109 46 110 48 111 41 112 42 113 43 114
REMARK SMILES IDX 44 115 45 116
REMARK H PARENT 3 5 86 12 86 13 92 21 95 26 7 47 69 66 35 77
REMARK Flexibility Score: inf
ROOT
ATOM      1  C   UNL A   1      44.561  37.802  31.386  1.00  0.00     0.118 C 
ENDROOT
BRANCH   1   2
ATOM      2  N   UNL A   1      44.623  37.651  29.929  1.00  0.00    -0.352 N 
ATOM      3  O   UNL A   1      44.088  37.955  27.775  1.00  0.00    -0.269 OA
ATOM      4  C   UNL A   1      44.009  38.351  28.935  1.00  0.00     0.255 C 
ATOM      5  H   UNL A   1      45.206  36.922  29.618  1.00  0.00     0.163 HD
BRANCH   4   6
ATOM      6  C   UNL A   1      43.230  39.555  29.287  1.00  0.00     0.095 C 
ATOM      7  C   UNL A   1      43.525  40.171  30.436  1.00  0.00     0.107 C 
ATOM      8  C   UNL A   1      42.105  39.977  28.395  1.00  0.00     0.253 C 
ATOM      9  N   UNL A   1      42.695  41.073  31.061  1.00  0.00    -0.300 N 
ATOM     10  N   UNL A   1      41.070  40.793  29.075  1.00  0.00    -0.319 N 
ATOM     11  C   UNL A   1      41.464  41.440  30.338  1.00  0.00     0.393 C 
ATOM     12  H   UNL A   1      40.781  41.528  28.428  1.00  0.00     0.348 HD
ATOM     13  H   UNL A   1      40.332  40.137  29.328  1.00  0.00     0.348 HD
BRANCH   8  14
ATOM     14  C   UNL A   1      42.542  40.658  27.081  1.00  0.00     0.014 A 
ATOM     15  C   UNL A   1      43.752  41.364  26.931  1.00  0.00     0.012 A 
ATOM     16  C   UNL A   1      41.658  40.640  25.986  1.00  0.00     0.012 A 
ATOM     17  C   UNL A   1      43.983  42.179  25.809  1.00  0.00     0.026 A 
ATOM     18  C   UNL A   1      41.883  41.453  24.873  1.00  0.00     0.026 A 
ATOM     19  C   UNL A   1      42.985  42.309  24.844  1.00  0.00     0.040 A 
BRANCH  19  20
ATOM     20  N   UNL A   1      42.997  43.293  23.844  1.00  0.00    -0.332 N 
ATOM     21  H   UNL A   1      42.743  44.197  24.138  1.00  0.00     0.169 HD
BRANCH  20  22
ATOM     22  C   UNL A   1      43.304  43.175  22.546  1.00  0.00     0.177 C 
ATOM     23  S   UNL A   1      44.910  42.915  22.128  1.00  0.00    -0.040 S 
BRANCH  22  24
ATOM     24  N   UNL A   1      42.389  43.066  21.524  1.00  0.00    -0.296 N 
ATOM     25  C   UNL A   1      41.997  43.439  20.219  1.00  0.00     0.293 C 
ATOM     26  H   UNL A   1      41.696  42.447  21.847  1.00  0.00     0.172 HD
ATOM     27  O   UNL A   1      40.773  43.316  20.051  1.00  0.00    -0.265 OA
BRANCH  25  28
ATOM     28  C   UNL A   1      42.838  43.861  19.119  1.00  0.00     0.193 A 
ATOM     29  C   UNL A   1      42.713  43.749  17.756  1.00  0.00     0.065 A 
ATOM     30  O   UNL A   1      43.604  45.006  19.332  1.00  0.00    -0.451 OA
ATOM     31  C   UNL A   1      42.603  45.095  17.340  1.00  0.00     0.021 A 
ATOM     32  C   UNL A   1      43.353  45.808  18.254  1.00  0.00     0.135 A 
ATOM     33  C   UNL A   1      41.913  45.787  16.343  1.00  0.00     0.012 A 
ATOM     34  C   UNL A   1      43.656  47.157  18.128  1.00  0.00     0.048 A 
ATOM     35  C   UNL A   1      42.081  47.173  16.270  1.00  0.00     0.001 A 
ATOM     36  C   UNL A   1      42.983  47.834  17.104  1.00  0.00     0.004 A 
ENDBRANCH  25  28
ENDBRANCH  22  24
ENDBRANCH  20  22
ENDBRANCH  19  20
ENDBRANCH   8  14
BRANCH   9  37
ATOM     37  C   UNL A   1      42.900  41.515  32.396  1.00  0.00     0.046 A 
ATOM     38  C   UNL A   1      43.767  40.823  33.273  1.00  0.00     0.026 A 
ATOM     39  C   UNL A   1      42.249  42.632  32.944  1.00  0.00     0.026 A 
ATOM     40  C   UNL A   1      43.961  41.204  34.607  1.00  0.00     0.002 A 
ATOM     41  C   UNL A   1      42.427  43.013  34.284  1.00  0.00     0.002 A 
ATOM     42  C   UNL A   1      43.281  42.299  35.116  1.00  0.00     0.000 A 
ENDBRANCH   9  37
ENDBRANCH   4   6
ENDBRANCH   1   2
BRANCH   1  43
ATOM     43  C   UNL A   1      45.913  38.101  31.997  1.00  0.00     0.042 C 
BRANCH  43  44
ATOM     44  C   UNL A   1      46.916  36.985  31.780  1.00  0.00     0.118 C 
BRANCH  44  45
ATOM     45  N   UNL A   1      47.866  37.295  30.716  1.00  0.00    -0.352 N 
ATOM     46  C   UNL A   1      48.327  36.507  29.691  1.00  0.00     0.251 C 
ATOM     47  H   UNL A   1      48.231  38.209  30.737  1.00  0.00     0.163 HD
ATOM     48  O   UNL A   1      49.303  36.862  29.036  1.00  0.00    -0.269 OA
BRANCH  46  49
ATOM     49  C   UNL A   1      47.654  35.227  29.403  1.00  0.00     0.039 A 
ATOM     50  C   UNL A   1      47.038  35.033  28.166  1.00  0.00     0.014 A 
ATOM     51  C   UNL A   1      47.659  34.206  30.356  1.00  0.00     0.014 A 
ATOM     52  C   UNL A   1      46.500  33.783  27.857  1.00  0.00     0.010 A 
ATOM     53  C   UNL A   1      47.236  32.936  30.002  1.00  0.00     0.010 A 
ATOM     54  C   UNL A   1      46.637  32.712  28.755  1.00  0.00    -0.014 A 
BRANCH  54  55
ATOM     55  C   UNL A   1      46.138  31.352  28.443  1.00  0.00     0.031 A 
ATOM     56  C   UNL A   1      44.701  31.009  28.735  1.00  0.00     0.074 A 
ATOM     57  C   UNL A   1      46.990  30.409  27.994  1.00  0.00     0.049 A 
ATOM     58  N   UNL A   1      44.101  29.849  28.682  1.00  0.00    -0.248 NA
ATOM     59  C   UNL A   1      43.834  32.111  29.188  1.00  0.00     0.031 C 
ATOM     60  C   UNL A   1      48.417  30.608  27.729  1.00  0.00     0.029 A 
ATOM     61  N   UNL A   1      46.781  29.087  27.696  1.00  0.00    -0.354 N 
ATOM     62  C   UNL A   1      42.803  30.076  29.123  1.00  0.00     0.074 A 
ATOM     63  C   UNL A   1      42.718  31.471  29.497  1.00  0.00     0.031 C 
ATOM     64  C   UNL A   1      48.946  29.459  27.280  1.00  0.00     0.029 A 
ATOM     65  C   UNL A   1      47.911  28.432  27.267  1.00  0.00     0.049 A 
ATOM     66  H   UNL A   1      45.903  28.649  27.782  1.00  0.00     0.167 HD
ATOM     67  C   UNL A   1      41.766  29.210  29.183  1.00  0.00     0.037 A 
ATOM     68  C   UNL A   1      48.089  27.145  26.911  1.00  0.00     0.037 A 
ATOM     69  C   UNL A   1      41.845  27.838  28.758  1.00  0.00     0.049 A 
ATOM     70  C   UNL A   1      46.915  26.207  26.960  1.00  0.00     0.074 A 
ATOM     71  C   UNL A   1      40.839  26.891  28.715  1.00  0.00     0.029 A 
ATOM     72  N   UNL A   1      42.996  27.225  28.287  1.00  0.00    -0.354 N 
ATOM     73  N   UNL A   1      45.682  26.449  27.337  1.00  0.00    -0.248 NA
ATOM     74  C   UNL A   1      47.154  24.821  26.535  1.00  0.00     0.031 C 
ATOM     75  C   UNL A   1      41.389  25.694  28.243  1.00  0.00     0.029 A 
ATOM     76  C   UNL A   1      42.728  25.908  27.958  1.00  0.00     0.049 A 
ATOM     77  H   UNL A   1      43.875  27.663  28.201  1.00  0.00     0.167 HD
ATOM     78  C   UNL A   1      44.992  25.255  27.171  1.00  0.00     0.074 A 
ATOM     79  C   UNL A   1      45.943  24.293  26.650  1.00  0.00     0.031 C 
ATOM     80  C   UNL A   1      43.691  24.976  27.427  1.00  0.00     0.037 A 
BRANCH  67  81
ATOM     81  C   UNL A   1      40.456  29.730  29.705  1.00  0.00     0.058 A 
ATOM     82  C   UNL A   1      40.259  29.983  31.073  1.00  0.00     0.135 A 
ATOM     83  C   UNL A   1      39.389  29.993  28.830  1.00  0.00     0.135 A 
ATOM     84  F   UNL A   1      41.239  29.729  31.954  1.00  0.00    -0.206 F 
ATOM     85  C   UNL A   1      39.042  30.446  31.558  1.00  0.00     0.059 A 
ATOM     86  C   UNL A   1      38.170  30.484  29.292  1.00  0.00     0.059 A 
ATOM     87  F   UNL A   1      39.522  29.766  27.514  1.00  0.00    -0.206 F 
ATOM     88  C   UNL A   1      38.002  30.691  30.661  1.00  0.00     0.060 A 
BRANCH  88  89
ATOM     89  S   UNL A   1      36.428  31.295  31.307  1.00  0.00     0.124 S 
ATOM     90  O   UNL A   1      35.994  30.160  32.117  1.00  0.00    -0.237 OA
ATOM     91  O   UNL A   1      36.829  32.486  32.049  1.00  0.00    -0.237 OA
ATOM     92  O   UNL A   1      35.642  31.545  30.104  1.00  0.00    -0.744 OA
ENDBRANCH  88  89
ENDBRANCH  67  81
BRANCH  68  93
ATOM     93  C   UNL A   1      49.422  26.678  26.449  1.00  0.00     0.058 A 
ATOM     94  C   UNL A   1      50.340  26.124  27.354  1.00  0.00     0.135 A 
ATOM     95  C   UNL A   1      49.802  26.761  25.101  1.00  0.00     0.135 A 
ATOM     96  F   UNL A   1      50.023  26.027  28.654  1.00  0.00    -0.206 F 
ATOM     97  C   UNL A   1      51.594  25.687  26.944  1.00  0.00     0.059 A 
ATOM     98  C   UNL A   1      51.043  26.309  24.662  1.00  0.00     0.059 A 
ATOM     99  F   UNL A   1      48.951  27.264  24.192  1.00  0.00    -0.206 F 
ATOM    100  C   UNL A   1      51.937  25.784  25.594  1.00  0.00     0.060 A 
BRANCH 100 101
ATOM    101  S   UNL A   1      53.552  25.174  25.063  1.00  0.00     0.124 S 
ATOM    102  O   UNL A   1      54.442  25.840  26.007  1.00  0.00    -0.237 OA
ATOM    103  O   UNL A   1      53.408  23.731  25.231  1.00  0.00    -0.237 OA
ATOM    104  O   UNL A   1      53.642  25.629  23.679  1.00  0.00    -0.744 OA
ENDBRANCH 100 101
ENDBRANCH  68  93
BRANCH  80 105
ATOM    105  C   UNL A   1      43.209  23.589  27.116  1.00  0.00     0.058 A 
ATOM    106  C   UNL A   1      42.817  23.222  25.820  1.00  0.00     0.135 A 
ATOM    107  C   UNL A   1      43.205  22.600  28.112  1.00  0.00     0.135 A 
ATOM    108  F   UNL A   1      42.800  24.135  24.835  1.00  0.00    -0.206 F 
ATOM    109  C   UNL A   1      42.423  21.922  25.524  1.00  0.00     0.059 A 
ATOM    110  C   UNL A   1      42.834  21.289  27.834  1.00  0.00     0.059 A 
ATOM    111  F   UNL A   1      43.580  22.901  29.365  1.00  0.00    -0.206 F 
ATOM    112  C   UNL A   1      42.437  20.962  26.538  1.00  0.00     0.060 A 
BRANCH 112 113
ATOM    113  S   UNL A   1      41.967  19.267  26.131  1.00  0.00     0.124 S 
ATOM    114  O   UNL A   1      42.279  18.571  27.375  1.00  0.00    -0.237 OA
ATOM    115  O   UNL A   1      40.549  19.401  25.818  1.00  0.00    -0.237 OA
ATOM    116  O   UNL A   1      42.825  18.941  24.996  1.00  0.00    -0.744 OA
ENDBRANCH 112 113
ENDBRANCH  80 105
ENDBRANCH  54  55
ENDBRANCH  46  49
ENDBRANCH  44  45
ENDBRANCH  43  44
ENDBRANCH   1  43
TORSDOF 19
ENDMDL
MODEL 2
REMARK VINA RESULT:     -12.2      8.365     15.886
REMARK SMILES O=C(NCCCNC(=O)c1ccc(-c2c3nc(c(-c4c(F)cc(S(=O)(=O)[O-])cc4F)c4ccc([nH]4)c(-c4c(F)cc(S(=O)(=O)[O-])cc4F)c4nc(c(-c5c(F)cc(S(=O)(=O)[O-])cc5F)c5ccc2[nH]5)C=C4)C=C3)cc1)C1=CN(c2ccccc2)C[NH2+][C@H]1c1ccc(NC(=S)NC(=O)c2cc3ccccc3o2)cc1
REMARK SMILES IDX 4 1 3 2 1 3 2 4 76 6 77 7 87 8 78 9 86 10 85 11 88 14 89 15
REMARK SMILES IDX 108 16 90 17 107 18 91 19 92 20 93 22 94 23 95 24 96 25
REMARK SMILES IDX 97 27 98 28 99 29 106 30 100 31 105 32 101 33 104 34 102 35
REMARK SMILES IDX 103 36 79 37 80 38 84 39 81 40 83 41 82 42 5 43 6 44 7 45
REMARK SMILES IDX 8 46 9 48 10 49 11 50 75 51 12 52 74 53 13 54 14 55 15 56
REMARK SMILES IDX 68 57 16 58 73 59 67 60 69 61 17 62 72 63 66 64 65 65 18 67
REMARK SMILES IDX 52 68 31 69 51 70 32 71 35 72 50 73 70 74 33 75 34 76 49 78
REMARK SMILES IDX 71 79 36 80 19 81 20 82 29 83 21 84 22 85 28 86 30 87 23 88
REMARK SMILES IDX 24 89 25 90 26 91 27 92 53 93 54 94 63 95 55 96 56 97 62 98
REMARK SMILES IDX 64 99 57 100 58 101 59 102 60 103 61 104 37 105 38 106
REMARK SMILES IDX 47 107 39 108 40 109 46 110 48 111 41 112 42 113 43 114
REMARK SMILES IDX 44 115 45 116
REMARK H PARENT 3 5 86 12 86 13 92 21 95 26 7 47 69 66 35 77
REMARK Flexibility Score: inf
ROOT
ATOM      1  C   UNL A   1      44.037  27.382  25.356  1.00  0.00     0.118 C 
ENDROOT
BRANCH   1   2
ATOM      2  N   UNL A   1      45.256  27.493  24.549  1.00  0.00    -0.352 N 
ATOM      3  O   UNL A   1      47.403  27.230  23.963  1.00  0.00    -0.269 OA
ATOM      4  C   UNL A   1      46.463  26.874  24.670  1.00  0.00     0.255 C 
ATOM      5  H   UNL A   1      45.191  28.120  23.793  1.00  0.00     0.163 HD
BRANCH   4   6
ATOM      6  C   UNL A   1      46.620  25.807  25.679  1.00  0.00     0.095 C 
ATOM      7  C   UNL A   1      46.166  24.589  25.370  1.00  0.00     0.107 C 
ATOM      8  C   UNL A   1      47.194  26.154  27.017  1.00  0.00     0.253 C 
ATOM      9  N   UNL A   1      45.927  23.598  26.295  1.00  0.00    -0.300 N 
ATOM     10  N   UNL A   1      46.803  25.221  28.102  1.00  0.00    -0.319 N 
ATOM     11  C   UNL A   1      46.309  23.897  27.687  1.00  0.00     0.393 C 
ATOM     12  H   UNL A   1      47.620  25.075  28.694  1.00  0.00     0.348 HD
ATOM     13  H   UNL A   1      46.014  25.668  28.569  1.00  0.00     0.348 HD
BRANCH   8  14
ATOM     14  C   UNL A   1      48.722  26.371  27.027  1.00  0.00     0.014 A 
ATOM     15  C   UNL A   1      49.333  27.630  26.863  1.00  0.00     0.012 A 
ATOM     16  C   UNL A   1      49.562  25.248  27.137  1.00  0.00     0.012 A 
ATOM     17  C   UNL A   1      50.713  27.740  26.621  1.00  0.00     0.026 A 
ATOM     18  C   UNL A   1      50.933  25.354  26.891  1.00  0.00     0.026 A 
ATOM     19  C   UNL A   1      51.482  26.581  26.516  1.00  0.00     0.040 A 
BRANCH  19  20
ATOM     20  N   UNL A   1      52.791  26.562  26.011  1.00  0.00    -0.332 N 
ATOM     21  H   UNL A   1      53.422  27.176  26.452  1.00  0.00     0.169 HD
BRANCH  20  22
ATOM     22  C   UNL A   1      53.303  25.827  25.015  1.00  0.00     0.177 C 
ATOM     23  S   UNL A   1      53.938  24.317  25.385  1.00  0.00    -0.040 S 
BRANCH  22  24
ATOM     24  N   UNL A   1      53.190  26.124  23.676  1.00  0.00    -0.296 N 
ATOM     25  C   UNL A   1      52.498  26.809  22.652  1.00  0.00     0.293 C 
ATOM     26  H   UNL A   1      53.923  25.641  23.230  1.00  0.00     0.172 HD
ATOM     27  O   UNL A   1      52.657  26.270  21.546  1.00  0.00    -0.265 OA
BRANCH  25  28
ATOM     28  C   UNL A   1      51.727  28.029  22.757  1.00  0.00     0.193 A 
ATOM     29  C   UNL A   1      51.940  29.210  23.425  1.00  0.00     0.065 A 
ATOM     30  O   UNL A   1      50.941  28.359  21.654  1.00  0.00    -0.451 OA
ATOM     31  C   UNL A   1      52.067  30.146  22.373  1.00  0.00     0.021 A 
ATOM     32  C   UNL A   1      51.255  29.658  21.368  1.00  0.00     0.135 A 
ATOM     33  C   UNL A   1      52.815  31.301  22.138  1.00  0.00     0.012 A 
ATOM     34  C   UNL A   1      50.951  30.355  20.207  1.00  0.00     0.048 A 
ATOM     35  C   UNL A   1      52.643  31.958  20.917  1.00  0.00     0.001 A 
ATOM     36  C   UNL A   1      51.684  31.530  19.998  1.00  0.00     0.004 A 
ENDBRANCH  25  28
ENDBRANCH  22  24
ENDBRANCH  20  22
ENDBRANCH  19  20
ENDBRANCH   8  14
BRANCH   9  37
ATOM     37  C   UNL A   1      45.206  22.414  25.989  1.00  0.00     0.046 A 
ATOM     38  C   UNL A   1      45.827  21.323  25.337  1.00  0.00     0.026 A 
ATOM     39  C   UNL A   1      43.841  22.248  26.279  1.00  0.00     0.026 A 
ATOM     40  C   UNL A   1      45.137  20.157  24.982  1.00  0.00     0.002 A 
ATOM     41  C   UNL A   1      43.139  21.088  25.914  1.00  0.00     0.002 A 
ATOM     42  C   UNL A   1      43.785  20.044  25.264  1.00  0.00     0.000 A 
ENDBRANCH   9  37
ENDBRANCH   4   6
ENDBRANCH   1   2
BRANCH   1  43
ATOM     43  C   UNL A   1      43.238  26.139  25.032  1.00  0.00     0.042 C 
BRANCH  43  44
ATOM     44  C   UNL A   1      41.758  26.300  25.320  1.00  0.00     0.118 C 
BRANCH  44  45
ATOM     45  N   UNL A   1      41.132  25.042  25.717  1.00  0.00    -0.352 N 
ATOM     46  C   UNL A   1      40.767  24.595  26.962  1.00  0.00     0.251 C 
ATOM     47  H   UNL A   1      40.941  24.421  24.978  1.00  0.00     0.163 HD
ATOM     48  O   UNL A   1      40.474  23.415  27.128  1.00  0.00    -0.269 OA
BRANCH  46  49
ATOM     49  C   UNL A   1      40.757  25.539  28.096  1.00  0.00     0.039 A 
ATOM     50  C   UNL A   1      41.943  26.162  28.487  1.00  0.00     0.014 A 
ATOM     51  C   UNL A   1      39.559  25.825  28.754  1.00  0.00     0.014 A 
ATOM     52  C   UNL A   1      41.908  27.136  29.486  1.00  0.00     0.010 A 
ATOM     53  C   UNL A   1      39.507  26.875  29.657  1.00  0.00     0.010 A 
ATOM     54  C   UNL A   1      40.682  27.533  30.044  1.00  0.00    -0.014 A 
BRANCH  54  55
ATOM     55  C   UNL A   1      40.589  28.606  31.062  1.00  0.00     0.031 A 
ATOM     56  C   UNL A   1      41.483  28.553  32.273  1.00  0.00     0.074 A 
ATOM     57  C   UNL A   1      39.648  29.563  30.946  1.00  0.00     0.049 A 
ATOM     58  N   UNL A   1      41.463  29.297  33.347  1.00  0.00    -0.248 NA
ATOM     59  C   UNL A   1      42.507  27.494  32.297  1.00  0.00     0.031 C 
ATOM     60  C   UNL A   1      38.688  29.684  29.846  1.00  0.00     0.029 A 
ATOM     61  N   UNL A   1      39.333  30.610  31.775  1.00  0.00    -0.354 N 
ATOM     62  C   UNL A   1      42.445  28.777  34.183  1.00  0.00     0.074 A 
ATOM     63  C   UNL A   1      43.001  27.619  33.518  1.00  0.00     0.031 C 
ATOM     64  C   UNL A   1      37.913  30.761  30.054  1.00  0.00     0.029 A 
ATOM     65  C   UNL A   1      38.290  31.380  31.320  1.00  0.00     0.049 A 
ATOM     66  H   UNL A   1      39.811  30.792  32.616  1.00  0.00     0.167 HD
ATOM     67  C   UNL A   1      42.868  29.240  35.382  1.00  0.00     0.037 A 
ATOM     68  C   UNL A   1      37.701  32.460  31.868  1.00  0.00     0.037 A 
ATOM     69  C   UNL A   1      42.347  30.425  36.010  1.00  0.00     0.049 A 
ATOM     70  C   UNL A   1      38.206  32.973  33.188  1.00  0.00     0.074 A 
ATOM     71  C   UNL A   1      42.746  31.019  37.192  1.00  0.00     0.029 A 
ATOM     72  N   UNL A   1      41.321  31.203  35.495  1.00  0.00    -0.354 N 
ATOM     73  N   UNL A   1      39.166  32.496  33.945  1.00  0.00    -0.248 NA
ATOM     74  C   UNL A   1      37.550  34.170  33.731  1.00  0.00     0.031 C 
ATOM     75  C   UNL A   1      41.943  32.144  37.407  1.00  0.00     0.029 A 
ATOM     76  C   UNL A   1      41.068  32.269  36.339  1.00  0.00     0.049 A 
ATOM     77  H   UNL A   1      40.842  31.022  34.653  1.00  0.00     0.167 HD
ATOM     78  C   UNL A   1      39.246  33.347  35.039  1.00  0.00     0.074 A 
ATOM     79  C   UNL A   1      38.244  34.376  34.842  1.00  0.00     0.031 C 
ATOM     80  C   UNL A   1      40.073  33.286  36.111  1.00  0.00     0.037 A 
BRANCH  67  81
ATOM     81  C   UNL A   1      43.960  28.476  36.075  1.00  0.00     0.058 A 
ATOM     82  C   UNL A   1      43.676  27.376  36.901  1.00  0.00     0.135 A 
ATOM     83  C   UNL A   1      45.307  28.835  35.903  1.00  0.00     0.135 A 
ATOM     84  F   UNL A   1      42.404  27.004  37.117  1.00  0.00    -0.206 F 
ATOM     85  C   UNL A   1      44.684  26.680  37.558  1.00  0.00     0.059 A 
ATOM     86  C   UNL A   1      46.335  28.134  36.529  1.00  0.00     0.059 A 
ATOM     87  F   UNL A   1      45.634  29.880  35.128  1.00  0.00    -0.206 F 
ATOM     88  C   UNL A   1      46.011  27.068  37.368  1.00  0.00     0.060 A 
BRANCH  88  89
ATOM     89  S   UNL A   1      47.309  26.153  38.226  1.00  0.00     0.124 S 
ATOM     90  O   UNL A   1      46.866  26.254  39.613  1.00  0.00    -0.237 OA
ATOM     91  O   UNL A   1      47.209  24.827  37.625  1.00  0.00    -0.237 OA
ATOM     92  O   UNL A   1      48.521  26.896  37.898  1.00  0.00    -0.744 OA
ENDBRANCH  88  89
ENDBRANCH  67  81
BRANCH  68  93
ATOM     93  C   UNL A   1      36.591  33.145  31.156  1.00  0.00     0.058 A 
ATOM     94  C   UNL A   1      35.271  33.047  31.623  1.00  0.00     0.135 A 
ATOM     95  C   UNL A   1      36.822  33.920  30.009  1.00  0.00     0.135 A 
ATOM     96  F   UNL A   1      35.001  32.315  32.714  1.00  0.00    -0.206 F 
ATOM     97  C   UNL A   1      34.218  33.674  30.969  1.00  0.00     0.059 A 
ATOM     98  C   UNL A   1      35.787  34.576  29.350  1.00  0.00     0.059 A 
ATOM     99  F   UNL A   1      38.070  34.063  29.535  1.00  0.00    -0.206 F 
ATOM    100  C   UNL A   1      34.486  34.438  29.831  1.00  0.00     0.060 A 
BRANCH 100 101
ATOM    101  S   UNL A   1      33.117  35.285  29.012  1.00  0.00     0.124 S 
ATOM    102  O   UNL A   1      33.791  36.442  28.437  1.00  0.00    -0.237 OA
ATOM    103  O   UNL A   1      32.654  34.278  28.063  1.00  0.00    -0.237 OA
ATOM    104  O   UNL A   1      32.196  35.569  30.109  1.00  0.00    -0.744 OA
ENDBRANCH 100 101
ENDBRANCH  68  93
BRANCH  80 105
ATOM    105  C   UNL A   1      39.953  34.377  37.136  1.00  0.00     0.058 A 
ATOM    106  C   UNL A   1      40.630  35.597  36.991  1.00  0.00     0.135 A 
ATOM    107  C   UNL A   1      39.099  34.222  38.240  1.00  0.00     0.135 A 
ATOM    108  F   UNL A   1      41.462  35.789  35.955  1.00  0.00    -0.206 F 
ATOM    109  C   UNL A   1      40.476  36.624  37.915  1.00  0.00     0.059 A 
ATOM    110  C   UNL A   1      38.913  35.244  39.164  1.00  0.00     0.059 A 
ATOM    111  F   UNL A   1      38.424  33.076  38.416  1.00  0.00    -0.206 F 
ATOM    112  C   UNL A   1      39.613  36.439  38.997  1.00  0.00     0.060 A 
BRANCH 112 113
ATOM    113  S   UNL A   1      39.384  37.797  40.164  1.00  0.00     0.124 S 
ATOM    114  O   UNL A   1      40.667  38.485  40.068  1.00  0.00    -0.237 OA
ATOM    115  O   UNL A   1      38.240  38.506  39.601  1.00  0.00    -0.237 OA
ATOM    116  O   UNL A   1      39.129  37.116  41.430  1.00  0.00    -0.744 OA
ENDBRANCH 112 113
ENDBRANCH  80 105
ENDBRANCH  54  55
ENDBRANCH  46  49
ENDBRANCH  44  45
ENDBRANCH  43  44
ENDBRANCH   1  43
TORSDOF 19
ENDMDL
MODEL 3
REMARK VINA RESULT:     -12.2      5.146      9.245
REMARK SMILES O=C(NCCCNC(=O)c1ccc(-c2c3nc(c(-c4c(F)cc(S(=O)(=O)[O-])cc4F)c4ccc([nH]4)c(-c4c(F)cc(S(=O)(=O)[O-])cc4F)c4nc(c(-c5c(F)cc(S(=O)(=O)[O-])cc5F)c5ccc2[nH]5)C=C4)C=C3)cc1)C1=CN(c2ccccc2)C[NH2+][C@H]1c1ccc(NC(=S)NC(=O)c2cc3ccccc3o2)cc1
REMARK SMILES IDX 4 1 3 2 1 3 2 4 76 6 77 7 87 8 78 9 86 10 85 11 88 14 89 15
REMARK SMILES IDX 108 16 90 17 107 18 91 19 92 20 93 22 94 23 95 24 96 25
REMARK SMILES IDX 97 27 98 28 99 29 106 30 100 31 105 32 101 33 104 34 102 35
REMARK SMILES IDX 103 36 79 37 80 38 84 39 81 40 83 41 82 42 5 43 6 44 7 45
REMARK SMILES IDX 8 46 9 48 10 49 11 50 75 51 12 52 74 53 13 54 14 55 15 56
REMARK SMILES IDX 68 57 16 58 73 59 67 60 69 61 17 62 72 63 66 64 65 65 18 67
REMARK SMILES IDX 52 68 31 69 51 70 32 71 35 72 50 73 70 74 33 75 34 76 49 78
REMARK SMILES IDX 71 79 36 80 19 81 20 82 29 83 21 84 22 85 28 86 30 87 23 88
REMARK SMILES IDX 24 89 25 90 26 91 27 92 53 93 54 94 63 95 55 96 56 97 62 98
REMARK SMILES IDX 64 99 57 100 58 101 59 102 60 103 61 104 37 105 38 106
REMARK SMILES IDX 47 107 39 108 40 109 46 110 48 111 41 112 42 113 43 114
REMARK SMILES IDX 44 115 45 116
REMARK H PARENT 3 5 86 12 86 13 92 21 95 26 7 47 69 66 35 77
REMARK Flexibility Score: inf
ROOT
ATOM      1  C   UNL A   1      45.422  37.089  32.970  1.00  0.00     0.118 C 
ENDROOT
BRANCH   1   2
ATOM      2  N   UNL A   1      46.045  35.793  33.251  1.00  0.00    -0.352 N 
ATOM      3  O   UNL A   1      46.217  33.577  33.535  1.00  0.00    -0.269 OA
ATOM      4  C   UNL A   1      45.574  34.525  33.090  1.00  0.00     0.255 C 
ATOM      5  H   UNL A   1      46.957  35.848  33.618  1.00  0.00     0.163 HD
BRANCH   4   6
ATOM      6  C   UNL A   1      44.278  34.326  32.412  1.00  0.00     0.095 C 
ATOM      7  C   UNL A   1      44.169  34.744  31.148  1.00  0.00     0.107 C 
ATOM      8  C   UNL A   1      43.134  33.753  33.188  1.00  0.00     0.253 C 
ATOM      9  N   UNL A   1      42.969  34.944  30.503  1.00  0.00    -0.300 N 
ATOM     10  N   UNL A   1      41.800  34.106  32.647  1.00  0.00    -0.319 N 
ATOM     11  C   UNL A   1      41.755  34.560  31.247  1.00  0.00     0.393 C 
ATOM     12  H   UNL A   1      41.206  33.279  32.722  1.00  0.00     0.348 HD
ATOM     13  H   UNL A   1      41.487  34.904  33.198  1.00  0.00     0.348 HD
BRANCH   8  14
ATOM     14  C   UNL A   1      43.222  32.233  33.439  1.00  0.00     0.014 A 
ATOM     15  C   UNL A   1      42.753  31.605  34.610  1.00  0.00     0.012 A 
ATOM     16  C   UNL A   1      43.867  31.427  32.483  1.00  0.00     0.012 A 
ATOM     17  C   UNL A   1      43.087  30.272  34.903  1.00  0.00     0.026 A 
ATOM     18  C   UNL A   1      44.206  30.104  32.773  1.00  0.00     0.026 A 
ATOM     19  C   UNL A   1      43.918  29.569  34.030  1.00  0.00     0.040 A 
BRANCH  19  20
ATOM     20  N   UNL A   1      44.529  28.349  34.355  1.00  0.00    -0.332 N 
ATOM     21  H   UNL A   1      45.396  28.422  34.817  1.00  0.00     0.169 HD
BRANCH  20  22
ATOM     22  C   UNL A   1      44.102  27.101  34.125  1.00  0.00     0.177 C 
ATOM     23  S   UNL A   1      43.195  26.339  35.316  1.00  0.00    -0.040 S 
BRANCH  22  24
ATOM     24  N   UNL A   1      44.185  26.447  32.917  1.00  0.00    -0.296 N 
ATOM     25  C   UNL A   1      44.798  26.342  31.649  1.00  0.00     0.293 C 
ATOM     26  H   UNL A   1      43.517  25.725  32.955  1.00  0.00     0.172 HD
ATOM     27  O   UNL A   1      44.063  25.775  30.826  1.00  0.00    -0.265 OA
BRANCH  25  28
ATOM     28  C   UNL A   1      46.132  26.750  31.265  1.00  0.00     0.193 A 
ATOM     29  C   UNL A   1      46.600  27.740  30.435  1.00  0.00     0.065 A 
ATOM     30  O   UNL A   1      47.136  26.548  32.210  1.00  0.00    -0.451 OA
ATOM     31  C   UNL A   1      47.296  28.590  31.325  1.00  0.00     0.021 A 
ATOM     32  C   UNL A   1      47.781  27.749  32.307  1.00  0.00     0.135 A 
ATOM     33  C   UNL A   1      47.516  29.963  31.440  1.00  0.00     0.012 A 
ATOM     34  C   UNL A   1      48.669  28.143  33.299  1.00  0.00     0.048 A 
ATOM     35  C   UNL A   1      48.290  30.417  32.512  1.00  0.00     0.001 A 
ATOM     36  C   UNL A   1      48.906  29.520  33.385  1.00  0.00     0.004 A 
ENDBRANCH  25  28
ENDBRANCH  22  24
ENDBRANCH  20  22
ENDBRANCH  19  20
ENDBRANCH   8  14
BRANCH   9  37
ATOM     37  C   UNL A   1      42.863  35.630  29.264  1.00  0.00     0.046 A 
ATOM     38  C   UNL A   1      43.751  36.678  28.926  1.00  0.00     0.026 A 
ATOM     39  C   UNL A   1      41.871  35.347  28.311  1.00  0.00     0.026 A 
ATOM     40  C   UNL A   1      43.651  37.404  27.733  1.00  0.00     0.002 A 
ATOM     41  C   UNL A   1      41.755  36.079  27.118  1.00  0.00     0.002 A 
ATOM     42  C   UNL A   1      42.642  37.108  26.830  1.00  0.00     0.000 A 
ENDBRANCH   9  37
ENDBRANCH   4   6
ENDBRANCH   1   2
BRANCH   1  43
ATOM     43  C   UNL A   1      46.280  37.967  32.085  1.00  0.00     0.042 C 
BRANCH  43  44
ATOM     44  C   UNL A   1      46.214  37.571  30.624  1.00  0.00     0.118 C 
BRANCH  44  45
ATOM     45  N   UNL A   1      47.526  37.595  29.984  1.00  0.00    -0.352 N 
ATOM     46  C   UNL A   1      48.243  36.576  29.409  1.00  0.00     0.251 C 
ATOM     47  H   UNL A   1      47.963  38.477  29.962  1.00  0.00     0.163 HD
ATOM     48  O   UNL A   1      49.429  36.738  29.137  1.00  0.00    -0.269 OA
BRANCH  46  49
ATOM     49  C   UNL A   1      47.582  35.284  29.146  1.00  0.00     0.039 A 
ATOM     50  C   UNL A   1      46.943  35.072  27.923  1.00  0.00     0.014 A 
ATOM     51  C   UNL A   1      47.621  34.272  30.106  1.00  0.00     0.014 A 
ATOM     52  C   UNL A   1      46.415  33.812  27.635  1.00  0.00     0.010 A 
ATOM     53  C   UNL A   1      47.207  32.992  29.771  1.00  0.00     0.010 A 
ATOM     54  C   UNL A   1      46.586  32.751  28.539  1.00  0.00    -0.014 A 
BRANCH  54  55
ATOM     55  C   UNL A   1      46.099  31.382  28.248  1.00  0.00     0.031 A 
ATOM     56  C   UNL A   1      44.665  31.029  28.549  1.00  0.00     0.074 A 
ATOM     57  C   UNL A   1      46.957  30.441  27.810  1.00  0.00     0.049 A 
ATOM     58  N   UNL A   1      44.076  29.864  28.515  1.00  0.00    -0.248 NA
ATOM     59  C   UNL A   1      43.790  32.130  28.990  1.00  0.00     0.031 C 
ATOM     60  C   UNL A   1      48.381  30.649  27.538  1.00  0.00     0.029 A 
ATOM     61  N   UNL A   1      46.760  29.112  27.532  1.00  0.00    -0.354 N 
ATOM     62  C   UNL A   1      42.777  30.085  28.957  1.00  0.00     0.074 A 
ATOM     63  C   UNL A   1      42.680  31.484  29.311  1.00  0.00     0.031 C 
ATOM     64  C   UNL A   1      48.921  29.499  27.103  1.00  0.00     0.029 A 
ATOM     65  C   UNL A   1      47.895  28.461  27.109  1.00  0.00     0.049 A 
ATOM     66  H   UNL A   1      45.887  28.667  27.626  1.00  0.00     0.167 HD
ATOM     67  C   UNL A   1      41.748  29.210  29.033  1.00  0.00     0.037 A 
ATOM     68  C   UNL A   1      48.084  27.172  26.770  1.00  0.00     0.037 A 
ATOM     69  C   UNL A   1      41.839  27.833  28.627  1.00  0.00     0.049 A 
ATOM     70  C   UNL A   1      46.919  26.223  26.836  1.00  0.00     0.074 A 
ATOM     71  C   UNL A   1      40.842  26.875  28.601  1.00  0.00     0.029 A 
ATOM     72  N   UNL A   1      42.995  27.224  28.161  1.00  0.00    -0.354 N 
ATOM     73  N   UNL A   1      45.685  26.459  27.214  1.00  0.00    -0.248 NA
ATOM     74  C   UNL A   1      47.170  24.834  26.430  1.00  0.00     0.031 C 
ATOM     75  C   UNL A   1      41.402  25.678  28.144  1.00  0.00     0.029 A 
ATOM     76  C   UNL A   1      42.738  25.900  27.852  1.00  0.00     0.049 A 
ATOM     77  H   UNL A   1      43.869  27.668  28.066  1.00  0.00     0.167 HD
ATOM     78  C   UNL A   1      45.006  25.256  27.068  1.00  0.00     0.074 A 
ATOM     79  C   UNL A   1      45.964  24.296  26.557  1.00  0.00     0.031 C 
ATOM     80  C   UNL A   1      43.708  24.969  27.332  1.00  0.00     0.037 A 
BRANCH  67  81
ATOM     81  C   UNL A   1      40.435  29.725  29.551  1.00  0.00     0.058 A 
ATOM     82  C   UNL A   1      40.232  29.970  30.919  1.00  0.00     0.135 A 
ATOM     83  C   UNL A   1      39.372  29.991  28.673  1.00  0.00     0.135 A 
ATOM     84  F   UNL A   1      41.208  29.714  31.804  1.00  0.00    -0.206 F 
ATOM     85  C   UNL A   1      39.012  30.430  31.402  1.00  0.00     0.059 A 
ATOM     86  C   UNL A   1      38.151  30.477  29.132  1.00  0.00     0.059 A 
ATOM     87  F   UNL A   1      39.511  29.770  27.357  1.00  0.00    -0.206 F 
ATOM     88  C   UNL A   1      37.975  30.677  30.501  1.00  0.00     0.060 A 
BRANCH  88  89
ATOM     89  S   UNL A   1      36.398  31.275  31.143  1.00  0.00     0.124 S 
ATOM     90  O   UNL A   1      35.620  31.414  29.915  1.00  0.00    -0.237 OA
ATOM     91  O   UNL A   1      35.989  30.191  32.031  1.00  0.00    -0.237 OA
ATOM     92  O   UNL A   1      36.753  32.524  31.807  1.00  0.00    -0.744 OA
ENDBRANCH  88  89
ENDBRANCH  67  81
BRANCH  68  93
ATOM     93  C   UNL A   1      49.419  26.711  26.311  1.00  0.00     0.058 A 
ATOM     94  C   UNL A   1      49.871  27.004  25.014  1.00  0.00     0.135 A 
ATOM     95  C   UNL A   1      50.275  25.983  27.152  1.00  0.00     0.135 A 
ATOM     96  F   UNL A   1      49.087  27.694  24.173  1.00  0.00    -0.206 F 
ATOM     97  C   UNL A   1      51.114  26.576  24.562  1.00  0.00     0.059 A 
ATOM     98  C   UNL A   1      51.532  25.563  26.729  1.00  0.00     0.059 A 
ATOM     99  F   UNL A   1      49.898  25.695  28.408  1.00  0.00    -0.206 F 
ATOM    100  C   UNL A   1      51.939  25.855  25.427  1.00  0.00     0.060 A 
BRANCH 100 101
ATOM    101  S   UNL A   1      53.569  25.341  24.845  1.00  0.00     0.124 S 
ATOM    102  O   UNL A   1      53.548  23.913  25.140  1.00  0.00    -0.237 OA
ATOM    103  O   UNL A   1      53.520  25.701  23.431  1.00  0.00    -0.237 OA
ATOM    104  O   UNL A   1      54.481  26.142  25.656  1.00  0.00    -0.744 OA
ENDBRANCH 100 101
ENDBRANCH  68  93
BRANCH  80 105
ATOM    105  C   UNL A   1      43.238  23.573  27.042  1.00  0.00     0.058 A 
ATOM    106  C   UNL A   1      42.965  23.148  25.733  1.00  0.00     0.135 A 
ATOM    107  C   UNL A   1      43.126  22.633  28.079  1.00  0.00     0.135 A 
ATOM    108  F   UNL A   1      43.054  24.013  24.710  1.00  0.00    -0.206 F 
ATOM    109  C   UNL A   1      42.582  21.839  25.463  1.00  0.00     0.059 A 
ATOM    110  C   UNL A   1      42.766  21.314  27.829  1.00  0.00     0.059 A 
ATOM    111  F   UNL A   1      43.386  22.992  29.346  1.00  0.00    -0.206 F 
ATOM    112  C   UNL A   1      42.487  20.929  26.518  1.00  0.00     0.060 A 
BRANCH 112 113
ATOM    113  S   UNL A   1      42.034  19.221  26.149  1.00  0.00     0.124 S 
ATOM    114  O   UNL A   1      42.884  18.935  24.998  1.00  0.00    -0.237 OA
ATOM    115  O   UNL A   1      42.386  18.529  27.384  1.00  0.00    -0.237 OA
ATOM    116  O   UNL A   1      40.604  19.303  25.870  1.00  0.00    -0.744 OA
ENDBRANCH 112 113
ENDBRANCH  80 105
ENDBRANCH  54  55
ENDBRANCH  46  49
ENDBRANCH  44  45
ENDBRANCH  43  44
ENDBRANCH   1  43
TORSDOF 19
ENDMDL
