MODEL 1
REMARK VINA RESULT:     -12.3      0.000      0.000
REMARK SMILES O=C(NCCCNC(=O)[C@H]1CC(=O)N(Cc2cccc(Cl)c2)C1)c1ccc(-c2c3nc(c(-c4c(F)cc(S(=O)(=O)[O-])cc4F)c4ccc([nH]4)c(-c4c(F)cc(S(=O)(=O)[O-])cc4F)c4nc(c(-c5c(F)cc(S(=O)(=O)[O-])cc5F)c5ccc2[nH]5)C=C4)C=C3)cc1
REMARK SMILES IDX 4 1 3 2 1 3 2 4 24 6 25 7 89 8 26 9 88 10 27 11 28 12 29 13
REMARK SMILES IDX 82 14 30 15 87 16 81 17 83 18 31 19 86 20 80 21 79 22 32 24
REMARK SMILES IDX 66 25 45 26 65 27 46 28 49 29 64 30 84 31 47 32 48 33 63 35
REMARK SMILES IDX 85 36 50 37 33 38 34 39 43 40 35 41 36 42 42 43 44 44 37 45
REMARK SMILES IDX 38 46 39 47 40 48 41 49 67 50 68 51 77 52 69 53 70 54 76 55
REMARK SMILES IDX 78 56 71 57 72 58 73 59 74 60 75 61 51 62 52 63 61 64 53 65
REMARK SMILES IDX 54 66 60 67 62 68 55 69 56 70 57 71 58 72 59 73 5 74 6 75
REMARK SMILES IDX 7 76 8 77 9 79 10 80 11 81 23 82 12 83 14 84 13 85 15 86
REMARK SMILES IDX 16 87 17 88 22 89 18 90 20 91 19 92 21 93
REMARK H PARENT 3 5 83 23 49 34 7 78
REMARK Flexibility Score: inf
ROOT
ATOM      1  C   UNL A   1      40.182  23.508  27.041  1.00  0.00     0.118 C 
ENDROOT
BRANCH   1   2
ATOM      2  N   UNL A   1      40.894  24.279  26.027  1.00  0.00    -0.352 N 
ATOM      3  O   UNL A   1      41.664  26.111  24.969  1.00  0.00    -0.269 OA
ATOM      4  C   UNL A   1      41.212  25.617  25.997  1.00  0.00     0.251 C 
ATOM      5  H   UNL A   1      41.192  23.762  25.244  1.00  0.00     0.163 HD
BRANCH   4   6
ATOM      6  C   UNL A   1      40.988  26.455  27.194  1.00  0.00     0.039 A 
ATOM      7  C   UNL A   1      41.773  27.585  27.415  1.00  0.00     0.014 A 
ATOM      8  C   UNL A   1      39.985  26.110  28.106  1.00  0.00     0.014 A 
ATOM      9  C   UNL A   1      41.689  28.254  28.626  1.00  0.00     0.010 A 
ATOM     10  C   UNL A   1      39.815  26.867  29.272  1.00  0.00     0.010 A 
ATOM     11  C   UNL A   1      40.687  27.928  29.557  1.00  0.00    -0.014 A 
BRANCH  11  12
ATOM     12  C   UNL A   1      40.537  28.790  30.758  1.00  0.00     0.031 A 
ATOM     13  C   UNL A   1      41.438  28.649  31.954  1.00  0.00     0.074 A 
ATOM     14  C   UNL A   1      39.604  29.764  30.720  1.00  0.00     0.049 A 
ATOM     15  N   UNL A   1      41.470  29.373  33.044  1.00  0.00    -0.248 NA
ATOM     16  C   UNL A   1      42.422  27.555  31.935  1.00  0.00     0.031 C 
ATOM     17  C   UNL A   1      38.658  29.979  29.618  1.00  0.00     0.029 A 
ATOM     18  N   UNL A   1      39.314  30.773  31.600  1.00  0.00    -0.354 N 
ATOM     19  C   UNL A   1      42.470  28.828  33.840  1.00  0.00     0.074 A 
ATOM     20  C   UNL A   1      42.997  27.685  33.124  1.00  0.00     0.031 C 
ATOM     21  C   UNL A   1      37.941  31.084  29.858  1.00  0.00     0.029 A 
ATOM     22  C   UNL A   1      38.313  31.611  31.164  1.00  0.00     0.049 A 
ATOM     23  H   UNL A   1      39.777  30.887  32.462  1.00  0.00     0.167 HD
ATOM     24  C   UNL A   1      42.911  29.251  35.050  1.00  0.00     0.037 A 
ATOM     25  C   UNL A   1      37.738  32.672  31.756  1.00  0.00     0.037 A 
ATOM     26  C   UNL A   1      42.376  30.393  35.752  1.00  0.00     0.049 A 
ATOM     27  C   UNL A   1      38.231  33.098  33.109  1.00  0.00     0.074 A 
ATOM     28  C   UNL A   1      42.764  30.909  36.977  1.00  0.00     0.029 A 
ATOM     29  N   UNL A   1      41.339  31.196  35.295  1.00  0.00    -0.354 N 
ATOM     30  N   UNL A   1      39.198  32.584  33.831  1.00  0.00    -0.248 NA
ATOM     31  C   UNL A   1      37.557  34.245  33.727  1.00  0.00     0.031 C 
ATOM     32  C   UNL A   1      41.932  31.992  37.283  1.00  0.00     0.029 A 
ATOM     33  C   UNL A   1      41.063  32.189  36.222  1.00  0.00     0.049 A 
ATOM     34  H   UNL A   1      40.870  31.077  34.438  1.00  0.00     0.167 HD
ATOM     35  C   UNL A   1      39.255  33.353  34.986  1.00  0.00     0.074 A 
ATOM     36  C   UNL A   1      38.251  34.389  34.847  1.00  0.00     0.031 C 
ATOM     37  C   UNL A   1      40.056  33.209  36.071  1.00  0.00     0.037 A 
BRANCH  24  38
ATOM     38  C   UNL A   1      44.031  28.485  35.706  1.00  0.00     0.058 A 
ATOM     39  C   UNL A   1      43.775  27.417  36.582  1.00  0.00     0.135 A 
ATOM     40  C   UNL A   1      45.370  28.762  35.388  1.00  0.00     0.135 A 
ATOM     41  F   UNL A   1      42.516  27.117  36.935  1.00  0.00    -0.206 F 
ATOM     42  C   UNL A   1      44.808  26.658  37.123  1.00  0.00     0.059 A 
ATOM     43  C   UNL A   1      46.418  27.998  35.897  1.00  0.00     0.059 A 
ATOM     44  F   UNL A   1      45.673  29.771  34.557  1.00  0.00    -0.206 F 
ATOM     45  C   UNL A   1      46.127  26.949  36.769  1.00  0.00     0.060 A 
BRANCH  45  46
ATOM     46  S   UNL A   1      47.448  25.927  37.452  1.00  0.00     0.124 S 
ATOM     47  O   UNL A   1      47.826  26.692  38.637  1.00  0.00    -0.237 OA
ATOM     48  O   UNL A   1      46.762  24.664  37.707  1.00  0.00    -0.237 OA
ATOM     49  O   UNL A   1      48.442  25.893  36.383  1.00  0.00    -0.744 OA
ENDBRANCH  45  46
ENDBRANCH  24  38
BRANCH  25  50
ATOM     50  C   UNL A   1      36.609  33.376  31.090  1.00  0.00     0.058 A 
ATOM     51  C   UNL A   1      35.285  33.202  31.514  1.00  0.00     0.135 A 
ATOM     52  C   UNL A   1      36.840  34.234  30.002  1.00  0.00     0.135 A 
ATOM     53  F   UNL A   1      35.012  32.393  32.549  1.00  0.00    -0.206 F 
ATOM     54  C   UNL A   1      34.225  33.825  30.862  1.00  0.00     0.059 A 
ATOM     55  C   UNL A   1      35.803  34.898  29.359  1.00  0.00     0.059 A 
ATOM     56  F   UNL A   1      38.092  34.455  29.570  1.00  0.00    -0.206 F 
ATOM     57  C   UNL A   1      34.495  34.669  29.783  1.00  0.00     0.060 A 
BRANCH  57  58
ATOM     58  S   UNL A   1      33.117  35.480  28.947  1.00  0.00     0.124 S 
ATOM     59  O   UNL A   1      33.810  36.491  28.158  1.00  0.00    -0.237 OA
ATOM     60  O   UNL A   1      32.522  34.378  28.196  1.00  0.00    -0.237 OA
ATOM     61  O   UNL A   1      32.306  35.985  30.051  1.00  0.00    -0.744 OA
ENDBRANCH  57  58
ENDBRANCH  25  50
BRANCH  37  62
ATOM     62  C   UNL A   1      39.888  34.216  37.176  1.00  0.00     0.058 A 
ATOM     63  C   UNL A   1      39.022  33.987  38.257  1.00  0.00     0.135 A 
ATOM     64  C   UNL A   1      40.603  35.425  37.153  1.00  0.00     0.135 A 
ATOM     65  F   UNL A   1      38.310  32.851  38.323  1.00  0.00    -0.206 F 
ATOM     66  C   UNL A   1      38.835  34.941  39.252  1.00  0.00     0.059 A 
ATOM     67  C   UNL A   1      40.457  36.377  38.156  1.00  0.00     0.059 A 
ATOM     68  F   UNL A   1      41.453  35.690  36.148  1.00  0.00    -0.206 F 
ATOM     69  C   UNL A   1      39.554  36.135  39.190  1.00  0.00     0.060 A 
BRANCH  69  70
ATOM     70  S   UNL A   1      39.300  37.364  40.487  1.00  0.00     0.124 S 
ATOM     71  O   UNL A   1      38.963  36.520  41.629  1.00  0.00    -0.237 OA
ATOM     72  O   UNL A   1      40.599  38.026  40.549  1.00  0.00    -0.237 OA
ATOM     73  O   UNL A   1      38.210  38.184  39.968  1.00  0.00    -0.744 OA
ENDBRANCH  69  70
ENDBRANCH  37  62
ENDBRANCH  11  12
ENDBRANCH   4   6
ENDBRANCH   1   2
BRANCH   1  74
ATOM     74  C   UNL A   1      39.251  22.462  26.444  1.00  0.00     0.042 C 
BRANCH  74  75
ATOM     75  C   UNL A   1      37.882  23.014  26.075  1.00  0.00     0.117 C 
BRANCH  75  76
ATOM     76  N   UNL A   1      37.745  23.188  24.640  1.00  0.00    -0.356 N 
ATOM     77  C   UNL A   1      36.615  23.172  23.878  1.00  0.00     0.225 C 
ATOM     78  H   UNL A   1      38.586  23.338  24.149  1.00  0.00     0.163 HD
ATOM     79  O   UNL A   1      36.733  23.186  22.655  1.00  0.00    -0.275 OA
BRANCH  77  80
ATOM     80  C   UNL A   1      35.277  23.165  24.577  1.00  0.00     0.107 C 
ATOM     81  C   UNL A   1      34.234  23.971  23.801  1.00  0.00     0.115 C 
ATOM     82  C   UNL A   1      34.675  21.771  24.629  1.00  0.00     0.133 C 
ATOM     83  C   UNL A   1      32.943  23.252  24.095  1.00  0.00     0.223 C 
ATOM     84  N   UNL A   1      33.253  22.003  24.597  1.00  0.00    -0.338 N 
ATOM     85  O   UNL A   1      31.828  23.711  23.903  1.00  0.00    -0.275 OA
BRANCH  84  86
ATOM     86  C   UNL A   1      32.273  21.013  25.009  1.00  0.00     0.155 C 
BRANCH  86  87
ATOM     87  C   UNL A   1      32.495  19.645  24.406  1.00  0.00    -0.027 A 
ATOM     88  C   UNL A   1      32.295  19.417  23.034  1.00  0.00     0.005 A 
ATOM     89  C   UNL A   1      32.929  18.577  25.206  1.00  0.00     0.026 A 
ATOM     90  C   UNL A   1      32.484  18.150  22.481  1.00  0.00     0.002 A 
ATOM     91  C   UNL A   1      33.146  17.318  24.642  1.00  0.00     0.041 A 
ATOM     92  C   UNL A   1      32.914  17.098  23.285  1.00  0.00     0.020 A 
ATOM     93  Cl  UNL A   1      33.718  16.026  25.625  1.00  0.00    -0.084 Cl
ENDBRANCH  86  87
ENDBRANCH  84  86
ENDBRANCH  77  80
ENDBRANCH  75  76
ENDBRANCH  74  75
ENDBRANCH   1  74
TORSDOF 15
ENDMDL
MODEL 2
REMARK VINA RESULT:     -12.3      2.169      3.463
REMARK SMILES O=C(NCCCNC(=O)[C@H]1CC(=O)N(Cc2cccc(Cl)c2)C1)c1ccc(-c2c3nc(c(-c4c(F)cc(S(=O)(=O)[O-])cc4F)c4ccc([nH]4)c(-c4c(F)cc(S(=O)(=O)[O-])cc4F)c4nc(c(-c5c(F)cc(S(=O)(=O)[O-])cc5F)c5ccc2[nH]5)C=C4)C=C3)cc1
REMARK SMILES IDX 4 1 3 2 1 3 2 4 24 6 25 7 89 8 26 9 88 10 27 11 28 12 29 13
REMARK SMILES IDX 82 14 30 15 87 16 81 17 83 18 31 19 86 20 80 21 79 22 32 24
REMARK SMILES IDX 66 25 45 26 65 27 46 28 49 29 64 30 84 31 47 32 48 33 63 35
REMARK SMILES IDX 85 36 50 37 33 38 34 39 43 40 35 41 36 42 42 43 44 44 37 45
REMARK SMILES IDX 38 46 39 47 40 48 41 49 67 50 68 51 77 52 69 53 70 54 76 55
REMARK SMILES IDX 78 56 71 57 72 58 73 59 74 60 75 61 51 62 52 63 61 64 53 65
REMARK SMILES IDX 54 66 60 67 62 68 55 69 56 70 57 71 58 72 59 73 5 74 6 75
REMARK SMILES IDX 7 76 8 77 9 79 10 80 11 81 23 82 12 83 14 84 13 85 15 86
REMARK SMILES IDX 16 87 17 88 22 89 18 90 20 91 19 92 21 93
REMARK H PARENT 3 5 83 23 49 34 7 78
REMARK Flexibility Score: inf
ROOT
ATOM      1  C   UNL A   1      40.400  23.351  27.120  1.00  0.00     0.118 C 
ENDROOT
BRANCH   1   2
ATOM      2  N   UNL A   1      41.108  24.116  26.099  1.00  0.00    -0.352 N 
ATOM      3  O   UNL A   1      41.855  25.942  25.014  1.00  0.00    -0.269 OA
ATOM      4  C   UNL A   1      41.400  25.459  26.046  1.00  0.00     0.251 C 
ATOM      5  H   UNL A   1      41.425  23.590  25.329  1.00  0.00     0.163 HD
BRANCH   4   6
ATOM      6  C   UNL A   1      41.146  26.315  27.225  1.00  0.00     0.039 A 
ATOM      7  C   UNL A   1      41.964  27.414  27.482  1.00  0.00     0.014 A 
ATOM      8  C   UNL A   1      40.082  26.019  28.083  1.00  0.00     0.014 A 
ATOM      9  C   UNL A   1      41.842  28.096  28.682  1.00  0.00     0.010 A 
ATOM     10  C   UNL A   1      39.881  26.792  29.233  1.00  0.00     0.010 A 
ATOM     11  C   UNL A   1      40.778  27.819  29.559  1.00  0.00    -0.014 A 
BRANCH  11  12
ATOM     12  C   UNL A   1      40.599  28.695  30.745  1.00  0.00     0.031 A 
ATOM     13  C   UNL A   1      41.480  28.580  31.958  1.00  0.00     0.074 A 
ATOM     14  C   UNL A   1      39.657  29.659  30.677  1.00  0.00     0.049 A 
ATOM     15  N   UNL A   1      41.486  29.320  33.038  1.00  0.00    -0.248 NA
ATOM     16  C   UNL A   1      42.476  27.497  31.971  1.00  0.00     0.031 C 
ATOM     17  C   UNL A   1      38.727  29.849  29.557  1.00  0.00     0.029 A 
ATOM     18  N   UNL A   1      39.342  30.677  31.538  1.00  0.00    -0.354 N 
ATOM     19  C   UNL A   1      42.479  28.796  33.859  1.00  0.00     0.074 A 
ATOM     20  C   UNL A   1      43.030  27.650  33.168  1.00  0.00     0.031 C 
ATOM     21  C   UNL A   1      37.995  30.949  29.769  1.00  0.00     0.029 A 
ATOM     22  C   UNL A   1      38.340  31.498  31.074  1.00  0.00     0.049 A 
ATOM     23  H   UNL A   1      39.788  30.808  32.406  1.00  0.00     0.167 HD
ATOM     24  C   UNL A   1      42.895  29.241  35.070  1.00  0.00     0.037 A 
ATOM     25  C   UNL A   1      37.743  32.561  31.641  1.00  0.00     0.037 A 
ATOM     26  C   UNL A   1      42.335  30.387  35.747  1.00  0.00     0.049 A 
ATOM     27  C   UNL A   1      38.209  33.011  32.995  1.00  0.00     0.074 A 
ATOM     28  C   UNL A   1      42.697  30.924  36.971  1.00  0.00     0.029 A 
ATOM     29  N   UNL A   1      41.298  31.172  35.261  1.00  0.00    -0.354 N 
ATOM     30  N   UNL A   1      39.169  32.517  33.741  1.00  0.00    -0.248 NA
ATOM     31  C   UNL A   1      37.512  34.159  33.586  1.00  0.00     0.031 C 
ATOM     32  C   UNL A   1      41.849  32.002  37.247  1.00  0.00     0.029 A 
ATOM     33  C   UNL A   1      40.996  32.175  36.169  1.00  0.00     0.049 A 
ATOM     34  H   UNL A   1      40.845  31.037  34.398  1.00  0.00     0.167 HD
ATOM     35  C   UNL A   1      39.198  33.303  34.886  1.00  0.00     0.074 A 
ATOM     36  C   UNL A   1      38.185  34.326  34.715  1.00  0.00     0.031 C 
ATOM     37  C   UNL A   1      39.981  33.183  35.986  1.00  0.00     0.037 A 
BRANCH  24  38
ATOM     38  C   UNL A   1      44.010  28.496  35.756  1.00  0.00     0.058 A 
ATOM     39  C   UNL A   1      43.752  27.430  36.632  1.00  0.00     0.135 A 
ATOM     40  C   UNL A   1      45.352  28.792  35.466  1.00  0.00     0.135 A 
ATOM     41  F   UNL A   1      42.489  27.113  36.959  1.00  0.00    -0.206 F 
ATOM     42  C   UNL A   1      44.783  26.689  37.201  1.00  0.00     0.059 A 
ATOM     43  C   UNL A   1      46.400  28.047  36.004  1.00  0.00     0.059 A 
ATOM     44  F   UNL A   1      45.658  29.801  34.636  1.00  0.00    -0.206 F 
ATOM     45  C   UNL A   1      46.105  26.999  36.874  1.00  0.00     0.060 A 
BRANCH  45  46
ATOM     46  S   UNL A   1      47.426  26.001  37.594  1.00  0.00     0.124 S 
ATOM     47  O   UNL A   1      48.576  26.425  36.801  1.00  0.00    -0.237 OA
ATOM     48  O   UNL A   1      47.421  26.439  38.986  1.00  0.00    -0.237 OA
ATOM     49  O   UNL A   1      46.979  24.630  37.369  1.00  0.00    -0.744 OA
ENDBRANCH  45  46
ENDBRANCH  24  38
BRANCH  25  50
ATOM     50  C   UNL A   1      36.619  33.244  30.945  1.00  0.00     0.058 A 
ATOM     51  C   UNL A   1      36.841  34.088  29.849  1.00  0.00     0.135 A 
ATOM     52  C   UNL A   1      35.294  33.067  31.377  1.00  0.00     0.135 A 
ATOM     53  F   UNL A   1      38.088  34.290  29.398  1.00  0.00    -0.206 F 
ATOM     54  C   UNL A   1      35.794  34.762  29.227  1.00  0.00     0.059 A 
ATOM     55  C   UNL A   1      34.228  33.698  30.748  1.00  0.00     0.059 A 
ATOM     56  F   UNL A   1      35.023  32.250  32.408  1.00  0.00    -0.206 F 
ATOM     57  C   UNL A   1      34.492  34.562  29.687  1.00  0.00     0.060 A 
BRANCH  57  58
ATOM     58  S   UNL A   1      33.137  35.433  28.871  1.00  0.00     0.124 S 
ATOM     59  O   UNL A   1      33.861  36.426  28.086  1.00  0.00    -0.237 OA
ATOM     60  O   UNL A   1      32.497  34.362  28.114  1.00  0.00    -0.237 OA
ATOM     61  O   UNL A   1      32.355  35.956  29.987  1.00  0.00    -0.744 OA
ENDBRANCH  57  58
ENDBRANCH  25  50
BRANCH  37  62
ATOM     62  C   UNL A   1      39.784  34.203  37.074  1.00  0.00     0.058 A 
ATOM     63  C   UNL A   1      40.418  35.456  37.033  1.00  0.00     0.135 A 
ATOM     64  C   UNL A   1      38.952  33.925  38.170  1.00  0.00     0.135 A 
ATOM     65  F   UNL A   1      41.231  35.769  36.012  1.00  0.00    -0.206 F 
ATOM     66  C   UNL A   1      40.270  36.378  38.064  1.00  0.00     0.059 A 
ATOM     67  C   UNL A   1      38.762  34.847  39.194  1.00  0.00     0.059 A 
ATOM     68  F   UNL A   1      38.313  32.747  38.253  1.00  0.00    -0.206 F 
ATOM     69  C   UNL A   1      39.442  36.062  39.142  1.00  0.00     0.060 A 
BRANCH  69  70
ATOM     70  S   UNL A   1      39.261  37.267  40.473  1.00  0.00     0.124 S 
ATOM     71  O   UNL A   1      40.605  37.828  40.546  1.00  0.00    -0.237 OA
ATOM     72  O   UNL A   1      38.229  38.157  39.950  1.00  0.00    -0.237 OA
ATOM     73  O   UNL A   1      38.857  36.453  41.615  1.00  0.00    -0.744 OA
ENDBRANCH  69  70
ENDBRANCH  37  62
ENDBRANCH  11  12
ENDBRANCH   4   6
ENDBRANCH   1   2
BRANCH   1  74
ATOM     74  C   UNL A   1      39.308  22.461  26.541  1.00  0.00     0.042 C 
BRANCH  74  75
ATOM     75  C   UNL A   1      38.059  23.227  26.132  1.00  0.00     0.117 C 
BRANCH  75  76
ATOM     76  N   UNL A   1      36.865  22.411  26.264  1.00  0.00    -0.356 N 
ATOM     77  C   UNL A   1      35.644  22.577  25.681  1.00  0.00     0.225 C 
ATOM     78  H   UNL A   1      36.949  21.629  26.856  1.00  0.00     0.163 HD
ATOM     79  O   UNL A   1      34.717  21.858  26.046  1.00  0.00    -0.275 OA
BRANCH  77  80
ATOM     80  C   UNL A   1      35.501  23.620  24.598  1.00  0.00     0.107 C 
ATOM     81  C   UNL A   1      34.657  23.105  23.432  1.00  0.00     0.115 C 
ATOM     82  C   UNL A   1      34.726  24.834  25.083  1.00  0.00     0.133 C 
ATOM     83  C   UNL A   1      33.963  24.343  22.925  1.00  0.00     0.223 C 
ATOM     84  N   UNL A   1      34.058  25.317  23.901  1.00  0.00    -0.338 N 
ATOM     85  O   UNL A   1      33.410  24.441  21.841  1.00  0.00    -0.275 OA
BRANCH  84  86
ATOM     86  C   UNL A   1      33.517  26.659  23.782  1.00  0.00     0.155 C 
BRANCH  86  87
ATOM     87  C   UNL A   1      33.134  27.284  25.104  1.00  0.00    -0.027 A 
ATOM     88  C   UNL A   1      31.888  27.020  25.696  1.00  0.00     0.005 A 
ATOM     89  C   UNL A   1      34.030  28.127  25.778  1.00  0.00     0.026 A 
ATOM     90  C   UNL A   1      31.529  27.609  26.908  1.00  0.00     0.002 A 
ATOM     91  C   UNL A   1      33.678  28.690  27.006  1.00  0.00     0.041 A 
ATOM     92  C   UNL A   1      32.427  28.445  27.567  1.00  0.00     0.020 A 
ATOM     93  Cl  UNL A   1      34.802  29.690  27.843  1.00  0.00    -0.084 Cl
ENDBRANCH  86  87
ENDBRANCH  84  86
ENDBRANCH  77  80
ENDBRANCH  75  76
ENDBRANCH  74  75
ENDBRANCH   1  74
TORSDOF 15
ENDMDL
MODEL 3
REMARK VINA RESULT:     -12.3      5.871     11.884
REMARK SMILES O=C(NCCCNC(=O)[C@H]1CC(=O)N(Cc2cccc(Cl)c2)C1)c1ccc(-c2c3nc(c(-c4c(F)cc(S(=O)(=O)[O-])cc4F)c4ccc([nH]4)c(-c4c(F)cc(S(=O)(=O)[O-])cc4F)c4nc(c(-c5c(F)cc(S(=O)(=O)[O-])cc5F)c5ccc2[nH]5)C=C4)C=C3)cc1
REMARK SMILES IDX 4 1 3 2 1 3 2 4 24 6 25 7 89 8 26 9 88 10 27 11 28 12 29 13
REMARK SMILES IDX 82 14 30 15 87 16 81 17 83 18 31 19 86 20 80 21 79 22 32 24
REMARK SMILES IDX 66 25 45 26 65 27 46 28 49 29 64 30 84 31 47 32 48 33 63 35
REMARK SMILES IDX 85 36 50 37 33 38 34 39 43 40 35 41 36 42 42 43 44 44 37 45
REMARK SMILES IDX 38 46 39 47 40 48 41 49 67 50 68 51 77 52 69 53 70 54 76 55
REMARK SMILES IDX 78 56 71 57 72 58 73 59 74 60 75 61 51 62 52 63 61 64 53 65
REMARK SMILES IDX 54 66 60 67 62 68 55 69 56 70 57 71 58 72 59 73 5 74 6 75
REMARK SMILES IDX 7 76 8 77 9 79 10 80 11 81 23 82 12 83 14 84 13 85 15 86
REMARK SMILES IDX 16 87 17 88 22 89 18 90 20 91 19 92 21 93
REMARK H PARENT 3 5 83 23 49 34 7 78
REMARK Flexibility Score: inf
ROOT
ATOM      1  C   UNL A   1      34.543  32.778  28.030  1.00  0.00     0.118 C 
ENDROOT
BRANCH   1   2
ATOM      2  N   UNL A   1      33.811  31.523  27.906  1.00  0.00    -0.352 N 
ATOM      3  O   UNL A   1      33.509  29.313  27.601  1.00  0.00    -0.269 OA
ATOM      4  C   UNL A   1      34.274  30.227  27.891  1.00  0.00     0.251 C 
ATOM      5  H   UNL A   1      32.834  31.617  27.818  1.00  0.00     0.163 HD
BRANCH   4   6
ATOM      6  C   UNL A   1      35.691  29.949  28.204  1.00  0.00     0.039 A 
ATOM      7  C   UNL A   1      36.666  30.079  27.215  1.00  0.00     0.014 A 
ATOM      8  C   UNL A   1      36.053  29.552  29.495  1.00  0.00     0.014 A 
ATOM      9  C   UNL A   1      37.956  29.636  27.459  1.00  0.00     0.010 A 
ATOM     10  C   UNL A   1      37.386  29.227  29.774  1.00  0.00     0.010 A 
ATOM     11  C   UNL A   1      38.344  29.236  28.750  1.00  0.00    -0.014 A 
BRANCH  11  12
ATOM     12  C   UNL A   1      39.780  28.936  28.990  1.00  0.00     0.031 A 
ATOM     13  C   UNL A   1      40.384  27.608  28.625  1.00  0.00     0.074 A 
ATOM     14  C   UNL A   1      40.554  29.923  29.486  1.00  0.00     0.049 A 
ATOM     15  N   UNL A   1      41.633  27.227  28.712  1.00  0.00    -0.248 NA
ATOM     16  C   UNL A   1      39.480  26.572  28.103  1.00  0.00     0.031 C 
ATOM     17  C   UNL A   1      40.068  31.246  29.899  1.00  0.00     0.029 A 
ATOM     18  N   UNL A   1      41.906  29.992  29.698  1.00  0.00    -0.354 N 
ATOM     19  C   UNL A   1      41.668  25.913  28.261  1.00  0.00     0.074 A 
ATOM     20  C   UNL A   1      40.306  25.547  27.936  1.00  0.00     0.031 C 
ATOM     21  C   UNL A   1      41.108  32.010  30.250  1.00  0.00     0.029 A 
ATOM     22  C   UNL A   1      42.325  31.214  30.171  1.00  0.00     0.049 A 
ATOM     23  H   UNL A   1      42.517  29.239  29.530  1.00  0.00     0.167 HD
ATOM     24  C   UNL A   1      42.741  25.095  28.123  1.00  0.00     0.037 A 
ATOM     25  C   UNL A   1      43.549  31.644  30.526  1.00  0.00     0.037 A 
ATOM     26  C   UNL A   1      44.095  25.474  28.452  1.00  0.00     0.049 A 
ATOM     27  C   UNL A   1      44.711  30.704  30.387  1.00  0.00     0.074 A 
ATOM     28  C   UNL A   1      45.251  24.721  28.336  1.00  0.00     0.029 A 
ATOM     29  N   UNL A   1      44.476  26.708  28.961  1.00  0.00    -0.354 N 
ATOM     30  N   UNL A   1      44.725  29.474  29.931  1.00  0.00    -0.248 NA
ATOM     31  C   UNL A   1      46.023  31.208  30.810  1.00  0.00     0.031 C 
ATOM     32  C   UNL A   1      46.322  25.480  28.819  1.00  0.00     0.029 A 
ATOM     33  C   UNL A   1      45.844  26.729  29.181  1.00  0.00     0.049 A 
ATOM     34  H   UNL A   1      43.864  27.458  29.138  1.00  0.00     0.167 HD
ATOM     35  C   UNL A   1      46.048  29.060  30.004  1.00  0.00     0.074 A 
ATOM     36  C   UNL A   1      46.809  30.185  30.510  1.00  0.00     0.031 C 
ATOM     37  C   UNL A   1      46.586  27.855  29.691  1.00  0.00     0.037 A 
BRANCH  24  38
ATOM     38  C   UNL A   1      42.510  23.703  27.594  1.00  0.00     0.058 A 
ATOM     39  C   UNL A   1      42.521  23.430  26.217  1.00  0.00     0.135 A 
ATOM     40  C   UNL A   1      42.364  22.618  28.474  1.00  0.00     0.135 A 
ATOM     41  F   UNL A   1      42.640  24.429  25.329  1.00  0.00    -0.206 F 
ATOM     42  C   UNL A   1      42.389  22.132  25.732  1.00  0.00     0.059 A 
ATOM     43  C   UNL A   1      42.257  21.308  28.011  1.00  0.00     0.059 A 
ATOM     44  F   UNL A   1      42.345  22.820  29.800  1.00  0.00    -0.206 F 
ATOM     45  C   UNL A   1      42.267  21.076  26.636  1.00  0.00     0.060 A 
BRANCH  45  46
ATOM     46  S   UNL A   1      42.135  19.397  25.986  1.00  0.00     0.124 S 
ATOM     47  O   UNL A   1      42.963  19.483  24.786  1.00  0.00    -0.237 OA
ATOM     48  O   UNL A   1      42.685  18.599  27.077  1.00  0.00    -0.237 OA
ATOM     49  O   UNL A   1      40.704  19.232  25.751  1.00  0.00    -0.744 OA
ENDBRANCH  45  46
ENDBRANCH  24  38
BRANCH  25  50
ATOM     50  C   UNL A   1      43.726  33.013  31.081  1.00  0.00     0.058 A 
ATOM     51  C   UNL A   1      43.975  34.114  30.249  1.00  0.00     0.135 A 
ATOM     52  C   UNL A   1      43.655  33.242  32.464  1.00  0.00     0.135 A 
ATOM     53  F   UNL A   1      44.052  33.948  28.920  1.00  0.00    -0.206 F 
ATOM     54  C   UNL A   1      44.186  35.386  30.771  1.00  0.00     0.059 A 
ATOM     55  C   UNL A   1      43.824  34.509  33.007  1.00  0.00     0.059 A 
ATOM     56  F   UNL A   1      43.395  32.227  33.304  1.00  0.00    -0.206 F 
ATOM     57  C   UNL A   1      44.110  35.572  32.153  1.00  0.00     0.060 A 
BRANCH  57  58
ATOM     58  S   UNL A   1      44.376  37.227  32.823  1.00  0.00     0.124 S 
ATOM     59  O   UNL A   1      43.355  37.287  33.862  1.00  0.00    -0.237 OA
ATOM     60  O   UNL A   1      45.758  37.152  33.288  1.00  0.00    -0.237 OA
ATOM     61  O   UNL A   1      44.157  38.094  31.670  1.00  0.00    -0.744 OA
ENDBRANCH  57  58
ENDBRANCH  25  50
BRANCH  37  62
ATOM     62  C   UNL A   1      48.073  27.709  29.868  1.00  0.00     0.058 A 
ATOM     63  C   UNL A   1      48.631  27.251  31.073  1.00  0.00     0.135 A 
ATOM     64  C   UNL A   1      48.950  28.034  28.821  1.00  0.00     0.135 A 
ATOM     65  F   UNL A   1      47.836  26.935  32.108  1.00  0.00    -0.206 F 
ATOM     66  C   UNL A   1      50.007  27.162  31.248  1.00  0.00     0.059 A 
ATOM     67  C   UNL A   1      50.329  27.918  28.963  1.00  0.00     0.059 A 
ATOM     68  F   UNL A   1      48.470  28.467  27.644  1.00  0.00    -0.206 F 
ATOM     69  C   UNL A   1      50.849  27.502  30.188  1.00  0.00     0.060 A 
BRANCH  69  70
ATOM     70  S   UNL A   1      52.633  27.384  30.430  1.00  0.00     0.124 S 
ATOM     71  O   UNL A   1      53.040  26.630  29.249  1.00  0.00    -0.237 OA
ATOM     72  O   UNL A   1      53.038  28.786  30.458  1.00  0.00    -0.237 OA
ATOM     73  O   UNL A   1      52.757  26.676  31.700  1.00  0.00    -0.744 OA
ENDBRANCH  69  70
ENDBRANCH  37  62
ENDBRANCH  11  12
ENDBRANCH   4   6
ENDBRANCH   1   2
BRANCH   1  74
ATOM     74  C   UNL A   1      34.415  33.404  29.412  1.00  0.00     0.042 C 
BRANCH  74  75
ATOM     75  C   UNL A   1      35.756  33.694  30.070  1.00  0.00     0.117 C 
BRANCH  75  76
ATOM     76  N   UNL A   1      35.614  34.600  31.196  1.00  0.00    -0.356 N 
ATOM     77  C   UNL A   1      36.298  34.616  32.375  1.00  0.00     0.225 C 
ATOM     78  H   UNL A   1      34.929  35.300  31.093  1.00  0.00     0.163 HD
ATOM     79  O   UNL A   1      35.916  35.375  33.263  1.00  0.00    -0.275 OA
BRANCH  77  80
ATOM     80  C   UNL A   1      37.503  33.718  32.519  1.00  0.00     0.107 C 
ATOM     81  C   UNL A   1      38.723  34.494  33.020  1.00  0.00     0.115 C 
ATOM     82  C   UNL A   1      37.296  32.662  33.591  1.00  0.00     0.133 C 
ATOM     83  C   UNL A   1      39.476  33.476  33.837  1.00  0.00     0.223 C 
ATOM     84  N   UNL A   1      38.618  32.430  34.114  1.00  0.00    -0.338 N 
ATOM     85  O   UNL A   1      40.640  33.587  34.192  1.00  0.00    -0.275 OA
BRANCH  84  86
ATOM     86  C   UNL A   1      38.979  31.247  34.876  1.00  0.00     0.155 C 
BRANCH  86  87
ATOM     87  C   UNL A   1      39.662  30.175  34.056  1.00  0.00    -0.027 A 
ATOM     88  C   UNL A   1      38.916  29.268  33.285  1.00  0.00     0.005 A 
ATOM     89  C   UNL A   1      41.061  30.081  34.034  1.00  0.00     0.026 A 
ATOM     90  C   UNL A   1      39.546  28.270  32.541  1.00  0.00     0.002 A 
ATOM     91  C   UNL A   1      41.688  29.100  33.264  1.00  0.00     0.041 A 
ATOM     92  C   UNL A   1      40.935  28.186  32.527  1.00  0.00     0.020 A 
ATOM     93  Cl  UNL A   1      43.407  29.020  33.211  1.00  0.00    -0.084 Cl
ENDBRANCH  86  87
ENDBRANCH  84  86
ENDBRANCH  77  80
ENDBRANCH  75  76
ENDBRANCH  74  75
ENDBRANCH   1  74
TORSDOF 15
ENDMDL
