MODEL 1
REMARK VINA RESULT:      -9.7      0.000      0.000
REMARK SMILES C=CCOC(=O)N[C@@H](Cc1ccccc1)C(=O)NCCCNC(=O)c1ccc(-c2c3nc(c(-c4c(F)cc(S(=O)(=O)[O-])cc4F)c4ccc([nH]4)c(-c4c(F)cc(S(=O)(=O)[O-])cc4F)c4nc(c(-c5c(F)cc(S(=O)(=O)[O-])cc5F)c5ccc2[nH]5)C=C4)C=C3)cc1
REMARK SMILES IDX 19 1 18 2 16 3 17 4 8 6 7 7 5 8 6 9 4 11 3 12 2 13 1 14 9 15
REMARK SMILES IDX 10 16 11 17 15 18 12 19 14 20 13 21 20 22 21 23 22 24 23 25
REMARK SMILES IDX 24 27 25 28 26 29 90 30 27 31 89 32 28 33 29 34 30 35 83 36
REMARK SMILES IDX 31 37 88 38 82 39 84 40 32 41 87 42 81 43 80 44 33 46 67 47
REMARK SMILES IDX 46 48 66 49 47 50 50 51 65 52 85 53 48 54 49 55 64 57 86 58
REMARK SMILES IDX 51 59 34 60 35 61 44 62 36 63 37 64 43 65 45 66 38 67 39 68
REMARK SMILES IDX 40 69 41 70 42 71 68 72 69 73 78 74 70 75 71 76 77 77 79 78
REMARK SMILES IDX 72 79 73 80 74 81 75 82 76 83 52 84 53 85 62 86 54 87 55 88
REMARK SMILES IDX 61 89 63 90 56 91 57 92 58 93 59 94 60 95
REMARK H PARENT 18 5 7 10 22 26 84 45 50 56
REMARK Flexibility Score: inf
ROOT
ATOM      1  C   UNL A   1      37.094  33.287  30.050  1.00  0.00     0.117 C 
ENDROOT
BRANCH   1   2
ATOM      2  N   UNL A   1      37.182  34.389  30.972  1.00  0.00    -0.354 N 
ATOM      3  C   UNL A   1      36.962  34.336  32.323  1.00  0.00     0.243 C 
ATOM      4  O   UNL A   1      37.535  35.181  33.020  1.00  0.00    -0.273 OA
ATOM      5  H   UNL A   1      37.422  35.265  30.595  1.00  0.00     0.163 HD
BRANCH   3   6
ATOM      6  C   UNL A   1      36.116  33.213  32.987  1.00  0.00     0.179 C 
BRANCH   6   7
ATOM      7  N   UNL A   1      36.708  32.696  34.221  1.00  0.00    -0.309 N 
ATOM      8  C   UNL A   1      37.490  31.594  34.375  1.00  0.00     0.408 C 
ATOM      9  O   UNL A   1      37.791  31.203  35.491  1.00  0.00    -0.225 OA
ATOM     10  H   UNL A   1      36.516  33.208  35.040  1.00  0.00     0.167 HD
BRANCH   8  11
ATOM     11  O   UNL A   1      37.836  31.006  33.205  1.00  0.00    -0.445 OA
BRANCH  11  12
ATOM     12  C   UNL A   1      38.086  29.597  33.283  1.00  0.00     0.262 C 
BRANCH  12  13
ATOM     13  C   UNL A   1      39.538  29.285  33.077  1.00  0.00     0.006 C 
ATOM     14  C   UNL A   1      40.532  30.068  33.520  1.00  0.00     0.007 C 
ENDBRANCH  12  13
ENDBRANCH  11  12
ENDBRANCH   8  11
ENDBRANCH   6   7
BRANCH   6  15
ATOM     15  C   UNL A   1      34.590  33.491  33.110  1.00  0.00     0.070 C 
BRANCH  15  16
ATOM     16  C   UNL A   1      34.066  34.876  32.776  1.00  0.00    -0.045 A 
ATOM     17  C   UNL A   1      33.506  35.131  31.513  1.00  0.00     0.004 A 
ATOM     18  C   UNL A   1      34.209  35.950  33.673  1.00  0.00     0.004 A 
ATOM     19  C   UNL A   1      33.204  36.439  31.119  1.00  0.00     0.000 A 
ATOM     20  C   UNL A   1      33.945  37.260  33.260  1.00  0.00     0.000 A 
ATOM     21  C   UNL A   1      33.459  37.505  31.978  1.00  0.00     0.000 A 
ENDBRANCH  15  16
ENDBRANCH   6  15
ENDBRANCH   3   6
ENDBRANCH   1   2
BRANCH   1  22
ATOM     22  C   UNL A   1      35.877  33.243  29.163  1.00  0.00     0.042 C 
BRANCH  22  23
ATOM     23  C   UNL A   1      34.753  32.405  29.732  1.00  0.00     0.118 C 
BRANCH  23  24
ATOM     24  N   UNL A   1      34.060  31.598  28.725  1.00  0.00    -0.352 N 
ATOM     25  C   UNL A   1      34.495  30.552  27.945  1.00  0.00     0.251 C 
ATOM     26  H   UNL A   1      33.117  31.848  28.582  1.00  0.00     0.163 HD
ATOM     27  O   UNL A   1      33.763  30.115  27.060  1.00  0.00    -0.269 OA
BRANCH  25  28
ATOM     28  C   UNL A   1      35.845  29.986  28.142  1.00  0.00     0.039 A 
ATOM     29  C   UNL A   1      36.788  30.083  27.116  1.00  0.00     0.014 A 
ATOM     30  C   UNL A   1      36.198  29.394  29.353  1.00  0.00     0.014 A 
ATOM     31  C   UNL A   1      38.106  29.682  27.350  1.00  0.00     0.010 A 
ATOM     32  C   UNL A   1      37.531  29.143  29.634  1.00  0.00     0.010 A 
ATOM     33  C   UNL A   1      38.501  29.265  28.632  1.00  0.00    -0.014 A 
BRANCH  33  34
ATOM     34  C   UNL A   1      39.911  28.931  28.955  1.00  0.00     0.031 A 
ATOM     35  C   UNL A   1      40.793  29.961  29.609  1.00  0.00     0.074 A 
ATOM     36  C   UNL A   1      40.418  27.740  28.582  1.00  0.00     0.049 A 
ATOM     37  N   UNL A   1      42.069  29.897  29.895  1.00  0.00    -0.248 NA
ATOM     38  C   UNL A   1      40.170  31.252  29.947  1.00  0.00     0.031 C 
ATOM     39  C   UNL A   1      39.680  26.681  27.891  1.00  0.00     0.029 A 
ATOM     40  N   UNL A   1      41.679  27.220  28.731  1.00  0.00    -0.354 N 
ATOM     41  C   UNL A   1      42.398  31.140  30.424  1.00  0.00     0.074 A 
ATOM     42  C   UNL A   1      41.214  31.964  30.338  1.00  0.00     0.031 C 
ATOM     43  C   UNL A   1      40.485  25.620  27.722  1.00  0.00     0.029 A 
ATOM     44  C   UNL A   1      41.809  25.940  28.244  1.00  0.00     0.049 A 
ATOM     45  H   UNL A   1      42.421  27.716  29.147  1.00  0.00     0.167 HD
ATOM     46  C   UNL A   1      43.569  31.550  30.967  1.00  0.00     0.037 A 
ATOM     47  C   UNL A   1      42.876  25.118  28.224  1.00  0.00     0.037 A 
ATOM     48  C   UNL A   1      44.737  30.715  31.062  1.00  0.00     0.049 A 
ATOM     49  C   UNL A   1      44.175  25.595  28.811  1.00  0.00     0.074 A 
ATOM     50  C   UNL A   1      45.959  31.005  31.641  1.00  0.00     0.029 A 
ATOM     51  N   UNL A   1      44.829  29.424  30.557  1.00  0.00    -0.354 N 
ATOM     52  N   UNL A   1      44.453  26.750  29.371  1.00  0.00    -0.248 NA
ATOM     53  C   UNL A   1      45.306  24.659  28.765  1.00  0.00     0.031 C 
ATOM     54  C   UNL A   1      46.809  29.913  31.434  1.00  0.00     0.029 A 
ATOM     55  C   UNL A   1      46.097  28.915  30.784  1.00  0.00     0.049 A 
ATOM     56  H   UNL A   1      44.100  28.942  30.104  1.00  0.00     0.167 HD
ATOM     57  C   UNL A   1      45.782  26.667  29.774  1.00  0.00     0.074 A 
ATOM     58  C   UNL A   1      46.247  25.347  29.398  1.00  0.00     0.031 C 
ATOM     59  C   UNL A   1      46.544  27.597  30.402  1.00  0.00     0.037 A 
BRANCH  46  60
ATOM     60  C   UNL A   1      43.631  32.964  31.483  1.00  0.00     0.058 A 
ATOM     61  C   UNL A   1      43.932  34.048  30.640  1.00  0.00     0.135 A 
ATOM     62  C   UNL A   1      43.418  33.239  32.843  1.00  0.00     0.135 A 
ATOM     63  F   UNL A   1      44.158  33.847  29.331  1.00  0.00    -0.206 F 
ATOM     64  C   UNL A   1      44.087  35.339  31.136  1.00  0.00     0.059 A 
ATOM     65  C   UNL A   1      43.528  34.529  33.355  1.00  0.00     0.059 A 
ATOM     66  F   UNL A   1      43.121  32.247  33.697  1.00  0.00    -0.206 F 
ATOM     67  C   UNL A   1      43.892  35.568  32.499  1.00  0.00     0.060 A 
BRANCH  67  68
ATOM     68  S   UNL A   1      44.145  37.237  33.136  1.00  0.00     0.124 S 
ATOM     69  O   UNL A   1      42.906  37.455  33.876  1.00  0.00    -0.237 OA
ATOM     70  O   UNL A   1      45.347  37.082  33.948  1.00  0.00    -0.237 OA
ATOM     71  O   UNL A   1      44.306  38.041  31.929  1.00  0.00    -0.744 OA
ENDBRANCH  67  68
ENDBRANCH  46  60
BRANCH  47  72
ATOM     72  C   UNL A   1      42.732  23.739  27.684  1.00  0.00     0.058 A 
ATOM     73  C   UNL A   1      42.550  22.650  28.550  1.00  0.00     0.135 A 
ATOM     74  C   UNL A   1      42.720  23.485  26.304  1.00  0.00     0.135 A 
ATOM     75  F   UNL A   1      42.560  22.841  29.878  1.00  0.00    -0.206 F 
ATOM     76  C   UNL A   1      42.360  21.359  28.069  1.00  0.00     0.059 A 
ATOM     77  C   UNL A   1      42.507  22.205  25.798  1.00  0.00     0.059 A 
ATOM     78  F   UNL A   1      42.874  24.495  25.433  1.00  0.00    -0.206 F 
ATOM     79  C   UNL A   1      42.330  21.149  26.690  1.00  0.00     0.060 A 
BRANCH  79  80
ATOM     80  S   UNL A   1      42.000  19.481  26.081  1.00  0.00     0.124 S 
ATOM     81  O   UNL A   1      42.851  19.424  24.898  1.00  0.00    -0.237 OA
ATOM     82  O   UNL A   1      42.418  18.657  27.211  1.00  0.00    -0.237 OA
ATOM     83  O   UNL A   1      40.563  19.494  25.823  1.00  0.00    -0.744 OA
ENDBRANCH  79  80
ENDBRANCH  47  72
BRANCH  59  84
ATOM     84  C   UNL A   1      47.954  27.210  30.756  1.00  0.00     0.058 A 
ATOM     85  C   UNL A   1      48.271  26.600  31.979  1.00  0.00     0.135 A 
ATOM     86  C   UNL A   1      48.995  27.404  29.831  1.00  0.00     0.135 A 
ATOM     87  F   UNL A   1      47.317  26.399  32.902  1.00  0.00    -0.206 F 
ATOM     88  C   UNL A   1      49.573  26.218  32.284  1.00  0.00     0.059 A 
ATOM     89  C   UNL A   1      50.297  27.000  30.101  1.00  0.00     0.059 A 
ATOM     90  F   UNL A   1      48.745  27.973  28.641  1.00  0.00    -0.206 F 
ATOM     91  C   UNL A   1      50.580  26.418  31.336  1.00  0.00     0.060 A 
BRANCH  91  92
ATOM     92  S   UNL A   1      52.258  25.882  31.731  1.00  0.00     0.124 S 
ATOM     93  O   UNL A   1      52.948  26.124  30.470  1.00  0.00    -0.237 OA
ATOM     94  O   UNL A   1      52.616  26.769  32.833  1.00  0.00    -0.237 OA
ATOM     95  O   UNL A   1      52.089  24.478  32.095  1.00  0.00    -0.744 OA
ENDBRANCH  91  92
ENDBRANCH  59  84
ENDBRANCH  33  34
ENDBRANCH  25  28
ENDBRANCH  23  24
ENDBRANCH  22  23
ENDBRANCH   1  22
TORSDOF 19
ENDMDL
MODEL 2
REMARK VINA RESULT:      -9.7      4.111      6.712
REMARK SMILES C=CCOC(=O)N[C@@H](Cc1ccccc1)C(=O)NCCCNC(=O)c1ccc(-c2c3nc(c(-c4c(F)cc(S(=O)(=O)[O-])cc4F)c4ccc([nH]4)c(-c4c(F)cc(S(=O)(=O)[O-])cc4F)c4nc(c(-c5c(F)cc(S(=O)(=O)[O-])cc5F)c5ccc2[nH]5)C=C4)C=C3)cc1
REMARK SMILES IDX 19 1 18 2 16 3 17 4 8 6 7 7 5 8 6 9 4 11 3 12 2 13 1 14 9 15
REMARK SMILES IDX 10 16 11 17 15 18 12 19 14 20 13 21 20 22 21 23 22 24 23 25
REMARK SMILES IDX 24 27 25 28 26 29 90 30 27 31 89 32 28 33 29 34 30 35 83 36
REMARK SMILES IDX 31 37 88 38 82 39 84 40 32 41 87 42 81 43 80 44 33 46 67 47
REMARK SMILES IDX 46 48 66 49 47 50 50 51 65 52 85 53 48 54 49 55 64 57 86 58
REMARK SMILES IDX 51 59 34 60 35 61 44 62 36 63 37 64 43 65 45 66 38 67 39 68
REMARK SMILES IDX 40 69 41 70 42 71 68 72 69 73 78 74 70 75 71 76 77 77 79 78
REMARK SMILES IDX 72 79 73 80 74 81 75 82 76 83 52 84 53 85 62 86 54 87 55 88
REMARK SMILES IDX 61 89 63 90 56 91 57 92 58 93 59 94 60 95
REMARK H PARENT 18 5 7 10 22 26 84 45 50 56
REMARK Flexibility Score: inf
ROOT
ATOM      1  C   UNL A   1      31.667  27.843  26.105  1.00  0.00     0.117 C 
ENDROOT
BRANCH   1   2
ATOM      2  N   UNL A   1      30.774  26.854  26.651  1.00  0.00    -0.354 N 
ATOM      3  C   UNL A   1      30.204  25.811  25.969  1.00  0.00     0.243 C 
ATOM      4  O   UNL A   1      29.895  24.812  26.628  1.00  0.00    -0.273 OA
ATOM      5  H   UNL A   1      30.551  26.936  27.605  1.00  0.00     0.163 HD
BRANCH   3   6
ATOM      6  C   UNL A   1      30.037  25.817  24.424  1.00  0.00     0.179 C 
BRANCH   6   7
ATOM      7  N   UNL A   1      30.298  24.515  23.809  1.00  0.00    -0.309 N 
ATOM      8  C   UNL A   1      31.495  23.886  23.663  1.00  0.00     0.408 C 
ATOM      9  O   UNL A   1      31.577  22.867  22.996  1.00  0.00    -0.225 OA
ATOM     10  H   UNL A   1      29.512  24.038  23.457  1.00  0.00     0.167 HD
BRANCH   8  11
ATOM     11  O   UNL A   1      32.521  24.518  24.282  1.00  0.00    -0.445 OA
BRANCH  11  12
ATOM     12  C   UNL A   1      33.739  24.581  23.530  1.00  0.00     0.262 C 
BRANCH  12  13
ATOM     13  C   UNL A   1      34.836  23.809  24.199  1.00  0.00     0.006 C 
ATOM     14  C   UNL A   1      35.468  24.229  25.304  1.00  0.00     0.007 C 
ENDBRANCH  12  13
ENDBRANCH  11  12
ENDBRANCH   8  11
ENDBRANCH   6   7
BRANCH   6  15
ATOM     15  C   UNL A   1      28.750  26.504  23.880  1.00  0.00     0.070 C 
BRANCH  15  16
ATOM     16  C   UNL A   1      28.857  27.891  23.273  1.00  0.00    -0.045 A 
ATOM     17  C   UNL A   1      27.700  28.658  23.063  1.00  0.00     0.004 A 
ATOM     18  C   UNL A   1      30.089  28.400  22.824  1.00  0.00     0.004 A 
ATOM     19  C   UNL A   1      27.758  29.847  22.327  1.00  0.00     0.000 A 
ATOM     20  C   UNL A   1      30.137  29.566  22.053  1.00  0.00     0.000 A 
ATOM     21  C   UNL A   1      28.970  30.279  21.790  1.00  0.00     0.000 A 
ENDBRANCH  15  16
ENDBRANCH   6  15
ENDBRANCH   3   6
ENDBRANCH   1   2
BRANCH   1  22
ATOM     22  C   UNL A   1      33.135  27.657  26.389  1.00  0.00     0.042 C 
BRANCH  22  23
ATOM     23  C   UNL A   1      34.000  28.755  25.806  1.00  0.00     0.118 C 
BRANCH  23  24
ATOM     24  N   UNL A   1      33.793  30.059  26.440  1.00  0.00    -0.352 N 
ATOM     25  C   UNL A   1      34.497  30.708  27.427  1.00  0.00     0.251 C 
ATOM     26  H   UNL A   1      33.015  30.558  26.100  1.00  0.00     0.163 HD
ATOM     27  O   UNL A   1      34.049  31.749  27.902  1.00  0.00    -0.269 OA
BRANCH  25  28
ATOM     28  C   UNL A   1      35.759  30.138  27.942  1.00  0.00     0.039 A 
ATOM     29  C   UNL A   1      36.951  30.369  27.250  1.00  0.00     0.014 A 
ATOM     30  C   UNL A   1      35.778  29.408  29.128  1.00  0.00     0.014 A 
ATOM     31  C   UNL A   1      38.164  29.958  27.809  1.00  0.00     0.010 A 
ATOM     32  C   UNL A   1      36.985  29.140  29.753  1.00  0.00     0.010 A 
ATOM     33  C   UNL A   1      38.195  29.394  29.094  1.00  0.00    -0.014 A 
BRANCH  33  34
ATOM     34  C   UNL A   1      39.467  29.040  29.772  1.00  0.00     0.031 A 
ATOM     35  C   UNL A   1      39.911  29.816  30.984  1.00  0.00     0.074 A 
ATOM     36  C   UNL A   1      40.260  28.085  29.248  1.00  0.00     0.049 A 
ATOM     37  N   UNL A   1      41.024  29.720  31.666  1.00  0.00    -0.248 NA
ATOM     38  C   UNL A   1      39.004  30.871  31.467  1.00  0.00     0.031 C 
ATOM     39  C   UNL A   1      39.967  27.302  28.045  1.00  0.00     0.029 A 
ATOM     40  N   UNL A   1      41.480  27.611  29.661  1.00  0.00    -0.354 N 
ATOM     41  C   UNL A   1      40.955  30.711  32.639  1.00  0.00     0.074 A 
ATOM     42  C   UNL A   1      39.736  31.451  32.404  1.00  0.00     0.031 C 
ATOM     43  C   UNL A   1      40.953  26.413  27.848  1.00  0.00     0.029 A 
ATOM     44  C   UNL A   1      41.972  26.594  28.876  1.00  0.00     0.049 A 
ATOM     45  H   UNL A   1      41.958  27.965  30.445  1.00  0.00     0.167 HD
ATOM     46  C   UNL A   1      41.809  30.962  33.659  1.00  0.00     0.037 A 
ATOM     47  C   UNL A   1      43.114  25.888  28.977  1.00  0.00     0.037 A 
ATOM     48  C   UNL A   1      43.012  30.208  33.893  1.00  0.00     0.049 A 
ATOM     49  C   UNL A   1      44.062  26.193  30.102  1.00  0.00     0.074 A 
ATOM     50  C   UNL A   1      43.923  30.336  34.926  1.00  0.00     0.029 A 
ATOM     51  N   UNL A   1      43.476  29.185  33.075  1.00  0.00    -0.354 N 
ATOM     52  N   UNL A   1      43.950  27.088  31.057  1.00  0.00    -0.248 NA
ATOM     53  C   UNL A   1      45.292  25.392  30.167  1.00  0.00     0.031 C 
ATOM     54  C   UNL A   1      44.967  29.433  34.700  1.00  0.00     0.029 A 
ATOM     55  C   UNL A   1      44.675  28.695  33.563  1.00  0.00     0.049 A 
ATOM     56  H   UNL A   1      43.019  28.858  32.267  1.00  0.00     0.167 HD
ATOM     57  C   UNL A   1      45.079  26.935  31.855  1.00  0.00     0.074 A 
ATOM     58  C   UNL A   1      45.856  25.859  31.273  1.00  0.00     0.031 C 
ATOM     59  C   UNL A   1      45.437  27.621  32.969  1.00  0.00     0.037 A 
BRANCH  46  60
ATOM     60  C   UNL A   1      41.465  32.103  34.580  1.00  0.00     0.058 A 
ATOM     61  C   UNL A   1      40.633  31.927  35.700  1.00  0.00     0.135 A 
ATOM     62  C   UNL A   1      41.946  33.397  34.326  1.00  0.00     0.135 A 
ATOM     63  F   UNL A   1      40.132  30.715  35.988  1.00  0.00    -0.206 F 
ATOM     64  C   UNL A   1      40.236  33.001  36.492  1.00  0.00     0.059 A 
ATOM     65  C   UNL A   1      41.595  34.480  35.129  1.00  0.00     0.059 A 
ATOM     66  F   UNL A   1      42.749  33.628  33.276  1.00  0.00    -0.206 F 
ATOM     67  C   UNL A   1      40.715  34.276  36.191  1.00  0.00     0.060 A 
BRANCH  67  68
ATOM     68  S   UNL A   1      40.152  35.665  37.196  1.00  0.00     0.124 S 
ATOM     69  O   UNL A   1      39.705  36.602  36.169  1.00  0.00    -0.237 OA
ATOM     70  O   UNL A   1      39.098  35.061  38.002  1.00  0.00    -0.237 OA
ATOM     71  O   UNL A   1      41.350  36.062  37.929  1.00  0.00    -0.744 OA
ENDBRANCH  67  68
ENDBRANCH  46  60
BRANCH  47  72
ATOM     72  C   UNL A   1      43.383  24.783  28.017  1.00  0.00     0.058 A 
ATOM     73  C   UNL A   1      44.072  25.032  26.820  1.00  0.00     0.135 A 
ATOM     74  C   UNL A   1      43.011  23.459  28.293  1.00  0.00     0.135 A 
ATOM     75  F   UNL A   1      44.443  26.283  26.508  1.00  0.00    -0.206 F 
ATOM     76  C   UNL A   1      44.383  24.009  25.931  1.00  0.00     0.059 A 
ATOM     77  C   UNL A   1      43.334  22.414  27.431  1.00  0.00     0.059 A 
ATOM     78  F   UNL A   1      42.365  23.165  29.432  1.00  0.00    -0.206 F 
ATOM     79  C   UNL A   1      44.018  22.701  26.251  1.00  0.00     0.060 A 
BRANCH  79  80
ATOM     80  S   UNL A   1      44.503  21.373  25.127  1.00  0.00     0.124 S 
ATOM     81  O   UNL A   1      44.384  22.027  23.829  1.00  0.00    -0.237 OA
ATOM     82  O   UNL A   1      45.862  21.078  25.573  1.00  0.00    -0.237 OA
ATOM     83  O   UNL A   1      43.522  20.327  25.397  1.00  0.00    -0.744 OA
ENDBRANCH  79  80
ENDBRANCH  47  72
BRANCH  59  84
ATOM     84  C   UNL A   1      46.709  27.207  33.658  1.00  0.00     0.058 A 
ATOM     85  C   UNL A   1      46.729  26.203  34.638  1.00  0.00     0.135 A 
ATOM     86  C   UNL A   1      47.935  27.787  33.289  1.00  0.00     0.135 A 
ATOM     87  F   UNL A   1      45.585  25.622  35.035  1.00  0.00    -0.206 F 
ATOM     88  C   UNL A   1      47.915  25.806  35.247  1.00  0.00     0.059 A 
ATOM     89  C   UNL A   1      49.136  27.382  33.860  1.00  0.00     0.059 A 
ATOM     90  F   UNL A   1      47.974  28.744  32.348  1.00  0.00    -0.206 F 
ATOM     91  C   UNL A   1      49.115  26.398  34.847  1.00  0.00     0.060 A 
BRANCH  91  92
ATOM     92  S   UNL A   1      50.651  25.844  35.617  1.00  0.00     0.124 S 
ATOM     93  O   UNL A   1      51.378  25.310  34.472  1.00  0.00    -0.237 OA
ATOM     94  O   UNL A   1      51.178  27.082  36.183  1.00  0.00    -0.237 OA
ATOM     95  O   UNL A   1      50.203  24.856  36.595  1.00  0.00    -0.744 OA
ENDBRANCH  91  92
ENDBRANCH  59  84
ENDBRANCH  33  34
ENDBRANCH  25  28
ENDBRANCH  23  24
ENDBRANCH  22  23
ENDBRANCH   1  22
TORSDOF 19
ENDMDL
MODEL 3
REMARK VINA RESULT:      -9.6      3.701      6.532
REMARK SMILES C=CCOC(=O)N[C@@H](Cc1ccccc1)C(=O)NCCCNC(=O)c1ccc(-c2c3nc(c(-c4c(F)cc(S(=O)(=O)[O-])cc4F)c4ccc([nH]4)c(-c4c(F)cc(S(=O)(=O)[O-])cc4F)c4nc(c(-c5c(F)cc(S(=O)(=O)[O-])cc5F)c5ccc2[nH]5)C=C4)C=C3)cc1
REMARK SMILES IDX 19 1 18 2 16 3 17 4 8 6 7 7 5 8 6 9 4 11 3 12 2 13 1 14 9 15
REMARK SMILES IDX 10 16 11 17 15 18 12 19 14 20 13 21 20 22 21 23 22 24 23 25
REMARK SMILES IDX 24 27 25 28 26 29 90 30 27 31 89 32 28 33 29 34 30 35 83 36
REMARK SMILES IDX 31 37 88 38 82 39 84 40 32 41 87 42 81 43 80 44 33 46 67 47
REMARK SMILES IDX 46 48 66 49 47 50 50 51 65 52 85 53 48 54 49 55 64 57 86 58
REMARK SMILES IDX 51 59 34 60 35 61 44 62 36 63 37 64 43 65 45 66 38 67 39 68
REMARK SMILES IDX 40 69 41 70 42 71 68 72 69 73 78 74 70 75 71 76 77 77 79 78
REMARK SMILES IDX 72 79 73 80 74 81 75 82 76 83 52 84 53 85 62 86 54 87 55 88
REMARK SMILES IDX 61 89 63 90 56 91 57 92 58 93 59 94 60 95
REMARK H PARENT 18 5 7 10 22 26 84 45 50 56
REMARK Flexibility Score: inf
ROOT
ATOM      1  C   UNL A   1      32.969  25.509  26.502  1.00  0.00     0.117 C 
ENDROOT
BRANCH   1   2
ATOM      2  N   UNL A   1      31.620  25.144  26.849  1.00  0.00    -0.354 N 
ATOM      3  C   UNL A   1      30.971  23.995  26.481  1.00  0.00     0.243 C 
ATOM      4  O   UNL A   1      30.065  23.599  27.223  1.00  0.00    -0.273 OA
ATOM      5  H   UNL A   1      31.116  25.781  27.404  1.00  0.00     0.163 HD
BRANCH   3   6
ATOM      6  C   UNL A   1      31.401  23.153  25.247  1.00  0.00     0.179 C 
BRANCH   6   7
ATOM      7  N   UNL A   1      31.470  21.717  25.522  1.00  0.00    -0.309 N 
ATOM      8  C   UNL A   1      32.301  20.798  24.960  1.00  0.00     0.408 C 
ATOM      9  O   UNL A   1      32.143  19.609  25.183  1.00  0.00    -0.225 OA
ATOM     10  H   UNL A   1      30.838  21.375  26.195  1.00  0.00     0.167 HD
BRANCH   8  11
ATOM     11  O   UNL A   1      33.238  21.339  24.146  1.00  0.00    -0.445 OA
BRANCH  11  12
ATOM     12  C   UNL A   1      34.541  21.476  24.725  1.00  0.00     0.262 C 
BRANCH  12  13
ATOM     13  C   UNL A   1      35.354  22.513  24.009  1.00  0.00     0.006 C 
ATOM     14  C   UNL A   1      35.648  23.712  24.531  1.00  0.00     0.007 C 
ENDBRANCH  12  13
ENDBRANCH  11  12
ENDBRANCH   8  11
ENDBRANCH   6   7
BRANCH   6  15
ATOM     15  C   UNL A   1      30.679  23.486  23.909  1.00  0.00     0.070 C 
BRANCH  15  16
ATOM     16  C   UNL A   1      30.691  24.917  23.404  1.00  0.00    -0.045 A 
ATOM     17  C   UNL A   1      31.719  25.355  22.554  1.00  0.00     0.004 A 
ATOM     18  C   UNL A   1      29.739  25.857  23.842  1.00  0.00     0.004 A 
ATOM     19  C   UNL A   1      31.857  26.712  22.242  1.00  0.00     0.000 A 
ATOM     20  C   UNL A   1      29.904  27.217  23.562  1.00  0.00     0.000 A 
ATOM     21  C   UNL A   1      30.972  27.646  22.778  1.00  0.00     0.000 A 
ENDBRANCH  15  16
ENDBRANCH   6  15
ENDBRANCH   3   6
ENDBRANCH   1   2
BRANCH   1  22
ATOM     22  C   UNL A   1      33.154  26.842  25.824  1.00  0.00     0.042 C 
BRANCH  22  23
ATOM     23  C   UNL A   1      34.221  27.699  26.471  1.00  0.00     0.118 C 
BRANCH  23  24
ATOM     24  N   UNL A   1      33.728  29.002  26.922  1.00  0.00    -0.352 N 
ATOM     25  C   UNL A   1      34.323  29.983  27.680  1.00  0.00     0.251 C 
ATOM     26  H   UNL A   1      32.811  29.213  26.631  1.00  0.00     0.163 HD
ATOM     27  O   UNL A   1      33.656  30.946  28.052  1.00  0.00    -0.269 OA
BRANCH  25  28
ATOM     28  C   UNL A   1      35.741  29.861  28.079  1.00  0.00     0.039 A 
ATOM     29  C   UNL A   1      36.058  29.395  29.357  1.00  0.00     0.014 A 
ATOM     30  C   UNL A   1      36.761  30.169  27.180  1.00  0.00     0.014 A 
ATOM     31  C   UNL A   1      37.392  29.139  29.686  1.00  0.00     0.010 A 
ATOM     32  C   UNL A   1      38.059  29.771  27.452  1.00  0.00     0.010 A 
ATOM     33  C   UNL A   1      38.397  29.268  28.714  1.00  0.00    -0.014 A 
BRANCH  33  34
ATOM     34  C   UNL A   1      39.811  28.907  28.986  1.00  0.00     0.031 A 
ATOM     35  C   UNL A   1      40.737  29.921  29.605  1.00  0.00     0.074 A 
ATOM     36  C   UNL A   1      40.281  27.705  28.598  1.00  0.00     0.049 A 
ATOM     37  N   UNL A   1      42.021  29.832  29.844  1.00  0.00    -0.248 NA
ATOM     38  C   UNL A   1      40.152  31.225  29.962  1.00  0.00     0.031 C 
ATOM     39  C   UNL A   1      39.497  26.660  27.937  1.00  0.00     0.029 A 
ATOM     40  N   UNL A   1      41.536  27.160  28.702  1.00  0.00    -0.354 N 
ATOM     41  C   UNL A   1      42.394  31.069  30.358  1.00  0.00     0.074 A 
ATOM     42  C   UNL A   1      41.224  31.917  30.313  1.00  0.00     0.031 C 
ATOM     43  C   UNL A   1      40.275  25.583  27.742  1.00  0.00     0.029 A 
ATOM     44  C   UNL A   1      41.623  25.878  28.214  1.00  0.00     0.049 A 
ATOM     45  H   UNL A   1      42.302  27.643  29.089  1.00  0.00     0.167 HD
ATOM     46  C   UNL A   1      43.591  31.457  30.856  1.00  0.00     0.037 A 
ATOM     47  C   UNL A   1      42.672  25.034  28.158  1.00  0.00     0.037 A 
ATOM     48  C   UNL A   1      44.745  30.599  30.911  1.00  0.00     0.049 A 
ATOM     49  C   UNL A   1      44.001  25.488  28.695  1.00  0.00     0.074 A 
ATOM     50  C   UNL A   1      45.993  30.866  31.444  1.00  0.00     0.029 A 
ATOM     51  N   UNL A   1      44.794  29.306  30.406  1.00  0.00    -0.354 N 
ATOM     52  N   UNL A   1      44.322  26.637  29.242  1.00  0.00    -0.248 NA
ATOM     53  C   UNL A   1      45.110  24.529  28.611  1.00  0.00     0.031 C 
ATOM     54  C   UNL A   1      46.813  29.757  31.209  1.00  0.00     0.029 A 
ATOM     55  C   UNL A   1      46.058  28.773  30.588  1.00  0.00     0.049 A 
ATOM     56  H   UNL A   1      44.039  28.838  29.982  1.00  0.00     0.167 HD
ATOM     57  C   UNL A   1      45.662  26.529  29.596  1.00  0.00     0.074 A 
ATOM     58  C   UNL A   1      46.087  25.199  29.206  1.00  0.00     0.031 C 
ATOM     59  C   UNL A   1      46.466  27.445  30.193  1.00  0.00     0.037 A 
BRANCH  46  60
ATOM     60  C   UNL A   1      43.700  32.871  31.366  1.00  0.00     0.058 A 
ATOM     61  C   UNL A   1      44.154  33.921  30.548  1.00  0.00     0.135 A 
ATOM     62  C   UNL A   1      43.377  33.178  32.696  1.00  0.00     0.135 A 
ATOM     63  F   UNL A   1      44.490  33.687  29.269  1.00  0.00    -0.206 F 
ATOM     64  C   UNL A   1      44.348  35.205  31.048  1.00  0.00     0.059 A 
ATOM     65  C   UNL A   1      43.525  34.465  33.208  1.00  0.00     0.059 A 
ATOM     66  F   UNL A   1      42.932  32.220  33.525  1.00  0.00    -0.206 F 
ATOM     67  C   UNL A   1      44.040  35.464  32.384  1.00  0.00     0.060 A 
BRANCH  67  68
ATOM     68  S   UNL A   1      44.344  37.121  33.031  1.00  0.00     0.124 S 
ATOM     69  O   UNL A   1      43.670  37.949  32.034  1.00  0.00    -0.237 OA
ATOM     70  O   UNL A   1      43.708  37.066  34.342  1.00  0.00    -0.237 OA
ATOM     71  O   UNL A   1      45.800  37.218  33.046  1.00  0.00    -0.744 OA
ENDBRANCH  67  68
ENDBRANCH  46  60
BRANCH  47  72
ATOM     72  C   UNL A   1      42.481  23.658  27.627  1.00  0.00     0.058 A 
ATOM     73  C   UNL A   1      42.583  23.405  26.251  1.00  0.00     0.135 A 
ATOM     74  C   UNL A   1      42.250  22.565  28.476  1.00  0.00     0.135 A 
ATOM     75  F   UNL A   1      42.797  24.417  25.398  1.00  0.00    -0.206 F 
ATOM     76  C   UNL A   1      42.462  22.119  25.734  1.00  0.00     0.059 A 
ATOM     77  C   UNL A   1      42.150  21.266  27.986  1.00  0.00     0.059 A 
ATOM     78  F   UNL A   1      42.161  22.751  29.803  1.00  0.00    -0.206 F 
ATOM     79  C   UNL A   1      42.256  21.054  26.612  1.00  0.00     0.060 A 
BRANCH  79  80
ATOM     80  S   UNL A   1      42.185  19.382  25.934  1.00  0.00     0.124 S 
ATOM     81  O   UNL A   1      43.040  19.503  24.759  1.00  0.00    -0.237 OA
ATOM     82  O   UNL A   1      42.720  18.585  27.034  1.00  0.00    -0.237 OA
ATOM     83  O   UNL A   1      40.764  19.188  25.663  1.00  0.00    -0.744 OA
ENDBRANCH  79  80
ENDBRANCH  47  72
BRANCH  59  84
ATOM     84  C   UNL A   1      47.880  27.031  30.497  1.00  0.00     0.058 A 
ATOM     85  C   UNL A   1      48.959  27.433  29.694  1.00  0.00     0.135 A 
ATOM     86  C   UNL A   1      48.164  26.268  31.642  1.00  0.00     0.135 A 
ATOM     87  F   UNL A   1      48.744  28.156  28.584  1.00  0.00    -0.206 F 
ATOM     88  C   UNL A   1      50.266  27.071  30.002  1.00  0.00     0.059 A 
ATOM     89  C   UNL A   1      49.466  25.923  31.987  1.00  0.00     0.059 A 
ATOM     90  F   UNL A   1      47.170  25.867  32.451  1.00  0.00    -0.206 F 
ATOM     91  C   UNL A   1      50.511  26.320  31.154  1.00  0.00     0.060 A 
BRANCH  91  92
ATOM     92  S   UNL A   1      52.216  25.892  31.561  1.00  0.00     0.124 S 
ATOM     93  O   UNL A   1      52.586  26.979  32.459  1.00  0.00    -0.237 OA
ATOM     94  O   UNL A   1      52.067  24.578  32.180  1.00  0.00    -0.237 OA
ATOM     95  O   UNL A   1      52.886  25.894  30.263  1.00  0.00    -0.744 OA
ENDBRANCH  91  92
ENDBRANCH  59  84
ENDBRANCH  33  34
ENDBRANCH  25  28
ENDBRANCH  23  24
ENDBRANCH  22  23
ENDBRANCH   1  22
TORSDOF 19
ENDMDL
