MODEL 1
REMARK VINA RESULT:     -13.4      0.000      0.000
REMARK SMILES CC(C)=C1[C@H]2CC[C@@H]1[C@H](C(=O)NNC(=O)c1ccoc1C)[C@H]2C(=O)NCCCNC(=O)c1ccc(-c2c3nc(c(-c4c(F)cc(S(=O)(=O)[O-])cc4F)c4ccc([nH]4)c(-c4c(F)cc(S(=O)(=O)[O-])cc4F)c4nc(c(-c5c(F)cc(S(=O)(=O)[O-])cc5F)c5ccc2[nH]5)C=C4)C=C3)cc1
REMARK SMILES IDX 27 1 26 2 25 3 23 4 24 5 22 7 1 8 2 9 3 10 4 11 5 12 8 13
REMARK SMILES IDX 6 14 7 15 9 16 10 17 11 18 12 19 13 21 14 22 15 24 16 25
REMARK SMILES IDX 17 26 20 27 18 28 19 29 21 30 28 31 29 32 30 33 31 35 32 36
REMARK SMILES IDX 33 37 97 38 34 39 96 40 35 41 36 42 37 43 90 44 38 45 95 46
REMARK SMILES IDX 89 47 91 48 39 49 94 50 88 51 87 52 40 54 74 55 53 56 73 57
REMARK SMILES IDX 54 58 57 59 72 60 92 61 55 62 56 63 71 65 93 66 58 67 41 68
REMARK SMILES IDX 42 69 51 70 43 71 44 72 50 73 52 74 45 75 46 76 47 77 48 78
REMARK SMILES IDX 49 79 75 80 76 81 85 82 77 83 78 84 84 85 86 86 79 87 80 88
REMARK SMILES IDX 81 89 82 90 83 91 59 92 60 93 69 94 61 95 62 96 68 97 70 98
REMARK SMILES IDX 63 99 64 100 65 101 66 102 67 103
REMARK H PARENT 25 6 12 20 13 23 29 34 91 53 57 64
REMARK Flexibility Score: inf
ROOT
ATOM      1  C   UNL A   1      34.377  30.254  26.860  1.00  0.00     0.042 C 
ENDROOT
BRANCH   1   2
ATOM      2  C   UNL A   1      32.913  30.582  27.112  1.00  0.00     0.117 C 
BRANCH   2   3
ATOM      3  N   UNL A   1      32.185  29.425  27.606  1.00  0.00    -0.356 N 
ATOM      4  C   UNL A   1      31.921  28.196  27.106  1.00  0.00     0.224 C 
ATOM      5  O   UNL A   1      31.148  27.506  27.783  1.00  0.00    -0.275 OA
ATOM      6  H   UNL A   1      31.800  29.567  28.501  1.00  0.00     0.163 HD
BRANCH   4   7
ATOM      7  C   UNL A   1      32.507  27.605  25.829  1.00  0.00     0.098 C 
ATOM      8  C   UNL A   1      30.720  23.237  25.257  1.00  0.00     0.039 C 
ATOM      9  C   UNL A   1      31.768  24.081  25.929  1.00  0.00    -0.077 C 
ATOM     10  C   UNL A   1      32.404  23.421  27.129  1.00  0.00     0.039 C 
ATOM     11  C   UNL A   1      32.152  25.282  25.461  1.00  0.00    -0.064 C 
ATOM     12  C   UNL A   1      33.203  26.237  25.960  1.00  0.00     0.028 C 
ATOM     13  C   UNL A   1      31.833  25.992  24.165  1.00  0.00     0.028 C 
ATOM     14  C   UNL A   1      34.182  26.082  24.779  1.00  0.00     0.009 C 
ATOM     15  C   UNL A   1      33.248  25.893  23.561  1.00  0.00     0.009 C 
ATOM     16  C   UNL A   1      31.515  27.421  24.662  1.00  0.00     0.100 C 
BRANCH  16  17
ATOM     17  C   UNL A   1      31.684  28.473  23.575  1.00  0.00     0.242 C 
ATOM     18  O   UNL A   1      32.753  29.043  23.355  1.00  0.00    -0.273 OA
ATOM     19  N   UNL A   1      30.612  28.798  22.786  1.00  0.00    -0.267 N 
ATOM     20  H   UNL A   1      30.761  29.474  22.086  1.00  0.00     0.191 HD
BRANCH  19  21
ATOM     21  N   UNL A   1      29.328  28.263  22.884  1.00  0.00    -0.263 N 
ATOM     22  C   UNL A   1      28.171  29.014  22.767  1.00  0.00     0.273 C 
ATOM     23  H   UNL A   1      29.239  27.296  23.044  1.00  0.00     0.191 HD
ATOM     24  O   UNL A   1      27.107  28.548  23.172  1.00  0.00    -0.267 OA
BRANCH  22  25
ATOM     25  C   UNL A   1      28.254  30.358  22.222  1.00  0.00     0.082 A 
ATOM     26  C   UNL A   1      27.964  30.751  20.882  1.00  0.00     0.056 A 
ATOM     27  C   UNL A   1      28.695  31.511  22.856  1.00  0.00     0.113 A 
ATOM     28  C   UNL A   1      28.183  32.104  20.811  1.00  0.00     0.196 A 
ATOM     29  O   UNL A   1      28.623  32.573  22.004  1.00  0.00    -0.469 OA
ATOM     30  C   UNL A   1      29.229  31.814  24.201  1.00  0.00     0.088 C 
ENDBRANCH  22  25
ENDBRANCH  19  21
ENDBRANCH  16  17
ENDBRANCH   4   7
ENDBRANCH   2   3
ENDBRANCH   1   2
BRANCH   1  31
ATOM     31  C   UNL A   1      35.073  29.605  28.049  1.00  0.00     0.118 C 
BRANCH  31  32
ATOM     32  N   UNL A   1      35.222  30.531  29.162  1.00  0.00    -0.352 N 
ATOM     33  C   UNL A   1      36.303  30.791  29.972  1.00  0.00     0.251 C 
ATOM     34  H   UNL A   1      34.418  31.059  29.369  1.00  0.00     0.163 HD
ATOM     35  O   UNL A   1      36.121  31.430  31.007  1.00  0.00    -0.269 OA
BRANCH  33  36
ATOM     36  C   UNL A   1      37.667  30.316  29.631  1.00  0.00     0.039 A 
ATOM     37  C   UNL A   1      38.549  30.001  30.672  1.00  0.00     0.014 A 
ATOM     38  C   UNL A   1      38.118  30.257  28.310  1.00  0.00     0.014 A 
ATOM     39  C   UNL A   1      39.855  29.587  30.389  1.00  0.00     0.010 A 
ATOM     40  C   UNL A   1      39.394  29.770  28.025  1.00  0.00     0.010 A 
ATOM     41  C   UNL A   1      40.283  29.445  29.059  1.00  0.00    -0.014 A 
BRANCH  41  42
ATOM     42  C   UNL A   1      41.664  29.007  28.725  1.00  0.00     0.031 A 
ATOM     43  C   UNL A   1      42.785  30.014  28.688  1.00  0.00     0.074 A 
ATOM     44  C   UNL A   1      41.903  27.726  28.379  1.00  0.00     0.049 A 
ATOM     45  N   UNL A   1      44.019  29.864  28.281  1.00  0.00    -0.248 NA
ATOM     46  C   UNL A   1      42.464  31.380  29.136  1.00  0.00     0.031 C 
ATOM     47  C   UNL A   1      40.902  26.658  28.326  1.00  0.00     0.029 A 
ATOM     48  N   UNL A   1      43.065  27.108  27.987  1.00  0.00    -0.354 N 
ATOM     49  C   UNL A   1      44.607  31.120  28.378  1.00  0.00     0.074 A 
ATOM     50  C   UNL A   1      43.590  32.026  28.866  1.00  0.00     0.031 C 
ATOM     51  C   UNL A   1      41.494  25.519  27.931  1.00  0.00     0.029 A 
ATOM     52  C   UNL A   1      42.907  25.779  27.674  1.00  0.00     0.049 A 
ATOM     53  H   UNL A   1      43.931  27.575  27.933  1.00  0.00     0.167 HD
ATOM     54  C   UNL A   1      45.881  31.485  28.098  1.00  0.00     0.037 A 
ATOM     55  C   UNL A   1      43.795  24.875  27.221  1.00  0.00     0.037 A 
ATOM     56  C   UNL A   1      46.913  30.573  27.685  1.00  0.00     0.049 A 
ATOM     57  C   UNL A   1      45.225  25.286  26.998  1.00  0.00     0.074 A 
ATOM     58  C   UNL A   1      48.253  30.837  27.454  1.00  0.00     0.029 A 
ATOM     59  N   UNL A   1      46.727  29.220  27.457  1.00  0.00    -0.354 N 
ATOM     60  N   UNL A   1      45.768  26.471  27.131  1.00  0.00    -0.248 NA
ATOM     61  C   UNL A   1      46.160  24.237  26.568  1.00  0.00     0.031 C 
ATOM     62  C   UNL A   1      48.875  29.642  27.075  1.00  0.00     0.029 A 
ATOM     63  C   UNL A   1      47.926  28.633  27.090  1.00  0.00     0.049 A 
ATOM     64  H   UNL A   1      45.869  28.744  27.543  1.00  0.00     0.167 HD
ATOM     65  C   UNL A   1      47.112  26.307  26.816  1.00  0.00     0.074 A 
ATOM     66  C   UNL A   1      47.302  24.908  26.498  1.00  0.00     0.031 C 
ATOM     67  C   UNL A   1      48.100  27.235  26.790  1.00  0.00     0.037 A 
BRANCH  54  68
ATOM     68  C   UNL A   1      46.235  32.937  28.242  1.00  0.00     0.058 A 
ATOM     69  C   UNL A   1      46.716  33.460  29.451  1.00  0.00     0.135 A 
ATOM     70  C   UNL A   1      46.130  33.806  27.144  1.00  0.00     0.135 A 
ATOM     71  F   UNL A   1      46.818  32.673  30.534  1.00  0.00    -0.206 F 
ATOM     72  C   UNL A   1      47.059  34.802  29.576  1.00  0.00     0.059 A 
ATOM     73  C   UNL A   1      46.487  35.147  27.241  1.00  0.00     0.059 A 
ATOM     74  F   UNL A   1      45.675  33.354  25.966  1.00  0.00    -0.206 F 
ATOM     75  C   UNL A   1      46.938  35.639  28.465  1.00  0.00     0.060 A 
BRANCH  75  76
ATOM     76  S   UNL A   1      47.395  37.378  28.632  1.00  0.00     0.124 S 
ATOM     77  O   UNL A   1      47.925  37.409  29.991  1.00  0.00    -0.237 OA
ATOM     78  O   UNL A   1      48.377  37.551  27.566  1.00  0.00    -0.237 OA
ATOM     79  O   UNL A   1      46.132  38.080  28.433  1.00  0.00    -0.744 OA
ENDBRANCH  75  76
ENDBRANCH  54  68
BRANCH  55  80
ATOM     80  C   UNL A   1      43.362  23.479  26.958  1.00  0.00     0.058 A 
ATOM     81  C   UNL A   1      43.121  23.037  25.649  1.00  0.00     0.135 A 
ATOM     82  C   UNL A   1      43.191  22.562  28.005  1.00  0.00     0.135 A 
ATOM     83  F   UNL A   1      43.267  23.884  24.618  1.00  0.00    -0.206 F 
ATOM     84  C   UNL A   1      42.711  21.735  25.385  1.00  0.00     0.059 A 
ATOM     85  C   UNL A   1      42.798  21.249  27.764  1.00  0.00     0.059 A 
ATOM     86  F   UNL A   1      43.427  22.937  29.272  1.00  0.00    -0.206 F 
ATOM     87  C   UNL A   1      42.551  20.849  26.451  1.00  0.00     0.060 A 
BRANCH  87  88
ATOM     88  S   UNL A   1      42.070  19.142  26.105  1.00  0.00     0.124 S 
ATOM     89  O   UNL A   1      42.401  18.485  27.364  1.00  0.00    -0.237 OA
ATOM     90  O   UNL A   1      40.647  19.271  25.805  1.00  0.00    -0.237 OA
ATOM     91  O   UNL A   1      42.910  18.788  24.965  1.00  0.00    -0.744 OA
ENDBRANCH  87  88
ENDBRANCH  55  80
BRANCH  67  92
ATOM     92  C   UNL A   1      49.477  26.763  26.433  1.00  0.00     0.058 A 
ATOM     93  C   UNL A   1      50.312  26.163  27.387  1.00  0.00     0.135 A 
ATOM     94  C   UNL A   1      49.946  26.866  25.114  1.00  0.00     0.135 A 
ATOM     95  F   UNL A   1      49.909  26.048  28.661  1.00  0.00    -0.206 F 
ATOM     96  C   UNL A   1      51.576  25.692  27.047  1.00  0.00     0.059 A 
ATOM     97  C   UNL A   1      51.200  26.388  24.749  1.00  0.00     0.059 A 
ATOM     98  F   UNL A   1      49.179  27.427  24.166  1.00  0.00    -0.206 F 
ATOM     99  C   UNL A   1      52.012  25.811  25.726  1.00  0.00     0.060 A 
BRANCH  99 100
ATOM    100  S   UNL A   1      53.639  25.165  25.280  1.00  0.00     0.124 S 
ATOM    101  O   UNL A   1      53.791  25.671  23.920  1.00  0.00    -0.237 OA
ATOM    102  O   UNL A   1      54.509  25.772  26.283  1.00  0.00    -0.237 OA
ATOM    103  O   UNL A   1      53.471  23.721  25.399  1.00  0.00    -0.744 OA
ENDBRANCH  99 100
ENDBRANCH  67  92
ENDBRANCH  41  42
ENDBRANCH  33  36
ENDBRANCH  31  32
ENDBRANCH   1  31
TORSDOF 16
ENDMDL
MODEL 2
REMARK VINA RESULT:     -13.0      0.665      8.077
REMARK SMILES CC(C)=C1[C@H]2CC[C@@H]1[C@H](C(=O)NNC(=O)c1ccoc1C)[C@H]2C(=O)NCCCNC(=O)c1ccc(-c2c3nc(c(-c4c(F)cc(S(=O)(=O)[O-])cc4F)c4ccc([nH]4)c(-c4c(F)cc(S(=O)(=O)[O-])cc4F)c4nc(c(-c5c(F)cc(S(=O)(=O)[O-])cc5F)c5ccc2[nH]5)C=C4)C=C3)cc1
REMARK SMILES IDX 27 1 26 2 25 3 23 4 24 5 22 7 1 8 2 9 3 10 4 11 5 12 8 13
REMARK SMILES IDX 6 14 7 15 9 16 10 17 11 18 12 19 13 21 14 22 15 24 16 25
REMARK SMILES IDX 17 26 20 27 18 28 19 29 21 30 28 31 29 32 30 33 31 35 32 36
REMARK SMILES IDX 33 37 97 38 34 39 96 40 35 41 36 42 37 43 90 44 38 45 95 46
REMARK SMILES IDX 89 47 91 48 39 49 94 50 88 51 87 52 40 54 74 55 53 56 73 57
REMARK SMILES IDX 54 58 57 59 72 60 92 61 55 62 56 63 71 65 93 66 58 67 41 68
REMARK SMILES IDX 42 69 51 70 43 71 44 72 50 73 52 74 45 75 46 76 47 77 48 78
REMARK SMILES IDX 49 79 75 80 76 81 85 82 77 83 78 84 84 85 86 86 79 87 80 88
REMARK SMILES IDX 81 89 82 90 83 91 59 92 60 93 69 94 61 95 62 96 68 97 70 98
REMARK SMILES IDX 63 99 64 100 65 101 66 102 67 103
REMARK H PARENT 25 6 12 20 13 23 29 34 91 53 57 64
REMARK Flexibility Score: inf
ROOT
ATOM      1  C   UNL A   1      34.725  30.152  27.424  1.00  0.00     0.042 C 
ENDROOT
BRANCH   1   2
ATOM      2  C   UNL A   1      33.270  30.577  27.291  1.00  0.00     0.117 C 
BRANCH   2   3
ATOM      3  N   UNL A   1      32.365  29.497  27.648  1.00  0.00    -0.356 N 
ATOM      4  C   UNL A   1      31.984  28.350  27.042  1.00  0.00     0.224 C 
ATOM      5  O   UNL A   1      31.081  27.725  27.613  1.00  0.00    -0.275 OA
ATOM      6  H   UNL A   1      31.936  29.630  28.524  1.00  0.00     0.163 HD
BRANCH   4   7
ATOM      7  C   UNL A   1      32.584  27.771  25.765  1.00  0.00     0.098 C 
ATOM      8  C   UNL A   1      30.539  23.558  24.940  1.00  0.00     0.039 C 
ATOM      9  C   UNL A   1      31.611  24.303  25.688  1.00  0.00    -0.077 C 
ATOM     10  C   UNL A   1      32.151  23.555  26.884  1.00  0.00     0.039 C 
ATOM     11  C   UNL A   1      32.093  25.493  25.286  1.00  0.00    -0.064 C 
ATOM     12  C   UNL A   1      33.183  26.355  25.866  1.00  0.00     0.028 C 
ATOM     13  C   UNL A   1      31.876  26.273  24.009  1.00  0.00     0.028 C 
ATOM     14  C   UNL A   1      34.198  26.180  24.720  1.00  0.00     0.009 C 
ATOM     15  C   UNL A   1      33.307  26.102  23.458  1.00  0.00     0.009 C 
ATOM     16  C   UNL A   1      31.633  27.699  24.553  1.00  0.00     0.100 C 
BRANCH  16  17
ATOM     17  C   UNL A   1      31.916  28.780  23.518  1.00  0.00     0.242 C 
ATOM     18  O   UNL A   1      33.019  29.315  23.394  1.00  0.00    -0.273 OA
ATOM     19  N   UNL A   1      30.916  29.171  22.668  1.00  0.00    -0.267 N 
ATOM     20  H   UNL A   1      31.139  29.863  22.004  1.00  0.00     0.191 HD
BRANCH  19  21
ATOM     21  N   UNL A   1      29.610  28.682  22.657  1.00  0.00    -0.263 N 
ATOM     22  C   UNL A   1      28.491  29.475  22.844  1.00  0.00     0.273 C 
ATOM     23  H   UNL A   1      29.476  27.719  22.506  1.00  0.00     0.191 HD
ATOM     24  O   UNL A   1      27.419  28.946  23.133  1.00  0.00    -0.267 OA
BRANCH  22  25
ATOM     25  C   UNL A   1      28.625  30.919  22.750  1.00  0.00     0.082 A 
ATOM     26  C   UNL A   1      28.950  31.813  23.813  1.00  0.00     0.056 A 
ATOM     27  C   UNL A   1      28.398  31.727  21.646  1.00  0.00     0.113 A 
ATOM     28  C   UNL A   1      28.961  33.076  23.277  1.00  0.00     0.196 A 
ATOM     29  O   UNL A   1      28.632  33.033  21.963  1.00  0.00    -0.469 OA
ATOM     30  C   UNL A   1      27.951  31.484  20.257  1.00  0.00     0.088 C 
ENDBRANCH  22  25
ENDBRANCH  19  21
ENDBRANCH  16  17
ENDBRANCH   4   7
ENDBRANCH   2   3
ENDBRANCH   1   2
BRANCH   1  31
ATOM     31  C   UNL A   1      35.587  31.147  28.191  1.00  0.00     0.118 C 
BRANCH  31  32
ATOM     32  N   UNL A   1      35.612  30.857  29.617  1.00  0.00    -0.352 N 
ATOM     33  C   UNL A   1      36.537  30.181  30.377  1.00  0.00     0.251 C 
ATOM     34  H   UNL A   1      34.840  31.201  30.121  1.00  0.00     0.163 HD
ATOM     35  O   UNL A   1      36.226  29.840  31.516  1.00  0.00    -0.269 OA
BRANCH  33  36
ATOM     36  C   UNL A   1      37.887  29.853  29.855  1.00  0.00     0.039 A 
ATOM     37  C   UNL A   1      38.902  29.536  30.765  1.00  0.00     0.014 A 
ATOM     38  C   UNL A   1      38.190  29.933  28.493  1.00  0.00     0.014 A 
ATOM     39  C   UNL A   1      40.196  29.259  30.311  1.00  0.00     0.010 A 
ATOM     40  C   UNL A   1      39.459  29.580  28.033  1.00  0.00     0.010 A 
ATOM     41  C   UNL A   1      40.481  29.256  28.936  1.00  0.00    -0.014 A 
BRANCH  41  42
ATOM     42  C   UNL A   1      41.846  28.964  28.421  1.00  0.00     0.031 A 
ATOM     43  C   UNL A   1      42.190  27.575  27.950  1.00  0.00     0.074 A 
ATOM     44  C   UNL A   1      42.798  29.918  28.447  1.00  0.00     0.049 A 
ATOM     45  N   UNL A   1      43.352  27.082  27.605  1.00  0.00    -0.248 NA
ATOM     46  C   UNL A   1      41.086  26.601  27.892  1.00  0.00     0.031 C 
ATOM     47  C   UNL A   1      42.614  31.291  28.923  1.00  0.00     0.029 A 
ATOM     48  N   UNL A   1      44.120  29.870  28.081  1.00  0.00    -0.354 N 
ATOM     49  C   UNL A   1      43.130  25.736  27.335  1.00  0.00     0.074 A 
ATOM     50  C   UNL A   1      41.726  25.484  27.574  1.00  0.00     0.031 C 
ATOM     51  C   UNL A   1      43.777  31.955  28.813  1.00  0.00     0.029 A 
ATOM     52  C   UNL A   1      44.795  31.049  28.290  1.00  0.00     0.049 A 
ATOM     53  H   UNL A   1      44.546  29.065  27.705  1.00  0.00     0.167 HD
ATOM     54  C   UNL A   1      44.012  24.798  26.917  1.00  0.00     0.037 A 
ATOM     55  C   UNL A   1      46.090  31.364  28.092  1.00  0.00     0.037 A 
ATOM     56  C   UNL A   1      45.391  25.062  26.608  1.00  0.00     0.049 A 
ATOM     57  C   UNL A   1      47.031  30.326  27.546  1.00  0.00     0.074 A 
ATOM     58  C   UNL A   1      46.342  24.191  26.101  1.00  0.00     0.029 A 
ATOM     59  N   UNL A   1      46.014  26.290  26.758  1.00  0.00    -0.354 N 
ATOM     60  N   UNL A   1      46.792  29.069  27.263  1.00  0.00    -0.248 NA
ATOM     61  C   UNL A   1      48.414  30.750  27.288  1.00  0.00     0.031 C 
ATOM     62  C   UNL A   1      47.545  24.893  25.956  1.00  0.00     0.029 A 
ATOM     63  C   UNL A   1      47.335  26.204  26.353  1.00  0.00     0.049 A 
ATOM     64  H   UNL A   1      45.581  27.105  27.101  1.00  0.00     0.167 HD
ATOM     65  C   UNL A   1      47.990  28.556  26.781  1.00  0.00     0.074 A 
ATOM     66  C   UNL A   1      48.949  29.640  26.798  1.00  0.00     0.031 C 
ATOM     67  C   UNL A   1      48.271  27.297  26.364  1.00  0.00     0.037 A 
BRANCH  54  68
ATOM     68  C   UNL A   1      43.508  23.393  26.755  1.00  0.00     0.058 A 
ATOM     69  C   UNL A   1      43.265  22.840  25.490  1.00  0.00     0.135 A 
ATOM     70  C   UNL A   1      43.303  22.578  27.881  1.00  0.00     0.135 A 
ATOM     71  F   UNL A   1      43.429  23.584  24.385  1.00  0.00    -0.206 F 
ATOM     72  C   UNL A   1      42.813  21.532  25.343  1.00  0.00     0.059 A 
ATOM     73  C   UNL A   1      42.871  21.261  27.757  1.00  0.00     0.059 A 
ATOM     74  F   UNL A   1      43.520  23.061  29.113  1.00  0.00    -0.206 F 
ATOM     75  C   UNL A   1      42.616  20.751  26.484  1.00  0.00     0.060 A 
BRANCH  75  76
ATOM     76  S   UNL A   1      42.040  19.052  26.286  1.00  0.00     0.124 S 
ATOM     77  O   UNL A   1      42.967  18.547  25.279  1.00  0.00    -0.237 OA
ATOM     78  O   UNL A   1      42.204  18.503  27.629  1.00  0.00    -0.237 OA
ATOM     79  O   UNL A   1      40.658  19.212  25.845  1.00  0.00    -0.744 OA
ENDBRANCH  75  76
ENDBRANCH  54  68
BRANCH  55  80
ATOM     80  C   UNL A   1      46.574  32.733  28.401  1.00  0.00     0.058 A 
ATOM     81  C   UNL A   1      47.068  33.049  29.675  1.00  0.00     0.135 A 
ATOM     82  C   UNL A   1      46.560  33.745  27.430  1.00  0.00     0.135 A 
ATOM     83  F   UNL A   1      47.093  32.112  30.635  1.00  0.00    -0.206 F 
ATOM     84  C   UNL A   1      47.521  34.327  29.982  1.00  0.00     0.059 A 
ATOM     85  C   UNL A   1      47.025  35.027  27.709  1.00  0.00     0.059 A 
ATOM     86  F   UNL A   1      46.112  33.483  26.192  1.00  0.00    -0.206 F 
ATOM     87  C   UNL A   1      47.494  35.310  28.992  1.00  0.00     0.060 A 
BRANCH  87  88
ATOM     88  S   UNL A   1      48.133  36.956  29.374  1.00  0.00     0.124 S 
ATOM     89  O   UNL A   1      49.501  36.652  29.775  1.00  0.00    -0.237 OA
ATOM     90  O   UNL A   1      47.980  37.656  28.102  1.00  0.00    -0.237 OA
ATOM     91  O   UNL A   1      47.246  37.414  30.439  1.00  0.00    -0.744 OA
ENDBRANCH  87  88
ENDBRANCH  55  80
BRANCH  67  92
ATOM     92  C   UNL A   1      49.660  27.032  25.866  1.00  0.00     0.058 A 
ATOM     93  C   UNL A   1      50.663  26.554  26.723  1.00  0.00     0.135 A 
ATOM     94  C   UNL A   1      49.978  27.211  24.511  1.00  0.00     0.135 A 
ATOM     95  F   UNL A   1      50.408  26.373  28.027  1.00  0.00    -0.206 F 
ATOM     96  C   UNL A   1      51.942  26.273  26.254  1.00  0.00     0.059 A 
ATOM     97  C   UNL A   1      51.245  26.922  24.017  1.00  0.00     0.059 A 
ATOM     98  F   UNL A   1      49.049  27.660  23.653  1.00  0.00    -0.206 F 
ATOM     99  C   UNL A   1      52.225  26.463  24.899  1.00  0.00     0.060 A 
BRANCH  99 100
ATOM    100  S   UNL A   1      53.875  26.063  24.286  1.00  0.00     0.124 S 
ATOM    101  O   UNL A   1      54.074  24.725  24.832  1.00  0.00    -0.237 OA
ATOM    102  O   UNL A   1      53.704  26.138  22.838  1.00  0.00    -0.237 OA
ATOM    103  O   UNL A   1      54.711  27.110  24.864  1.00  0.00    -0.744 OA
ENDBRANCH  99 100
ENDBRANCH  67  92
ENDBRANCH  41  42
ENDBRANCH  33  36
ENDBRANCH  31  32
ENDBRANCH   1  31
TORSDOF 16
ENDMDL
MODEL 3
REMARK VINA RESULT:     -13.0      6.046      8.090
REMARK SMILES CC(C)=C1[C@H]2CC[C@@H]1[C@H](C(=O)NNC(=O)c1ccoc1C)[C@H]2C(=O)NCCCNC(=O)c1ccc(-c2c3nc(c(-c4c(F)cc(S(=O)(=O)[O-])cc4F)c4ccc([nH]4)c(-c4c(F)cc(S(=O)(=O)[O-])cc4F)c4nc(c(-c5c(F)cc(S(=O)(=O)[O-])cc5F)c5ccc2[nH]5)C=C4)C=C3)cc1
REMARK SMILES IDX 27 1 26 2 25 3 23 4 24 5 22 7 1 8 2 9 3 10 4 11 5 12 8 13
REMARK SMILES IDX 6 14 7 15 9 16 10 17 11 18 12 19 13 21 14 22 15 24 16 25
REMARK SMILES IDX 17 26 20 27 18 28 19 29 21 30 28 31 29 32 30 33 31 35 32 36
REMARK SMILES IDX 33 37 97 38 34 39 96 40 35 41 36 42 37 43 90 44 38 45 95 46
REMARK SMILES IDX 89 47 91 48 39 49 94 50 88 51 87 52 40 54 74 55 53 56 73 57
REMARK SMILES IDX 54 58 57 59 72 60 92 61 55 62 56 63 71 65 93 66 58 67 41 68
REMARK SMILES IDX 42 69 51 70 43 71 44 72 50 73 52 74 45 75 46 76 47 77 48 78
REMARK SMILES IDX 49 79 75 80 76 81 85 82 77 83 78 84 84 85 86 86 79 87 80 88
REMARK SMILES IDX 81 89 82 90 83 91 59 92 60 93 69 94 61 95 62 96 68 97 70 98
REMARK SMILES IDX 63 99 64 100 65 101 66 102 67 103
REMARK H PARENT 25 6 12 20 13 23 29 34 91 53 57 64
REMARK Flexibility Score: inf
ROOT
ATOM      1  C   UNL A   1      31.498  32.347  26.873  1.00  0.00     0.042 C 
ENDROOT
BRANCH   1   2
ATOM      2  C   UNL A   1      31.504  31.054  26.071  1.00  0.00     0.117 C 
BRANCH   2   3
ATOM      3  N   UNL A   1      31.465  29.889  26.940  1.00  0.00    -0.356 N 
ATOM      4  C   UNL A   1      31.762  28.580  26.772  1.00  0.00     0.224 C 
ATOM      5  O   UNL A   1      31.483  27.848  27.731  1.00  0.00    -0.275 OA
ATOM      6  H   UNL A   1      31.156  30.099  27.851  1.00  0.00     0.163 HD
BRANCH   4   7
ATOM      7  C   UNL A   1      32.419  27.963  25.543  1.00  0.00     0.098 C 
ATOM      8  C   UNL A   1      30.602  23.614  24.914  1.00  0.00     0.039 C 
ATOM      9  C   UNL A   1      31.618  24.451  25.640  1.00  0.00    -0.077 C 
ATOM     10  C   UNL A   1      32.166  23.798  26.887  1.00  0.00     0.039 C 
ATOM     11  C   UNL A   1      32.051  25.640  25.183  1.00  0.00    -0.064 C 
ATOM     12  C   UNL A   1      33.083  26.586  25.735  1.00  0.00     0.028 C 
ATOM     13  C   UNL A   1      31.826  26.337  23.860  1.00  0.00     0.028 C 
ATOM     14  C   UNL A   1      34.133  26.399  24.622  1.00  0.00     0.009 C 
ATOM     15  C   UNL A   1      33.276  26.208  23.349  1.00  0.00     0.009 C 
ATOM     16  C   UNL A   1      31.501  27.777  24.317  1.00  0.00     0.100 C 
BRANCH  16  17
ATOM     17  C   UNL A   1      31.755  28.811  23.229  1.00  0.00     0.242 C 
ATOM     18  O   UNL A   1      32.859  29.323  23.037  1.00  0.00    -0.273 OA
ATOM     19  N   UNL A   1      30.724  29.187  22.409  1.00  0.00    -0.267 N 
ATOM     20  H   UNL A   1      30.929  29.848  21.709  1.00  0.00     0.191 HD
BRANCH  19  21
ATOM     21  N   UNL A   1      29.412  28.720  22.473  1.00  0.00    -0.263 N 
ATOM     22  C   UNL A   1      28.319  29.531  22.725  1.00  0.00     0.273 C 
ATOM     23  H   UNL A   1      29.253  27.760  22.329  1.00  0.00     0.191 HD
ATOM     24  O   UNL A   1      27.257  29.020  23.076  1.00  0.00    -0.267 OA
BRANCH  22  25
ATOM     25  C   UNL A   1      28.472  30.972  22.625  1.00  0.00     0.082 A 
ATOM     26  C   UNL A   1      28.754  31.873  23.695  1.00  0.00     0.056 A 
ATOM     27  C   UNL A   1      28.306  31.773  21.504  1.00  0.00     0.113 A 
ATOM     28  C   UNL A   1      28.804  33.131  23.148  1.00  0.00     0.196 A 
ATOM     29  O   UNL A   1      28.537  33.079  21.821  1.00  0.00    -0.469 OA
ATOM     30  C   UNL A   1      27.924  31.521  20.098  1.00  0.00     0.088 C 
ENDBRANCH  22  25
ENDBRANCH  19  21
ENDBRANCH  16  17
ENDBRANCH   4   7
ENDBRANCH   2   3
ENDBRANCH   1   2
BRANCH   1  31
ATOM     31  C   UNL A   1      32.884  32.800  27.315  1.00  0.00     0.118 C 
BRANCH  31  32
ATOM     32  N   UNL A   1      32.896  34.201  27.710  1.00  0.00    -0.352 N 
ATOM     33  C   UNL A   1      33.538  34.833  28.749  1.00  0.00     0.251 C 
ATOM     34  H   UNL A   1      32.357  34.795  27.139  1.00  0.00     0.163 HD
ATOM     35  O   UNL A   1      33.201  35.980  29.037  1.00  0.00    -0.269 OA
BRANCH  33  36
ATOM     36  C   UNL A   1      34.612  34.165  29.525  1.00  0.00     0.039 A 
ATOM     37  C   UNL A   1      35.945  34.392  29.162  1.00  0.00     0.014 A 
ATOM     38  C   UNL A   1      34.326  33.257  30.548  1.00  0.00     0.014 A 
ATOM     39  C   UNL A   1      36.982  33.749  29.848  1.00  0.00     0.010 A 
ATOM     40  C   UNL A   1      35.361  32.677  31.282  1.00  0.00     0.010 A 
ATOM     41  C   UNL A   1      36.699  32.901  30.931  1.00  0.00    -0.014 A 
BRANCH  41  42
ATOM     42  C   UNL A   1      37.778  32.204  31.680  1.00  0.00     0.031 A 
ATOM     43  C   UNL A   1      38.186  32.698  33.044  1.00  0.00     0.074 A 
ATOM     44  C   UNL A   1      38.445  31.180  31.111  1.00  0.00     0.049 A 
ATOM     45  N   UNL A   1      39.192  32.325  33.793  1.00  0.00    -0.248 NA
ATOM     46  C   UNL A   1      37.374  33.779  33.628  1.00  0.00     0.031 C 
ATOM     47  C   UNL A   1      38.186  30.632  29.778  1.00  0.00     0.029 A 
ATOM     48  N   UNL A   1      39.496  30.429  31.578  1.00  0.00    -0.354 N 
ATOM     49  C   UNL A   1      39.163  33.152  34.909  1.00  0.00     0.074 A 
ATOM     50  C   UNL A   1      38.052  34.060  34.733  1.00  0.00     0.031 C 
ATOM     51  C   UNL A   1      39.049  29.630  29.538  1.00  0.00     0.029 A 
ATOM     52  C   UNL A   1      39.940  29.483  30.685  1.00  0.00     0.049 A 
ATOM     53  H   UNL A   1      39.894  30.556  32.470  1.00  0.00     0.167 HD
ATOM     54  C   UNL A   1      39.981  33.150  35.989  1.00  0.00     0.037 A 
ATOM     55  C   UNL A   1      40.957  28.605  30.773  1.00  0.00     0.037 A 
ATOM     56  C   UNL A   1      41.040  32.201  36.202  1.00  0.00     0.049 A 
ATOM     57  C   UNL A   1      41.798  28.566  32.019  1.00  0.00     0.074 A 
ATOM     58  C   UNL A   1      41.871  32.070  37.302  1.00  0.00     0.029 A 
ATOM     59  N   UNL A   1      41.405  31.209  35.306  1.00  0.00    -0.354 N 
ATOM     60  N   UNL A   1      41.731  29.334  33.079  1.00  0.00    -0.248 NA
ATOM     61  C   UNL A   1      42.848  27.540  32.082  1.00  0.00     0.031 C 
ATOM     62  C   UNL A   1      42.747  31.004  37.065  1.00  0.00     0.029 A 
ATOM     63  C   UNL A   1      42.447  30.460  35.827  1.00  0.00     0.049 A 
ATOM     64  H   UNL A   1      40.985  31.058  34.428  1.00  0.00     0.167 HD
ATOM     65  C   UNL A   1      42.719  28.874  33.942  1.00  0.00     0.074 A 
ATOM     66  C   UNL A   1      43.362  27.755  33.286  1.00  0.00     0.031 C 
ATOM     67  C   UNL A   1      43.065  29.341  35.166  1.00  0.00     0.037 A 
BRANCH  54  68
ATOM     68  C   UNL A   1      39.754  34.202  37.035  1.00  0.00     0.058 A 
ATOM     69  C   UNL A   1      39.058  33.923  38.220  1.00  0.00     0.135 A 
ATOM     70  C   UNL A   1      40.275  35.496  36.866  1.00  0.00     0.135 A 
ATOM     71  F   UNL A   1      38.527  32.707  38.421  1.00  0.00    -0.206 F 
ATOM     72  C   UNL A   1      38.864  34.897  39.195  1.00  0.00     0.059 A 
ATOM     73  C   UNL A   1      40.110  36.479  37.836  1.00  0.00     0.059 A 
ATOM     74  F   UNL A   1      40.947  35.813  35.749  1.00  0.00    -0.206 F 
ATOM     75  C   UNL A   1      39.391  36.174  38.992  1.00  0.00     0.060 A 
BRANCH  75  76
ATOM     76  S   UNL A   1      39.145  37.430  40.265  1.00  0.00     0.124 S 
ATOM     77  O   UNL A   1      38.203  38.328  39.606  1.00  0.00    -0.237 OA
ATOM     78  O   UNL A   1      38.605  36.652  41.376  1.00  0.00    -0.237 OA
ATOM     79  O   UNL A   1      40.485  37.967  40.475  1.00  0.00    -0.744 OA
ENDBRANCH  75  76
ENDBRANCH  54  68
BRANCH  55  80
ATOM     80  C   UNL A   1      41.231  27.675  29.649  1.00  0.00     0.058 A 
ATOM     81  C   UNL A   1      42.373  27.832  28.849  1.00  0.00     0.135 A 
ATOM     82  C   UNL A   1      40.366  26.610  29.359  1.00  0.00     0.135 A 
ATOM     83  F   UNL A   1      43.224  28.842  29.088  1.00  0.00    -0.206 F 
ATOM     84  C   UNL A   1      42.642  26.973  27.790  1.00  0.00     0.059 A 
ATOM     85  C   UNL A   1      40.624  25.727  28.315  1.00  0.00     0.059 A 
ATOM     86  F   UNL A   1      39.271  26.411  30.109  1.00  0.00    -0.206 F 
ATOM     87  C   UNL A   1      41.760  25.924  27.530  1.00  0.00     0.060 A 
BRANCH  87  88
ATOM     88  S   UNL A   1      42.138  24.775  26.188  1.00  0.00     0.124 S 
ATOM     89  O   UNL A   1      41.143  23.733  26.407  1.00  0.00    -0.237 OA
ATOM     90  O   UNL A   1      41.946  25.604  25.002  1.00  0.00    -0.237 OA
ATOM     91  O   UNL A   1      43.522  24.397  26.458  1.00  0.00    -0.744 OA
ENDBRANCH  87  88
ENDBRANCH  55  80
BRANCH  67  92
ATOM     92  C   UNL A   1      44.167  28.626  35.888  1.00  0.00     0.058 A 
ATOM     93  C   UNL A   1      45.508  29.011  35.737  1.00  0.00     0.135 A 
ATOM     94  C   UNL A   1      43.876  27.579  36.776  1.00  0.00     0.135 A 
ATOM     95  F   UNL A   1      45.835  30.002  34.895  1.00  0.00    -0.206 F 
ATOM     96  C   UNL A   1      46.527  28.371  36.434  1.00  0.00     0.059 A 
ATOM     97  C   UNL A   1      44.877  26.936  37.495  1.00  0.00     0.059 A 
ATOM     98  F   UNL A   1      42.607  27.181  36.958  1.00  0.00    -0.206 F 
ATOM     99  C   UNL A   1      46.202  27.333  37.310  1.00  0.00     0.060 A 
BRANCH  99 100
ATOM    100  S   UNL A   1      47.524  26.529  38.241  1.00  0.00     0.124 S 
ATOM    101  O   UNL A   1      47.043  25.152  38.302  1.00  0.00    -0.237 OA
ATOM    102  O   UNL A   1      48.693  26.755  37.396  1.00  0.00    -0.237 OA
ATOM    103  O   UNL A   1      47.528  27.250  39.509  1.00  0.00    -0.744 OA
ENDBRANCH  99 100
ENDBRANCH  67  92
ENDBRANCH  41  42
ENDBRANCH  33  36
ENDBRANCH  31  32
ENDBRANCH   1  31
TORSDOF 16
ENDMDL
