MODEL 1
REMARK VINA RESULT:     -12.5      0.000      0.000
REMARK SMILES O=C(CNC(=O)Nc1cccc2c1CCCC2)NCCCNC(=O)c1ccc(-c2c3nc(c(-c4c(F)cc(S(=O)(=O)[O-])cc4F)c4ccc([nH]4)c(-c4c(F)cc(S(=O)(=O)[O-])cc4F)c4nc(c(-c5c(F)cc(S(=O)(=O)[O-])cc5F)c5ccc2[nH]5)C=C4)C=C3)cc1
REMARK SMILES IDX 20 1 19 2 18 3 1 4 2 5 3 7 4 8 5 9 6 11 7 12 8 14 9 15 13 16
REMARK SMILES IDX 10 17 12 18 14 19 11 20 17 21 15 22 16 23 21 24 22 25 23 26
REMARK SMILES IDX 24 28 25 29 26 30 90 31 27 32 89 33 28 34 29 35 30 36 83 37
REMARK SMILES IDX 31 38 88 39 82 40 84 41 32 42 87 43 81 44 80 45 33 47 67 48
REMARK SMILES IDX 46 49 66 50 47 51 50 52 65 53 85 54 48 55 49 56 64 58 86 59
REMARK SMILES IDX 51 60 34 61 35 62 44 63 36 64 37 65 43 66 45 67 38 68 39 69
REMARK SMILES IDX 40 70 41 71 42 72 68 73 69 74 78 75 70 76 71 77 77 78 79 79
REMARK SMILES IDX 72 80 73 81 74 82 75 83 76 84 52 85 53 86 62 87 54 88 55 89
REMARK SMILES IDX 61 90 63 91 56 92 57 93 58 94 59 95 60 96
REMARK H PARENT 18 6 4 10 7 13 22 27 84 46 50 57
REMARK Flexibility Score: inf
ROOT
ATOM      1  C   UNL A   1      34.782  32.102  28.006  1.00  0.00     0.042 C 
ENDROOT
BRANCH   1   2
ATOM      2  C   UNL A   1      34.437  30.643  27.708  1.00  0.00     0.117 C 
BRANCH   2   3
ATOM      3  N   UNL A   1      33.644  30.516  26.504  1.00  0.00    -0.355 N 
ATOM      4  O   UNL A   1      31.874  29.444  27.501  1.00  0.00    -0.273 OA
ATOM      5  C   UNL A   1      32.428  29.872  26.492  1.00  0.00     0.239 C 
ATOM      6  H   UNL A   1      33.984  30.903  25.665  1.00  0.00     0.163 HD
BRANCH   5   7
ATOM      7  C   UNL A   1      31.958  29.487  25.096  1.00  0.00     0.217 C 
BRANCH   7   8
ATOM      8  N   UNL A   1      33.009  29.397  24.089  1.00  0.00    -0.329 N 
ATOM      9  C   UNL A   1      33.093  28.844  22.867  1.00  0.00     0.319 C 
ATOM     10  H   UNL A   1      33.842  29.841  24.366  1.00  0.00     0.165 HD
ATOM     11  O   UNL A   1      34.176  28.946  22.282  1.00  0.00    -0.248 OA
ATOM     12  N   UNL A   1      32.126  28.104  22.287  1.00  0.00    -0.308 N 
ATOM     13  H   UNL A   1      32.410  27.666  21.452  1.00  0.00     0.171 HD
BRANCH  12  14
ATOM     14  C   UNL A   1      30.797  27.835  22.638  1.00  0.00     0.046 A 
ATOM     15  C   UNL A   1      30.566  26.581  23.219  1.00  0.00     0.026 A 
ATOM     16  C   UNL A   1      29.736  28.745  22.468  1.00  0.00    -0.021 A 
ATOM     17  C   UNL A   1      29.328  26.286  23.783  1.00  0.00     0.002 A 
ATOM     18  C   UNL A   1      28.517  28.477  23.126  1.00  0.00    -0.043 A 
ATOM     19  C   UNL A   1      29.871  29.956  21.567  1.00  0.00     0.038 C 
ATOM     20  C   UNL A   1      28.320  27.243  23.768  1.00  0.00     0.004 A 
ATOM     21  C   UNL A   1      27.415  29.505  23.177  1.00  0.00     0.036 C 
ATOM     22  C   UNL A   1      28.693  30.936  21.597  1.00  0.00     0.005 C 
ATOM     23  C   UNL A   1      27.955  30.910  22.927  1.00  0.00     0.005 C 
ENDBRANCH  12  14
ENDBRANCH   7   8
ENDBRANCH   5   7
ENDBRANCH   2   3
ENDBRANCH   1   2
BRANCH   1  24
ATOM     24  C   UNL A   1      35.920  32.288  29.009  1.00  0.00     0.118 C 
BRANCH  24  25
ATOM     25  N   UNL A   1      35.725  31.515  30.228  1.00  0.00    -0.352 N 
ATOM     26  C   UNL A   1      36.496  30.538  30.806  1.00  0.00     0.251 C 
ATOM     27  H   UNL A   1      34.902  31.730  30.721  1.00  0.00     0.163 HD
ATOM     28  O   UNL A   1      36.026  29.869  31.722  1.00  0.00    -0.269 OA
BRANCH  26  29
ATOM     29  C   UNL A   1      37.871  30.272  30.331  1.00  0.00     0.039 A 
ATOM     30  C   UNL A   1      38.909  30.246  31.268  1.00  0.00     0.014 A 
ATOM     31  C   UNL A   1      38.153  30.097  28.974  1.00  0.00     0.014 A 
ATOM     32  C   UNL A   1      40.214  29.968  30.855  1.00  0.00     0.010 A 
ATOM     33  C   UNL A   1      39.444  29.760  28.570  1.00  0.00     0.010 A 
ATOM     34  C   UNL A   1      40.486  29.682  29.506  1.00  0.00    -0.014 A 
BRANCH  34  35
ATOM     35  C   UNL A   1      41.839  29.257  29.066  1.00  0.00     0.031 A 
ATOM     36  C   UNL A   1      42.957  30.256  28.953  1.00  0.00     0.074 A 
ATOM     37  C   UNL A   1      42.036  27.978  28.689  1.00  0.00     0.049 A 
ATOM     38  N   UNL A   1      44.169  30.089  28.490  1.00  0.00    -0.248 NA
ATOM     39  C   UNL A   1      42.667  31.628  29.400  1.00  0.00     0.031 C 
ATOM     40  C   UNL A   1      41.021  26.923  28.715  1.00  0.00     0.029 A 
ATOM     41  N   UNL A   1      43.152  27.351  28.195  1.00  0.00    -0.354 N 
ATOM     42  C   UNL A   1      44.784  31.333  28.575  1.00  0.00     0.074 A 
ATOM     43  C   UNL A   1      43.797  32.255  29.098  1.00  0.00     0.031 C 
ATOM     44  C   UNL A   1      41.562  25.779  28.266  1.00  0.00     0.029 A 
ATOM     45  C   UNL A   1      42.948  26.027  27.883  1.00  0.00     0.049 A 
ATOM     46  H   UNL A   1      44.017  27.805  28.073  1.00  0.00     0.167 HD
ATOM     47  C   UNL A   1      46.057  31.671  28.261  1.00  0.00     0.037 A 
ATOM     48  C   UNL A   1      43.776  25.117  27.334  1.00  0.00     0.037 A 
ATOM     49  C   UNL A   1      47.042  30.744  27.761  1.00  0.00     0.049 A 
ATOM     50  C   UNL A   1      45.180  25.520  26.980  1.00  0.00     0.074 A 
ATOM     51  C   UNL A   1      48.375  30.978  27.473  1.00  0.00     0.029 A 
ATOM     52  N   UNL A   1      46.799  29.410  27.469  1.00  0.00    -0.354 N 
ATOM     53  N   UNL A   1      45.762  26.688  27.119  1.00  0.00    -0.248 NA
ATOM     54  C   UNL A   1      46.041  24.484  26.395  1.00  0.00     0.031 C 
ATOM     55  C   UNL A   1      48.928  29.796  26.969  1.00  0.00     0.029 A 
ATOM     56  C   UNL A   1      47.952  28.814  26.981  1.00  0.00     0.049 A 
ATOM     57  H   UNL A   1      45.936  28.954  27.590  1.00  0.00     0.167 HD
ATOM     58  C   UNL A   1      47.061  26.522  26.653  1.00  0.00     0.074 A 
ATOM     59  C   UNL A   1      47.186  25.139  26.244  1.00  0.00     0.031 C 
ATOM     60  C   UNL A   1      48.059  27.435  26.572  1.00  0.00     0.037 A 
BRANCH  47  61
ATOM     61  C   UNL A   1      46.464  33.106  28.449  1.00  0.00     0.058 A 
ATOM     62  C   UNL A   1      46.998  33.567  29.663  1.00  0.00     0.135 A 
ATOM     63  C   UNL A   1      46.357  34.023  27.390  1.00  0.00     0.135 A 
ATOM     64  F   UNL A   1      47.111  32.735  30.711  1.00  0.00    -0.206 F 
ATOM     65  C   UNL A   1      47.383  34.893  29.831  1.00  0.00     0.059 A 
ATOM     66  C   UNL A   1      46.759  35.349  27.528  1.00  0.00     0.059 A 
ATOM     67  F   UNL A   1      45.855  33.636  26.208  1.00  0.00    -0.206 F 
ATOM     68  C   UNL A   1      47.257  35.777  28.759  1.00  0.00     0.060 A 
BRANCH  68  69
ATOM     69  S   UNL A   1      47.760  37.495  28.993  1.00  0.00     0.124 S 
ATOM     70  O   UNL A   1      48.483  37.416  30.259  1.00  0.00    -0.237 OA
ATOM     71  O   UNL A   1      48.578  37.747  27.810  1.00  0.00    -0.237 OA
ATOM     72  O   UNL A   1      46.493  38.218  29.039  1.00  0.00    -0.744 OA
ENDBRANCH  68  69
ENDBRANCH  47  61
BRANCH  48  73
ATOM     73  C   UNL A   1      43.296  23.733  27.089  1.00  0.00     0.058 A 
ATOM     74  C   UNL A   1      42.935  23.314  25.800  1.00  0.00     0.135 A 
ATOM     75  C   UNL A   1      43.207  22.797  28.131  1.00  0.00     0.135 A 
ATOM     76  F   UNL A   1      42.998  24.176  24.774  1.00  0.00    -0.206 F 
ATOM     77  C   UNL A   1      42.492  22.018  25.554  1.00  0.00     0.059 A 
ATOM     78  C   UNL A   1      42.788  21.490  27.905  1.00  0.00     0.059 A 
ATOM     79  F   UNL A   1      43.556  23.145  29.379  1.00  0.00    -0.206 F 
ATOM     80  C   UNL A   1      42.424  21.113  26.613  1.00  0.00     0.060 A 
BRANCH  80  81
ATOM     81  S   UNL A   1      41.898  19.419  26.273  1.00  0.00     0.124 S 
ATOM     82  O   UNL A   1      40.452  19.574  26.182  1.00  0.00    -0.237 OA
ATOM     83  O   UNL A   1      42.591  19.127  25.021  1.00  0.00    -0.237 OA
ATOM     84  O   UNL A   1      42.384  18.679  27.435  1.00  0.00    -0.744 OA
ENDBRANCH  80  81
ENDBRANCH  48  73
BRANCH  60  85
ATOM     85  C   UNL A   1      49.381  26.964  26.031  1.00  0.00     0.058 A 
ATOM     86  C   UNL A   1      49.718  27.124  24.679  1.00  0.00     0.135 A 
ATOM     87  C   UNL A   1      50.336  26.387  26.883  1.00  0.00     0.135 A 
ATOM     88  F   UNL A   1      48.837  27.662  23.821  1.00  0.00    -0.206 F 
ATOM     89  C   UNL A   1      50.951  26.709  24.185  1.00  0.00     0.059 A 
ATOM     90  C   UNL A   1      51.584  25.988  26.415  1.00  0.00     0.059 A 
ATOM     91  F   UNL A   1      50.065  26.219  28.187  1.00  0.00    -0.206 F 
ATOM     92  C   UNL A   1      51.878  26.143  25.062  1.00  0.00     0.060 A 
BRANCH  92  93
ATOM     93  S   UNL A   1      53.487  25.640  24.415  1.00  0.00     0.124 S 
ATOM     94  O   UNL A   1      53.296  25.821  22.980  1.00  0.00    -0.237 OA
ATOM     95  O   UNL A   1      54.394  26.587  25.058  1.00  0.00    -0.237 OA
ATOM     96  O   UNL A   1      53.615  24.257  24.864  1.00  0.00    -0.744 OA
ENDBRANCH  92  93
ENDBRANCH  60  85
ENDBRANCH  34  35
ENDBRANCH  26  29
ENDBRANCH  24  25
ENDBRANCH   1  24
TORSDOF 15
ENDMDL
MODEL 2
REMARK VINA RESULT:     -12.5      6.871     12.177
REMARK SMILES O=C(CNC(=O)Nc1cccc2c1CCCC2)NCCCNC(=O)c1ccc(-c2c3nc(c(-c4c(F)cc(S(=O)(=O)[O-])cc4F)c4ccc([nH]4)c(-c4c(F)cc(S(=O)(=O)[O-])cc4F)c4nc(c(-c5c(F)cc(S(=O)(=O)[O-])cc5F)c5ccc2[nH]5)C=C4)C=C3)cc1
REMARK SMILES IDX 20 1 19 2 18 3 1 4 2 5 3 7 4 8 5 9 6 11 7 12 8 14 9 15 13 16
REMARK SMILES IDX 10 17 12 18 14 19 11 20 17 21 15 22 16 23 21 24 22 25 23 26
REMARK SMILES IDX 24 28 25 29 26 30 90 31 27 32 89 33 28 34 29 35 30 36 83 37
REMARK SMILES IDX 31 38 88 39 82 40 84 41 32 42 87 43 81 44 80 45 33 47 67 48
REMARK SMILES IDX 46 49 66 50 47 51 50 52 65 53 85 54 48 55 49 56 64 58 86 59
REMARK SMILES IDX 51 60 34 61 35 62 44 63 36 64 37 65 43 66 45 67 38 68 39 69
REMARK SMILES IDX 40 70 41 71 42 72 68 73 69 74 78 75 70 76 71 77 77 78 79 79
REMARK SMILES IDX 72 80 73 81 74 82 75 83 76 84 52 85 53 86 62 87 54 88 55 89
REMARK SMILES IDX 61 90 63 91 56 92 57 93 58 94 59 95 60 96
REMARK H PARENT 18 6 4 10 7 13 22 27 84 46 50 57
REMARK Flexibility Score: inf
ROOT
ATOM      1  C   UNL A   1      37.348  23.019  25.633  1.00  0.00     0.042 C 
ENDROOT
BRANCH   1   2
ATOM      2  C   UNL A   1      36.483  23.564  24.497  1.00  0.00     0.117 C 
BRANCH   2   3
ATOM      3  N   UNL A   1      35.156  23.915  24.956  1.00  0.00    -0.355 N 
ATOM      4  O   UNL A   1      34.029  22.736  23.337  1.00  0.00    -0.273 OA
ATOM      5  C   UNL A   1      34.019  23.504  24.296  1.00  0.00     0.239 C 
ATOM      6  H   UNL A   1      35.061  24.465  25.766  1.00  0.00     0.163 HD
BRANCH   5   7
ATOM      7  C   UNL A   1      32.777  24.295  24.677  1.00  0.00     0.217 C 
BRANCH   7   8
ATOM      8  N   UNL A   1      31.952  23.695  25.719  1.00  0.00    -0.329 N 
ATOM      9  C   UNL A   1      30.877  24.102  26.416  1.00  0.00     0.319 C 
ATOM     10  H   UNL A   1      32.248  22.790  25.968  1.00  0.00     0.165 HD
ATOM     11  O   UNL A   1      30.432  23.319  27.261  1.00  0.00    -0.248 OA
ATOM     12  N   UNL A   1      30.322  25.329  26.333  1.00  0.00    -0.308 N 
ATOM     13  H   UNL A   1      29.629  25.496  27.012  1.00  0.00     0.171 HD
BRANCH  12  14
ATOM     14  C   UNL A   1      30.539  26.412  25.472  1.00  0.00     0.046 A 
ATOM     15  C   UNL A   1      29.862  26.357  24.246  1.00  0.00     0.026 A 
ATOM     16  C   UNL A   1      31.347  27.521  25.787  1.00  0.00    -0.021 A 
ATOM     17  C   UNL A   1      29.848  27.462  23.401  1.00  0.00     0.002 A 
ATOM     18  C   UNL A   1      31.248  28.670  24.973  1.00  0.00    -0.043 A 
ATOM     19  C   UNL A   1      32.336  27.478  26.935  1.00  0.00     0.038 C 
ATOM     20  C   UNL A   1      30.508  28.626  23.781  1.00  0.00     0.004 A 
ATOM     21  C   UNL A   1      31.906  29.967  25.370  1.00  0.00     0.036 C 
ATOM     22  C   UNL A   1      33.035  28.804  27.254  1.00  0.00     0.005 C 
ATOM     23  C   UNL A   1      32.192  30.009  26.868  1.00  0.00     0.005 C 
ENDBRANCH  12  14
ENDBRANCH   7   8
ENDBRANCH   5   7
ENDBRANCH   2   3
ENDBRANCH   1   2
BRANCH   1  24
ATOM     24  C   UNL A   1      38.211  24.073  26.327  1.00  0.00     0.118 C 
BRANCH  24  25
ATOM     25  N   UNL A   1      39.637  23.851  26.127  1.00  0.00    -0.352 N 
ATOM     26  C   UNL A   1      40.725  24.580  26.535  1.00  0.00     0.251 C 
ATOM     27  H   UNL A   1      39.855  23.041  25.615  1.00  0.00     0.163 HD
ATOM     28  O   UNL A   1      41.829  24.319  26.064  1.00  0.00    -0.269 OA
BRANCH  26  29
ATOM     29  C   UNL A   1      40.584  25.678  27.514  1.00  0.00     0.039 A 
ATOM     30  C   UNL A   1      39.609  25.565  28.511  1.00  0.00     0.014 A 
ATOM     31  C   UNL A   1      41.366  26.833  27.432  1.00  0.00     0.014 A 
ATOM     32  C   UNL A   1      39.472  26.572  29.469  1.00  0.00     0.010 A 
ATOM     33  C   UNL A   1      41.270  27.810  28.422  1.00  0.00     0.010 A 
ATOM     34  C   UNL A   1      40.330  27.685  29.456  1.00  0.00    -0.014 A 
BRANCH  34  35
ATOM     35  C   UNL A   1      40.288  28.702  30.538  1.00  0.00     0.031 A 
ATOM     36  C   UNL A   1      41.166  28.568  31.751  1.00  0.00     0.074 A 
ATOM     37  C   UNL A   1      39.394  29.708  30.459  1.00  0.00     0.049 A 
ATOM     38  N   UNL A   1      41.191  29.298  32.836  1.00  0.00    -0.248 NA
ATOM     39  C   UNL A   1      42.127  27.453  31.753  1.00  0.00     0.031 C 
ATOM     40  C   UNL A   1      38.460  29.925  29.353  1.00  0.00     0.029 A 
ATOM     41  N   UNL A   1      39.112  30.728  31.334  1.00  0.00    -0.354 N 
ATOM     42  C   UNL A   1      42.157  28.726  33.657  1.00  0.00     0.074 A 
ATOM     43  C   UNL A   1      42.667  27.565  32.960  1.00  0.00     0.031 C 
ATOM     44  C   UNL A   1      37.716  31.013  29.610  1.00  0.00     0.029 A 
ATOM     45  C   UNL A   1      38.090  31.547  30.916  1.00  0.00     0.049 A 
ATOM     46  H   UNL A   1      39.595  30.860  32.182  1.00  0.00     0.167 HD
ATOM     47  C   UNL A   1      42.588  29.142  34.872  1.00  0.00     0.037 A 
ATOM     48  C   UNL A   1      37.506  32.599  31.520  1.00  0.00     0.037 A 
ATOM     49  C   UNL A   1      42.091  30.312  35.552  1.00  0.00     0.049 A 
ATOM     50  C   UNL A   1      37.992  33.032  32.875  1.00  0.00     0.074 A 
ATOM     51  C   UNL A   1      42.509  30.849  36.757  1.00  0.00     0.029 A 
ATOM     52  N   UNL A   1      41.063  31.121  35.090  1.00  0.00    -0.354 N 
ATOM     53  N   UNL A   1      38.945  32.513  33.612  1.00  0.00    -0.248 NA
ATOM     54  C   UNL A   1      37.325  34.192  33.481  1.00  0.00     0.031 C 
ATOM     55  C   UNL A   1      41.707  31.960  37.044  1.00  0.00     0.029 A 
ATOM     56  C   UNL A   1      40.817  32.140  35.998  1.00  0.00     0.049 A 
ATOM     57  H   UNL A   1      40.580  30.992  34.242  1.00  0.00     0.167 HD
ATOM     58  C   UNL A   1      39.002  33.293  34.762  1.00  0.00     0.074 A 
ATOM     59  C   UNL A   1      38.000  34.328  34.615  1.00  0.00     0.031 C 
ATOM     60  C   UNL A   1      39.812  33.161  35.841  1.00  0.00     0.037 A 
BRANCH  47  61
ATOM     61  C   UNL A   1      43.654  28.327  35.550  1.00  0.00     0.058 A 
ATOM     62  C   UNL A   1      43.334  27.313  36.466  1.00  0.00     0.135 A 
ATOM     63  C   UNL A   1      45.011  28.535  35.250  1.00  0.00     0.135 A 
ATOM     64  F   UNL A   1      42.054  27.080  36.798  1.00  0.00    -0.206 F 
ATOM     65  C   UNL A   1      44.322  26.553  37.085  1.00  0.00     0.059 A 
ATOM     66  C   UNL A   1      46.014  27.770  35.838  1.00  0.00     0.059 A 
ATOM     67  F   UNL A   1      45.372  29.491  34.381  1.00  0.00    -0.206 F 
ATOM     68  C   UNL A   1      45.660  26.791  36.766  1.00  0.00     0.060 A 
BRANCH  68  69
ATOM     69  S   UNL A   1      46.930  25.797  37.578  1.00  0.00     0.124 S 
ATOM     70  O   UNL A   1      47.144  26.550  38.809  1.00  0.00    -0.237 OA
ATOM     71  O   UNL A   1      46.268  24.505  37.730  1.00  0.00    -0.237 OA
ATOM     72  O   UNL A   1      48.038  25.821  36.628  1.00  0.00    -0.744 OA
ENDBRANCH  68  69
ENDBRANCH  47  61
BRANCH  48  73
ATOM     73  C   UNL A   1      36.395  33.318  30.843  1.00  0.00     0.058 A 
ATOM     74  C   UNL A   1      35.075  33.192  31.296  1.00  0.00     0.135 A 
ATOM     75  C   UNL A   1      36.635  34.159  29.745  1.00  0.00     0.135 A 
ATOM     76  F   UNL A   1      34.797  32.393  32.338  1.00  0.00    -0.206 F 
ATOM     77  C   UNL A   1      34.026  33.866  30.678  1.00  0.00     0.059 A 
ATOM     78  C   UNL A   1      35.606  34.861  29.126  1.00  0.00     0.059 A 
ATOM     79  F   UNL A   1      37.884  34.326  29.285  1.00  0.00    -0.206 F 
ATOM     80  C   UNL A   1      34.303  34.700  29.595  1.00  0.00     0.060 A 
BRANCH  80  81
ATOM     81  S   UNL A   1      32.942  35.611  28.832  1.00  0.00     0.124 S 
ATOM     82  O   UNL A   1      32.182  36.036  30.002  1.00  0.00    -0.237 OA
ATOM     83  O   UNL A   1      33.646  36.667  28.110  1.00  0.00    -0.237 OA
ATOM     84  O   UNL A   1      32.299  34.608  27.989  1.00  0.00    -0.744 OA
ENDBRANCH  80  81
ENDBRANCH  48  73
BRANCH  60  85
ATOM     85  C   UNL A   1      39.657  34.170  36.945  1.00  0.00     0.058 A 
ATOM     86  C   UNL A   1      38.947  33.872  38.117  1.00  0.00     0.135 A 
ATOM     87  C   UNL A   1      40.262  35.434  36.847  1.00  0.00     0.135 A 
ATOM     88  F   UNL A   1      38.341  32.681  38.256  1.00  0.00    -0.206 F 
ATOM     89  C   UNL A   1      38.825  34.798  39.148  1.00  0.00     0.059 A 
ATOM     90  C   UNL A   1      40.174  36.366  37.876  1.00  0.00     0.059 A 
ATOM     91  F   UNL A   1      40.959  35.766  35.749  1.00  0.00    -0.206 F 
ATOM     92  C   UNL A   1      39.443  36.042  39.018  1.00  0.00     0.060 A 
BRANCH  92  93
ATOM     93  S   UNL A   1      39.307  37.223  40.377  1.00  0.00     0.124 S 
ATOM     94  O   UNL A   1      38.615  38.334  39.732  1.00  0.00    -0.237 OA
ATOM     95  O   UNL A   1      38.528  36.479  41.363  1.00  0.00    -0.237 OA
ATOM     96  O   UNL A   1      40.696  37.476  40.747  1.00  0.00    -0.744 OA
ENDBRANCH  92  93
ENDBRANCH  60  85
ENDBRANCH  34  35
ENDBRANCH  26  29
ENDBRANCH  24  25
ENDBRANCH   1  24
TORSDOF 15
ENDMDL
MODEL 3
REMARK VINA RESULT:     -12.4      3.829      5.241
REMARK SMILES O=C(CNC(=O)Nc1cccc2c1CCCC2)NCCCNC(=O)c1ccc(-c2c3nc(c(-c4c(F)cc(S(=O)(=O)[O-])cc4F)c4ccc([nH]4)c(-c4c(F)cc(S(=O)(=O)[O-])cc4F)c4nc(c(-c5c(F)cc(S(=O)(=O)[O-])cc5F)c5ccc2[nH]5)C=C4)C=C3)cc1
REMARK SMILES IDX 20 1 19 2 18 3 1 4 2 5 3 7 4 8 5 9 6 11 7 12 8 14 9 15 13 16
REMARK SMILES IDX 10 17 12 18 14 19 11 20 17 21 15 22 16 23 21 24 22 25 23 26
REMARK SMILES IDX 24 28 25 29 26 30 90 31 27 32 89 33 28 34 29 35 30 36 83 37
REMARK SMILES IDX 31 38 88 39 82 40 84 41 32 42 87 43 81 44 80 45 33 47 67 48
REMARK SMILES IDX 46 49 66 50 47 51 50 52 65 53 85 54 48 55 49 56 64 58 86 59
REMARK SMILES IDX 51 60 34 61 35 62 44 63 36 64 37 65 43 66 45 67 38 68 39 69
REMARK SMILES IDX 40 70 41 71 42 72 68 73 69 74 78 75 70 76 71 77 77 78 79 79
REMARK SMILES IDX 72 80 73 81 74 82 75 83 76 84 52 85 53 86 62 87 54 88 55 89
REMARK SMILES IDX 61 90 63 91 56 92 57 93 58 94 59 95 60 96
REMARK H PARENT 18 6 4 10 7 13 22 27 84 46 50 57
REMARK Flexibility Score: inf
ROOT
ATOM      1  C   UNL A   1      33.852  27.836  26.084  1.00  0.00     0.042 C 
ENDROOT
BRANCH   1   2
ATOM      2  C   UNL A   1      32.742  27.601  25.060  1.00  0.00     0.117 C 
BRANCH   2   3
ATOM      3  N   UNL A   1      32.220  26.253  25.136  1.00  0.00    -0.355 N 
ATOM      4  O   UNL A   1      33.384  25.449  23.327  1.00  0.00    -0.273 OA
ATOM      5  C   UNL A   1      32.554  25.285  24.217  1.00  0.00     0.239 C 
ATOM      6  H   UNL A   1      31.607  26.020  25.870  1.00  0.00     0.163 HD
BRANCH   5   7
ATOM      7  C   UNL A   1      31.610  24.091  24.222  1.00  0.00     0.217 C 
BRANCH   7   8
ATOM      8  N   UNL A   1      30.703  24.020  25.363  1.00  0.00    -0.329 N 
ATOM      9  C   UNL A   1      30.759  23.433  26.570  1.00  0.00     0.319 C 
ATOM     10  H   UNL A   1      29.864  24.512  25.215  1.00  0.00     0.165 HD
ATOM     11  O   UNL A   1      29.773  23.569  27.302  1.00  0.00    -0.248 OA
ATOM     12  N   UNL A   1      31.757  22.630  26.993  1.00  0.00    -0.308 N 
ATOM     13  H   UNL A   1      31.568  22.180  27.848  1.00  0.00     0.171 HD
BRANCH  12  14
ATOM     14  C   UNL A   1      33.010  22.308  26.454  1.00  0.00     0.046 A 
ATOM     15  C   UNL A   1      34.060  23.165  26.811  1.00  0.00     0.026 A 
ATOM     16  C   UNL A   1      33.252  21.191  25.632  1.00  0.00    -0.021 A 
ATOM     17  C   UNL A   1      35.374  22.833  26.496  1.00  0.00     0.002 A 
ATOM     18  C   UNL A   1      34.592  20.813  25.402  1.00  0.00    -0.043 A 
ATOM     19  C   UNL A   1      32.118  20.439  24.967  1.00  0.00     0.038 C 
ATOM     20  C   UNL A   1      35.641  21.644  25.827  1.00  0.00     0.004 A 
ATOM     21  C   UNL A   1      34.929  19.509  24.724  1.00  0.00     0.036 C 
ATOM     22  C   UNL A   1      32.519  19.159  24.227  1.00  0.00     0.005 C 
ATOM     23  C   UNL A   1      33.770  18.521  24.813  1.00  0.00     0.005 C 
ENDBRANCH  12  14
ENDBRANCH   7   8
ENDBRANCH   5   7
ENDBRANCH   2   3
ENDBRANCH   1   2
BRANCH   1  24
ATOM     24  C   UNL A   1      33.357  28.307  27.452  1.00  0.00     0.118 C 
BRANCH  24  25
ATOM     25  N   UNL A   1      33.373  29.757  27.586  1.00  0.00    -0.352 N 
ATOM     26  C   UNL A   1      34.339  30.604  28.069  1.00  0.00     0.251 C 
ATOM     27  H   UNL A   1      32.553  30.204  27.278  1.00  0.00     0.163 HD
ATOM     28  O   UNL A   1      34.049  31.776  28.289  1.00  0.00    -0.269 OA
BRANCH  26  29
ATOM     29  C   UNL A   1      35.710  30.121  28.338  1.00  0.00     0.039 A 
ATOM     30  C   UNL A   1      36.630  30.095  27.285  1.00  0.00     0.014 A 
ATOM     31  C   UNL A   1      36.083  29.653  29.601  1.00  0.00     0.014 A 
ATOM     32  C   UNL A   1      37.941  29.673  27.515  1.00  0.00     0.010 A 
ATOM     33  C   UNL A   1      37.406  29.289  29.844  1.00  0.00     0.010 A 
ATOM     34  C   UNL A   1      38.351  29.305  28.808  1.00  0.00    -0.014 A 
BRANCH  34  35
ATOM     35  C   UNL A   1      39.770  28.978  29.102  1.00  0.00     0.031 A 
ATOM     36  C   UNL A   1      40.698  30.022  29.657  1.00  0.00     0.074 A 
ATOM     37  C   UNL A   1      40.240  27.753  28.789  1.00  0.00     0.049 A 
ATOM     38  N   UNL A   1      41.986  29.948  29.877  1.00  0.00    -0.248 NA
ATOM     39  C   UNL A   1      40.105  31.327  29.988  1.00  0.00     0.031 C 
ATOM     40  C   UNL A   1      39.449  26.667  28.209  1.00  0.00     0.029 A 
ATOM     41  N   UNL A   1      41.501  27.222  28.899  1.00  0.00    -0.354 N 
ATOM     42  C   UNL A   1      42.362  31.197  30.359  1.00  0.00     0.074 A 
ATOM     43  C   UNL A   1      41.172  32.022  30.361  1.00  0.00     0.031 C 
ATOM     44  C   UNL A   1      40.238  25.597  28.023  1.00  0.00     0.029 A 
ATOM     45  C   UNL A   1      41.599  25.933  28.431  1.00  0.00     0.049 A 
ATOM     46  H   UNL A   1      42.264  27.717  29.276  1.00  0.00     0.167 HD
ATOM     47  C   UNL A   1      43.583  31.610  30.774  1.00  0.00     0.037 A 
ATOM     48  C   UNL A   1      42.665  25.117  28.325  1.00  0.00     0.037 A 
ATOM     49  C   UNL A   1      44.759  30.777  30.790  1.00  0.00     0.049 A 
ATOM     50  C   UNL A   1      44.012  25.604  28.780  1.00  0.00     0.074 A 
ATOM     51  C   UNL A   1      46.027  31.087  31.251  1.00  0.00     0.029 A 
ATOM     52  N   UNL A   1      44.815  29.474  30.318  1.00  0.00    -0.354 N 
ATOM     53  N   UNL A   1      44.339  26.770  29.284  1.00  0.00    -0.248 NA
ATOM     54  C   UNL A   1      45.136  24.667  28.650  1.00  0.00     0.031 C 
ATOM     55  C   UNL A   1      46.858  29.986  31.022  1.00  0.00     0.029 A 
ATOM     56  C   UNL A   1      46.101  28.975  30.455  1.00  0.00     0.049 A 
ATOM     57  H   UNL A   1      44.053  28.978  29.941  1.00  0.00     0.167 HD
ATOM     58  C   UNL A   1      45.702  26.701  29.547  1.00  0.00     0.074 A 
ATOM     59  C   UNL A   1      46.136  25.374  29.162  1.00  0.00     0.031 C 
ATOM     60  C   UNL A   1      46.519  27.652  30.061  1.00  0.00     0.037 A 
BRANCH  47  61
ATOM     61  C   UNL A   1      43.713  33.031  31.250  1.00  0.00     0.058 A 
ATOM     62  C   UNL A   1      44.031  34.076  30.369  1.00  0.00     0.135 A 
ATOM     63  C   UNL A   1      43.478  33.358  32.596  1.00  0.00     0.135 A 
ATOM     64  F   UNL A   1      44.278  33.818  29.075  1.00  0.00    -0.206 F 
ATOM     65  C   UNL A   1      44.141  35.391  30.809  1.00  0.00     0.059 A 
ATOM     66  C   UNL A   1      43.558  34.670  33.054  1.00  0.00     0.059 A 
ATOM     67  F   UNL A   1      43.169  32.398  33.481  1.00  0.00    -0.206 F 
ATOM     68  C   UNL A   1      43.905  35.678  32.155  1.00  0.00     0.060 A 
BRANCH  68  69
ATOM     69  S   UNL A   1      44.052  37.389  32.711  1.00  0.00     0.124 S 
ATOM     70  O   UNL A   1      43.001  37.457  33.721  1.00  0.00    -0.237 OA
ATOM     71  O   UNL A   1      45.422  37.438  33.216  1.00  0.00    -0.237 OA
ATOM     72  O   UNL A   1      43.808  38.163  31.498  1.00  0.00    -0.744 OA
ENDBRANCH  68  69
ENDBRANCH  47  61
BRANCH  48  73
ATOM     73  C   UNL A   1      42.498  23.750  27.766  1.00  0.00     0.058 A 
ATOM     74  C   UNL A   1      42.484  23.536  26.381  1.00  0.00     0.135 A 
ATOM     75  C   UNL A   1      42.369  22.631  28.605  1.00  0.00     0.135 A 
ATOM     76  F   UNL A   1      42.597  24.576  25.541  1.00  0.00    -0.206 F 
ATOM     77  C   UNL A   1      42.336  22.261  25.843  1.00  0.00     0.059 A 
ATOM     78  C   UNL A   1      42.244  21.345  28.091  1.00  0.00     0.059 A 
ATOM     79  F   UNL A   1      42.393  22.783  29.938  1.00  0.00    -0.206 F 
ATOM     80  C   UNL A   1      42.220  21.172  26.707  1.00  0.00     0.060 A 
BRANCH  80  81
ATOM     81  S   UNL A   1      42.082  19.515  25.999  1.00  0.00     0.124 S 
ATOM     82  O   UNL A   1      42.541  18.685  27.106  1.00  0.00    -0.237 OA
ATOM     83  O   UNL A   1      40.658  19.432  25.685  1.00  0.00    -0.237 OA
ATOM     84  O   UNL A   1      42.968  19.573  24.841  1.00  0.00    -0.744 OA
ENDBRANCH  80  81
ENDBRANCH  48  73
BRANCH  60  85
ATOM     85  C   UNL A   1      47.966  27.288  30.249  1.00  0.00     0.058 A 
ATOM     86  C   UNL A   1      48.924  27.558  29.261  1.00  0.00     0.135 A 
ATOM     87  C   UNL A   1      48.405  26.704  31.448  1.00  0.00     0.135 A 
ATOM     88  F   UNL A   1      48.555  28.108  28.093  1.00  0.00    -0.206 F 
ATOM     89  C   UNL A   1      50.267  27.243  29.447  1.00  0.00     0.059 A 
ATOM     90  C   UNL A   1      49.746  26.402  31.665  1.00  0.00     0.059 A 
ATOM     91  F   UNL A   1      47.529  26.432  32.429  1.00  0.00    -0.206 F 
ATOM     92  C   UNL A   1      50.668  26.666  30.653  1.00  0.00     0.060 A 
BRANCH  92  93
ATOM     93  S   UNL A   1      52.418  26.293  30.895  1.00  0.00     0.124 S 
ATOM     94  O   UNL A   1      52.887  26.182  29.518  1.00  0.00    -0.237 OA
ATOM     95  O   UNL A   1      52.889  27.460  31.634  1.00  0.00    -0.237 OA
ATOM     96  O   UNL A   1      52.396  25.046  31.654  1.00  0.00    -0.744 OA
ENDBRANCH  92  93
ENDBRANCH  60  85
ENDBRANCH  34  35
ENDBRANCH  26  29
ENDBRANCH  24  25
ENDBRANCH   1  24
TORSDOF 15
ENDMDL
