MODEL 1
REMARK VINA RESULT:     -12.4      0.000      0.000
REMARK SMILES Cc1cc(NC(=O)Nc2sc(C)c(C)c2C(=O)NCCCNC(=O)c2ccc(-c3c4nc(c(-c5c(F)cc(S(=O)(=O)[O-])cc5F)c5ccc([nH]5)c(-c5c(F)cc(S(=O)(=O)[O-])cc5F)c5nc(c(-c6c(F)cc(S(=O)(=O)[O-])cc6F)c6ccc3[nH]6)C=C5)C=C4)cc2)ccn1
REMARK SMILES IDX 20 1 19 2 18 3 16 4 17 5 15 7 9 8 10 9 11 10 13 11 12 12
REMARK SMILES IDX 14 13 8 14 5 15 6 16 7 18 4 20 1 21 2 22 3 23 93 24 92 25
REMARK SMILES IDX 91 26 21 27 22 28 23 29 24 31 25 32 26 33 90 34 27 35 89 36
REMARK SMILES IDX 28 37 29 38 30 39 83 40 31 41 88 42 82 43 84 44 32 45 87 46
REMARK SMILES IDX 81 47 80 48 33 50 67 51 46 52 66 53 47 54 50 55 65 56 85 57
REMARK SMILES IDX 48 58 49 59 64 61 86 62 51 63 34 64 35 65 44 66 36 67 37 68
REMARK SMILES IDX 43 69 45 70 38 71 39 72 40 73 41 74 42 75 68 76 69 77 78 78
REMARK SMILES IDX 70 79 71 80 77 81 79 82 72 83 73 84 74 85 75 86 76 87 52 88
REMARK SMILES IDX 53 89 62 90 54 91 55 92 61 93 63 94 56 95 57 96 58 97 59 98
REMARK SMILES IDX 60 99
REMARK H PARENT 18 6 5 17 8 19 22 30 84 49 50 60
REMARK Flexibility Score: inf
ROOT
ATOM      1  C   UNL A   1      33.945  30.805  27.401  1.00  0.00     0.042 C 
ENDROOT
BRANCH   1   2
ATOM      2  C   UNL A   1      33.030  29.610  27.255  1.00  0.00     0.118 C 
BRANCH   2   3
ATOM      3  N   UNL A   1      33.637  28.326  27.008  1.00  0.00    -0.352 N 
ATOM      4  C   UNL A   1      33.304  27.303  26.146  1.00  0.00     0.254 C 
ATOM      5  O   UNL A   1      34.105  26.362  26.144  1.00  0.00    -0.269 OA
ATOM      6  H   UNL A   1      34.437  28.147  27.554  1.00  0.00     0.163 HD
BRANCH   4   7
ATOM      7  C   UNL A   1      32.074  27.238  25.316  1.00  0.00     0.077 A 
ATOM      8  C   UNL A   1      30.926  26.469  25.457  1.00  0.00     0.110 A 
ATOM      9  S   UNL A   1      29.690  26.857  24.354  1.00  0.00    -0.122 S 
ATOM     10  C   UNL A   1      30.754  27.766  23.397  1.00  0.00     0.007 A 
ATOM     11  C   UNL A   1      31.975  27.963  24.027  1.00  0.00    -0.022 A 
ATOM     12  C   UNL A   1      30.296  28.218  22.049  1.00  0.00     0.057 C 
ATOM     13  C   UNL A   1      33.102  28.747  23.418  1.00  0.00     0.046 C 
BRANCH   8  14
ATOM     14  N   UNL A   1      30.548  25.546  26.392  1.00  0.00    -0.298 N 
ATOM     15  N   UNL A   1      31.274  23.492  25.350  1.00  0.00    -0.308 N 
ATOM     16  C   UNL A   1      30.656  24.193  26.331  1.00  0.00     0.324 C 
ATOM     17  H   UNL A   1      31.046  22.535  25.387  1.00  0.00     0.171 HD
ATOM     18  O   UNL A   1      30.156  23.548  27.260  1.00  0.00    -0.248 OA
ATOM     19  H   UNL A   1      30.146  25.908  27.215  1.00  0.00     0.172 HD
BRANCH  15  20
ATOM     20  C   UNL A   1      32.159  23.780  24.291  1.00  0.00     0.046 A 
ATOM     21  C   UNL A   1      35.862  23.321  23.688  1.00  0.00     0.067 C 
ATOM     22  C   UNL A   1      34.421  23.676  23.480  1.00  0.00     0.039 A 
ATOM     23  C   UNL A   1      33.514  23.550  24.529  1.00  0.00     0.049 A 
ATOM     24  N   UNL A   1      34.051  24.047  22.234  1.00  0.00    -0.261 NA
ATOM     25  C   UNL A   1      32.753  24.361  22.054  1.00  0.00     0.113 A 
ATOM     26  C   UNL A   1      31.792  24.280  23.051  1.00  0.00     0.046 A 
ENDBRANCH  15  20
ENDBRANCH   8  14
ENDBRANCH   4   7
ENDBRANCH   2   3
ENDBRANCH   1   2
BRANCH   1  27
ATOM     27  C   UNL A   1      35.324  30.535  27.959  1.00  0.00     0.118 C 
BRANCH  27  28
ATOM     28  N   UNL A   1      35.375  30.473  29.412  1.00  0.00    -0.352 N 
ATOM     29  C   UNL A   1      36.394  30.153  30.280  1.00  0.00     0.251 C 
ATOM     30  H   UNL A   1      34.525  30.700  29.855  1.00  0.00     0.163 HD
ATOM     31  O   UNL A   1      36.136  30.079  31.482  1.00  0.00    -0.269 OA
BRANCH  29  32
ATOM     32  C   UNL A   1      37.771  29.868  29.806  1.00  0.00     0.039 A 
ATOM     33  C   UNL A   1      38.733  29.455  30.736  1.00  0.00     0.014 A 
ATOM     34  C   UNL A   1      38.145  30.025  28.473  1.00  0.00     0.014 A 
ATOM     35  C   UNL A   1      40.028  29.142  30.311  1.00  0.00     0.010 A 
ATOM     36  C   UNL A   1      39.385  29.572  28.030  1.00  0.00     0.010 A 
ATOM     37  C   UNL A   1      40.356  29.155  28.946  1.00  0.00    -0.014 A 
BRANCH  37  38
ATOM     38  C   UNL A   1      41.714  28.778  28.470  1.00  0.00     0.031 A 
ATOM     39  C   UNL A   1      42.819  29.805  28.413  1.00  0.00     0.074 A 
ATOM     40  C   UNL A   1      41.948  27.516  28.054  1.00  0.00     0.049 A 
ATOM     41  N   UNL A   1      44.065  29.660  28.041  1.00  0.00    -0.248 NA
ATOM     42  C   UNL A   1      42.470  31.187  28.788  1.00  0.00     0.031 C 
ATOM     43  C   UNL A   1      40.948  26.448  27.990  1.00  0.00     0.029 A 
ATOM     44  N   UNL A   1      43.101  26.913  27.617  1.00  0.00    -0.354 N 
ATOM     45  C   UNL A   1      44.639  30.924  28.131  1.00  0.00     0.074 A 
ATOM     46  C   UNL A   1      43.587  31.838  28.508  1.00  0.00     0.031 C 
ATOM     47  C   UNL A   1      41.541  25.310  27.598  1.00  0.00     0.029 A 
ATOM     48  C   UNL A   1      42.953  25.574  27.344  1.00  0.00     0.049 A 
ATOM     49  H   UNL A   1      43.953  27.394  27.508  1.00  0.00     0.167 HD
ATOM     50  C   UNL A   1      45.932  31.288  27.954  1.00  0.00     0.037 A 
ATOM     51  C   UNL A   1      43.857  24.656  26.947  1.00  0.00     0.037 A 
ATOM     52  C   UNL A   1      46.980  30.366  27.598  1.00  0.00     0.049 A 
ATOM     53  C   UNL A   1      45.290  25.076  26.768  1.00  0.00     0.074 A 
ATOM     54  C   UNL A   1      48.331  30.617  27.441  1.00  0.00     0.029 A 
ATOM     55  N   UNL A   1      46.792  29.015  27.343  1.00  0.00    -0.354 N 
ATOM     56  N   UNL A   1      45.829  26.263  26.924  1.00  0.00    -0.248 NA
ATOM     57  C   UNL A   1      46.242  24.030  26.371  1.00  0.00     0.031 C 
ATOM     58  C   UNL A   1      48.952  29.429  27.042  1.00  0.00     0.029 A 
ATOM     59  C   UNL A   1      47.999  28.423  27.012  1.00  0.00     0.049 A 
ATOM     60  H   UNL A   1      45.927  28.547  27.391  1.00  0.00     0.167 HD
ATOM     61  C   UNL A   1      47.188  26.098  26.681  1.00  0.00     0.074 A 
ATOM     62  C   UNL A   1      47.389  24.696  26.375  1.00  0.00     0.031 C 
ATOM     63  C   UNL A   1      48.181  27.023  26.715  1.00  0.00     0.037 A 
BRANCH  50  64
ATOM     64  C   UNL A   1      46.279  32.742  28.149  1.00  0.00     0.058 A 
ATOM     65  C   UNL A   1      46.704  33.240  29.393  1.00  0.00     0.135 A 
ATOM     66  C   UNL A   1      46.194  33.649  27.081  1.00  0.00     0.135 A 
ATOM     67  F   UNL A   1      46.791  32.424  30.456  1.00  0.00    -0.206 F 
ATOM     68  C   UNL A   1      46.983  34.591  29.582  1.00  0.00     0.059 A 
ATOM     69  C   UNL A   1      46.503  34.999  27.238  1.00  0.00     0.059 A 
ATOM     70  F   UNL A   1      45.797  33.232  25.869  1.00  0.00    -0.206 F 
ATOM     71  C   UNL A   1      46.876  35.463  28.499  1.00  0.00     0.060 A 
BRANCH  71  72
ATOM     72  S   UNL A   1      47.226  37.214  28.766  1.00  0.00     0.124 S 
ATOM     73  O   UNL A   1      48.644  37.282  28.421  1.00  0.00    -0.237 OA
ATOM     74  O   UNL A   1      46.315  37.860  27.828  1.00  0.00    -0.237 OA
ATOM     75  O   UNL A   1      46.914  37.412  30.177  1.00  0.00    -0.744 OA
ENDBRANCH  71  72
ENDBRANCH  50  64
BRANCH  51  76
ATOM     76  C   UNL A   1      43.439  23.241  26.752  1.00  0.00     0.058 A 
ATOM     77  C   UNL A   1      43.371  22.679  25.469  1.00  0.00     0.135 A 
ATOM     78  C   UNL A   1      43.132  22.413  27.843  1.00  0.00     0.135 A 
ATOM     79  F   UNL A   1      43.650  23.430  24.392  1.00  0.00    -0.206 F 
ATOM     80  C   UNL A   1      43.004  21.352  25.270  1.00  0.00     0.059 A 
ATOM     81  C   UNL A   1      42.790  21.075  27.673  1.00  0.00     0.059 A 
ATOM     82  F   UNL A   1      43.201  22.896  29.094  1.00  0.00    -0.206 F 
ATOM     83  C   UNL A   1      42.721  20.555  26.381  1.00  0.00     0.060 A 
BRANCH  83  84
ATOM     84  S   UNL A   1      42.306  18.817  26.117  1.00  0.00     0.124 S 
ATOM     85  O   UNL A   1      42.602  18.242  27.424  1.00  0.00    -0.237 OA
ATOM     86  O   UNL A   1      40.894  18.891  25.755  1.00  0.00    -0.237 OA
ATOM     87  O   UNL A   1      43.203  18.419  25.036  1.00  0.00    -0.744 OA
ENDBRANCH  83  84
ENDBRANCH  51  76
BRANCH  63  88
ATOM     88  C   UNL A   1      49.583  26.539  26.460  1.00  0.00     0.058 A 
ATOM     89  C   UNL A   1      50.370  25.966  27.472  1.00  0.00     0.135 A 
ATOM     90  C   UNL A   1      50.133  26.619  25.170  1.00  0.00     0.135 A 
ATOM     91  F   UNL A   1      49.894  25.867  28.724  1.00  0.00    -0.206 F 
ATOM     92  C   UNL A   1      51.667  25.527  27.223  1.00  0.00     0.059 A 
ATOM     93  C   UNL A   1      51.414  26.156  24.890  1.00  0.00     0.059 A 
ATOM     94  F   UNL A   1      49.419  27.145  24.162  1.00  0.00    -0.206 F 
ATOM     95  C   UNL A   1      52.180  25.627  25.928  1.00  0.00     0.060 A 
BRANCH  95  96
ATOM     96  S   UNL A   1      53.858  25.043  25.616  1.00  0.00     0.124 S 
ATOM     97  O   UNL A   1      54.209  25.785  24.410  1.00  0.00    -0.237 OA
ATOM     98  O   UNL A   1      54.559  25.442  26.832  1.00  0.00    -0.237 OA
ATOM     99  O   UNL A   1      53.691  23.603  25.440  1.00  0.00    -0.744 OA
ENDBRANCH  95  96
ENDBRANCH  63  88
ENDBRANCH  37  38
ENDBRANCH  29  32
ENDBRANCH  27  28
ENDBRANCH   1  27
TORSDOF 15
ENDMDL
MODEL 2
REMARK VINA RESULT:     -12.3      6.553     12.130
REMARK SMILES Cc1cc(NC(=O)Nc2sc(C)c(C)c2C(=O)NCCCNC(=O)c2ccc(-c3c4nc(c(-c5c(F)cc(S(=O)(=O)[O-])cc5F)c5ccc([nH]5)c(-c5c(F)cc(S(=O)(=O)[O-])cc5F)c5nc(c(-c6c(F)cc(S(=O)(=O)[O-])cc6F)c6ccc3[nH]6)C=C5)C=C4)cc2)ccn1
REMARK SMILES IDX 20 1 19 2 18 3 16 4 17 5 15 7 9 8 10 9 11 10 13 11 12 12
REMARK SMILES IDX 14 13 8 14 5 15 6 16 7 18 4 20 1 21 2 22 3 23 93 24 92 25
REMARK SMILES IDX 91 26 21 27 22 28 23 29 24 31 25 32 26 33 90 34 27 35 89 36
REMARK SMILES IDX 28 37 29 38 30 39 83 40 31 41 88 42 82 43 84 44 32 45 87 46
REMARK SMILES IDX 81 47 80 48 33 50 67 51 46 52 66 53 47 54 50 55 65 56 85 57
REMARK SMILES IDX 48 58 49 59 64 61 86 62 51 63 34 64 35 65 44 66 36 67 37 68
REMARK SMILES IDX 43 69 45 70 38 71 39 72 40 73 41 74 42 75 68 76 69 77 78 78
REMARK SMILES IDX 70 79 71 80 77 81 79 82 72 83 73 84 74 85 75 86 76 87 52 88
REMARK SMILES IDX 53 89 62 90 54 91 55 92 61 93 63 94 56 95 57 96 58 97 59 98
REMARK SMILES IDX 60 99
REMARK H PARENT 18 6 5 17 8 19 22 30 84 49 50 60
REMARK Flexibility Score: inf
ROOT
ATOM      1  C   UNL A   1      38.836  22.293  26.164  1.00  0.00     0.042 C 
ENDROOT
BRANCH   1   2
ATOM      2  C   UNL A   1      37.633  22.434  25.258  1.00  0.00     0.118 C 
BRANCH   2   3
ATOM      3  N   UNL A   1      36.876  23.658  25.335  1.00  0.00    -0.352 N 
ATOM      4  C   UNL A   1      35.541  23.927  25.123  1.00  0.00     0.254 C 
ATOM      5  O   UNL A   1      35.217  25.096  25.356  1.00  0.00    -0.269 OA
ATOM      6  H   UNL A   1      37.409  24.447  25.585  1.00  0.00     0.163 HD
BRANCH   4   7
ATOM      7  C   UNL A   1      34.538  22.964  24.598  1.00  0.00     0.077 A 
ATOM      8  C   UNL A   1      33.825  22.960  23.406  1.00  0.00     0.110 A 
ATOM      9  S   UNL A   1      32.905  21.552  23.151  1.00  0.00    -0.122 S 
ATOM     10  C   UNL A   1      33.089  21.073  24.768  1.00  0.00     0.007 A 
ATOM     11  C   UNL A   1      34.026  21.852  25.433  1.00  0.00    -0.022 A 
ATOM     12  C   UNL A   1      32.259  19.942  25.279  1.00  0.00     0.057 C 
ATOM     13  C   UNL A   1      34.403  21.643  26.872  1.00  0.00     0.046 C 
BRANCH   8  14
ATOM     14  N   UNL A   1      33.817  23.812  22.337  1.00  0.00    -0.298 N 
ATOM     15  N   UNL A   1      32.062  25.346  22.967  1.00  0.00    -0.308 N 
ATOM     16  C   UNL A   1      32.990  24.864  22.106  1.00  0.00     0.324 C 
ATOM     17  H   UNL A   1      31.433  25.959  22.522  1.00  0.00     0.171 HD
ATOM     18  O   UNL A   1      33.106  25.441  21.018  1.00  0.00    -0.248 OA
ATOM     19  H   UNL A   1      34.498  23.642  21.647  1.00  0.00     0.172 HD
BRANCH  15  20
ATOM     20  C   UNL A   1      31.764  25.195  24.337  1.00  0.00     0.046 A 
ATOM     21  C   UNL A   1      30.016  22.577  26.430  1.00  0.00     0.067 C 
ATOM     22  C   UNL A   1      30.763  23.814  26.034  1.00  0.00     0.039 A 
ATOM     23  C   UNL A   1      30.974  24.100  24.687  1.00  0.00     0.049 A 
ATOM     24  N   UNL A   1      31.270  24.574  27.031  1.00  0.00    -0.261 NA
ATOM     25  C   UNL A   1      31.944  25.683  26.666  1.00  0.00     0.113 A 
ATOM     26  C   UNL A   1      32.179  26.047  25.348  1.00  0.00     0.046 A 
ENDBRANCH  15  20
ENDBRANCH   8  14
ENDBRANCH   4   7
ENDBRANCH   2   3
ENDBRANCH   1   2
BRANCH   1  27
ATOM     27  C   UNL A   1      39.409  23.572  26.729  1.00  0.00     0.118 C 
BRANCH  27  28
ATOM     28  N   UNL A   1      40.680  23.966  26.140  1.00  0.00    -0.352 N 
ATOM     29  C   UNL A   1      41.513  25.034  26.385  1.00  0.00     0.251 C 
ATOM     30  H   UNL A   1      41.003  23.357  25.437  1.00  0.00     0.163 HD
ATOM     31  O   UNL A   1      42.496  25.187  25.660  1.00  0.00    -0.269 OA
BRANCH  29  32
ATOM     32  C   UNL A   1      41.240  26.012  27.468  1.00  0.00     0.039 A 
ATOM     33  C   UNL A   1      40.222  25.734  28.387  1.00  0.00     0.014 A 
ATOM     34  C   UNL A   1      41.944  27.209  27.582  1.00  0.00     0.014 A 
ATOM     35  C   UNL A   1      39.969  26.619  29.440  1.00  0.00     0.010 A 
ATOM     36  C   UNL A   1      41.795  28.011  28.710  1.00  0.00     0.010 A 
ATOM     37  C   UNL A   1      40.783  27.746  29.639  1.00  0.00    -0.014 A 
BRANCH  37  38
ATOM     38  C   UNL A   1      40.561  28.672  30.781  1.00  0.00     0.031 A 
ATOM     39  C   UNL A   1      41.409  28.569  32.027  1.00  0.00     0.074 A 
ATOM     40  C   UNL A   1      39.572  29.587  30.716  1.00  0.00     0.049 A 
ATOM     41  N   UNL A   1      41.372  29.295  33.114  1.00  0.00    -0.248 NA
ATOM     42  C   UNL A   1      42.406  27.486  32.071  1.00  0.00     0.031 C 
ATOM     43  C   UNL A   1      38.635  29.741  29.600  1.00  0.00     0.029 A 
ATOM     44  N   UNL A   1      39.194  30.567  31.600  1.00  0.00    -0.354 N 
ATOM     45  C   UNL A   1      42.328  28.753  33.967  1.00  0.00     0.074 A 
ATOM     46  C   UNL A   1      42.868  27.587  33.307  1.00  0.00     0.031 C 
ATOM     47  C   UNL A   1      37.832  30.789  29.839  1.00  0.00     0.029 A 
ATOM     48  C   UNL A   1      38.167  31.357  31.141  1.00  0.00     0.049 A 
ATOM     49  H   UNL A   1      39.617  30.691  32.480  1.00  0.00     0.167 HD
ATOM     50  C   UNL A   1      42.749  29.204  35.174  1.00  0.00     0.037 A 
ATOM     51  C   UNL A   1      37.570  32.430  31.698  1.00  0.00     0.037 A 
ATOM     52  C   UNL A   1      42.221  30.379  35.816  1.00  0.00     0.049 A 
ATOM     53  C   UNL A   1      38.060  32.923  33.032  1.00  0.00     0.074 A 
ATOM     54  C   UNL A   1      42.606  30.954  37.014  1.00  0.00     0.029 A 
ATOM     55  N   UNL A   1      41.190  31.161  35.311  1.00  0.00    -0.354 N 
ATOM     56  N   UNL A   1      39.013  32.438  33.793  1.00  0.00    -0.248 NA
ATOM     57  C   UNL A   1      37.403  34.118  33.578  1.00  0.00     0.031 C 
ATOM     58  C   UNL A   1      41.776  32.053  37.258  1.00  0.00     0.029 A 
ATOM     59  C   UNL A   1      40.914  32.201  36.183  1.00  0.00     0.049 A 
ATOM     60  H   UNL A   1      40.724  30.998  34.460  1.00  0.00     0.167 HD
ATOM     61  C   UNL A   1      39.094  33.289  34.890  1.00  0.00     0.074 A 
ATOM     62  C   UNL A   1      38.099  34.323  34.688  1.00  0.00     0.031 C 
ATOM     63  C   UNL A   1      39.922  33.225  35.963  1.00  0.00     0.037 A 
BRANCH  50  64
ATOM     64  C   UNL A   1      43.835  28.423  35.868  1.00  0.00     0.058 A 
ATOM     65  C   UNL A   1      45.198  28.693  35.645  1.00  0.00     0.135 A 
ATOM     66  C   UNL A   1      43.516  27.397  36.772  1.00  0.00     0.135 A 
ATOM     67  F   UNL A   1      45.566  29.652  34.781  1.00  0.00    -0.206 F 
ATOM     68  C   UNL A   1      46.199  27.943  36.255  1.00  0.00     0.059 A 
ATOM     69  C   UNL A   1      44.503  26.658  37.421  1.00  0.00     0.059 A 
ATOM     70  F   UNL A   1      42.234  27.096  37.027  1.00  0.00    -0.206 F 
ATOM     71  C   UNL A   1      45.842  26.926  37.138  1.00  0.00     0.060 A 
BRANCH  71  72
ATOM     72  S   UNL A   1      47.154  25.952  37.907  1.00  0.00     0.124 S 
ATOM     73  O   UNL A   1      48.325  26.784  37.643  1.00  0.00    -0.237 OA
ATOM     74  O   UNL A   1      46.721  25.890  39.299  1.00  0.00    -0.237 OA
ATOM     75  O   UNL A   1      47.108  24.687  37.182  1.00  0.00    -0.744 OA
ENDBRANCH  71  72
ENDBRANCH  50  64
BRANCH  51  76
ATOM     76  C   UNL A   1      36.488  33.140  30.963  1.00  0.00     0.058 A 
ATOM     77  C   UNL A   1      35.153  33.053  31.386  1.00  0.00     0.135 A 
ATOM     78  C   UNL A   1      36.767  33.945  29.848  1.00  0.00     0.135 A 
ATOM     79  F   UNL A   1      34.833  32.293  32.445  1.00  0.00    -0.206 F 
ATOM     80  C   UNL A   1      34.132  33.728  30.726  1.00  0.00     0.059 A 
ATOM     81  C   UNL A   1      35.767  34.652  29.188  1.00  0.00     0.059 A 
ATOM     82  F   UNL A   1      38.031  34.077  29.414  1.00  0.00    -0.206 F 
ATOM     83  C   UNL A   1      34.451  34.531  29.629  1.00  0.00     0.060 A 
BRANCH  83  84
ATOM     84  S   UNL A   1      33.127  35.453  28.817  1.00  0.00     0.124 S 
ATOM     85  O   UNL A   1      32.483  34.409  28.029  1.00  0.00    -0.237 OA
ATOM     86  O   UNL A   1      32.363  35.957  29.955  1.00  0.00    -0.237 OA
ATOM     87  O   UNL A   1      33.845  36.469  28.053  1.00  0.00    -0.744 OA
ENDBRANCH  83  84
ENDBRANCH  51  76
BRANCH  63  88
ATOM     88  C   UNL A   1      39.820  34.330  36.980  1.00  0.00     0.058 A 
ATOM     89  C   UNL A   1      40.534  35.531  36.850  1.00  0.00     0.135 A 
ATOM     90  C   UNL A   1      38.964  34.194  38.084  1.00  0.00     0.135 A 
ATOM     91  F   UNL A   1      41.370  35.713  35.815  1.00  0.00    -0.206 F 
ATOM     92  C   UNL A   1      40.434  36.542  37.801  1.00  0.00     0.059 A 
ATOM     93  C   UNL A   1      38.821  35.205  39.029  1.00  0.00     0.059 A 
ATOM     94  F   UNL A   1      38.245  33.072  38.250  1.00  0.00    -0.206 F 
ATOM     95  C   UNL A   1      39.575  36.369  38.888  1.00  0.00     0.060 A 
BRANCH  95  96
ATOM     96  S   UNL A   1      39.444  37.693  40.107  1.00  0.00     0.124 S 
ATOM     97  O   UNL A   1      40.739  38.350  39.967  1.00  0.00    -0.237 OA
ATOM     98  O   UNL A   1      38.293  38.449  39.624  1.00  0.00    -0.237 OA
ATOM     99  O   UNL A   1      39.235  36.979  41.363  1.00  0.00    -0.744 OA
ENDBRANCH  95  96
ENDBRANCH  63  88
ENDBRANCH  37  38
ENDBRANCH  29  32
ENDBRANCH  27  28
ENDBRANCH   1  27
TORSDOF 15
ENDMDL
MODEL 3
REMARK VINA RESULT:     -12.3      6.649     12.100
REMARK SMILES Cc1cc(NC(=O)Nc2sc(C)c(C)c2C(=O)NCCCNC(=O)c2ccc(-c3c4nc(c(-c5c(F)cc(S(=O)(=O)[O-])cc5F)c5ccc([nH]5)c(-c5c(F)cc(S(=O)(=O)[O-])cc5F)c5nc(c(-c6c(F)cc(S(=O)(=O)[O-])cc6F)c6ccc3[nH]6)C=C5)C=C4)cc2)ccn1
REMARK SMILES IDX 20 1 19 2 18 3 16 4 17 5 15 7 9 8 10 9 11 10 13 11 12 12
REMARK SMILES IDX 14 13 8 14 5 15 6 16 7 18 4 20 1 21 2 22 3 23 93 24 92 25
REMARK SMILES IDX 91 26 21 27 22 28 23 29 24 31 25 32 26 33 90 34 27 35 89 36
REMARK SMILES IDX 28 37 29 38 30 39 83 40 31 41 88 42 82 43 84 44 32 45 87 46
REMARK SMILES IDX 81 47 80 48 33 50 67 51 46 52 66 53 47 54 50 55 65 56 85 57
REMARK SMILES IDX 48 58 49 59 64 61 86 62 51 63 34 64 35 65 44 66 36 67 37 68
REMARK SMILES IDX 43 69 45 70 38 71 39 72 40 73 41 74 42 75 68 76 69 77 78 78
REMARK SMILES IDX 70 79 71 80 77 81 79 82 72 83 73 84 74 85 75 86 76 87 52 88
REMARK SMILES IDX 53 89 62 90 54 91 55 92 61 93 63 94 56 95 57 96 58 97 59 98
REMARK SMILES IDX 60 99
REMARK H PARENT 18 6 5 17 8 19 22 30 84 49 50 60
REMARK Flexibility Score: inf
ROOT
ATOM      1  C   UNL A   1      39.899  22.170  27.087  1.00  0.00     0.042 C 
ENDROOT
BRANCH   1   2
ATOM      2  C   UNL A   1      38.718  22.506  26.204  1.00  0.00     0.118 C 
BRANCH   2   3
ATOM      3  N   UNL A   1      37.779  21.453  25.911  1.00  0.00    -0.352 N 
ATOM      4  C   UNL A   1      36.486  21.482  25.433  1.00  0.00     0.254 C 
ATOM      5  O   UNL A   1      35.998  20.366  25.225  1.00  0.00    -0.269 OA
ATOM      6  H   UNL A   1      38.123  20.547  26.082  1.00  0.00     0.163 HD
BRANCH   4   7
ATOM      7  C   UNL A   1      35.668  22.705  25.228  1.00  0.00     0.077 A 
ATOM      8  C   UNL A   1      34.701  23.293  26.034  1.00  0.00     0.110 A 
ATOM      9  S   UNL A   1      34.144  24.797  25.466  1.00  0.00    -0.122 S 
ATOM     10  C   UNL A   1      34.851  24.547  23.945  1.00  0.00     0.007 A 
ATOM     11  C   UNL A   1      35.691  23.442  23.943  1.00  0.00    -0.022 A 
ATOM     12  C   UNL A   1      34.502  25.477  22.831  1.00  0.00     0.057 C 
ATOM     13  C   UNL A   1      36.463  22.994  22.734  1.00  0.00     0.046 C 
BRANCH   8  14
ATOM     14  N   UNL A   1      34.201  22.959  27.261  1.00  0.00    -0.298 N 
ATOM     15  N   UNL A   1      32.164  21.817  26.647  1.00  0.00    -0.308 N 
ATOM     16  C   UNL A   1      33.029  22.336  27.551  1.00  0.00     0.324 C 
ATOM     17  H   UNL A   1      31.290  21.613  27.053  1.00  0.00     0.171 HD
ATOM     18  O   UNL A   1      32.736  22.220  28.747  1.00  0.00    -0.248 OA
ATOM     19  H   UNL A   1      34.761  23.201  28.034  1.00  0.00     0.172 HD
BRANCH  15  20
ATOM     20  C   UNL A   1      32.191  21.495  25.275  1.00  0.00     0.046 A 
ATOM     21  C   UNL A   1      32.645  18.321  23.272  1.00  0.00     0.067 C 
ATOM     22  C   UNL A   1      32.416  19.760  23.623  1.00  0.00     0.039 A 
ATOM     23  C   UNL A   1      32.512  20.178  24.949  1.00  0.00     0.049 A 
ATOM     24  N   UNL A   1      32.051  20.590  22.621  1.00  0.00    -0.261 NA
ATOM     25  C   UNL A   1      31.844  21.881  22.945  1.00  0.00     0.113 A 
ATOM     26  C   UNL A   1      31.939  22.379  24.237  1.00  0.00     0.046 A 
ENDBRANCH  15  20
ENDBRANCH   8  14
ENDBRANCH   4   7
ENDBRANCH   2   3
ENDBRANCH   1   2
BRANCH   1  27
ATOM     27  C   UNL A   1      40.862  23.295  27.385  1.00  0.00     0.118 C 
BRANCH  27  28
ATOM     28  N   UNL A   1      41.169  24.135  26.236  1.00  0.00    -0.352 N 
ATOM     29  C   UNL A   1      41.195  25.502  26.082  1.00  0.00     0.251 C 
ATOM     30  H   UNL A   1      41.398  23.633  25.421  1.00  0.00     0.163 HD
ATOM     31  O   UNL A   1      41.392  25.960  24.956  1.00  0.00    -0.269 OA
BRANCH  29  32
ATOM     32  C   UNL A   1      40.965  26.428  27.220  1.00  0.00     0.039 A 
ATOM     33  C   UNL A   1      39.939  26.139  28.126  1.00  0.00     0.014 A 
ATOM     34  C   UNL A   1      41.716  27.587  27.398  1.00  0.00     0.014 A 
ATOM     35  C   UNL A   1      39.724  26.972  29.229  1.00  0.00     0.010 A 
ATOM     36  C   UNL A   1      41.602  28.330  28.569  1.00  0.00     0.010 A 
ATOM     37  C   UNL A   1      40.583  28.054  29.487  1.00  0.00    -0.014 A 
BRANCH  37  38
ATOM     38  C   UNL A   1      40.401  28.922  30.681  1.00  0.00     0.031 A 
ATOM     39  C   UNL A   1      41.281  28.748  31.896  1.00  0.00     0.074 A 
ATOM     40  C   UNL A   1      39.419  29.846  30.690  1.00  0.00     0.049 A 
ATOM     41  N   UNL A   1      41.281  29.417  33.019  1.00  0.00    -0.248 NA
ATOM     42  C   UNL A   1      42.268  27.655  31.858  1.00  0.00     0.031 C 
ATOM     43  C   UNL A   1      38.454  30.065  29.609  1.00  0.00     0.029 A 
ATOM     44  N   UNL A   1      39.075  30.783  31.633  1.00  0.00    -0.354 N 
ATOM     45  C   UNL A   1      42.254  28.824  33.817  1.00  0.00     0.074 A 
ATOM     46  C   UNL A   1      42.764  27.689  33.084  1.00  0.00     0.031 C 
ATOM     47  C   UNL A   1      37.668  31.107  29.923  1.00  0.00     0.029 A 
ATOM     48  C   UNL A   1      38.044  31.605  31.242  1.00  0.00     0.049 A 
ATOM     49  H   UNL A   1      39.523  30.858  32.505  1.00  0.00     0.167 HD
ATOM     50  C   UNL A   1      42.711  29.209  35.033  1.00  0.00     0.037 A 
ATOM     51  C   UNL A   1      37.473  32.652  31.870  1.00  0.00     0.037 A 
ATOM     52  C   UNL A   1      42.212  30.354  35.749  1.00  0.00     0.049 A 
ATOM     53  C   UNL A   1      38.003  33.072  33.213  1.00  0.00     0.074 A 
ATOM     54  C   UNL A   1      42.636  30.864  36.963  1.00  0.00     0.029 A 
ATOM     55  N   UNL A   1      41.176  31.169  35.313  1.00  0.00    -0.354 N 
ATOM     56  N   UNL A   1      38.972  32.541  33.922  1.00  0.00    -0.248 NA
ATOM     57  C   UNL A   1      37.372  34.243  33.838  1.00  0.00     0.031 C 
ATOM     58  C   UNL A   1      41.824  31.955  37.286  1.00  0.00     0.029 A 
ATOM     59  C   UNL A   1      40.934  32.166  36.244  1.00  0.00     0.049 A 
ATOM     60  H   UNL A   1      40.685  31.054  34.468  1.00  0.00     0.167 HD
ATOM     61  C   UNL A   1      39.091  33.334  35.058  1.00  0.00     0.074 A 
ATOM     62  C   UNL A   1      38.100  34.385  34.937  1.00  0.00     0.031 C 
ATOM     63  C   UNL A   1      39.947  33.208  36.104  1.00  0.00     0.037 A 
BRANCH  50  64
ATOM     64  C   UNL A   1      43.809  28.384  35.657  1.00  0.00     0.058 A 
ATOM     65  C   UNL A   1      43.528  27.333  36.548  1.00  0.00     0.135 A 
ATOM     66  C   UNL A   1      45.156  28.639  35.357  1.00  0.00     0.135 A 
ATOM     67  F   UNL A   1      42.259  27.051  36.885  1.00  0.00    -0.206 F 
ATOM     68  C   UNL A   1      44.543  26.600  37.155  1.00  0.00     0.059 A 
ATOM     69  C   UNL A   1      46.188  27.894  35.925  1.00  0.00     0.059 A 
ATOM     70  F   UNL A   1      45.486  29.627  34.511  1.00  0.00    -0.206 F 
ATOM     71  C   UNL A   1      45.870  26.890  36.839  1.00  0.00     0.060 A 
BRANCH  71  72
ATOM     72  S   UNL A   1      47.176  25.941  37.649  1.00  0.00     0.124 S 
ATOM     73  O   UNL A   1      46.708  25.927  39.032  1.00  0.00    -0.237 OA
ATOM     74  O   UNL A   1      47.114  24.664  36.946  1.00  0.00    -0.237 OA
ATOM     75  O   UNL A   1      48.376  26.733  37.401  1.00  0.00    -0.744 OA
ENDBRANCH  71  72
ENDBRANCH  50  64
BRANCH  51  76
ATOM     76  C   UNL A   1      36.378  33.408  31.202  1.00  0.00     0.058 A 
ATOM     77  C   UNL A   1      36.636  34.211  30.082  1.00  0.00     0.135 A 
ATOM     78  C   UNL A   1      35.050  33.317  31.647  1.00  0.00     0.135 A 
ATOM     79  F   UNL A   1      37.890  34.335  29.619  1.00  0.00    -0.206 F 
ATOM     80  C   UNL A   1      35.621  34.906  29.431  1.00  0.00     0.059 A 
ATOM     81  C   UNL A   1      34.014  33.980  30.997  1.00  0.00     0.059 A 
ATOM     82  F   UNL A   1      34.747  32.547  32.704  1.00  0.00    -0.206 F 
ATOM     83  C   UNL A   1      34.310  34.779  29.894  1.00  0.00     0.060 A 
BRANCH  83  84
ATOM     84  S   UNL A   1      32.992  35.635  29.005  1.00  0.00     0.124 S 
ATOM     85  O   UNL A   1      32.166  36.123  30.104  1.00  0.00    -0.237 OA
ATOM     86  O   UNL A   1      33.733  36.651  28.264  1.00  0.00    -0.237 OA
ATOM     87  O   UNL A   1      32.398  34.581  28.189  1.00  0.00    -0.744 OA
ENDBRANCH  83  84
ENDBRANCH  51  76
BRANCH  63  88
ATOM     88  C   UNL A   1      39.883  34.260  37.178  1.00  0.00     0.058 A 
ATOM     89  C   UNL A   1      40.618  35.453  37.098  1.00  0.00     0.135 A 
ATOM     90  C   UNL A   1      39.043  34.082  38.289  1.00  0.00     0.135 A 
ATOM     91  F   UNL A   1      41.439  35.673  36.058  1.00  0.00    -0.206 F 
ATOM     92  C   UNL A   1      40.553  36.415  38.101  1.00  0.00     0.059 A 
ATOM     93  C   UNL A   1      38.935  35.045  39.287  1.00  0.00     0.059 A 
ATOM     94  F   UNL A   1      38.306  32.966  38.410  1.00  0.00    -0.206 F 
ATOM     95  C   UNL A   1      39.709  36.201  39.193  1.00  0.00     0.060 A 
BRANCH  95  96
ATOM     96  S   UNL A   1      39.624  37.462  40.481  1.00  0.00     0.124 S 
ATOM     97  O   UNL A   1      41.022  37.862  40.594  1.00  0.00    -0.237 OA
ATOM     98  O   UNL A   1      38.727  38.450  39.892  1.00  0.00    -0.237 OA
ATOM     99  O   UNL A   1      39.083  36.740  41.629  1.00  0.00    -0.744 OA
ENDBRANCH  95  96
ENDBRANCH  63  88
ENDBRANCH  37  38
ENDBRANCH  29  32
ENDBRANCH  27  28
ENDBRANCH   1  27
TORSDOF 15
ENDMDL
