MODEL 1
REMARK VINA RESULT:     -12.9      0.000      0.000
REMARK SMILES Cc1[nH]c2ccccc2c1/N=N\c1ccccc1C(=O)NCCCNC(=O)c1ccc(-c2c3nc(c(-c4c(F)cc(S(=O)(=O)[O-])cc4F)c4ccc([nH]4)c(-c4c(F)cc(S(=O)(=O)[O-])cc4F)c4nc(c(-c5c(F)cc(S(=O)(=O)[O-])cc5F)c5ccc2[nH]5)C=C4)C=C3)cc1
REMARK SMILES IDX 23 1 22 2 21 3 19 4 20 5 18 7 13 8 14 9 15 10 17 11 16 12
REMARK SMILES IDX 12 13 11 14 10 15 1 16 2 17 3 18 4 19 9 21 5 22 8 23 6 24
REMARK SMILES IDX 7 25 24 26 25 27 26 28 27 30 28 31 29 32 93 33 30 34 92 35
REMARK SMILES IDX 31 36 32 37 33 38 86 39 34 40 91 41 85 42 87 43 35 44 90 45
REMARK SMILES IDX 84 46 83 47 36 49 70 50 49 51 69 52 50 53 53 54 68 55 88 56
REMARK SMILES IDX 51 57 52 58 67 60 89 61 54 62 37 63 38 64 47 65 39 66 40 67
REMARK SMILES IDX 46 68 48 69 41 70 42 71 43 72 44 73 45 74 71 75 72 76 81 77
REMARK SMILES IDX 73 78 74 79 80 80 82 81 75 82 76 83 77 84 78 85 79 86 55 87
REMARK SMILES IDX 56 88 65 89 57 90 58 91 64 92 66 93 59 94 60 95 61 96 62 97
REMARK SMILES IDX 63 98
REMARK H PARENT 21 6 3 20 25 29 87 48 53 59
REMARK Flexibility Score: inf
ROOT
ATOM      1  C   UNL A   1      37.214  23.965  25.841  1.00  0.00     0.042 C 
ENDROOT
BRANCH   1   2
ATOM      2  C   UNL A   1      36.575  22.595  25.911  1.00  0.00     0.118 C 
BRANCH   2   3
ATOM      3  N   UNL A   1      35.533  22.479  26.914  1.00  0.00    -0.352 N 
ATOM      4  C   UNL A   1      34.197  22.223  26.752  1.00  0.00     0.253 C 
ATOM      5  O   UNL A   1      33.468  22.175  27.742  1.00  0.00    -0.269 OA
ATOM      6  H   UNL A   1      35.828  22.602  27.845  1.00  0.00     0.163 HD
BRANCH   4   7
ATOM      7  C   UNL A   1      33.588  22.083  25.409  1.00  0.00     0.067 A 
ATOM      8  C   UNL A   1      33.420  23.145  24.501  1.00  0.00     0.098 A 
ATOM      9  C   UNL A   1      32.784  22.872  23.278  1.00  0.00     0.031 A 
ATOM     10  C   UNL A   1      32.403  21.571  22.929  1.00  0.00     0.002 A 
ATOM     11  C   UNL A   1      33.239  20.771  25.037  1.00  0.00     0.016 A 
ATOM     12  C   UNL A   1      32.650  20.516  23.801  1.00  0.00     0.001 A 
BRANCH   8  13
ATOM     13  N   UNL A   1      33.792  24.482  24.786  1.00  0.00    -0.150 NA
ATOM     14  N   UNL A   1      33.080  25.084  25.625  1.00  0.00    -0.148 NA
BRANCH  14  15
ATOM     15  C   UNL A   1      31.783  25.421  25.203  1.00  0.00     0.114 A 
ATOM     16  C   UNL A   1      30.449  23.686  26.616  1.00  0.00     0.067 C 
ATOM     17  C   UNL A   1      30.642  24.796  25.656  1.00  0.00     0.041 A 
ATOM     18  N   UNL A   1      29.590  25.381  25.000  1.00  0.00    -0.357 N 
ATOM     19  C   UNL A   1      30.019  26.459  24.256  1.00  0.00     0.048 A 
ATOM     20  H   UNL A   1      28.656  25.074  25.053  1.00  0.00     0.166 HD
ATOM     21  C   UNL A   1      31.414  26.501  24.349  1.00  0.00     0.027 A 
ATOM     22  C   UNL A   1      29.272  27.388  23.521  1.00  0.00     0.027 A 
ATOM     23  C   UNL A   1      32.094  27.525  23.655  1.00  0.00     0.012 A 
ATOM     24  C   UNL A   1      29.968  28.403  22.862  1.00  0.00     0.002 A 
ATOM     25  C   UNL A   1      31.359  28.470  22.920  1.00  0.00     0.001 A 
ENDBRANCH  14  15
ENDBRANCH   8  13
ENDBRANCH   4   7
ENDBRANCH   2   3
ENDBRANCH   1   2
BRANCH   1  26
ATOM     26  C   UNL A   1      38.536  24.078  26.579  1.00  0.00     0.118 C 
BRANCH  26  27
ATOM     27  N   UNL A   1      39.652  24.515  25.748  1.00  0.00    -0.352 N 
ATOM     28  C   UNL A   1      40.613  25.482  25.952  1.00  0.00     0.251 C 
ATOM     29  H   UNL A   1      39.732  24.036  24.892  1.00  0.00     0.163 HD
ATOM     30  O   UNL A   1      41.409  25.741  25.061  1.00  0.00    -0.269 OA
BRANCH  28  31
ATOM     31  C   UNL A   1      40.655  26.232  27.230  1.00  0.00     0.039 A 
ATOM     32  C   UNL A   1      41.511  27.331  27.349  1.00  0.00     0.014 A 
ATOM     33  C   UNL A   1      39.833  25.882  28.299  1.00  0.00     0.014 A 
ATOM     34  C   UNL A   1      41.455  28.131  28.493  1.00  0.00     0.010 A 
ATOM     35  C   UNL A   1      39.673  26.756  29.366  1.00  0.00     0.010 A 
ATOM     36  C   UNL A   1      40.488  27.888  29.486  1.00  0.00    -0.014 A 
BRANCH  36  37
ATOM     37  C   UNL A   1      40.321  28.801  30.648  1.00  0.00     0.031 A 
ATOM     38  C   UNL A   1      41.180  28.638  31.878  1.00  0.00     0.074 A 
ATOM     39  C   UNL A   1      39.347  29.735  30.625  1.00  0.00     0.049 A 
ATOM     40  N   UNL A   1      41.159  29.318  32.996  1.00  0.00    -0.248 NA
ATOM     41  C   UNL A   1      42.159  27.538  31.872  1.00  0.00     0.031 C 
ATOM     42  C   UNL A   1      38.380  29.926  29.540  1.00  0.00     0.029 A 
ATOM     43  N   UNL A   1      39.008  30.701  31.538  1.00  0.00    -0.354 N 
ATOM     44  C   UNL A   1      42.098  28.715  33.826  1.00  0.00     0.074 A 
ATOM     45  C   UNL A   1      42.617  27.569  33.113  1.00  0.00     0.031 C 
ATOM     46  C   UNL A   1      37.596  30.978  29.825  1.00  0.00     0.029 A 
ATOM     47  C   UNL A   1      37.982  31.518  31.124  1.00  0.00     0.049 A 
ATOM     48  H   UNL A   1      39.457  30.801  32.408  1.00  0.00     0.167 HD
ATOM     49  C   UNL A   1      42.522  29.101  35.053  1.00  0.00     0.037 A 
ATOM     50  C   UNL A   1      37.428  32.594  31.716  1.00  0.00     0.037 A 
ATOM     51  C   UNL A   1      42.042  30.274  35.733  1.00  0.00     0.049 A 
ATOM     52  C   UNL A   1      37.971  33.054  33.040  1.00  0.00     0.074 A 
ATOM     53  C   UNL A   1      42.456  30.801  36.944  1.00  0.00     0.029 A 
ATOM     54  N   UNL A   1      41.046  31.111  35.252  1.00  0.00    -0.354 N 
ATOM     55  N   UNL A   1      38.916  32.515  33.775  1.00  0.00    -0.248 NA
ATOM     56  C   UNL A   1      37.387  34.275  33.608  1.00  0.00     0.031 C 
ATOM     57  C   UNL A   1      41.691  31.943  37.207  1.00  0.00     0.029 A 
ATOM     58  C   UNL A   1      40.827  32.148  36.143  1.00  0.00     0.049 A 
ATOM     59  H   UNL A   1      40.565  30.986  34.402  1.00  0.00     0.167 HD
ATOM     60  C   UNL A   1      39.053  33.343  34.883  1.00  0.00     0.074 A 
ATOM     61  C   UNL A   1      38.109  34.430  34.708  1.00  0.00     0.031 C 
ATOM     62  C   UNL A   1      39.881  33.217  35.949  1.00  0.00     0.037 A 
BRANCH  49  63
ATOM     63  C   UNL A   1      43.576  28.258  35.719  1.00  0.00     0.058 A 
ATOM     64  C   UNL A   1      44.947  28.499  35.518  1.00  0.00     0.135 A 
ATOM     65  C   UNL A   1      43.219  27.205  36.576  1.00  0.00     0.135 A 
ATOM     66  F   UNL A   1      45.346  29.481  34.694  1.00  0.00    -0.206 F 
ATOM     67  C   UNL A   1      45.921  27.703  36.110  1.00  0.00     0.059 A 
ATOM     68  C   UNL A   1      44.179  26.415  37.204  1.00  0.00     0.059 A 
ATOM     69  F   UNL A   1      41.926  26.929  36.806  1.00  0.00    -0.206 F 
ATOM     70  C   UNL A   1      45.528  26.660  36.949  1.00  0.00     0.060 A 
BRANCH  70  71
ATOM     71  S   UNL A   1      46.806  25.637  37.710  1.00  0.00     0.124 S 
ATOM     72  O   UNL A   1      46.252  24.298  37.526  1.00  0.00    -0.237 OA
ATOM     73  O   UNL A   1      47.981  25.951  36.905  1.00  0.00    -0.237 OA
ATOM     74  O   UNL A   1      46.847  26.114  39.088  1.00  0.00    -0.744 OA
ENDBRANCH  70  71
ENDBRANCH  49  63
BRANCH  50  75
ATOM     75  C   UNL A   1      36.342  33.345  31.029  1.00  0.00     0.058 A 
ATOM     76  C   UNL A   1      35.024  33.303  31.510  1.00  0.00     0.135 A 
ATOM     77  C   UNL A   1      36.598  34.134  29.898  1.00  0.00     0.135 A 
ATOM     78  F   UNL A   1      34.729  32.561  32.589  1.00  0.00    -0.206 F 
ATOM     79  C   UNL A   1      33.995  33.999  30.884  1.00  0.00     0.059 A 
ATOM     80  C   UNL A   1      35.591  34.857  29.267  1.00  0.00     0.059 A 
ATOM     81  F   UNL A   1      37.846  34.225  29.410  1.00  0.00    -0.206 F 
ATOM     82  C   UNL A   1      34.289  34.775  29.762  1.00  0.00     0.060 A 
BRANCH  82  83
ATOM     83  S   UNL A   1      32.957  35.716  28.985  1.00  0.00     0.124 S 
ATOM     84  O   UNL A   1      33.697  36.785  28.326  1.00  0.00    -0.237 OA
ATOM     85  O   UNL A   1      32.350  34.722  28.106  1.00  0.00    -0.237 OA
ATOM     86  O   UNL A   1      32.132  36.123  30.120  1.00  0.00    -0.744 OA
ENDBRANCH  82  83
ENDBRANCH  50  75
BRANCH  62  87
ATOM     87  C   UNL A   1      39.811  34.294  36.994  1.00  0.00     0.058 A 
ATOM     88  C   UNL A   1      39.053  34.136  38.164  1.00  0.00     0.135 A 
ATOM     89  C   UNL A   1      40.521  35.493  36.827  1.00  0.00     0.135 A 
ATOM     90  F   UNL A   1      38.354  33.007  38.368  1.00  0.00    -0.206 F 
ATOM     91  C   UNL A   1      38.966  35.147  39.113  1.00  0.00     0.059 A 
ATOM     92  C   UNL A   1      40.470  36.508  37.776  1.00  0.00     0.059 A 
ATOM     93  F   UNL A   1      41.274  35.688  35.732  1.00  0.00    -0.206 F 
ATOM     94  C   UNL A   1      39.673  36.333  38.907  1.00  0.00     0.060 A 
BRANCH  94  95
ATOM     95  S   UNL A   1      39.549  37.644  40.142  1.00  0.00     0.124 S 
ATOM     96  O   UNL A   1      40.921  38.140  40.178  1.00  0.00    -0.237 OA
ATOM     97  O   UNL A   1      38.565  38.544  39.549  1.00  0.00    -0.237 OA
ATOM     98  O   UNL A   1      39.103  36.939  41.339  1.00  0.00    -0.744 OA
ENDBRANCH  94  95
ENDBRANCH  62  87
ENDBRANCH  36  37
ENDBRANCH  28  31
ENDBRANCH  26  27
ENDBRANCH   1  26
TORSDOF 15
ENDMDL
MODEL 2
REMARK VINA RESULT:     -12.8      4.870     10.447
REMARK SMILES Cc1[nH]c2ccccc2c1/N=N\c1ccccc1C(=O)NCCCNC(=O)c1ccc(-c2c3nc(c(-c4c(F)cc(S(=O)(=O)[O-])cc4F)c4ccc([nH]4)c(-c4c(F)cc(S(=O)(=O)[O-])cc4F)c4nc(c(-c5c(F)cc(S(=O)(=O)[O-])cc5F)c5ccc2[nH]5)C=C4)C=C3)cc1
REMARK SMILES IDX 23 1 22 2 21 3 19 4 20 5 18 7 13 8 14 9 15 10 17 11 16 12
REMARK SMILES IDX 12 13 11 14 10 15 1 16 2 17 3 18 4 19 9 21 5 22 8 23 6 24
REMARK SMILES IDX 7 25 24 26 25 27 26 28 27 30 28 31 29 32 93 33 30 34 92 35
REMARK SMILES IDX 31 36 32 37 33 38 86 39 34 40 91 41 85 42 87 43 35 44 90 45
REMARK SMILES IDX 84 46 83 47 36 49 70 50 49 51 69 52 50 53 53 54 68 55 88 56
REMARK SMILES IDX 51 57 52 58 67 60 89 61 54 62 37 63 38 64 47 65 39 66 40 67
REMARK SMILES IDX 46 68 48 69 41 70 42 71 43 72 44 73 45 74 71 75 72 76 81 77
REMARK SMILES IDX 73 78 74 79 80 80 82 81 75 82 76 83 77 84 78 85 79 86 55 87
REMARK SMILES IDX 56 88 65 89 57 90 58 91 64 92 66 93 59 94 60 95 61 96 62 97
REMARK SMILES IDX 63 98
REMARK H PARENT 21 6 3 20 25 29 87 48 53 59
REMARK Flexibility Score: inf
ROOT
ATOM      1  C   UNL A   1      33.703  28.549  25.545  1.00  0.00     0.042 C 
ENDROOT
BRANCH   1   2
ATOM      2  C   UNL A   1      32.396  28.514  24.784  1.00  0.00     0.118 C 
BRANCH   2   3
ATOM      3  N   UNL A   1      32.422  27.673  23.601  1.00  0.00    -0.352 N 
ATOM      4  C   UNL A   1      32.266  26.316  23.497  1.00  0.00     0.253 C 
ATOM      5  O   UNL A   1      32.335  25.785  22.389  1.00  0.00    -0.269 OA
ATOM      6  H   UNL A   1      32.575  28.146  22.751  1.00  0.00     0.163 HD
BRANCH   4   7
ATOM      7  C   UNL A   1      32.097  25.458  24.692  1.00  0.00     0.067 A 
ATOM      8  C   UNL A   1      33.163  24.914  25.433  1.00  0.00     0.098 A 
ATOM      9  C   UNL A   1      32.852  24.079  26.520  1.00  0.00     0.031 A 
ATOM     10  C   UNL A   1      31.526  23.856  26.912  1.00  0.00     0.002 A 
ATOM     11  C   UNL A   1      30.769  25.263  25.114  1.00  0.00     0.016 A 
ATOM     12  C   UNL A   1      30.485  24.466  26.221  1.00  0.00     0.001 A 
BRANCH   8  13
ATOM     13  N   UNL A   1      34.526  25.108  25.098  1.00  0.00    -0.150 NA
ATOM     14  N   UNL A   1      34.978  24.371  24.189  1.00  0.00    -0.148 NA
BRANCH  14  15
ATOM     15  C   UNL A   1      35.140  23.016  24.518  1.00  0.00     0.114 A 
ATOM     16  C   UNL A   1      37.345  23.208  25.892  1.00  0.00     0.067 C 
ATOM     17  C   UNL A   1      36.186  22.529  25.271  1.00  0.00     0.041 A 
ATOM     18  N   UNL A   1      36.010  21.171  25.352  1.00  0.00    -0.357 N 
ATOM     19  C   UNL A   1      34.804  20.803  24.797  1.00  0.00     0.048 A 
ATOM     20  H   UNL A   1      36.657  20.545  25.751  1.00  0.00     0.166 HD
ATOM     21  C   UNL A   1      34.232  21.952  24.241  1.00  0.00     0.027 A 
ATOM     22  C   UNL A   1      34.188  19.546  24.758  1.00  0.00     0.027 A 
ATOM     23  C   UNL A   1      32.981  21.826  23.598  1.00  0.00     0.012 A 
ATOM     24  C   UNL A   1      32.941  19.454  24.135  1.00  0.00     0.002 A 
ATOM     25  C   UNL A   1      32.347  20.574  23.558  1.00  0.00     0.001 A 
ENDBRANCH  14  15
ENDBRANCH   8  13
ENDBRANCH   4   7
ENDBRANCH   2   3
ENDBRANCH   1   2
BRANCH   1  26
ATOM     26  C   UNL A   1      33.549  28.572  27.055  1.00  0.00     0.118 C 
BRANCH  26  27
ATOM     27  N   UNL A   1      33.561  29.908  27.639  1.00  0.00    -0.352 N 
ATOM     28  C   UNL A   1      34.559  30.611  28.280  1.00  0.00     0.251 C 
ATOM     29  H   UNL A   1      32.708  30.393  27.562  1.00  0.00     0.163 HD
ATOM     30  O   UNL A   1      34.308  31.700  28.776  1.00  0.00    -0.269 OA
BRANCH  28  31
ATOM     31  C   UNL A   1      35.917  30.031  28.404  1.00  0.00     0.039 A 
ATOM     32  C   UNL A   1      36.795  30.112  27.321  1.00  0.00     0.014 A 
ATOM     33  C   UNL A   1      36.342  29.437  29.592  1.00  0.00     0.014 A 
ATOM     34  C   UNL A   1      38.122  29.698  27.473  1.00  0.00     0.010 A 
ATOM     35  C   UNL A   1      37.690  29.165  29.786  1.00  0.00     0.010 A 
ATOM     36  C   UNL A   1      38.599  29.280  28.729  1.00  0.00    -0.014 A 
BRANCH  36  37
ATOM     37  C   UNL A   1      40.035  28.961  28.947  1.00  0.00     0.031 A 
ATOM     38  C   UNL A   1      40.963  29.991  29.543  1.00  0.00     0.074 A 
ATOM     39  C   UNL A   1      40.520  27.769  28.544  1.00  0.00     0.049 A 
ATOM     40  N   UNL A   1      42.248  29.905  29.781  1.00  0.00    -0.248 NA
ATOM     41  C   UNL A   1      40.387  31.305  29.873  1.00  0.00     0.031 C 
ATOM     42  C   UNL A   1      39.750  26.727  27.857  1.00  0.00     0.029 A 
ATOM     43  N   UNL A   1      41.776  27.227  28.653  1.00  0.00    -0.354 N 
ATOM     44  C   UNL A   1      42.630  31.153  30.261  1.00  0.00     0.074 A 
ATOM     45  C   UNL A   1      41.461  32.001  30.211  1.00  0.00     0.031 C 
ATOM     46  C   UNL A   1      40.534  25.655  27.658  1.00  0.00     0.029 A 
ATOM     47  C   UNL A   1      41.867  25.941  28.173  1.00  0.00     0.049 A 
ATOM     48  H   UNL A   1      42.540  27.713  29.039  1.00  0.00     0.167 HD
ATOM     49  C   UNL A   1      43.834  31.549  30.740  1.00  0.00     0.037 A 
ATOM     50  C   UNL A   1      42.906  25.083  28.166  1.00  0.00     0.037 A 
ATOM     51  C   UNL A   1      44.978  30.684  30.839  1.00  0.00     0.049 A 
ATOM     52  C   UNL A   1      44.209  25.515  28.779  1.00  0.00     0.074 A 
ATOM     53  C   UNL A   1      46.224  30.957  31.378  1.00  0.00     0.029 A 
ATOM     54  N   UNL A   1      45.014  29.368  30.399  1.00  0.00    -0.354 N 
ATOM     55  N   UNL A   1      44.529  26.676  29.302  1.00  0.00    -0.248 NA
ATOM     56  C   UNL A   1      45.286  24.519  28.817  1.00  0.00     0.031 C 
ATOM     57  C   UNL A   1      47.019  29.814  31.240  1.00  0.00     0.029 A 
ATOM     58  C   UNL A   1      46.259  28.818  30.649  1.00  0.00     0.049 A 
ATOM     59  H   UNL A   1      44.262  28.896  29.972  1.00  0.00     0.167 HD
ATOM     60  C   UNL A   1      45.838  26.542  29.749  1.00  0.00     0.074 A 
ATOM     61  C   UNL A   1      46.240  25.181  29.455  1.00  0.00     0.031 C 
ATOM     62  C   UNL A   1      46.637  27.461  30.346  1.00  0.00     0.037 A 
BRANCH  49  63
ATOM     63  C   UNL A   1      43.957  32.971  31.216  1.00  0.00     0.058 A 
ATOM     64  C   UNL A   1      43.641  33.334  32.537  1.00  0.00     0.135 A 
ATOM     65  C   UNL A   1      44.404  33.983  30.352  1.00  0.00     0.135 A 
ATOM     66  F   UNL A   1      43.190  32.412  33.403  1.00  0.00    -0.206 F 
ATOM     67  C   UNL A   1      43.727  34.652  32.971  1.00  0.00     0.059 A 
ATOM     68  C   UNL A   1      44.527  35.304  30.774  1.00  0.00     0.059 A 
ATOM     69  F   UNL A   1      44.721  33.694  29.080  1.00  0.00    -0.206 F 
ATOM     70  C   UNL A   1      44.168  35.632  32.081  1.00  0.00     0.060 A 
BRANCH  70  71
ATOM     71  S   UNL A   1      44.274  37.339  32.660  1.00  0.00     0.124 S 
ATOM     72  O   UNL A   1      45.680  37.427  33.045  1.00  0.00    -0.237 OA
ATOM     73  O   UNL A   1      43.895  38.098  31.472  1.00  0.00    -0.237 OA
ATOM     74  O   UNL A   1      43.318  37.384  33.761  1.00  0.00    -0.744 OA
ENDBRANCH  70  71
ENDBRANCH  49  63
BRANCH  50  75
ATOM     75  C   UNL A   1      42.733  23.710  27.620  1.00  0.00     0.058 A 
ATOM     76  C   UNL A   1      42.458  22.628  28.470  1.00  0.00     0.135 A 
ATOM     77  C   UNL A   1      42.818  23.452  26.243  1.00  0.00     0.135 A 
ATOM     78  F   UNL A   1      42.369  22.823  29.794  1.00  0.00    -0.206 F 
ATOM     79  C   UNL A   1      42.292  21.336  27.979  1.00  0.00     0.059 A 
ATOM     80  C   UNL A   1      42.634  22.174  25.726  1.00  0.00     0.059 A 
ATOM     81  F   UNL A   1      43.059  24.456  25.385  1.00  0.00    -0.206 F 
ATOM     82  C   UNL A   1      42.380  21.120  26.603  1.00  0.00     0.060 A 
BRANCH  82  83
ATOM     83  S   UNL A   1      42.113  19.449  25.970  1.00  0.00     0.124 S 
ATOM     84  O   UNL A   1      40.678  19.458  25.713  1.00  0.00    -0.237 OA
ATOM     85  O   UNL A   1      42.974  19.425  24.791  1.00  0.00    -0.237 OA
ATOM     86  O   UNL A   1      42.554  18.600  27.074  1.00  0.00    -0.744 OA
ENDBRANCH  82  83
ENDBRANCH  50  75
BRANCH  62  87
ATOM     87  C   UNL A   1      48.016  27.011  30.736  1.00  0.00     0.058 A 
ATOM     88  C   UNL A   1      48.262  26.370  31.960  1.00  0.00     0.135 A 
ATOM     89  C   UNL A   1      49.101  27.213  29.869  1.00  0.00     0.135 A 
ATOM     90  F   UNL A   1      47.257  26.156  32.824  1.00  0.00    -0.206 F 
ATOM     91  C   UNL A   1      49.544  25.983  32.330  1.00  0.00     0.059 A 
ATOM     92  C   UNL A   1      50.388  26.810  30.207  1.00  0.00     0.059 A 
ATOM     93  F   UNL A   1      48.916  27.808  28.679  1.00  0.00    -0.206 F 
ATOM     94  C   UNL A   1      50.603  26.214  31.450  1.00  0.00     0.060 A 
BRANCH  94  95
ATOM     95  S   UNL A   1      52.266  25.715  31.941  1.00  0.00     0.124 S 
ATOM     96  O   UNL A   1      53.005  25.899  30.697  1.00  0.00    -0.237 OA
ATOM     97  O   UNL A   1      52.577  26.661  33.009  1.00  0.00    -0.237 OA
ATOM     98  O   UNL A   1      52.091  24.332  32.371  1.00  0.00    -0.744 OA
ENDBRANCH  94  95
ENDBRANCH  62  87
ENDBRANCH  36  37
ENDBRANCH  28  31
ENDBRANCH  26  27
ENDBRANCH   1  26
TORSDOF 15
ENDMDL
MODEL 3
REMARK VINA RESULT:     -12.8      6.728     12.164
REMARK SMILES Cc1[nH]c2ccccc2c1/N=N\c1ccccc1C(=O)NCCCNC(=O)c1ccc(-c2c3nc(c(-c4c(F)cc(S(=O)(=O)[O-])cc4F)c4ccc([nH]4)c(-c4c(F)cc(S(=O)(=O)[O-])cc4F)c4nc(c(-c5c(F)cc(S(=O)(=O)[O-])cc5F)c5ccc2[nH]5)C=C4)C=C3)cc1
REMARK SMILES IDX 23 1 22 2 21 3 19 4 20 5 18 7 13 8 14 9 15 10 17 11 16 12
REMARK SMILES IDX 12 13 11 14 10 15 1 16 2 17 3 18 4 19 9 21 5 22 8 23 6 24
REMARK SMILES IDX 7 25 24 26 25 27 26 28 27 30 28 31 29 32 93 33 30 34 92 35
REMARK SMILES IDX 31 36 32 37 33 38 86 39 34 40 91 41 85 42 87 43 35 44 90 45
REMARK SMILES IDX 84 46 83 47 36 49 70 50 49 51 69 52 50 53 53 54 68 55 88 56
REMARK SMILES IDX 51 57 52 58 67 60 89 61 54 62 37 63 38 64 47 65 39 66 40 67
REMARK SMILES IDX 46 68 48 69 41 70 42 71 43 72 44 73 45 74 71 75 72 76 81 77
REMARK SMILES IDX 73 78 74 79 80 80 82 81 75 82 76 83 77 84 78 85 79 86 55 87
REMARK SMILES IDX 56 88 65 89 57 90 58 91 64 92 66 93 59 94 60 95 61 96 62 97
REMARK SMILES IDX 63 98
REMARK H PARENT 21 6 3 20 25 29 87 48 53 59
REMARK Flexibility Score: inf
ROOT
ATOM      1  C   UNL A   1      34.223  29.633  27.019  1.00  0.00     0.042 C 
ENDROOT
BRANCH   1   2
ATOM      2  C   UNL A   1      34.011  28.691  25.855  1.00  0.00     0.118 C 
BRANCH   2   3
ATOM      3  N   UNL A   1      34.132  27.287  26.201  1.00  0.00    -0.352 N 
ATOM      4  C   UNL A   1      33.414  26.215  25.739  1.00  0.00     0.253 C 
ATOM      5  O   UNL A   1      33.665  25.090  26.172  1.00  0.00    -0.269 OA
ATOM      6  H   UNL A   1      34.829  27.074  26.863  1.00  0.00     0.163 HD
BRANCH   4   7
ATOM      7  C   UNL A   1      32.287  26.381  24.793  1.00  0.00     0.067 A 
ATOM      8  C   UNL A   1      32.388  26.190  23.402  1.00  0.00     0.098 A 
ATOM      9  C   UNL A   1      31.244  26.428  22.620  1.00  0.00     0.031 A 
ATOM     10  C   UNL A   1      30.017  26.761  23.206  1.00  0.00     0.002 A 
ATOM     11  C   UNL A   1      31.043  26.676  25.380  1.00  0.00     0.016 A 
ATOM     12  C   UNL A   1      29.911  26.864  24.589  1.00  0.00     0.001 A 
BRANCH   8  13
ATOM     13  N   UNL A   1      33.594  25.844  22.746  1.00  0.00    -0.150 NA
ATOM     14  N   UNL A   1      33.618  24.716  22.198  1.00  0.00    -0.148 NA
BRANCH  14  15
ATOM     15  C   UNL A   1      33.647  23.611  23.065  1.00  0.00     0.114 A 
ATOM     16  C   UNL A   1      31.092  23.107  23.138  1.00  0.00     0.067 C 
ATOM     17  C   UNL A   1      32.525  22.917  23.460  1.00  0.00     0.041 A 
ATOM     18  N   UNL A   1      32.954  21.936  24.316  1.00  0.00    -0.357 N 
ATOM     19  C   UNL A   1      34.330  21.894  24.358  1.00  0.00     0.048 A 
ATOM     20  H   UNL A   1      32.360  21.341  24.829  1.00  0.00     0.166 HD
ATOM     21  C   UNL A   1      34.803  22.960  23.586  1.00  0.00     0.027 A 
ATOM     22  C   UNL A   1      35.175  20.992  25.016  1.00  0.00     0.027 A 
ATOM     23  C   UNL A   1      36.201  23.135  23.482  1.00  0.00     0.012 A 
ATOM     24  C   UNL A   1      36.552  21.175  24.878  1.00  0.00     0.002 A 
ATOM     25  C   UNL A   1      37.061  22.233  24.129  1.00  0.00     0.001 A 
ENDBRANCH  14  15
ENDBRANCH   8  13
ENDBRANCH   4   7
ENDBRANCH   2   3
ENDBRANCH   1   2
BRANCH   1  26
ATOM     26  C   UNL A   1      35.520  29.412  27.776  1.00  0.00     0.118 C 
BRANCH  26  27
ATOM     27  N   UNL A   1      35.443  29.711  29.201  1.00  0.00    -0.352 N 
ATOM     28  C   UNL A   1      36.427  29.834  30.159  1.00  0.00     0.251 C 
ATOM     29  H   UNL A   1      34.529  29.849  29.538  1.00  0.00     0.163 HD
ATOM     30  O   UNL A   1      36.115  30.002  31.329  1.00  0.00    -0.269 OA
BRANCH  28  31
ATOM     31  C   UNL A   1      37.855  29.721  29.778  1.00  0.00     0.039 A 
ATOM     32  C   UNL A   1      38.777  29.248  30.716  1.00  0.00     0.014 A 
ATOM     33  C   UNL A   1      38.287  30.047  28.493  1.00  0.00     0.014 A 
ATOM     34  C   UNL A   1      40.096  29.001  30.326  1.00  0.00     0.010 A 
ATOM     35  C   UNL A   1      39.554  29.665  28.070  1.00  0.00     0.010 A 
ATOM     36  C   UNL A   1      40.481  29.147  28.981  1.00  0.00    -0.014 A 
BRANCH  36  37
ATOM     37  C   UNL A   1      41.842  28.766  28.516  1.00  0.00     0.031 A 
ATOM     38  C   UNL A   1      42.940  29.797  28.441  1.00  0.00     0.074 A 
ATOM     39  C   UNL A   1      42.071  27.504  28.094  1.00  0.00     0.049 A 
ATOM     40  N   UNL A   1      44.177  29.659  28.035  1.00  0.00    -0.248 NA
ATOM     41  C   UNL A   1      42.595  31.175  28.828  1.00  0.00     0.031 C 
ATOM     42  C   UNL A   1      41.066  26.440  28.016  1.00  0.00     0.029 A 
ATOM     43  N   UNL A   1      43.222  26.901  27.653  1.00  0.00    -0.354 N 
ATOM     44  C   UNL A   1      44.742  30.928  28.096  1.00  0.00     0.074 A 
ATOM     45  C   UNL A   1      43.695  31.837  28.504  1.00  0.00     0.031 C 
ATOM     46  C   UNL A   1      41.655  25.304  27.609  1.00  0.00     0.029 A 
ATOM     47  C   UNL A   1      43.070  25.564  27.368  1.00  0.00     0.049 A 
ATOM     48  H   UNL A   1      44.075  27.379  27.550  1.00  0.00     0.167 HD
ATOM     49  C   UNL A   1      46.025  31.301  27.872  1.00  0.00     0.037 A 
ATOM     50  C   UNL A   1      43.975  24.646  26.975  1.00  0.00     0.037 A 
ATOM     51  C   UNL A   1      47.074  30.383  27.520  1.00  0.00     0.049 A 
ATOM     52  C   UNL A   1      45.409  25.064  26.814  1.00  0.00     0.074 A 
ATOM     53  C   UNL A   1      48.423  30.638  27.344  1.00  0.00     0.029 A 
ATOM     54  N   UNL A   1      46.893  29.024  27.301  1.00  0.00    -0.354 N 
ATOM     55  N   UNL A   1      45.941  26.256  26.953  1.00  0.00    -0.248 NA
ATOM     56  C   UNL A   1      46.371  24.013  26.460  1.00  0.00     0.031 C 
ATOM     57  C   UNL A   1      49.053  29.438  26.994  1.00  0.00     0.029 A 
ATOM     58  C   UNL A   1      48.103  28.429  26.988  1.00  0.00     0.049 A 
ATOM     59  H   UNL A   1      46.030  28.554  27.360  1.00  0.00     0.167 HD
ATOM     60  C   UNL A   1      47.302  26.094  26.722  1.00  0.00     0.074 A 
ATOM     61  C   UNL A   1      47.513  24.684  26.458  1.00  0.00     0.031 C 
ATOM     62  C   UNL A   1      48.289  27.024  26.726  1.00  0.00     0.037 A 
BRANCH  49  63
ATOM     63  C   UNL A   1      46.361  32.759  28.031  1.00  0.00     0.058 A 
ATOM     64  C   UNL A   1      46.160  33.678  26.986  1.00  0.00     0.135 A 
ATOM     65  C   UNL A   1      46.882  33.250  29.238  1.00  0.00     0.135 A 
ATOM     66  F   UNL A   1      45.682  33.262  25.802  1.00  0.00    -0.206 F 
ATOM     67  C   UNL A   1      46.497  35.020  27.121  1.00  0.00     0.059 A 
ATOM     68  C   UNL A   1      47.198  34.596  29.406  1.00  0.00     0.059 A 
ATOM     69  F   UNL A   1      47.095  32.418  30.271  1.00  0.00    -0.206 F 
ATOM     70  C   UNL A   1      47.019  35.470  28.334  1.00  0.00     0.060 A 
BRANCH  70  71
ATOM     71  S   UNL A   1      47.453  37.215  28.493  1.00  0.00     0.124 S 
ATOM     72  O   UNL A   1      48.803  37.230  27.936  1.00  0.00    -0.237 OA
ATOM     73  O   UNL A   1      46.428  37.868  27.686  1.00  0.00    -0.237 OA
ATOM     74  O   UNL A   1      47.364  37.457  29.929  1.00  0.00    -0.744 OA
ENDBRANCH  70  71
ENDBRANCH  49  63
BRANCH  50  75
ATOM     75  C   UNL A   1      43.561  23.231  26.773  1.00  0.00     0.058 A 
ATOM     76  C   UNL A   1      43.512  22.674  25.486  1.00  0.00     0.135 A 
ATOM     77  C   UNL A   1      43.226  22.403  27.855  1.00  0.00     0.135 A 
ATOM     78  F   UNL A   1      43.823  23.426  24.419  1.00  0.00    -0.206 F 
ATOM     79  C   UNL A   1      43.129  21.353  25.275  1.00  0.00     0.059 A 
ATOM     80  C   UNL A   1      42.861  21.073  27.672  1.00  0.00     0.059 A 
ATOM     81  F   UNL A   1      43.276  22.882  29.108  1.00  0.00    -0.206 F 
ATOM     82  C   UNL A   1      42.806  20.559  26.377  1.00  0.00     0.060 A 
BRANCH  82  83
ATOM     83  S   UNL A   1      42.359  18.831  26.098  1.00  0.00     0.124 S 
ATOM     84  O   UNL A   1      43.301  18.448  25.053  1.00  0.00    -0.237 OA
ATOM     85  O   UNL A   1      42.586  18.238  27.412  1.00  0.00    -0.237 OA
ATOM     86  O   UNL A   1      40.959  18.912  25.690  1.00  0.00    -0.744 OA
ENDBRANCH  82  83
ENDBRANCH  50  75
BRANCH  62  87
ATOM     87  C   UNL A   1      49.683  26.537  26.455  1.00  0.00     0.058 A 
ATOM     88  C   UNL A   1      50.212  26.506  25.156  1.00  0.00     0.135 A 
ATOM     89  C   UNL A   1      50.502  26.105  27.510  1.00  0.00     0.135 A 
ATOM     90  F   UNL A   1      49.466  26.907  24.113  1.00  0.00    -0.206 F 
ATOM     91  C   UNL A   1      51.492  26.026  24.906  1.00  0.00     0.059 A 
ATOM     92  C   UNL A   1      51.795  25.645  27.286  1.00  0.00     0.059 A 
ATOM     93  F   UNL A   1      50.049  26.128  28.773  1.00  0.00    -0.206 F 
ATOM     94  C   UNL A   1      52.273  25.590  25.977  1.00  0.00     0.060 A 
BRANCH  94  95
ATOM     95  S   UNL A   1      53.931  24.960  25.643  1.00  0.00     0.124 S 
ATOM     96  O   UNL A   1      53.658  23.556  25.356  1.00  0.00    -0.237 OA
ATOM     97  O   UNL A   1      54.353  25.769  24.502  1.00  0.00    -0.237 OA
ATOM     98  O   UNL A   1      54.649  25.221  26.886  1.00  0.00    -0.744 OA
ENDBRANCH  94  95
ENDBRANCH  62  87
ENDBRANCH  36  37
ENDBRANCH  28  31
ENDBRANCH  26  27
ENDBRANCH   1  26
TORSDOF 15
ENDMDL
