MODEL 1
REMARK VINA RESULT:     -12.5      0.000      0.000
REMARK SMILES C[NH2+][C@]1(C(=O)NCCCNC(=O)c2ccc(-c3c4nc(c(-c5c(F)cc(S(=O)(=O)[O-])cc5F)c5ccc([nH]5)c(-c5c(F)cc(S(=O)(=O)[O-])cc5F)c5nc(c(-c6c(F)cc(S(=O)(=O)[O-])cc6F)c6ccc3[nH]6)C=C5)C=C4)cc2)CCC[C@H]1CCOC1C[C@@H](C)C[C@H](C)C1
REMARK SMILES IDX 7 1 6 2 4 3 5 4 3 6 79 7 82 8 80 9 81 10 2 11 1 12 83 15
REMARK SMILES IDX 84 16 85 17 86 18 87 19 93 20 88 21 91 22 89 23 90 24 92 25
REMARK SMILES IDX 8 26 9 27 10 28 11 29 12 31 13 32 14 33 78 34 15 35 77 36
REMARK SMILES IDX 16 37 17 38 18 39 71 40 19 41 76 42 70 43 72 44 20 45 75 46
REMARK SMILES IDX 69 47 68 48 21 50 55 51 34 52 54 53 35 54 38 55 53 56 73 57
REMARK SMILES IDX 36 58 37 59 52 61 74 62 39 63 22 64 23 65 32 66 24 67 25 68
REMARK SMILES IDX 31 69 33 70 26 71 27 72 28 73 29 74 30 75 56 76 57 77 66 78
REMARK SMILES IDX 58 79 59 80 65 81 67 82 60 83 61 84 62 85 63 86 64 87 40 88
REMARK SMILES IDX 41 89 50 90 42 91 43 92 49 93 51 94 44 95 45 96 46 97 47 98
REMARK SMILES IDX 48 99
REMARK H PARENT 6 5 2 13 2 14 10 30 72 49 38 60
REMARK Flexibility Score: inf
ROOT
ATOM      1  C   UNL A   1      38.155  22.006  25.574  1.00  0.00     0.118 C 
ENDROOT
BRANCH   1   2
ATOM      2  N   UNL A   1      37.371  22.180  24.361  1.00  0.00    -0.351 N 
ATOM      3  C   UNL A   1      36.061  22.460  24.098  1.00  0.00     0.281 C 
ATOM      4  O   UNL A   1      35.906  22.940  22.963  1.00  0.00    -0.268 OA
ATOM      5  H   UNL A   1      37.909  22.069  23.544  1.00  0.00     0.163 HD
BRANCH   3   6
ATOM      6  C   UNL A   1      34.803  22.204  25.089  1.00  0.00     0.178 C 
ATOM      7  C   UNL A   1      35.185  23.030  26.359  1.00  0.00     0.079 C 
ATOM      8  C   UNL A   1      32.980  22.442  24.910  1.00  0.00     0.063 C 
ATOM      9  C   UNL A   1      34.064  22.968  27.343  1.00  0.00     0.008 C 
ATOM     10  C   UNL A   1      32.812  22.549  26.596  1.00  0.00     0.011 C 
BRANCH   6  11
ATOM     11  N   UNL A   1      35.069  20.810  25.680  1.00  0.00    -0.336 N 
ATOM     12  C   UNL A   1      35.016  19.630  24.844  1.00  0.00     0.331 C 
ATOM     13  H   UNL A   1      36.005  20.839  26.085  1.00  0.00     0.346 HD
ATOM     14  H   UNL A   1      34.279  20.677  26.313  1.00  0.00     0.346 HD
ENDBRANCH   6  11
BRANCH   8  15
ATOM     15  C   UNL A   1      31.622  23.012  23.386  1.00  0.00     0.039 C 
BRANCH  15  16
ATOM     16  C   UNL A   1      30.453  24.226  23.370  1.00  0.00     0.161 C 
BRANCH  16  17
ATOM     17  O   UNL A   1      31.090  25.451  23.241  1.00  0.00    -0.378 OA
BRANCH  17  18
ATOM     18  C   UNL A   1      30.307  26.102  24.208  1.00  0.00     0.118 C 
ATOM     19  C   UNL A   1      31.544  26.250  25.713  1.00  0.00     0.035 C 
ATOM     20  C   UNL A   1      29.735  27.715  23.247  1.00  0.00     0.035 C 
ATOM     21  C   UNL A   1      32.005  28.012  26.385  1.00  0.00    -0.011 C 
ATOM     22  C   UNL A   1      30.355  29.430  23.810  1.00  0.00    -0.011 C 
ATOM     23  C   UNL A   1      33.499  28.056  26.774  1.00  0.00     0.008 C 
ATOM     24  C   UNL A   1      31.569  29.550  25.314  1.00  0.00     0.006 C 
ATOM     25  C   UNL A   1      29.369  30.586  23.539  1.00  0.00     0.008 C 
ENDBRANCH  17  18
ENDBRANCH  16  17
ENDBRANCH  15  16
ENDBRANCH   8  15
ENDBRANCH   3   6
ENDBRANCH   1   2
BRANCH   1  26
ATOM     26  C   UNL A   1      38.644  23.316  26.159  1.00  0.00     0.042 C 
BRANCH  26  27
ATOM     27  C   UNL A   1      39.887  23.119  27.009  1.00  0.00     0.118 C 
BRANCH  27  28
ATOM     28  N   UNL A   1      41.113  23.496  26.302  1.00  0.00    -0.352 N 
ATOM     29  C   UNL A   1      41.793  24.694  26.306  1.00  0.00     0.251 C 
ATOM     30  H   UNL A   1      41.508  22.790  25.742  1.00  0.00     0.163 HD
ATOM     31  O   UNL A   1      42.709  24.889  25.514  1.00  0.00    -0.269 OA
BRANCH  29  32
ATOM     32  C   UNL A   1      41.378  25.751  27.251  1.00  0.00     0.039 A 
ATOM     33  C   UNL A   1      40.453  25.460  28.255  1.00  0.00     0.014 A 
ATOM     34  C   UNL A   1      41.973  27.012  27.185  1.00  0.00     0.014 A 
ATOM     35  C   UNL A   1      40.211  26.403  29.256  1.00  0.00     0.010 A 
ATOM     36  C   UNL A   1      41.831  27.891  28.247  1.00  0.00     0.010 A 
ATOM     37  C   UNL A   1      40.943  27.602  29.293  1.00  0.00    -0.014 A 
BRANCH  37  38
ATOM     38  C   UNL A   1      40.801  28.581  30.402  1.00  0.00     0.031 A 
ATOM     39  C   UNL A   1      41.672  28.450  31.624  1.00  0.00     0.074 A 
ATOM     40  C   UNL A   1      39.830  29.516  30.356  1.00  0.00     0.049 A 
ATOM     41  N   UNL A   1      41.621  29.112  32.750  1.00  0.00    -0.248 NA
ATOM     42  C   UNL A   1      42.706  27.402  31.593  1.00  0.00     0.031 C 
ATOM     43  C   UNL A   1      38.873  29.697  29.260  1.00  0.00     0.029 A 
ATOM     44  N   UNL A   1      39.476  30.483  31.262  1.00  0.00    -0.354 N 
ATOM     45  C   UNL A   1      42.587  28.538  33.568  1.00  0.00     0.074 A 
ATOM     46  C   UNL A   1      43.163  27.434  32.835  1.00  0.00     0.031 C 
ATOM     47  C   UNL A   1      38.066  30.733  29.544  1.00  0.00     0.029 A 
ATOM     48  C   UNL A   1      38.418  31.263  30.856  1.00  0.00     0.049 A 
ATOM     49  H   UNL A   1      39.938  30.609  32.123  1.00  0.00     0.167 HD
ATOM     50  C   UNL A   1      42.985  28.917  34.806  1.00  0.00     0.037 A 
ATOM     51  C   UNL A   1      37.799  32.288  31.474  1.00  0.00     0.037 A 
ATOM     52  C   UNL A   1      42.449  30.053  35.504  1.00  0.00     0.049 A 
ATOM     53  C   UNL A   1      38.287  32.721  32.831  1.00  0.00     0.074 A 
ATOM     54  C   UNL A   1      42.835  30.574  36.725  1.00  0.00     0.029 A 
ATOM     55  N   UNL A   1      41.413  30.849  35.036  1.00  0.00    -0.354 N 
ATOM     56  N   UNL A   1      39.250  32.209  33.562  1.00  0.00    -0.248 NA
ATOM     57  C   UNL A   1      37.612  33.873  33.444  1.00  0.00     0.031 C 
ATOM     58  C   UNL A   1      42.011  31.668  37.010  1.00  0.00     0.029 A 
ATOM     59  C   UNL A   1      41.139  31.852  35.949  1.00  0.00     0.049 A 
ATOM     60  H   UNL A   1      40.944  30.719  34.180  1.00  0.00     0.167 HD
ATOM     61  C   UNL A   1      39.311  32.990  34.710  1.00  0.00     0.074 A 
ATOM     62  C   UNL A   1      38.297  34.016  34.571  1.00  0.00     0.031 C 
ATOM     63  C   UNL A   1      40.131  32.869  35.783  1.00  0.00     0.037 A 
BRANCH  50  64
ATOM     64  C   UNL A   1      44.066  28.105  35.465  1.00  0.00     0.058 A 
ATOM     65  C   UNL A   1      43.763  27.017  36.303  1.00  0.00     0.135 A 
ATOM     66  C   UNL A   1      45.421  28.407  35.253  1.00  0.00     0.135 A 
ATOM     67  F   UNL A   1      42.485  26.694  36.556  1.00  0.00    -0.206 F 
ATOM     68  C   UNL A   1      44.762  26.286  36.936  1.00  0.00     0.059 A 
ATOM     69  C   UNL A   1      46.437  27.669  35.852  1.00  0.00     0.059 A 
ATOM     70  F   UNL A   1      45.767  29.436  34.463  1.00  0.00    -0.206 F 
ATOM     71  C   UNL A   1      46.097  26.621  36.706  1.00  0.00     0.060 A 
BRANCH  71  72
ATOM     72  S   UNL A   1      47.381  25.664  37.539  1.00  0.00     0.124 S 
ATOM     73  O   UNL A   1      48.546  26.525  37.361  1.00  0.00    -0.237 OA
ATOM     74  O   UNL A   1      46.866  25.569  38.902  1.00  0.00    -0.237 OA
ATOM     75  O   UNL A   1      47.406  24.410  36.793  1.00  0.00    -0.744 OA
ENDBRANCH  71  72
ENDBRANCH  50  64
BRANCH  51  76
ATOM     76  C   UNL A   1      36.680  32.999  30.801  1.00  0.00     0.058 A 
ATOM     77  C   UNL A   1      35.348  32.743  31.158  1.00  0.00     0.135 A 
ATOM     78  C   UNL A   1      36.915  33.961  29.806  1.00  0.00     0.135 A 
ATOM     79  F   UNL A   1      35.072  31.829  32.101  1.00  0.00    -0.206 F 
ATOM     80  C   UNL A   1      34.287  33.403  30.545  1.00  0.00     0.059 A 
ATOM     81  C   UNL A   1      35.872  34.651  29.194  1.00  0.00     0.059 A 
ATOM     82  F   UNL A   1      38.172  34.257  29.440  1.00  0.00    -0.206 F 
ATOM     83  C   UNL A   1      34.560  34.359  29.565  1.00  0.00     0.060 A 
BRANCH  83  84
ATOM     84  S   UNL A   1      33.179  35.250  28.816  1.00  0.00     0.124 S 
ATOM     85  O   UNL A   1      32.438  35.688  29.994  1.00  0.00    -0.237 OA
ATOM     86  O   UNL A   1      33.862  36.298  28.064  1.00  0.00    -0.237 OA
ATOM     87  O   UNL A   1      32.526  34.229  28.002  1.00  0.00    -0.744 OA
ENDBRANCH  83  84
ENDBRANCH  51  76
BRANCH  63  88
ATOM     88  C   UNL A   1      39.989  33.888  36.877  1.00  0.00     0.058 A 
ATOM     89  C   UNL A   1      40.722  35.084  36.868  1.00  0.00     0.135 A 
ATOM     90  C   UNL A   1      39.063  33.691  37.914  1.00  0.00     0.135 A 
ATOM     91  F   UNL A   1      41.624  35.316  35.901  1.00  0.00    -0.206 F 
ATOM     92  C   UNL A   1      40.558  36.042  37.862  1.00  0.00     0.059 A 
ATOM     93  C   UNL A   1      38.863  34.648  38.904  1.00  0.00     0.059 A 
ATOM     94  F   UNL A   1      38.328  32.569  37.962  1.00  0.00    -0.206 F 
ATOM     95  C   UNL A   1      39.624  35.816  38.875  1.00  0.00     0.060 A 
BRANCH  95  96
ATOM     96  S   UNL A   1      39.392  37.084  40.138  1.00  0.00     0.124 S 
ATOM     97  O   UNL A   1      38.519  36.400  41.086  1.00  0.00    -0.237 OA
ATOM     98  O   UNL A   1      40.758  37.325  40.594  1.00  0.00    -0.237 OA
ATOM     99  O   UNL A   1      38.781  38.188  39.403  1.00  0.00    -0.744 OA
ENDBRANCH  95  96
ENDBRANCH  63  88
ENDBRANCH  37  38
ENDBRANCH  29  32
ENDBRANCH  27  28
ENDBRANCH  26  27
ENDBRANCH   1  26
TORSDOF 18
ENDMDL
MODEL 2
REMARK VINA RESULT:     -12.1      4.689     10.152
REMARK SMILES C[NH2+][C@]1(C(=O)NCCCNC(=O)c2ccc(-c3c4nc(c(-c5c(F)cc(S(=O)(=O)[O-])cc5F)c5ccc([nH]5)c(-c5c(F)cc(S(=O)(=O)[O-])cc5F)c5nc(c(-c6c(F)cc(S(=O)(=O)[O-])cc6F)c6ccc3[nH]6)C=C5)C=C4)cc2)CCC[C@H]1CCOC1C[C@@H](C)C[C@H](C)C1
REMARK SMILES IDX 7 1 6 2 4 3 5 4 3 6 79 7 82 8 80 9 81 10 2 11 1 12 83 15
REMARK SMILES IDX 84 16 85 17 86 18 87 19 93 20 88 21 91 22 89 23 90 24 92 25
REMARK SMILES IDX 8 26 9 27 10 28 11 29 12 31 13 32 14 33 78 34 15 35 77 36
REMARK SMILES IDX 16 37 17 38 18 39 71 40 19 41 76 42 70 43 72 44 20 45 75 46
REMARK SMILES IDX 69 47 68 48 21 50 55 51 34 52 54 53 35 54 38 55 53 56 73 57
REMARK SMILES IDX 36 58 37 59 52 61 74 62 39 63 22 64 23 65 32 66 24 67 25 68
REMARK SMILES IDX 31 69 33 70 26 71 27 72 28 73 29 74 30 75 56 76 57 77 66 78
REMARK SMILES IDX 58 79 59 80 65 81 67 82 60 83 61 84 62 85 63 86 64 87 40 88
REMARK SMILES IDX 41 89 50 90 42 91 43 92 49 93 51 94 44 95 45 96 46 97 47 98
REMARK SMILES IDX 48 99
REMARK H PARENT 6 5 2 13 2 14 10 30 72 49 38 60
REMARK Flexibility Score: inf
ROOT
ATOM      1  C   UNL A   1      31.957  26.832  26.219  1.00  0.00     0.118 C 
ENDROOT
BRANCH   1   2
ATOM      2  N   UNL A   1      31.391  25.607  26.760  1.00  0.00    -0.351 N 
ATOM      3  C   UNL A   1      31.711  24.282  26.675  1.00  0.00     0.281 C 
ATOM      4  O   UNL A   1      31.239  23.627  27.618  1.00  0.00    -0.268 OA
ATOM      5  H   UNL A   1      30.593  25.771  27.313  1.00  0.00     0.163 HD
BRANCH   3   6
ATOM      6  C   UNL A   1      32.581  23.574  25.503  1.00  0.00     0.178 C 
ATOM      7  C   UNL A   1      31.654  22.406  25.038  1.00  0.00     0.079 C 
ATOM      8  C   UNL A   1      33.360  24.199  23.950  1.00  0.00     0.063 C 
ATOM      9  C   UNL A   1      32.286  21.706  23.881  1.00  0.00     0.008 C 
ATOM     10  C   UNL A   1      33.326  22.636  23.285  1.00  0.00     0.011 C 
BRANCH   6  11
ATOM     11  N   UNL A   1      33.604  22.714  26.264  1.00  0.00    -0.336 N 
ATOM     12  C   UNL A   1      34.904  23.246  26.612  1.00  0.00     0.331 C 
ATOM     13  H   UNL A   1      33.158  22.438  27.139  1.00  0.00     0.346 HD
ATOM     14  H   UNL A   1      33.830  21.981  25.591  1.00  0.00     0.346 HD
ENDBRANCH   6  11
BRANCH   8  15
ATOM     15  C   UNL A   1      33.636  26.065  22.983  1.00  0.00     0.039 C 
BRANCH  15  16
ATOM     16  C   UNL A   1      33.219  26.554  21.425  1.00  0.00     0.161 C 
BRANCH  16  17
ATOM     17  O   UNL A   1      31.836  26.572  21.324  1.00  0.00    -0.378 OA
BRANCH  17  18
ATOM     18  C   UNL A   1      31.626  27.162  22.581  1.00  0.00     0.118 C 
ATOM     19  C   UNL A   1      31.266  29.024  22.112  1.00  0.00     0.035 C 
ATOM     20  C   UNL A   1      30.193  26.043  23.319  1.00  0.00     0.035 C 
ATOM     21  C   UNL A   1      29.559  29.808  22.602  1.00  0.00    -0.011 C 
ATOM     22  C   UNL A   1      28.460  26.786  23.617  1.00  0.00    -0.011 C 
ATOM     23  C   UNL A   1      29.060  30.737  21.474  1.00  0.00     0.008 C 
ATOM     24  C   UNL A   1      28.135  28.639  23.157  1.00  0.00     0.006 C 
ATOM     25  C   UNL A   1      27.685  26.150  24.790  1.00  0.00     0.008 C 
ENDBRANCH  17  18
ENDBRANCH  16  17
ENDBRANCH  15  16
ENDBRANCH   8  15
ENDBRANCH   3   6
ENDBRANCH   1   2
BRANCH   1  26
ATOM     26  C   UNL A   1      32.151  27.911  27.266  1.00  0.00     0.042 C 
BRANCH  26  27
ATOM     27  C   UNL A   1      33.533  28.533  27.179  1.00  0.00     0.118 C 
BRANCH  27  28
ATOM     28  N   UNL A   1      33.551  29.923  27.636  1.00  0.00    -0.352 N 
ATOM     29  C   UNL A   1      34.554  30.624  28.270  1.00  0.00     0.251 C 
ATOM     30  H   UNL A   1      32.726  30.432  27.468  1.00  0.00     0.163 HD
ATOM     31  O   UNL A   1      34.331  31.735  28.741  1.00  0.00    -0.269 OA
BRANCH  29  32
ATOM     32  C   UNL A   1      35.887  30.003  28.407  1.00  0.00     0.039 A 
ATOM     33  C   UNL A   1      36.798  30.078  27.352  1.00  0.00     0.014 A 
ATOM     34  C   UNL A   1      36.258  29.417  29.618  1.00  0.00     0.014 A 
ATOM     35  C   UNL A   1      38.115  29.661  27.554  1.00  0.00     0.010 A 
ATOM     36  C   UNL A   1      37.593  29.127  29.856  1.00  0.00     0.010 A 
ATOM     37  C   UNL A   1      38.537  29.238  28.826  1.00  0.00    -0.014 A 
BRANCH  37  38
ATOM     38  C   UNL A   1      39.954  28.895  29.115  1.00  0.00     0.031 A 
ATOM     39  C   UNL A   1      40.860  29.934  29.724  1.00  0.00     0.074 A 
ATOM     40  C   UNL A   1      40.448  27.697  28.741  1.00  0.00     0.049 A 
ATOM     41  N   UNL A   1      42.149  29.885  29.934  1.00  0.00    -0.248 NA
ATOM     42  C   UNL A   1      40.241  31.215  30.102  1.00  0.00     0.031 C 
ATOM     43  C   UNL A   1      39.691  26.634  28.074  1.00  0.00     0.029 A 
ATOM     44  N   UNL A   1      41.712  27.176  28.854  1.00  0.00    -0.354 N 
ATOM     45  C   UNL A   1      42.497  31.136  30.432  1.00  0.00     0.074 A 
ATOM     46  C   UNL A   1      41.297  31.942  30.432  1.00  0.00     0.031 C 
ATOM     47  C   UNL A   1      40.495  25.578  27.871  1.00  0.00     0.029 A 
ATOM     48  C   UNL A   1      41.834  25.901  28.351  1.00  0.00     0.049 A 
ATOM     49  H   UNL A   1      42.463  27.669  29.259  1.00  0.00     0.167 HD
ATOM     50  C   UNL A   1      43.699  31.565  30.882  1.00  0.00     0.037 A 
ATOM     51  C   UNL A   1      42.905  25.087  28.282  1.00  0.00     0.037 A 
ATOM     52  C   UNL A   1      44.874  30.738  30.935  1.00  0.00     0.049 A 
ATOM     53  C   UNL A   1      44.221  25.569  28.830  1.00  0.00     0.074 A 
ATOM     54  C   UNL A   1      46.121  31.045  31.448  1.00  0.00     0.029 A 
ATOM     55  N   UNL A   1      44.943  29.435  30.464  1.00  0.00    -0.354 N 
ATOM     56  N   UNL A   1      44.516  26.732  29.361  1.00  0.00    -0.248 NA
ATOM     57  C   UNL A   1      45.349  24.627  28.775  1.00  0.00     0.031 C 
ATOM     58  C   UNL A   1      46.954  29.938  31.257  1.00  0.00     0.029 A 
ATOM     59  C   UNL A   1      46.214  28.927  30.663  1.00  0.00     0.049 A 
ATOM     60  H   UNL A   1      44.196  28.944  30.049  1.00  0.00     0.167 HD
ATOM     61  C   UNL A   1      45.855  26.655  29.726  1.00  0.00     0.074 A 
ATOM     62  C   UNL A   1      46.310  25.326  29.366  1.00  0.00     0.031 C 
ATOM     63  C   UNL A   1      46.640  27.597  30.305  1.00  0.00     0.037 A 
BRANCH  50  64
ATOM     64  C   UNL A   1      43.790  32.984  31.372  1.00  0.00     0.058 A 
ATOM     65  C   UNL A   1      43.605  33.310  32.727  1.00  0.00     0.135 A 
ATOM     66  C   UNL A   1      44.073  34.033  30.482  1.00  0.00     0.135 A 
ATOM     67  F   UNL A   1      43.313  32.350  33.619  1.00  0.00    -0.206 F 
ATOM     68  C   UNL A   1      43.659  34.626  33.174  1.00  0.00     0.059 A 
ATOM     69  C   UNL A   1      44.163  35.353  30.913  1.00  0.00     0.059 A 
ATOM     70  F   UNL A   1      44.258  33.779  29.177  1.00  0.00    -0.206 F 
ATOM     71  C   UNL A   1      43.937  35.641  32.257  1.00  0.00     0.060 A 
BRANCH  71  72
ATOM     72  S   UNL A   1      44.000  37.344  32.853  1.00  0.00     0.124 S 
ATOM     73  O   UNL A   1      43.849  38.092  31.609  1.00  0.00    -0.237 OA
ATOM     74  O   UNL A   1      42.862  37.398  33.766  1.00  0.00    -0.237 OA
ATOM     75  O   UNL A   1      45.312  37.434  33.485  1.00  0.00    -0.744 OA
ENDBRANCH  71  72
ENDBRANCH  50  64
BRANCH  51  76
ATOM     76  C   UNL A   1      42.767  23.721  27.710  1.00  0.00     0.058 A 
ATOM     77  C   UNL A   1      42.537  22.614  28.541  1.00  0.00     0.135 A 
ATOM     78  C   UNL A   1      42.841  23.494  26.327  1.00  0.00     0.135 A 
ATOM     79  F   UNL A   1      42.463  22.779  29.871  1.00  0.00    -0.206 F 
ATOM     80  C   UNL A   1      42.398  21.329  28.025  1.00  0.00     0.059 A 
ATOM     81  C   UNL A   1      42.683  22.221  25.785  1.00  0.00     0.059 A 
ATOM     82  F   UNL A   1      43.041  24.521  25.487  1.00  0.00    -0.206 F 
ATOM     83  C   UNL A   1      42.469  21.144  26.644  1.00  0.00     0.060 A 
BRANCH  83  84
ATOM     84  S   UNL A   1      42.232  19.480  25.981  1.00  0.00     0.124 S 
ATOM     85  O   UNL A   1      43.049  19.525  24.774  1.00  0.00    -0.237 OA
ATOM     86  O   UNL A   1      42.736  18.643  27.065  1.00  0.00    -0.237 OA
ATOM     87  O   UNL A   1      40.789  19.410  25.766  1.00  0.00    -0.744 OA
ENDBRANCH  83  84
ENDBRANCH  51  76
BRANCH  63  88
ATOM     88  C   UNL A   1      48.059  27.217  30.615  1.00  0.00     0.058 A 
ATOM     89  C   UNL A   1      48.408  26.604  31.827  1.00  0.00     0.135 A 
ATOM     90  C   UNL A   1      49.071  27.414  29.661  1.00  0.00     0.135 A 
ATOM     91  F   UNL A   1      47.478  26.399  32.774  1.00  0.00    -0.206 F 
ATOM     92  C   UNL A   1      49.717  26.218  32.093  1.00  0.00     0.059 A 
ATOM     93  C   UNL A   1      50.381  27.012  29.895  1.00  0.00     0.059 A 
ATOM     94  F   UNL A   1      48.785  27.986  28.481  1.00  0.00    -0.206 F 
ATOM     95  C   UNL A   1      50.696  26.424  31.120  1.00  0.00     0.060 A 
BRANCH  95  96
ATOM     96  S   UNL A   1      52.385  25.884  31.462  1.00  0.00     0.124 S 
ATOM     97  O   UNL A   1      52.816  26.871  32.446  1.00  0.00    -0.237 OA
ATOM     98  O   UNL A   1      52.184  24.529  31.968  1.00  0.00    -0.237 OA
ATOM     99  O   UNL A   1      53.038  25.967  30.158  1.00  0.00    -0.744 OA
ENDBRANCH  95  96
ENDBRANCH  63  88
ENDBRANCH  37  38
ENDBRANCH  29  32
ENDBRANCH  27  28
ENDBRANCH  26  27
ENDBRANCH   1  26
TORSDOF 18
ENDMDL
MODEL 3
REMARK VINA RESULT:     -11.8      6.451     12.291
REMARK SMILES C[NH2+][C@]1(C(=O)NCCCNC(=O)c2ccc(-c3c4nc(c(-c5c(F)cc(S(=O)(=O)[O-])cc5F)c5ccc([nH]5)c(-c5c(F)cc(S(=O)(=O)[O-])cc5F)c5nc(c(-c6c(F)cc(S(=O)(=O)[O-])cc6F)c6ccc3[nH]6)C=C5)C=C4)cc2)CCC[C@H]1CCOC1C[C@@H](C)C[C@H](C)C1
REMARK SMILES IDX 7 1 6 2 4 3 5 4 3 6 79 7 82 8 80 9 81 10 2 11 1 12 83 15
REMARK SMILES IDX 84 16 85 17 86 18 87 19 93 20 88 21 91 22 89 23 90 24 92 25
REMARK SMILES IDX 8 26 9 27 10 28 11 29 12 31 13 32 14 33 78 34 15 35 77 36
REMARK SMILES IDX 16 37 17 38 18 39 71 40 19 41 76 42 70 43 72 44 20 45 75 46
REMARK SMILES IDX 69 47 68 48 21 50 55 51 34 52 54 53 35 54 38 55 53 56 73 57
REMARK SMILES IDX 36 58 37 59 52 61 74 62 39 63 22 64 23 65 32 66 24 67 25 68
REMARK SMILES IDX 31 69 33 70 26 71 27 72 28 73 29 74 30 75 56 76 57 77 66 78
REMARK SMILES IDX 58 79 59 80 65 81 67 82 60 83 61 84 62 85 63 86 64 87 40 88
REMARK SMILES IDX 41 89 50 90 42 91 43 92 49 93 51 94 44 95 45 96 46 97 47 98
REMARK SMILES IDX 48 99
REMARK H PARENT 6 5 2 13 2 14 10 30 72 49 38 60
REMARK Flexibility Score: inf
ROOT
ATOM      1  C   UNL A   1      34.482  28.843  26.176  1.00  0.00     0.118 C 
ENDROOT
BRANCH   1   2
ATOM      2  N   UNL A   1      33.567  27.781  25.787  1.00  0.00    -0.351 N 
ATOM      3  C   UNL A   1      32.543  27.677  24.890  1.00  0.00     0.281 C 
ATOM      4  O   UNL A   1      32.319  26.497  24.574  1.00  0.00    -0.268 OA
ATOM      5  H   UNL A   1      33.722  26.947  26.287  1.00  0.00     0.163 HD
BRANCH   3   6
ATOM      6  C   UNL A   1      31.664  28.898  24.284  1.00  0.00     0.178 C 
ATOM      7  C   UNL A   1      30.343  28.192  23.840  1.00  0.00     0.079 C 
ATOM      8  C   UNL A   1      31.117  30.525  24.964  1.00  0.00     0.063 C 
ATOM      9  C   UNL A   1      29.381  29.216  23.338  1.00  0.00     0.008 C 
ATOM     10  C   UNL A   1      29.823  30.568  23.865  1.00  0.00     0.011 C 
BRANCH   6  11
ATOM     11  N   UNL A   1      32.246  29.116  22.877  1.00  0.00    -0.336 N 
ATOM     12  C   UNL A   1      33.654  28.904  22.619  1.00  0.00     0.331 C 
ATOM     13  H   UNL A   1      31.737  28.490  22.252  1.00  0.00     0.346 HD
ATOM     14  H   UNL A   1      32.137  30.121  22.739  1.00  0.00     0.346 HD
ENDBRANCH   6  11
BRANCH   8  15
ATOM     15  C   UNL A   1      31.419  31.661  26.729  1.00  0.00     0.039 C 
BRANCH  15  16
ATOM     16  C   UNL A   1      32.489  32.926  27.037  1.00  0.00     0.161 C 
BRANCH  16  17
ATOM     17  O   UNL A   1      33.339  32.545  28.064  1.00  0.00    -0.378 OA
BRANCH  17  18
ATOM     18  C   UNL A   1      33.975  33.793  28.172  1.00  0.00     0.118 C 
ATOM     19  C   UNL A   1      33.286  34.465  29.872  1.00  0.00     0.035 C 
ATOM     20  C   UNL A   1      35.866  33.299  28.007  1.00  0.00     0.035 C 
ATOM     21  C   UNL A   1      34.534  34.857  31.306  1.00  0.00    -0.011 C 
ATOM     22  C   UNL A   1      37.041  33.515  29.495  1.00  0.00    -0.011 C 
ATOM     23  C   UNL A   1      33.931  34.435  32.664  1.00  0.00     0.008 C 
ATOM     24  C   UNL A   1      36.336  34.198  31.165  1.00  0.00     0.006 C 
ATOM     25  C   UNL A   1      38.507  33.814  29.115  1.00  0.00     0.008 C 
ENDBRANCH  17  18
ENDBRANCH  16  17
ENDBRANCH  15  16
ENDBRANCH   8  15
ENDBRANCH   3   6
ENDBRANCH   1   2
BRANCH   1  26
ATOM     26  C   UNL A   1      34.327  29.261  27.624  1.00  0.00     0.042 C 
BRANCH  26  27
ATOM     27  C   UNL A   1      35.662  29.641  28.241  1.00  0.00     0.118 C 
BRANCH  27  28
ATOM     28  N   UNL A   1      35.537  30.024  29.649  1.00  0.00    -0.352 N 
ATOM     29  C   UNL A   1      36.513  30.138  30.614  1.00  0.00     0.251 C 
ATOM     30  H   UNL A   1      34.623  30.230  29.950  1.00  0.00     0.163 HD
ATOM     31  O   UNL A   1      36.205  30.302  31.790  1.00  0.00    -0.269 OA
BRANCH  29  32
ATOM     32  C   UNL A   1      37.932  30.024  30.219  1.00  0.00     0.039 A 
ATOM     33  C   UNL A   1      38.908  29.805  31.193  1.00  0.00     0.014 A 
ATOM     34  C   UNL A   1      38.280  30.054  28.867  1.00  0.00     0.014 A 
ATOM     35  C   UNL A   1      40.214  29.508  30.799  1.00  0.00     0.010 A 
ATOM     36  C   UNL A   1      39.541  29.631  28.477  1.00  0.00     0.010 A 
ATOM     37  C   UNL A   1      40.527  29.360  29.437  1.00  0.00    -0.014 A 
BRANCH  37  38
ATOM     38  C   UNL A   1      41.874  28.933  28.977  1.00  0.00     0.031 A 
ATOM     39  C   UNL A   1      42.985  29.947  28.893  1.00  0.00     0.074 A 
ATOM     40  C   UNL A   1      42.070  27.671  28.543  1.00  0.00     0.049 A 
ATOM     41  N   UNL A   1      44.188  29.816  28.398  1.00  0.00    -0.248 NA
ATOM     42  C   UNL A   1      42.687  31.301  29.386  1.00  0.00     0.031 C 
ATOM     43  C   UNL A   1      41.053  26.616  28.504  1.00  0.00     0.029 A 
ATOM     44  N   UNL A   1      43.191  27.064  28.036  1.00  0.00    -0.354 N 
ATOM     45  C   UNL A   1      44.772  31.074  28.489  1.00  0.00     0.074 A 
ATOM     46  C   UNL A   1      43.771  31.969  29.024  1.00  0.00     0.031 C 
ATOM     47  C   UNL A   1      41.606  25.486  28.034  1.00  0.00     0.029 A 
ATOM     48  C   UNL A   1      43.002  25.744  27.698  1.00  0.00     0.049 A 
ATOM     49  H   UNL A   1      44.052  27.529  27.925  1.00  0.00     0.167 HD
ATOM     50  C   UNL A   1      46.038  31.445  28.187  1.00  0.00     0.037 A 
ATOM     51  C   UNL A   1      43.857  24.844  27.173  1.00  0.00     0.037 A 
ATOM     52  C   UNL A   1      47.045  30.536  27.711  1.00  0.00     0.049 A 
ATOM     53  C   UNL A   1      45.273  25.267  26.887  1.00  0.00     0.074 A 
ATOM     54  C   UNL A   1      48.380  30.788  27.453  1.00  0.00     0.029 A 
ATOM     55  N   UNL A   1      46.828  29.194  27.432  1.00  0.00    -0.354 N 
ATOM     56  N   UNL A   1      45.827  26.446  27.044  1.00  0.00    -0.248 NA
ATOM     57  C   UNL A   1      46.180  24.239  26.360  1.00  0.00     0.031 C 
ATOM     58  C   UNL A   1      48.963  29.605  26.985  1.00  0.00     0.029 A 
ATOM     59  C   UNL A   1      48.001  28.608  26.991  1.00  0.00     0.049 A 
ATOM     60  H   UNL A   1      45.965  28.730  27.531  1.00  0.00     0.167 HD
ATOM     61  C   UNL A   1      47.154  26.296  26.657  1.00  0.00     0.074 A 
ATOM     62  C   UNL A   1      47.322  24.909  26.271  1.00  0.00     0.031 C 
ATOM     63  C   UNL A   1      48.145  27.221  26.622  1.00  0.00     0.037 A 
BRANCH  50  64
ATOM     64  C   UNL A   1      46.403  32.891  28.385  1.00  0.00     0.058 A 
ATOM     65  C   UNL A   1      46.272  33.833  27.350  1.00  0.00     0.135 A 
ATOM     66  C   UNL A   1      46.880  33.346  29.625  1.00  0.00     0.135 A 
ATOM     67  F   UNL A   1      45.838  33.450  26.139  1.00  0.00    -0.206 F 
ATOM     68  C   UNL A   1      46.637  35.163  27.526  1.00  0.00     0.059 A 
ATOM     69  C   UNL A   1      47.222  34.679  29.832  1.00  0.00     0.059 A 
ATOM     70  F   UNL A   1      47.026  32.489  30.648  1.00  0.00    -0.206 F 
ATOM     71  C   UNL A   1      47.114  35.576  28.771  1.00  0.00     0.060 A 
BRANCH  71  72
ATOM     72  S   UNL A   1      47.588  37.305  28.980  1.00  0.00     0.124 S 
ATOM     73  O   UNL A   1      47.230  37.863  27.680  1.00  0.00    -0.237 OA
ATOM     74  O   UNL A   1      46.752  37.725  30.101  1.00  0.00    -0.237 OA
ATOM     75  O   UNL A   1      49.018  37.233  29.261  1.00  0.00    -0.744 OA
ENDBRANCH  71  72
ENDBRANCH  50  64
BRANCH  51  76
ATOM     76  C   UNL A   1      43.410  23.448  26.924  1.00  0.00     0.058 A 
ATOM     77  C   UNL A   1      43.123  23.007  25.623  1.00  0.00     0.135 A 
ATOM     78  C   UNL A   1      43.280  22.521  27.970  1.00  0.00     0.135 A 
ATOM     79  F   UNL A   1      43.228  23.857  24.590  1.00  0.00    -0.206 F 
ATOM     80  C   UNL A   1      42.711  21.703  25.368  1.00  0.00     0.059 A 
ATOM     81  C   UNL A   1      42.891  21.205  27.737  1.00  0.00     0.059 A 
ATOM     82  F   UNL A   1      43.560  22.886  29.231  1.00  0.00    -0.206 F 
ATOM     83  C   UNL A   1      42.601  20.807  26.432  1.00  0.00     0.060 A 
BRANCH  83  84
ATOM     84  S   UNL A   1      42.119  19.102  26.082  1.00  0.00     0.124 S 
ATOM     85  O   UNL A   1      42.903  18.815  24.886  1.00  0.00    -0.237 OA
ATOM     86  O   UNL A   1      42.533  18.411  27.299  1.00  0.00    -0.237 OA
ATOM     87  O   UNL A   1      40.675  19.197  25.886  1.00  0.00    -0.744 OA
ENDBRANCH  83  84
ENDBRANCH  51  76
BRANCH  63  88
ATOM     88  C   UNL A   1      49.504  26.759  26.183  1.00  0.00     0.058 A 
ATOM     89  C   UNL A   1      49.890  26.789  24.834  1.00  0.00     0.135 A 
ATOM     90  C   UNL A   1      50.452  26.340  27.130  1.00  0.00     0.135 A 
ATOM     91  F   UNL A   1      49.019  27.177  23.889  1.00  0.00    -0.206 F 
ATOM     92  C   UNL A   1      51.164  26.398  24.437  1.00  0.00     0.059 A 
ATOM     93  C   UNL A   1      51.740  25.970  26.758  1.00  0.00     0.059 A 
ATOM     94  F   UNL A   1      50.135  26.305  28.434  1.00  0.00    -0.206 F 
ATOM     95  C   UNL A   1      52.083  25.993  25.407  1.00  0.00     0.060 A 
BRANCH  95  96
ATOM     96  S   UNL A   1      53.745  25.523  24.883  1.00  0.00     0.124 S 
ATOM     97  O   UNL A   1      53.609  24.079  24.728  1.00  0.00    -0.237 OA
ATOM     98  O   UNL A   1      53.910  26.281  23.646  1.00  0.00    -0.237 OA
ATOM     99  O   UNL A   1      54.587  25.961  25.993  1.00  0.00    -0.744 OA
ENDBRANCH  95  96
ENDBRANCH  63  88
ENDBRANCH  37  38
ENDBRANCH  29  32
ENDBRANCH  27  28
ENDBRANCH  26  27
ENDBRANCH   1  26
TORSDOF 18
ENDMDL
