MODEL 1
REMARK VINA RESULT:     -12.6      0.000      0.000
REMARK SMILES CCc1nn(-c2ccncn2)c(Cl)c1C(=O)NCCCNC(=O)c1ccc(-c2c3nc(c(-c4c(F)cc(S(=O)(=O)[O-])cc4F)c4ccc([nH]4)c(-c4c(F)cc(S(=O)(=O)[O-])cc4F)c4nc(c(-c5c(F)cc(S(=O)(=O)[O-])cc5F)c5ccc2[nH]5)C=C4)C=C3)cc1
REMARK SMILES IDX 20 1 19 2 18 3 17 4 15 5 16 6 14 8 3 9 4 10 5 11 12 12 13 13
REMARK SMILES IDX 2 14 1 15 6 16 7 17 11 18 8 19 10 20 9 21 21 22 22 23 23 25
REMARK SMILES IDX 24 26 25 27 89 28 26 29 88 30 27 31 28 32 29 33 82 34 30 35
REMARK SMILES IDX 87 36 81 37 83 38 31 39 86 40 80 41 79 42 32 44 66 45 45 46
REMARK SMILES IDX 65 47 46 48 49 49 64 50 84 51 47 52 48 53 63 55 85 56 50 57
REMARK SMILES IDX 33 58 34 59 43 60 35 61 36 62 42 63 44 64 37 65 38 66 39 67
REMARK SMILES IDX 40 68 41 69 67 70 68 71 77 72 69 73 70 74 76 75 78 76 71 77
REMARK SMILES IDX 72 78 73 79 74 80 75 81 51 82 52 83 61 84 53 85 54 86 60 87
REMARK SMILES IDX 62 88 55 89 56 90 57 91 58 92 59 93
REMARK H PARENT 17 7 21 24 83 43 49 54
REMARK Flexibility Score: inf
ROOT
ATOM      1  C   UNL A   1      37.947  22.459  25.705  1.00  0.00     0.118 C 
ENDROOT
BRANCH   1   2
ATOM      2  C   UNL A   1      37.413  21.571  24.589  1.00  0.00     0.042 C 
BRANCH   2   3
ATOM      3  C   UNL A   1      36.310  20.642  25.090  1.00  0.00     0.118 C 
BRANCH   3   4
ATOM      4  N   UNL A   1      35.560  21.173  26.193  1.00  0.00    -0.352 N 
ATOM      5  C   UNL A   1      34.291  21.645  26.366  1.00  0.00     0.256 C 
ATOM      6  O   UNL A   1      33.986  21.711  27.560  1.00  0.00    -0.269 OA
ATOM      7  H   UNL A   1      36.087  21.204  27.024  1.00  0.00     0.163 HD
BRANCH   5   8
ATOM      8  C   UNL A   1      33.346  22.072  25.323  1.00  0.00     0.100 A 
ATOM      9  C   UNL A   1      32.566  21.480  24.265  1.00  0.00     0.077 A 
ATOM     10  N   UNL A   1      31.767  22.372  23.655  1.00  0.00    -0.169 NA
ATOM     11  N   UNL A   1      32.115  23.576  24.160  1.00  0.00    -0.203 N 
ATOM     12  C   UNL A   1      32.997  23.417  25.202  1.00  0.00     0.147 A 
ATOM     13  Cl  UNL A   1      33.383  24.771  26.195  1.00  0.00    -0.061 Cl
BRANCH   9  14
ATOM     14  C   UNL A   1      32.462  20.094  23.710  1.00  0.00     0.056 C 
ATOM     15  C   UNL A   1      32.527  18.993  24.762  1.00  0.00     0.011 C 
ENDBRANCH   9  14
BRANCH  11  16
ATOM     16  C   UNL A   1      31.574  24.773  23.596  1.00  0.00     0.158 A 
ATOM     17  C   UNL A   1      32.162  25.329  22.474  1.00  0.00     0.069 A 
ATOM     18  N   UNL A   1      30.484  25.319  24.190  1.00  0.00    -0.217 NA
ATOM     19  C   UNL A   1      31.620  26.513  22.030  1.00  0.00     0.117 A 
ATOM     20  C   UNL A   1      30.063  26.486  23.686  1.00  0.00     0.224 A 
ATOM     21  N   UNL A   1      30.581  27.124  22.627  1.00  0.00    -0.245 NA
ENDBRANCH  11  16
ENDBRANCH   5   8
ENDBRANCH   3   4
ENDBRANCH   2   3
ENDBRANCH   1   2
BRANCH   1  22
ATOM     22  N   UNL A   1      38.891  21.739  26.564  1.00  0.00    -0.352 N 
ATOM     23  C   UNL A   1      40.020  22.216  27.195  1.00  0.00     0.251 C 
ATOM     24  H   UNL A   1      38.692  20.786  26.712  1.00  0.00     0.163 HD
ATOM     25  O   UNL A   1      40.854  21.443  27.656  1.00  0.00    -0.269 OA
BRANCH  23  26
ATOM     26  C   UNL A   1      40.215  23.671  27.265  1.00  0.00     0.039 A 
ATOM     27  C   UNL A   1      39.110  24.509  27.389  1.00  0.00     0.014 A 
ATOM     28  C   UNL A   1      41.515  24.165  27.366  1.00  0.00     0.014 A 
ATOM     29  C   UNL A   1      39.320  25.833  27.760  1.00  0.00     0.010 A 
ATOM     30  C   UNL A   1      41.711  25.444  27.847  1.00  0.00     0.010 A 
ATOM     31  C   UNL A   1      40.620  26.287  28.055  1.00  0.00    -0.014 A 
BRANCH  31  32
ATOM     32  C   UNL A   1      40.781  27.566  28.759  1.00  0.00     0.031 A 
ATOM     33  C   UNL A   1      41.870  28.437  28.223  1.00  0.00     0.074 A 
ATOM     34  C   UNL A   1      39.944  28.070  29.690  1.00  0.00     0.049 A 
ATOM     35  N   UNL A   1      43.011  28.693  28.774  1.00  0.00    -0.248 NA
ATOM     36  C   UNL A   1      41.742  28.966  26.855  1.00  0.00     0.031 C 
ATOM     37  C   UNL A   1      38.658  27.533  30.140  1.00  0.00     0.029 A 
ATOM     38  N   UNL A   1      40.034  29.249  30.375  1.00  0.00    -0.354 N 
ATOM     39  C   UNL A   1      43.638  29.619  27.945  1.00  0.00     0.074 A 
ATOM     40  C   UNL A   1      42.914  29.589  26.701  1.00  0.00     0.031 C 
ATOM     41  C   UNL A   1      37.990  28.480  30.834  1.00  0.00     0.029 A 
ATOM     42  C   UNL A   1      38.867  29.619  31.034  1.00  0.00     0.049 A 
ATOM     43  H   UNL A   1      40.855  29.792  30.399  1.00  0.00     0.167 HD
ATOM     44  C   UNL A   1      44.533  30.518  28.446  1.00  0.00     0.037 A 
ATOM     45  C   UNL A   1      38.623  30.774  31.700  1.00  0.00     0.037 A 
ATOM     46  C   UNL A   1      44.987  30.121  29.758  1.00  0.00     0.049 A 
ATOM     47  C   UNL A   1      39.938  31.338  32.088  1.00  0.00     0.074 A 
ATOM     48  C   UNL A   1      45.571  28.987  30.292  1.00  0.00     0.029 A 
ATOM     49  N   UNL A   1      44.514  30.833  30.833  1.00  0.00    -0.354 N 
ATOM     50  N   UNL A   1      40.739  30.790  32.961  1.00  0.00    -0.248 NA
ATOM     51  C   UNL A   1      40.554  32.325  31.216  1.00  0.00     0.031 C 
ATOM     52  C   UNL A   1      44.990  28.844  31.587  1.00  0.00     0.029 A 
ATOM     53  C   UNL A   1      44.143  29.934  31.798  1.00  0.00     0.049 A 
ATOM     54  H   UNL A   1      44.452  31.813  30.900  1.00  0.00     0.167 HD
ATOM     55  C   UNL A   1      42.011  31.016  32.460  1.00  0.00     0.074 A 
ATOM     56  C   UNL A   1      41.840  32.071  31.466  1.00  0.00     0.031 C 
ATOM     57  C   UNL A   1      43.027  30.135  32.696  1.00  0.00     0.037 A 
BRANCH  44  58
ATOM     58  C   UNL A   1      44.680  31.946  27.955  1.00  0.00     0.058 A 
ATOM     59  C   UNL A   1      45.896  32.345  27.357  1.00  0.00     0.135 A 
ATOM     60  C   UNL A   1      43.815  33.001  28.323  1.00  0.00     0.135 A 
ATOM     61  F   UNL A   1      46.796  31.430  26.962  1.00  0.00    -0.206 F 
ATOM     62  C   UNL A   1      46.268  33.684  27.235  1.00  0.00     0.059 A 
ATOM     63  C   UNL A   1      44.142  34.342  28.159  1.00  0.00     0.059 A 
ATOM     64  F   UNL A   1      42.653  32.795  28.952  1.00  0.00    -0.206 F 
ATOM     65  C   UNL A   1      45.390  34.675  27.661  1.00  0.00     0.060 A 
BRANCH  65  66
ATOM     66  S   UNL A   1      45.908  36.400  27.620  1.00  0.00     0.124 S 
ATOM     67  O   UNL A   1      44.628  37.079  27.457  1.00  0.00    -0.237 OA
ATOM     68  O   UNL A   1      46.554  36.552  28.919  1.00  0.00    -0.237 OA
ATOM     69  O   UNL A   1      46.805  36.450  26.470  1.00  0.00    -0.744 OA
ENDBRANCH  65  66
ENDBRANCH  44  58
BRANCH  45  70
ATOM     70  C   UNL A   1      37.353  31.534  31.827  1.00  0.00     0.058 A 
ATOM     71  C   UNL A   1      36.820  31.848  33.089  1.00  0.00     0.135 A 
ATOM     72  C   UNL A   1      36.794  32.218  30.728  1.00  0.00     0.135 A 
ATOM     73  F   UNL A   1      37.297  31.253  34.193  1.00  0.00    -0.206 F 
ATOM     74  C   UNL A   1      35.843  32.834  33.262  1.00  0.00     0.059 A 
ATOM     75  C   UNL A   1      35.808  33.193  30.874  1.00  0.00     0.059 A 
ATOM     76  F   UNL A   1      37.258  32.028  29.484  1.00  0.00    -0.206 F 
ATOM     77  C   UNL A   1      35.361  33.520  32.149  1.00  0.00     0.060 A 
BRANCH  77  78
ATOM     78  S   UNL A   1      34.259  34.934  32.386  1.00  0.00     0.124 S 
ATOM     79  O   UNL A   1      35.054  35.795  33.253  1.00  0.00    -0.237 OA
ATOM     80  O   UNL A   1      34.066  35.407  31.020  1.00  0.00    -0.237 OA
ATOM     81  O   UNL A   1      33.077  34.341  33.007  1.00  0.00    -0.744 OA
ENDBRANCH  77  78
ENDBRANCH  45  70
BRANCH  57  82
ATOM     82  C   UNL A   1      42.887  29.164  33.839  1.00  0.00     0.058 A 
ATOM     83  C   UNL A   1      43.293  29.399  35.165  1.00  0.00     0.135 A 
ATOM     84  C   UNL A   1      42.192  27.969  33.587  1.00  0.00     0.135 A 
ATOM     85  F   UNL A   1      43.865  30.559  35.519  1.00  0.00    -0.206 F 
ATOM     86  C   UNL A   1      43.065  28.464  36.178  1.00  0.00     0.059 A 
ATOM     87  C   UNL A   1      41.922  27.041  34.586  1.00  0.00     0.059 A 
ATOM     88  F   UNL A   1      41.724  27.710  32.354  1.00  0.00    -0.206 F 
ATOM     89  C   UNL A   1      42.380  27.286  35.878  1.00  0.00     0.060 A 
BRANCH  89  90
ATOM     90  S   UNL A   1      42.035  26.102  37.197  1.00  0.00     0.124 S 
ATOM     91  O   UNL A   1      40.632  26.371  37.492  1.00  0.00    -0.237 OA
ATOM     92  O   UNL A   1      42.315  24.820  36.557  1.00  0.00    -0.237 OA
ATOM     93  O   UNL A   1      42.977  26.480  38.248  1.00  0.00    -0.744 OA
ENDBRANCH  89  90
ENDBRANCH  57  82
ENDBRANCH  31  32
ENDBRANCH  23  26
ENDBRANCH   1  22
TORSDOF 15
ENDMDL
MODEL 2
REMARK VINA RESULT:     -12.6      1.359      2.710
REMARK SMILES CCc1nn(-c2ccncn2)c(Cl)c1C(=O)NCCCNC(=O)c1ccc(-c2c3nc(c(-c4c(F)cc(S(=O)(=O)[O-])cc4F)c4ccc([nH]4)c(-c4c(F)cc(S(=O)(=O)[O-])cc4F)c4nc(c(-c5c(F)cc(S(=O)(=O)[O-])cc5F)c5ccc2[nH]5)C=C4)C=C3)cc1
REMARK SMILES IDX 20 1 19 2 18 3 17 4 15 5 16 6 14 8 3 9 4 10 5 11 12 12 13 13
REMARK SMILES IDX 2 14 1 15 6 16 7 17 11 18 8 19 10 20 9 21 21 22 22 23 23 25
REMARK SMILES IDX 24 26 25 27 89 28 26 29 88 30 27 31 28 32 29 33 82 34 30 35
REMARK SMILES IDX 87 36 81 37 83 38 31 39 86 40 80 41 79 42 32 44 66 45 45 46
REMARK SMILES IDX 65 47 46 48 49 49 64 50 84 51 47 52 48 53 63 55 85 56 50 57
REMARK SMILES IDX 33 58 34 59 43 60 35 61 36 62 42 63 44 64 37 65 38 66 39 67
REMARK SMILES IDX 40 68 41 69 67 70 68 71 77 72 69 73 70 74 76 75 78 76 71 77
REMARK SMILES IDX 72 78 73 79 74 80 75 81 51 82 52 83 61 84 53 85 54 86 60 87
REMARK SMILES IDX 62 88 55 89 56 90 57 91 58 92 59 93
REMARK H PARENT 17 7 21 24 83 43 49 54
REMARK Flexibility Score: inf
ROOT
ATOM      1  C   UNL A   1      37.655  23.406  25.577  1.00  0.00     0.118 C 
ENDROOT
BRANCH   1   2
ATOM      2  C   UNL A   1      36.152  23.253  25.773  1.00  0.00     0.042 C 
BRANCH   2   3
ATOM      3  C   UNL A   1      35.415  24.561  25.501  1.00  0.00     0.118 C 
BRANCH   3   4
ATOM      4  N   UNL A   1      34.036  24.545  25.903  1.00  0.00    -0.352 N 
ATOM      5  C   UNL A   1      33.027  23.627  25.870  1.00  0.00     0.256 C 
ATOM      6  O   UNL A   1      32.091  23.951  26.607  1.00  0.00    -0.269 OA
ATOM      7  H   UNL A   1      33.751  25.402  26.296  1.00  0.00     0.163 HD
BRANCH   5   8
ATOM      8  C   UNL A   1      32.963  22.396  25.069  1.00  0.00     0.100 A 
ATOM      9  C   UNL A   1      32.649  22.001  23.718  1.00  0.00     0.077 A 
ATOM     10  N   UNL A   1      32.857  20.692  23.504  1.00  0.00    -0.169 NA
ATOM     11  N   UNL A   1      33.139  20.166  24.717  1.00  0.00    -0.203 N 
ATOM     12  C   UNL A   1      33.279  21.166  25.647  1.00  0.00     0.147 A 
ATOM     13  Cl  UNL A   1      33.907  20.788  27.206  1.00  0.00    -0.061 Cl
BRANCH   9  14
ATOM     14  C   UNL A   1      32.142  22.739  22.519  1.00  0.00     0.056 C 
ATOM     15  C   UNL A   1      33.111  23.784  21.973  1.00  0.00     0.011 C 
ENDBRANCH   9  14
BRANCH  11  16
ATOM     16  C   UNL A   1      33.245  18.748  24.875  1.00  0.00     0.158 A 
ATOM     17  C   UNL A   1      34.334  18.079  24.346  1.00  0.00     0.069 A 
ATOM     18  N   UNL A   1      32.260  18.111  25.554  1.00  0.00    -0.217 NA
ATOM     19  C   UNL A   1      34.329  16.711  24.487  1.00  0.00     0.117 A 
ATOM     20  C   UNL A   1      32.349  16.775  25.602  1.00  0.00     0.224 A 
ATOM     21  N   UNL A   1      33.342  16.030  25.095  1.00  0.00    -0.245 NA
ENDBRANCH  11  16
ENDBRANCH   5   8
ENDBRANCH   3   4
ENDBRANCH   2   3
ENDBRANCH   1   2
BRANCH   1  22
ATOM     22  N   UNL A   1      38.402  22.375  26.303  1.00  0.00    -0.352 N 
ATOM     23  C   UNL A   1      39.632  22.473  26.920  1.00  0.00     0.251 C 
ATOM     24  H   UNL A   1      37.969  21.493  26.357  1.00  0.00     0.163 HD
ATOM     25  O   UNL A   1      40.250  21.466  27.249  1.00  0.00    -0.269 OA
BRANCH  23  26
ATOM     26  C   UNL A   1      40.196  23.813  27.134  1.00  0.00     0.039 A 
ATOM     27  C   UNL A   1      39.536  24.928  26.624  1.00  0.00     0.014 A 
ATOM     28  C   UNL A   1      41.294  23.945  27.983  1.00  0.00     0.014 A 
ATOM     29  C   UNL A   1      39.904  26.186  27.089  1.00  0.00     0.010 A 
ATOM     30  C   UNL A   1      41.576  25.182  28.528  1.00  0.00     0.010 A 
ATOM     31  C   UNL A   1      40.882  26.311  28.095  1.00  0.00    -0.014 A 
BRANCH  31  32
ATOM     32  C   UNL A   1      41.012  27.592  28.802  1.00  0.00     0.031 A 
ATOM     33  C   UNL A   1      42.121  28.463  28.310  1.00  0.00     0.074 A 
ATOM     34  C   UNL A   1      40.137  28.097  29.697  1.00  0.00     0.049 A 
ATOM     35  N   UNL A   1      43.238  28.721  28.907  1.00  0.00    -0.248 NA
ATOM     36  C   UNL A   1      42.051  28.989  26.937  1.00  0.00     0.031 C 
ATOM     37  C   UNL A   1      38.833  27.560  30.093  1.00  0.00     0.029 A 
ATOM     38  N   UNL A   1      40.197  29.278  30.382  1.00  0.00    -0.354 N 
ATOM     39  C   UNL A   1      43.899  29.646  28.104  1.00  0.00     0.074 A 
ATOM     40  C   UNL A   1      43.228  29.613  26.830  1.00  0.00     0.031 C 
ATOM     41  C   UNL A   1      38.136  28.507  30.757  1.00  0.00     0.029 A 
ATOM     42  C   UNL A   1      39.003  29.647  30.991  1.00  0.00     0.049 A 
ATOM     43  H   UNL A   1      41.016  29.821  30.439  1.00  0.00     0.167 HD
ATOM     44  C   UNL A   1      44.771  30.547  28.639  1.00  0.00     0.037 A 
ATOM     45  C   UNL A   1      38.731  30.803  31.644  1.00  0.00     0.037 A 
ATOM     46  C   UNL A   1      45.170  30.153  29.970  1.00  0.00     0.049 A 
ATOM     47  C   UNL A   1      40.028  31.370  32.085  1.00  0.00     0.074 A 
ATOM     48  C   UNL A   1      45.733  29.021  30.531  1.00  0.00     0.029 A 
ATOM     49  N   UNL A   1      44.653  30.867  31.023  1.00  0.00    -0.354 N 
ATOM     50  N   UNL A   1      40.792  30.825  32.991  1.00  0.00    -0.248 NA
ATOM     51  C   UNL A   1      40.678  32.355  31.237  1.00  0.00     0.031 C 
ATOM     52  C   UNL A   1      45.098  28.880  31.800  1.00  0.00     0.029 A 
ATOM     53  C   UNL A   1      44.243  29.969  31.974  1.00  0.00     0.049 A 
ATOM     54  H   UNL A   1      44.587  31.847  31.085  1.00  0.00     0.167 HD
ATOM     55  C   UNL A   1      42.083  31.051  32.544  1.00  0.00     0.074 A 
ATOM     56  C   UNL A   1      41.954  32.103  31.541  1.00  0.00     0.031 C 
ATOM     57  C   UNL A   1      43.090  30.172  32.824  1.00  0.00     0.037 A 
BRANCH  44  58
ATOM     58  C   UNL A   1      44.937  31.974  28.152  1.00  0.00     0.058 A 
ATOM     59  C   UNL A   1      46.230  32.445  27.836  1.00  0.00     0.135 A 
ATOM     60  C   UNL A   1      43.947  32.974  28.281  1.00  0.00     0.135 A 
ATOM     61  F   UNL A   1      47.252  31.588  27.684  1.00  0.00    -0.206 F 
ATOM     62  C   UNL A   1      46.536  33.805  27.761  1.00  0.00     0.059 A 
ATOM     63  C   UNL A   1      44.218  34.331  28.156  1.00  0.00     0.059 A 
ATOM     64  F   UNL A   1      42.686  32.698  28.635  1.00  0.00    -0.206 F 
ATOM     65  C   UNL A   1      45.524  34.741  27.945  1.00  0.00     0.060 A 
BRANCH  65  66
ATOM     66  S   UNL A   1      45.928  36.495  27.972  1.00  0.00     0.124 S 
ATOM     67  O   UNL A   1      44.989  36.990  28.972  1.00  0.00    -0.237 OA
ATOM     68  O   UNL A   1      47.333  36.476  28.365  1.00  0.00    -0.237 OA
ATOM     69  O   UNL A   1      45.673  36.916  26.598  1.00  0.00    -0.744 OA
ENDBRANCH  65  66
ENDBRANCH  44  58
BRANCH  45  70
ATOM     70  C   UNL A   1      37.456  31.562  31.716  1.00  0.00     0.058 A 
ATOM     71  C   UNL A   1      36.835  31.819  32.951  1.00  0.00     0.135 A 
ATOM     72  C   UNL A   1      36.976  32.299  30.614  1.00  0.00     0.135 A 
ATOM     73  F   UNL A   1      37.231  31.171  34.057  1.00  0.00    -0.206 F 
ATOM     74  C   UNL A   1      35.849  32.800  33.100  1.00  0.00     0.059 A 
ATOM     75  C   UNL A   1      35.984  33.271  30.735  1.00  0.00     0.059 A 
ATOM     76  F   UNL A   1      37.527  32.166  29.398  1.00  0.00    -0.206 F 
ATOM     77  C   UNL A   1      35.448  33.540  31.989  1.00  0.00     0.060 A 
BRANCH  77  78
ATOM     78  S   UNL A   1      34.333  34.946  32.214  1.00  0.00     0.124 S 
ATOM     79  O   UNL A   1      35.144  35.847  33.025  1.00  0.00    -0.237 OA
ATOM     80  O   UNL A   1      34.090  35.370  30.839  1.00  0.00    -0.237 OA
ATOM     81  O   UNL A   1      33.181  34.359  32.893  1.00  0.00    -0.744 OA
ENDBRANCH  77  78
ENDBRANCH  45  70
BRANCH  57  82
ATOM     82  C   UNL A   1      42.903  29.203  33.962  1.00  0.00     0.058 A 
ATOM     83  C   UNL A   1      43.185  29.467  35.314  1.00  0.00     0.135 A 
ATOM     84  C   UNL A   1      42.292  27.972  33.666  1.00  0.00     0.135 A 
ATOM     85  F   UNL A   1      43.667  30.657  35.702  1.00  0.00    -0.206 F 
ATOM     86  C   UNL A   1      42.920  28.528  36.315  1.00  0.00     0.059 A 
ATOM     87  C   UNL A   1      41.986  27.039  34.650  1.00  0.00     0.059 A 
ATOM     88  F   UNL A   1      41.942  27.681  32.402  1.00  0.00    -0.206 F 
ATOM     89  C   UNL A   1      42.321  27.315  35.972  1.00  0.00     0.060 A 
BRANCH  89  90
ATOM     90  S   UNL A   1      41.927  26.125  37.272  1.00  0.00     0.124 S 
ATOM     91  O   UNL A   1      40.599  26.560  37.693  1.00  0.00    -0.237 OA
ATOM     92  O   UNL A   1      41.983  24.849  36.564  1.00  0.00    -0.237 OA
ATOM     93  O   UNL A   1      42.990  26.327  38.253  1.00  0.00    -0.744 OA
ENDBRANCH  89  90
ENDBRANCH  57  82
ENDBRANCH  31  32
ENDBRANCH  23  26
ENDBRANCH   1  22
TORSDOF 15
ENDMDL
MODEL 3
REMARK VINA RESULT:     -12.4      1.310      1.774
REMARK SMILES CCc1nn(-c2ccncn2)c(Cl)c1C(=O)NCCCNC(=O)c1ccc(-c2c3nc(c(-c4c(F)cc(S(=O)(=O)[O-])cc4F)c4ccc([nH]4)c(-c4c(F)cc(S(=O)(=O)[O-])cc4F)c4nc(c(-c5c(F)cc(S(=O)(=O)[O-])cc5F)c5ccc2[nH]5)C=C4)C=C3)cc1
REMARK SMILES IDX 20 1 19 2 18 3 17 4 15 5 16 6 14 8 3 9 4 10 5 11 12 12 13 13
REMARK SMILES IDX 2 14 1 15 6 16 7 17 11 18 8 19 10 20 9 21 21 22 22 23 23 25
REMARK SMILES IDX 24 26 25 27 89 28 26 29 88 30 27 31 28 32 29 33 82 34 30 35
REMARK SMILES IDX 87 36 81 37 83 38 31 39 86 40 80 41 79 42 32 44 66 45 45 46
REMARK SMILES IDX 65 47 46 48 49 49 64 50 84 51 47 52 48 53 63 55 85 56 50 57
REMARK SMILES IDX 33 58 34 59 43 60 35 61 36 62 42 63 44 64 37 65 38 66 39 67
REMARK SMILES IDX 40 68 41 69 67 70 68 71 77 72 69 73 70 74 76 75 78 76 71 77
REMARK SMILES IDX 72 78 73 79 74 80 75 81 51 82 52 83 61 84 53 85 54 86 60 87
REMARK SMILES IDX 62 88 55 89 56 90 57 91 58 92 59 93
REMARK H PARENT 17 7 21 24 83 43 49 54
REMARK Flexibility Score: inf
ROOT
ATOM      1  C   UNL A   1      38.071  22.623  25.581  1.00  0.00     0.118 C 
ENDROOT
BRANCH   1   2
ATOM      2  C   UNL A   1      36.687  22.026  25.356  1.00  0.00     0.042 C 
BRANCH   2   3
ATOM      3  C   UNL A   1      35.649  23.109  25.071  1.00  0.00     0.118 C 
BRANCH   3   4
ATOM      4  N   UNL A   1      34.989  22.962  23.805  1.00  0.00    -0.352 N 
ATOM      5  C   UNL A   1      33.922  23.553  23.193  1.00  0.00     0.256 C 
ATOM      6  O   UNL A   1      33.904  23.322  21.980  1.00  0.00    -0.269 OA
ATOM      7  H   UNL A   1      35.407  22.269  23.243  1.00  0.00     0.163 HD
BRANCH   5   8
ATOM      8  C   UNL A   1      32.862  24.355  23.821  1.00  0.00     0.100 A 
ATOM      9  C   UNL A   1      31.904  24.231  24.892  1.00  0.00     0.077 A 
ATOM     10  N   UNL A   1      31.214  25.365  25.098  1.00  0.00    -0.169 NA
ATOM     11  N   UNL A   1      31.561  26.190  24.085  1.00  0.00    -0.203 N 
ATOM     12  C   UNL A   1      32.590  25.643  23.358  1.00  0.00     0.147 A 
ATOM     13  Cl  UNL A   1      33.402  26.608  22.185  1.00  0.00    -0.061 Cl
BRANCH   9  14
ATOM     14  C   UNL A   1      31.522  23.113  25.811  1.00  0.00     0.056 C 
ATOM     15  C   UNL A   1      32.340  23.054  27.096  1.00  0.00     0.011 C 
ENDBRANCH   9  14
BRANCH  11  16
ATOM     16  C   UNL A   1      30.872  27.430  23.904  1.00  0.00     0.158 A 
ATOM     17  C   UNL A   1      29.730  27.472  23.123  1.00  0.00     0.069 A 
ATOM     18  N   UNL A   1      31.372  28.530  24.519  1.00  0.00    -0.217 NA
ATOM     19  C   UNL A   1      29.163  28.712  22.948  1.00  0.00     0.117 A 
ATOM     20  C   UNL A   1      30.751  29.686  24.251  1.00  0.00     0.224 A 
ATOM     21  N   UNL A   1      29.661  29.840  23.485  1.00  0.00    -0.245 NA
ENDBRANCH  11  16
ENDBRANCH   5   8
ENDBRANCH   3   4
ENDBRANCH   2   3
ENDBRANCH   1   2
BRANCH   1  22
ATOM     22  N   UNL A   1      38.866  21.810  26.507  1.00  0.00    -0.352 N 
ATOM     23  C   UNL A   1      39.999  22.162  27.209  1.00  0.00     0.251 C 
ATOM     24  H   UNL A   1      38.548  20.889  26.646  1.00  0.00     0.163 HD
ATOM     25  O   UNL A   1      40.705  21.305  27.729  1.00  0.00    -0.269 OA
BRANCH  23  26
ATOM     26  C   UNL A   1      40.356  23.586  27.283  1.00  0.00     0.039 A 
ATOM     27  C   UNL A   1      39.374  24.554  27.088  1.00  0.00     0.014 A 
ATOM     28  C   UNL A   1      41.639  23.930  27.707  1.00  0.00     0.014 A 
ATOM     29  C   UNL A   1      39.652  25.865  27.461  1.00  0.00     0.010 A 
ATOM     30  C   UNL A   1      41.869  25.205  28.184  1.00  0.00     0.010 A 
ATOM     31  C   UNL A   1      40.880  26.181  28.073  1.00  0.00    -0.014 A 
BRANCH  31  32
ATOM     32  C   UNL A   1      41.019  27.475  28.755  1.00  0.00     0.031 A 
ATOM     33  C   UNL A   1      42.134  28.328  28.246  1.00  0.00     0.074 A 
ATOM     34  C   UNL A   1      40.147  28.003  29.640  1.00  0.00     0.049 A 
ATOM     35  N   UNL A   1      43.253  28.591  28.838  1.00  0.00    -0.248 NA
ATOM     36  C   UNL A   1      42.066  28.828  26.863  1.00  0.00     0.031 C 
ATOM     37  C   UNL A   1      38.841  27.482  30.048  1.00  0.00     0.029 A 
ATOM     38  N   UNL A   1      40.216  29.196  30.302  1.00  0.00    -0.354 N 
ATOM     39  C   UNL A   1      43.919  29.495  28.016  1.00  0.00     0.074 A 
ATOM     40  C   UNL A   1      43.247  29.442  26.744  1.00  0.00     0.031 C 
ATOM     41  C   UNL A   1      38.150  28.447  30.693  1.00  0.00     0.029 A 
ATOM     42  C   UNL A   1      39.025  29.585  30.905  1.00  0.00     0.049 A 
ATOM     43  H   UNL A   1      41.038  29.735  30.349  1.00  0.00     0.167 HD
ATOM     44  C   UNL A   1      44.798  30.400  28.534  1.00  0.00     0.037 A 
ATOM     45  C   UNL A   1      38.761  30.756  31.535  1.00  0.00     0.037 A 
ATOM     46  C   UNL A   1      45.195  30.029  29.872  1.00  0.00     0.049 A 
ATOM     47  C   UNL A   1      40.062  31.322  31.965  1.00  0.00     0.074 A 
ATOM     48  C   UNL A   1      45.750  28.904  30.454  1.00  0.00     0.029 A 
ATOM     49  N   UNL A   1      44.683  30.767  30.912  1.00  0.00    -0.354 N 
ATOM     50  N   UNL A   1      40.823  30.789  32.881  1.00  0.00    -0.248 NA
ATOM     51  C   UNL A   1      40.719  32.286  31.098  1.00  0.00     0.031 C 
ATOM     52  C   UNL A   1      45.115  28.792  31.727  1.00  0.00     0.029 A 
ATOM     53  C   UNL A   1      44.267  29.891  31.879  1.00  0.00     0.049 A 
ATOM     54  H   UNL A   1      44.624  31.749  30.954  1.00  0.00     0.167 HD
ATOM     55  C   UNL A   1      42.115  30.998  32.429  1.00  0.00     0.074 A 
ATOM     56  C   UNL A   1      41.993  32.031  31.407  1.00  0.00     0.031 C 
ATOM     57  C   UNL A   1      43.116  30.117  32.726  1.00  0.00     0.037 A 
BRANCH  44  58
ATOM     58  C   UNL A   1      44.973  31.817  28.020  1.00  0.00     0.058 A 
ATOM     59  C   UNL A   1      46.266  32.265  27.672  1.00  0.00     0.135 A 
ATOM     60  C   UNL A   1      43.998  32.831  28.149  1.00  0.00     0.135 A 
ATOM     61  F   UNL A   1      47.274  31.392  27.516  1.00  0.00    -0.206 F 
ATOM     62  C   UNL A   1      46.588  33.619  27.569  1.00  0.00     0.059 A 
ATOM     63  C   UNL A   1      44.285  34.183  27.995  1.00  0.00     0.059 A 
ATOM     64  F   UNL A   1      42.741  32.579  28.530  1.00  0.00    -0.206 F 
ATOM     65  C   UNL A   1      45.592  34.571  27.754  1.00  0.00     0.060 A 
BRANCH  65  66
ATOM     66  S   UNL A   1      46.019  36.321  27.743  1.00  0.00     0.124 S 
ATOM     67  O   UNL A   1      46.350  36.543  29.146  1.00  0.00    -0.237 OA
ATOM     68  O   UNL A   1      47.137  36.353  26.807  1.00  0.00    -0.237 OA
ATOM     69  O   UNL A   1      44.794  36.959  27.271  1.00  0.00    -0.744 OA
ENDBRANCH  65  66
ENDBRANCH  44  58
BRANCH  45  70
ATOM     70  C   UNL A   1      37.491  31.524  31.593  1.00  0.00     0.058 A 
ATOM     71  C   UNL A   1      36.794  31.681  32.804  1.00  0.00     0.135 A 
ATOM     72  C   UNL A   1      37.091  32.363  30.532  1.00  0.00     0.135 A 
ATOM     73  F   UNL A   1      37.112  30.933  33.871  1.00  0.00    -0.206 F 
ATOM     74  C   UNL A   1      35.809  32.660  32.977  1.00  0.00     0.059 A 
ATOM     75  C   UNL A   1      36.102  33.335  30.676  1.00  0.00     0.059 A 
ATOM     76  F   UNL A   1      37.718  32.328  29.347  1.00  0.00    -0.206 F 
ATOM     77  C   UNL A   1      35.489  33.501  31.912  1.00  0.00     0.060 A 
BRANCH  77  78
ATOM     78  S   UNL A   1      34.375  34.898  32.190  1.00  0.00     0.124 S 
ATOM     79  O   UNL A   1      33.314  34.286  32.981  1.00  0.00    -0.237 OA
ATOM     80  O   UNL A   1      35.234  35.842  32.896  1.00  0.00    -0.237 OA
ATOM     81  O   UNL A   1      33.994  35.301  30.838  1.00  0.00    -0.744 OA
ENDBRANCH  77  78
ENDBRANCH  45  70
BRANCH  57  82
ATOM     82  C   UNL A   1      42.923  29.172  33.883  1.00  0.00     0.058 A 
ATOM     83  C   UNL A   1      43.206  29.461  35.229  1.00  0.00     0.135 A 
ATOM     84  C   UNL A   1      42.304  27.940  33.611  1.00  0.00     0.135 A 
ATOM     85  F   UNL A   1      43.696  30.655  35.594  1.00  0.00    -0.206 F 
ATOM     86  C   UNL A   1      42.936  28.543  36.248  1.00  0.00     0.059 A 
ATOM     87  C   UNL A   1      41.993  27.027  34.612  1.00  0.00     0.059 A 
ATOM     88  F   UNL A   1      41.953  27.626  32.352  1.00  0.00    -0.206 F 
ATOM     89  C   UNL A   1      42.329  27.327  35.929  1.00  0.00     0.060 A 
BRANCH  89  90
ATOM     90  S   UNL A   1      41.928  26.165  37.251  1.00  0.00     0.124 S 
ATOM     91  O   UNL A   1      42.004  24.880  36.564  1.00  0.00    -0.237 OA
ATOM     92  O   UNL A   1      42.977  26.424  38.233  1.00  0.00    -0.237 OA
ATOM     93  O   UNL A   1      40.587  26.572  37.667  1.00  0.00    -0.744 OA
ENDBRANCH  89  90
ENDBRANCH  57  82
ENDBRANCH  31  32
ENDBRANCH  23  26
ENDBRANCH   1  22
TORSDOF 15
ENDMDL
