MODEL 1
REMARK VINA RESULT:     -10.8      0.000      0.000
REMARK SMILES O=C(CCCc1nc(-c2cccc(Cl)c2)no1)NCCCNC(=O)c1ccc(-c2c3nc(c(-c4c(F)cc(S(=O)(=O)[O-])cc4F)c4ccc([nH]4)c(-c4c(F)cc(S(=O)(=O)[O-])cc4F)c4nc(c(-c5c(F)cc(S(=O)(=O)[O-])cc5F)c5ccc2[nH]5)C=C4)C=C3)cc1
REMARK SMILES IDX 19 1 18 2 1 3 2 4 3 6 4 7 5 8 6 9 7 10 17 11 8 12 16 13 9 14
REMARK SMILES IDX 10 15 15 16 11 17 13 18 12 19 14 20 20 21 21 22 22 23 23 24
REMARK SMILES IDX 24 26 25 27 26 28 90 29 27 30 89 31 28 32 29 33 30 34 83 35
REMARK SMILES IDX 31 36 88 37 82 38 84 39 32 40 87 41 81 42 80 43 33 45 67 46
REMARK SMILES IDX 46 47 66 48 47 49 50 50 65 51 85 52 48 53 49 54 64 56 86 57
REMARK SMILES IDX 51 58 34 59 35 60 44 61 36 62 37 63 43 64 45 65 38 66 39 67
REMARK SMILES IDX 40 68 41 69 42 70 68 71 69 72 78 73 70 74 71 75 77 76 79 77
REMARK SMILES IDX 72 78 73 79 74 80 75 81 76 82 52 83 53 84 62 85 54 86 55 87
REMARK SMILES IDX 61 88 63 89 56 90 57 91 58 92 59 93 60 94
REMARK H PARENT 18 5 22 25 84 44 50 55
REMARK Flexibility Score: inf
ROOT
ATOM      1  C   UNL A   1      34.085  33.567  29.041  1.00  0.00     0.117 C 
ENDROOT
BRANCH   1   2
ATOM      2  N   UNL A   1      33.708  34.471  30.110  1.00  0.00    -0.356 N 
ATOM      3  O   UNL A   1      32.509  35.913  28.781  1.00  0.00    -0.275 OA
ATOM      4  C   UNL A   1      32.913  35.570  29.887  1.00  0.00     0.220 C 
ATOM      5  H   UNL A   1      34.030  34.293  31.022  1.00  0.00     0.163 HD
BRANCH   4   6
ATOM      6  C   UNL A   1      32.533  36.317  31.145  1.00  0.00     0.100 C 
BRANCH   6   7
ATOM      7  C   UNL A   1      33.755  36.915  31.857  1.00  0.00     0.020 C 
BRANCH   7   8
ATOM      8  C   UNL A   1      33.931  36.532  33.335  1.00  0.00     0.101 C 
BRANCH   8   9
ATOM      9  C   UNL A   1      34.672  35.259  33.498  1.00  0.00     0.226 A 
ATOM     10  N   UNL A   1      35.917  35.068  33.869  1.00  0.00    -0.191 NA
ATOM     11  O   UNL A   1      34.072  34.133  33.023  1.00  0.00    -0.339 OA
ATOM     12  C   UNL A   1      36.130  33.751  33.527  1.00  0.00     0.202 A 
ATOM     13  N   UNL A   1      35.045  33.137  33.025  1.00  0.00    -0.057 NA
BRANCH  12  14
ATOM     14  C   UNL A   1      37.462  33.169  33.568  1.00  0.00     0.024 A 
ATOM     15  C   UNL A   1      37.727  32.081  34.413  1.00  0.00     0.012 A 
ATOM     16  C   UNL A   1      38.513  33.740  32.838  1.00  0.00     0.032 A 
ATOM     17  C   UNL A   1      39.024  31.574  34.533  1.00  0.00     0.002 A 
ATOM     18  C   UNL A   1      39.808  33.242  32.977  1.00  0.00     0.041 A 
ATOM     19  C   UNL A   1      40.067  32.162  33.820  1.00  0.00     0.020 A 
ATOM     20  Cl  UNL A   1      41.105  33.990  32.130  1.00  0.00    -0.084 Cl
ENDBRANCH  12  14
ENDBRANCH   8   9
ENDBRANCH   7   8
ENDBRANCH   6   7
ENDBRANCH   4   6
ENDBRANCH   1   2
BRANCH   1  21
ATOM     21  C   UNL A   1      35.553  33.698  28.654  1.00  0.00     0.042 C 
BRANCH  21  22
ATOM     22  C   UNL A   1      36.542  33.143  29.675  1.00  0.00     0.118 C 
BRANCH  22  23
ATOM     23  N   UNL A   1      36.028  32.002  30.416  1.00  0.00    -0.352 N 
ATOM     24  C   UNL A   1      36.577  30.757  30.599  1.00  0.00     0.251 C 
ATOM     25  H   UNL A   1      35.157  32.144  30.853  1.00  0.00     0.163 HD
ATOM     26  O   UNL A   1      35.912  29.887  31.161  1.00  0.00    -0.269 OA
BRANCH  24  27
ATOM     27  C   UNL A   1      37.936  30.441  30.099  1.00  0.00     0.039 A 
ATOM     28  C   UNL A   1      38.975  30.313  31.025  1.00  0.00     0.014 A 
ATOM     29  C   UNL A   1      38.202  30.286  28.736  1.00  0.00     0.014 A 
ATOM     30  C   UNL A   1      40.259  29.971  30.591  1.00  0.00     0.010 A 
ATOM     31  C   UNL A   1      39.462  29.864  28.312  1.00  0.00     0.010 A 
ATOM     32  C   UNL A   1      40.509  29.707  29.234  1.00  0.00    -0.014 A 
BRANCH  32  33
ATOM     33  C   UNL A   1      41.855  29.261  28.779  1.00  0.00     0.031 A 
ATOM     34  C   UNL A   1      43.000  30.237  28.696  1.00  0.00     0.074 A 
ATOM     35  C   UNL A   1      42.040  27.978  28.406  1.00  0.00     0.049 A 
ATOM     36  N   UNL A   1      44.236  30.028  28.320  1.00  0.00    -0.248 NA
ATOM     37  C   UNL A   1      42.715  31.633  29.061  1.00  0.00     0.031 C 
ATOM     38  C   UNL A   1      41.000  26.946  28.386  1.00  0.00     0.029 A 
ATOM     39  N   UNL A   1      43.164  27.321  27.971  1.00  0.00    -0.354 N 
ATOM     40  C   UNL A   1      44.873  31.262  28.397  1.00  0.00     0.074 A 
ATOM     41  C   UNL A   1      43.871  32.226  28.798  1.00  0.00     0.031 C 
ATOM     42  C   UNL A   1      41.542  25.781  27.994  1.00  0.00     0.029 A 
ATOM     43  C   UNL A   1      42.956  25.988  27.697  1.00  0.00     0.049 A 
ATOM     44  H   UNL A   1      44.038  27.761  27.865  1.00  0.00     0.167 HD
ATOM     45  C   UNL A   1      46.176  31.562  28.178  1.00  0.00     0.037 A 
ATOM     46  C   UNL A   1      43.804  25.039  27.255  1.00  0.00     0.037 A 
ATOM     47  C   UNL A   1      47.174  30.596  27.794  1.00  0.00     0.049 A 
ATOM     48  C   UNL A   1      45.246  25.397  27.016  1.00  0.00     0.074 A 
ATOM     49  C   UNL A   1      48.531  30.791  27.602  1.00  0.00     0.029 A 
ATOM     50  N   UNL A   1      46.925  29.255  27.535  1.00  0.00    -0.354 N 
ATOM     51  N   UNL A   1      45.844  26.555  27.166  1.00  0.00    -0.248 NA
ATOM     52  C   UNL A   1      46.131  24.317  26.560  1.00  0.00     0.031 C 
ATOM     53  C   UNL A   1      49.093  29.582  27.178  1.00  0.00     0.029 A 
ATOM     54  C   UNL A   1      48.099  28.618  27.164  1.00  0.00     0.049 A 
ATOM     55  H   UNL A   1      46.045  28.821  27.606  1.00  0.00     0.167 HD
ATOM     56  C   UNL A   1      47.182  26.336  26.850  1.00  0.00     0.074 A 
ATOM     57  C   UNL A   1      47.306  24.931  26.517  1.00  0.00     0.031 C 
ATOM     58  C   UNL A   1      48.212  27.217  26.837  1.00  0.00     0.037 A 
BRANCH  45  59
ATOM     59  C   UNL A   1      46.604  32.995  28.354  1.00  0.00     0.058 A 
ATOM     60  C   UNL A   1      47.070  33.481  29.587  1.00  0.00     0.135 A 
ATOM     61  C   UNL A   1      46.590  33.886  27.267  1.00  0.00     0.135 A 
ATOM     62  F   UNL A   1      47.093  32.681  30.664  1.00  0.00    -0.206 F 
ATOM     63  C   UNL A   1      47.476  34.803  29.744  1.00  0.00     0.059 A 
ATOM     64  C   UNL A   1      47.022  35.203  27.394  1.00  0.00     0.059 A 
ATOM     65  F   UNL A   1      46.157  33.476  26.063  1.00  0.00    -0.206 F 
ATOM     66  C   UNL A   1      47.449  35.657  28.640  1.00  0.00     0.060 A 
BRANCH  66  67
ATOM     67  S   UNL A   1      47.988  37.366  28.860  1.00  0.00     0.124 S 
ATOM     68  O   UNL A   1      47.872  37.523  30.307  1.00  0.00    -0.237 OA
ATOM     69  O   UNL A   1      49.348  37.334  28.334  1.00  0.00    -0.237 OA
ATOM     70  O   UNL A   1      47.030  38.131  28.068  1.00  0.00    -0.744 OA
ENDBRANCH  66  67
ENDBRANCH  45  59
BRANCH  46  71
ATOM     71  C   UNL A   1      43.316  23.651  27.032  1.00  0.00     0.058 A 
ATOM     72  C   UNL A   1      43.020  23.185  25.741  1.00  0.00     0.135 A 
ATOM     73  C   UNL A   1      43.140  22.759  28.102  1.00  0.00     0.135 A 
ATOM     74  F   UNL A   1      43.165  24.001  24.685  1.00  0.00    -0.206 F 
ATOM     75  C   UNL A   1      42.551  21.895  25.520  1.00  0.00     0.059 A 
ATOM     76  C   UNL A   1      42.700  21.454  27.903  1.00  0.00     0.059 A 
ATOM     77  F   UNL A   1      43.424  23.147  29.355  1.00  0.00    -0.206 F 
ATOM     78  C   UNL A   1      42.397  21.035  26.608  1.00  0.00     0.060 A 
BRANCH  78  79
ATOM     79  S   UNL A   1      41.829  19.347  26.304  1.00  0.00     0.124 S 
ATOM     80  O   UNL A   1      42.580  18.995  25.106  1.00  0.00    -0.237 OA
ATOM     81  O   UNL A   1      42.226  18.665  27.532  1.00  0.00    -0.237 OA
ATOM     82  O   UNL A   1      40.388  19.506  26.123  1.00  0.00    -0.744 OA
ENDBRANCH  78  79
ENDBRANCH  46  71
BRANCH  58  83
ATOM     83  C   UNL A   1      49.576  26.683  26.489  1.00  0.00     0.058 A 
ATOM     84  C   UNL A   1      50.423  26.120  27.457  1.00  0.00     0.135 A 
ATOM     85  C   UNL A   1      50.029  26.705  25.159  1.00  0.00     0.135 A 
ATOM     86  F   UNL A   1      50.043  26.077  28.744  1.00  0.00    -0.206 F 
ATOM     87  C   UNL A   1      51.684  25.632  27.126  1.00  0.00     0.059 A 
ATOM     88  C   UNL A   1      51.272  26.192  24.800  1.00  0.00     0.059 A 
ATOM     89  F   UNL A   1      49.256  27.219  24.189  1.00  0.00    -0.206 F 
ATOM     90  C   UNL A   1      52.099  25.672  25.794  1.00  0.00     0.060 A 
BRANCH  90  91
ATOM     91  S   UNL A   1      53.730  25.022  25.376  1.00  0.00     0.124 S 
ATOM     92  O   UNL A   1      54.090  25.846  24.227  1.00  0.00    -0.237 OA
ATOM     93  O   UNL A   1      54.489  25.271  26.598  1.00  0.00    -0.237 OA
ATOM     94  O   UNL A   1      53.472  23.615  25.083  1.00  0.00    -0.744 OA
ENDBRANCH  90  91
ENDBRANCH  58  83
ENDBRANCH  32  33
ENDBRANCH  24  27
ENDBRANCH  22  23
ENDBRANCH  21  22
ENDBRANCH   1  21
TORSDOF 17
ENDMDL
MODEL 2
REMARK VINA RESULT:     -10.6      2.982      3.811
REMARK SMILES O=C(CCCc1nc(-c2cccc(Cl)c2)no1)NCCCNC(=O)c1ccc(-c2c3nc(c(-c4c(F)cc(S(=O)(=O)[O-])cc4F)c4ccc([nH]4)c(-c4c(F)cc(S(=O)(=O)[O-])cc4F)c4nc(c(-c5c(F)cc(S(=O)(=O)[O-])cc5F)c5ccc2[nH]5)C=C4)C=C3)cc1
REMARK SMILES IDX 19 1 18 2 1 3 2 4 3 6 4 7 5 8 6 9 7 10 17 11 8 12 16 13 9 14
REMARK SMILES IDX 10 15 15 16 11 17 13 18 12 19 14 20 20 21 21 22 22 23 23 24
REMARK SMILES IDX 24 26 25 27 26 28 90 29 27 30 89 31 28 32 29 33 30 34 83 35
REMARK SMILES IDX 31 36 88 37 82 38 84 39 32 40 87 41 81 42 80 43 33 45 67 46
REMARK SMILES IDX 46 47 66 48 47 49 50 50 65 51 85 52 48 53 49 54 64 56 86 57
REMARK SMILES IDX 51 58 34 59 35 60 44 61 36 62 37 63 43 64 45 65 38 66 39 67
REMARK SMILES IDX 40 68 41 69 42 70 68 71 69 72 78 73 70 74 71 75 77 76 79 77
REMARK SMILES IDX 72 78 73 79 74 80 75 81 76 82 52 83 53 84 62 85 54 86 55 87
REMARK SMILES IDX 61 88 63 89 56 90 57 91 58 92 59 93 60 94
REMARK H PARENT 18 5 22 25 84 44 50 55
REMARK Flexibility Score: inf
ROOT
ATOM      1  C   UNL A   1      34.500  34.686  28.879  1.00  0.00     0.117 C 
ENDROOT
BRANCH   1   2
ATOM      2  N   UNL A   1      34.330  35.364  30.149  1.00  0.00    -0.356 N 
ATOM      3  O   UNL A   1      32.322  36.349  29.619  1.00  0.00    -0.275 OA
ATOM      4  C   UNL A   1      33.220  36.128  30.424  1.00  0.00     0.220 C 
ATOM      5  H   UNL A   1      35.030  35.276  30.835  1.00  0.00     0.163 HD
BRANCH   4   6
ATOM      6  C   UNL A   1      33.172  36.651  31.841  1.00  0.00     0.100 C 
BRANCH   6   7
ATOM      7  C   UNL A   1      33.263  35.523  32.880  1.00  0.00     0.020 C 
BRANCH   7   8
ATOM      8  C   UNL A   1      34.594  35.410  33.639  1.00  0.00     0.101 C 
BRANCH   8   9
ATOM      9  C   UNL A   1      35.203  34.065  33.502  1.00  0.00     0.226 A 
ATOM     10  N   UNL A   1      36.291  33.589  34.060  1.00  0.00    -0.191 NA
ATOM     11  O   UNL A   1      34.700  33.259  32.527  1.00  0.00    -0.339 OA
ATOM     12  C   UNL A   1      36.526  32.447  33.327  1.00  0.00     0.202 A 
ATOM     13  N   UNL A   1      35.588  32.195  32.399  1.00  0.00    -0.057 NA
BRANCH  12  14
ATOM     14  C   UNL A   1      37.769  31.705  33.467  1.00  0.00     0.024 A 
ATOM     15  C   UNL A   1      38.934  32.360  33.895  1.00  0.00     0.012 A 
ATOM     16  C   UNL A   1      37.840  30.356  33.091  1.00  0.00     0.032 A 
ATOM     17  C   UNL A   1      40.154  31.680  33.941  1.00  0.00     0.002 A 
ATOM     18  C   UNL A   1      39.064  29.690  33.123  1.00  0.00     0.041 A 
ATOM     19  C   UNL A   1      40.220  30.345  33.545  1.00  0.00     0.020 A 
ATOM     20  Cl  UNL A   1      39.159  28.054  32.597  1.00  0.00    -0.084 Cl
ENDBRANCH  12  14
ENDBRANCH   8   9
ENDBRANCH   7   8
ENDBRANCH   6   7
ENDBRANCH   4   6
ENDBRANCH   1   2
BRANCH   1  21
ATOM     21  C   UNL A   1      34.376  33.172  29.003  1.00  0.00     0.042 C 
BRANCH  21  22
ATOM     22  C   UNL A   1      34.352  32.416  27.678  1.00  0.00     0.118 C 
BRANCH  22  23
ATOM     23  N   UNL A   1      33.695  31.122  27.763  1.00  0.00    -0.352 N 
ATOM     24  C   UNL A   1      34.237  29.874  27.950  1.00  0.00     0.251 C 
ATOM     25  H   UNL A   1      32.714  31.143  27.673  1.00  0.00     0.163 HD
ATOM     26  O   UNL A   1      33.507  28.886  27.863  1.00  0.00    -0.269 OA
BRANCH  24  27
ATOM     27  C   UNL A   1      35.684  29.703  28.217  1.00  0.00     0.039 A 
ATOM     28  C   UNL A   1      36.084  29.300  29.494  1.00  0.00     0.014 A 
ATOM     29  C   UNL A   1      36.648  29.948  27.236  1.00  0.00     0.014 A 
ATOM     30  C   UNL A   1      37.438  29.086  29.767  1.00  0.00     0.010 A 
ATOM     31  C   UNL A   1      37.990  29.655  27.484  1.00  0.00     0.010 A 
ATOM     32  C   UNL A   1      38.403  29.225  28.755  1.00  0.00    -0.014 A 
BRANCH  32  33
ATOM     33  C   UNL A   1      39.836  28.917  29.019  1.00  0.00     0.031 A 
ATOM     34  C   UNL A   1      40.741  29.950  29.638  1.00  0.00     0.074 A 
ATOM     35  C   UNL A   1      40.332  27.713  28.669  1.00  0.00     0.049 A 
ATOM     36  N   UNL A   1      42.013  29.858  29.936  1.00  0.00    -0.248 NA
ATOM     37  C   UNL A   1      40.150  31.262  29.940  1.00  0.00     0.031 C 
ATOM     38  C   UNL A   1      39.574  26.645  28.012  1.00  0.00     0.029 A 
ATOM     39  N   UNL A   1      41.590  27.182  28.814  1.00  0.00    -0.354 N 
ATOM     40  C   UNL A   1      42.374  31.099  30.453  1.00  0.00     0.074 A 
ATOM     41  C   UNL A   1      41.202  31.943  30.373  1.00  0.00     0.031 C 
ATOM     42  C   UNL A   1      40.371  25.578  27.843  1.00  0.00     0.029 A 
ATOM     43  C   UNL A   1      41.706  25.895  28.341  1.00  0.00     0.049 A 
ATOM     44  H   UNL A   1      42.339  27.676  29.220  1.00  0.00     0.167 HD
ATOM     45  C   UNL A   1      43.564  31.490  30.971  1.00  0.00     0.037 A 
ATOM     46  C   UNL A   1      42.766  25.064  28.309  1.00  0.00     0.037 A 
ATOM     47  C   UNL A   1      44.723  30.641  31.062  1.00  0.00     0.049 A 
ATOM     48  C   UNL A   1      44.078  25.522  28.886  1.00  0.00     0.074 A 
ATOM     49  C   UNL A   1      45.958  30.928  31.621  1.00  0.00     0.029 A 
ATOM     50  N   UNL A   1      44.799  29.342  30.580  1.00  0.00    -0.354 N 
ATOM     51  N   UNL A   1      44.378  26.674  29.438  1.00  0.00    -0.248 NA
ATOM     52  C   UNL A   1      45.191  24.566  28.848  1.00  0.00     0.031 C 
ATOM     53  C   UNL A   1      46.794  29.823  31.429  1.00  0.00     0.029 A 
ATOM     54  C   UNL A   1      46.064  28.824  30.807  1.00  0.00     0.049 A 
ATOM     55  H   UNL A   1      44.062  28.859  30.142  1.00  0.00     0.167 HD
ATOM     56  C   UNL A   1      45.706  26.570  29.839  1.00  0.00     0.074 A 
ATOM     57  C   UNL A   1      46.145  25.236  29.480  1.00  0.00     0.031 C 
ATOM     58  C   UNL A   1      46.491  27.493  30.448  1.00  0.00     0.037 A 
BRANCH  45  59
ATOM     59  C   UNL A   1      43.672  32.902  31.484  1.00  0.00     0.058 A 
ATOM     60  C   UNL A   1      43.844  33.993  30.615  1.00  0.00     0.135 A 
ATOM     61  C   UNL A   1      43.561  33.176  32.858  1.00  0.00     0.135 A 
ATOM     62  F   UNL A   1      43.970  33.792  29.294  1.00  0.00    -0.206 F 
ATOM     63  C   UNL A   1      43.931  35.297  31.092  1.00  0.00     0.059 A 
ATOM     64  C   UNL A   1      43.614  34.476  33.353  1.00  0.00     0.059 A 
ATOM     65  F   UNL A   1      43.393  32.172  33.735  1.00  0.00    -0.206 F 
ATOM     66  C   UNL A   1      43.815  35.529  32.463  1.00  0.00     0.060 A 
BRANCH  66  67
ATOM     67  S   UNL A   1      43.922  37.229  33.061  1.00  0.00     0.124 S 
ATOM     68  O   UNL A   1      42.747  37.309  33.923  1.00  0.00    -0.237 OA
ATOM     69  O   UNL A   1      45.211  37.239  33.744  1.00  0.00    -0.237 OA
ATOM     70  O   UNL A   1      43.857  38.025  31.839  1.00  0.00    -0.744 OA
ENDBRANCH  66  67
ENDBRANCH  45  59
BRANCH  46  71
ATOM     71  C   UNL A   1      42.624  23.700  27.728  1.00  0.00     0.058 A 
ATOM     72  C   UNL A   1      42.420  22.580  28.549  1.00  0.00     0.135 A 
ATOM     73  C   UNL A   1      42.685  23.488  26.342  1.00  0.00     0.135 A 
ATOM     74  F   UNL A   1      42.362  22.729  29.882  1.00  0.00    -0.206 F 
ATOM     75  C   UNL A   1      42.299  21.300  28.021  1.00  0.00     0.059 A 
ATOM     76  C   UNL A   1      42.538  22.221  25.787  1.00  0.00     0.059 A 
ATOM     77  F   UNL A   1      42.863  24.526  25.510  1.00  0.00    -0.206 F 
ATOM     78  C   UNL A   1      42.357  21.130  26.637  1.00  0.00     0.060 A 
BRANCH  78  79
ATOM     79  S   UNL A   1      42.155  19.468  25.959  1.00  0.00     0.124 S 
ATOM     80  O   UNL A   1      40.720  19.427  25.704  1.00  0.00    -0.237 OA
ATOM     81  O   UNL A   1      43.013  19.513  24.780  1.00  0.00    -0.237 OA
ATOM     82  O   UNL A   1      42.629  18.606  27.038  1.00  0.00    -0.744 OA
ENDBRANCH  78  79
ENDBRANCH  46  71
BRANCH  58  83
ATOM     83  C   UNL A   1      47.895  27.082  30.803  1.00  0.00     0.058 A 
ATOM     84  C   UNL A   1      48.197  26.437  32.014  1.00  0.00     0.135 A 
ATOM     85  C   UNL A   1      48.950  27.309  29.904  1.00  0.00     0.135 A 
ATOM     86  F   UNL A   1      47.228  26.199  32.912  1.00  0.00    -0.206 F 
ATOM     87  C   UNL A   1      49.499  26.064  32.335  1.00  0.00     0.059 A 
ATOM     88  C   UNL A   1      50.254  26.915  30.190  1.00  0.00     0.059 A 
ATOM     89  F   UNL A   1      48.718  27.911  28.726  1.00  0.00    -0.206 F 
ATOM     90  C   UNL A   1      50.521  26.308  31.416  1.00  0.00     0.060 A 
BRANCH  90  91
ATOM     91  S   UNL A   1      52.202  25.807  31.838  1.00  0.00     0.124 S 
ATOM     92  O   UNL A   1      52.506  26.701  32.950  1.00  0.00    -0.237 OA
ATOM     93  O   UNL A   1      52.031  24.399  32.185  1.00  0.00    -0.237 OA
ATOM     94  O   UNL A   1      52.952  26.057  30.610  1.00  0.00    -0.744 OA
ENDBRANCH  90  91
ENDBRANCH  58  83
ENDBRANCH  32  33
ENDBRANCH  24  27
ENDBRANCH  22  23
ENDBRANCH  21  22
ENDBRANCH   1  21
TORSDOF 17
ENDMDL
MODEL 3
REMARK VINA RESULT:     -10.6      4.980      6.789
REMARK SMILES O=C(CCCc1nc(-c2cccc(Cl)c2)no1)NCCCNC(=O)c1ccc(-c2c3nc(c(-c4c(F)cc(S(=O)(=O)[O-])cc4F)c4ccc([nH]4)c(-c4c(F)cc(S(=O)(=O)[O-])cc4F)c4nc(c(-c5c(F)cc(S(=O)(=O)[O-])cc5F)c5ccc2[nH]5)C=C4)C=C3)cc1
REMARK SMILES IDX 19 1 18 2 1 3 2 4 3 6 4 7 5 8 6 9 7 10 17 11 8 12 16 13 9 14
REMARK SMILES IDX 10 15 15 16 11 17 13 18 12 19 14 20 20 21 21 22 22 23 23 24
REMARK SMILES IDX 24 26 25 27 26 28 90 29 27 30 89 31 28 32 29 33 30 34 83 35
REMARK SMILES IDX 31 36 88 37 82 38 84 39 32 40 87 41 81 42 80 43 33 45 67 46
REMARK SMILES IDX 46 47 66 48 47 49 50 50 65 51 85 52 48 53 49 54 64 56 86 57
REMARK SMILES IDX 51 58 34 59 35 60 44 61 36 62 37 63 43 64 45 65 38 66 39 67
REMARK SMILES IDX 40 68 41 69 42 70 68 71 69 72 78 73 70 74 71 75 77 76 79 77
REMARK SMILES IDX 72 78 73 79 74 80 75 81 76 82 52 83 53 84 62 85 54 86 55 87
REMARK SMILES IDX 61 88 63 89 56 90 57 91 58 92 59 93 60 94
REMARK H PARENT 18 5 22 25 84 44 50 55
REMARK Flexibility Score: inf
ROOT
ATOM      1  C   UNL A   1      33.616  28.935  24.770  1.00  0.00     0.117 C 
ENDROOT
BRANCH   1   2
ATOM      2  N   UNL A   1      32.362  28.660  24.098  1.00  0.00    -0.356 N 
ATOM      3  O   UNL A   1      31.117  30.170  25.303  1.00  0.00    -0.275 OA
ATOM      4  C   UNL A   1      31.205  29.336  24.409  1.00  0.00     0.220 C 
ATOM      5  H   UNL A   1      32.336  27.969  23.397  1.00  0.00     0.163 HD
BRANCH   4   6
ATOM      6  C   UNL A   1      30.036  28.992  23.515  1.00  0.00     0.100 C 
BRANCH   6   7
ATOM      7  C   UNL A   1      30.045  27.517  23.089  1.00  0.00     0.020 C 
BRANCH   7   8
ATOM      8  C   UNL A   1      29.486  26.515  24.111  1.00  0.00     0.101 C 
BRANCH   8   9
ATOM      9  C   UNL A   1      30.542  25.980  25.004  1.00  0.00     0.226 A 
ATOM     10  N   UNL A   1      31.645  25.343  24.690  1.00  0.00    -0.191 NA
ATOM     11  O   UNL A   1      30.267  25.959  26.337  1.00  0.00    -0.339 OA
ATOM     12  C   UNL A   1      32.041  24.821  25.902  1.00  0.00     0.202 A 
ATOM     13  N   UNL A   1      31.252  25.174  26.930  1.00  0.00    -0.057 NA
BRANCH  12  14
ATOM     14  C   UNL A   1      33.122  23.851  25.987  1.00  0.00     0.024 A 
ATOM     15  C   UNL A   1      32.840  22.507  26.275  1.00  0.00     0.012 A 
ATOM     16  C   UNL A   1      34.458  24.261  25.875  1.00  0.00     0.032 A 
ATOM     17  C   UNL A   1      33.875  21.587  26.454  1.00  0.00     0.002 A 
ATOM     18  C   UNL A   1      35.486  23.340  26.073  1.00  0.00     0.041 A 
ATOM     19  C   UNL A   1      35.201  22.006  26.362  1.00  0.00     0.020 A 
ATOM     20  Cl  UNL A   1      37.124  23.863  26.000  1.00  0.00    -0.084 Cl
ENDBRANCH  12  14
ENDBRANCH   8   9
ENDBRANCH   7   8
ENDBRANCH   6   7
ENDBRANCH   4   6
ENDBRANCH   1   2
BRANCH   1  21
ATOM     21  C   UNL A   1      33.937  27.912  25.853  1.00  0.00     0.042 C 
BRANCH  21  22
ATOM     22  C   UNL A   1      33.420  28.264  27.245  1.00  0.00     0.118 C 
BRANCH  22  23
ATOM     23  N   UNL A   1      33.335  29.695  27.485  1.00  0.00    -0.352 N 
ATOM     24  C   UNL A   1      34.276  30.557  27.993  1.00  0.00     0.251 C 
ATOM     25  H   UNL A   1      32.473  30.109  27.248  1.00  0.00     0.163 HD
ATOM     26  O   UNL A   1      33.953  31.720  28.236  1.00  0.00    -0.269 OA
BRANCH  24  27
ATOM     27  C   UNL A   1      35.654  30.096  28.283  1.00  0.00     0.039 A 
ATOM     28  C   UNL A   1      36.597  30.120  27.252  1.00  0.00     0.014 A 
ATOM     29  C   UNL A   1      36.024  29.629  29.547  1.00  0.00     0.014 A 
ATOM     30  C   UNL A   1      37.917  29.736  27.504  1.00  0.00     0.010 A 
ATOM     31  C   UNL A   1      37.358  29.324  29.818  1.00  0.00     0.010 A 
ATOM     32  C   UNL A   1      38.321  29.368  28.798  1.00  0.00    -0.014 A 
BRANCH  32  33
ATOM     33  C   UNL A   1      39.744  29.038  29.088  1.00  0.00     0.031 A 
ATOM     34  C   UNL A   1      40.652  30.054  29.731  1.00  0.00     0.074 A 
ATOM     35  C   UNL A   1      40.230  27.829  28.742  1.00  0.00     0.049 A 
ATOM     36  N   UNL A   1      41.916  29.943  30.053  1.00  0.00    -0.248 NA
ATOM     37  C   UNL A   1      40.074  31.374  30.029  1.00  0.00     0.031 C 
ATOM     38  C   UNL A   1      39.470  26.776  28.064  1.00  0.00     0.029 A 
ATOM     39  N   UNL A   1      41.477  27.279  28.909  1.00  0.00    -0.354 N 
ATOM     40  C   UNL A   1      42.284  31.175  30.585  1.00  0.00     0.074 A 
ATOM     41  C   UNL A   1      41.126  32.037  30.486  1.00  0.00     0.031 C 
ATOM     42  C   UNL A   1      40.256  25.698  27.904  1.00  0.00     0.029 A 
ATOM     43  C   UNL A   1      41.585  25.993  28.431  1.00  0.00     0.049 A 
ATOM     44  H   UNL A   1      42.225  27.760  29.332  1.00  0.00     0.167 HD
ATOM     45  C   UNL A   1      43.469  31.547  31.128  1.00  0.00     0.037 A 
ATOM     46  C   UNL A   1      42.633  25.147  28.415  1.00  0.00     0.037 A 
ATOM     47  C   UNL A   1      44.614  30.681  31.238  1.00  0.00     0.049 A 
ATOM     48  C   UNL A   1      43.939  25.584  29.021  1.00  0.00     0.074 A 
ATOM     49  C   UNL A   1      45.841  30.948  31.823  1.00  0.00     0.029 A 
ATOM     50  N   UNL A   1      44.680  29.383  30.750  1.00  0.00    -0.354 N 
ATOM     51  N   UNL A   1      44.245  26.729  29.585  1.00  0.00    -0.248 NA
ATOM     52  C   UNL A   1      45.040  24.612  28.999  1.00  0.00     0.031 C 
ATOM     53  C   UNL A   1      46.666  29.831  31.641  1.00  0.00     0.029 A 
ATOM     54  C   UNL A   1      45.934  28.846  31.000  1.00  0.00     0.049 A 
ATOM     55  H   UNL A   1      43.945  28.913  30.295  1.00  0.00     0.167 HD
ATOM     56  C   UNL A   1      45.563  26.602  30.012  1.00  0.00     0.074 A 
ATOM     57  C   UNL A   1      45.990  25.265  29.654  1.00  0.00     0.031 C 
ATOM     58  C   UNL A   1      46.348  27.511  30.641  1.00  0.00     0.037 A 
BRANCH  45  59
ATOM     59  C   UNL A   1      43.587  32.954  31.652  1.00  0.00     0.058 A 
ATOM     60  C   UNL A   1      44.029  34.011  30.837  1.00  0.00     0.135 A 
ATOM     61  C   UNL A   1      43.214  33.262  32.971  1.00  0.00     0.135 A 
ATOM     62  F   UNL A   1      44.412  33.775  29.573  1.00  0.00    -0.206 F 
ATOM     63  C   UNL A   1      44.126  35.312  31.320  1.00  0.00     0.059 A 
ATOM     64  C   UNL A   1      43.272  34.563  33.465  1.00  0.00     0.059 A 
ATOM     65  F   UNL A   1      42.781  32.293  33.794  1.00  0.00    -0.206 F 
ATOM     66  C   UNL A   1      43.744  35.578  32.636  1.00  0.00     0.060 A 
BRANCH  66  67
ATOM     67  S   UNL A   1      43.868  37.275  33.242  1.00  0.00     0.124 S 
ATOM     68  O   UNL A   1      42.713  37.352  34.130  1.00  0.00    -0.237 OA
ATOM     69  O   UNL A   1      45.172  37.278  33.896  1.00  0.00    -0.237 OA
ATOM     70  O   UNL A   1      43.778  38.078  32.026  1.00  0.00    -0.744 OA
ENDBRANCH  66  67
ENDBRANCH  45  59
BRANCH  46  71
ATOM     71  C   UNL A   1      42.484  23.789  27.824  1.00  0.00     0.058 A 
ATOM     72  C   UNL A   1      42.351  22.654  28.639  1.00  0.00     0.135 A 
ATOM     73  C   UNL A   1      42.465  23.597  26.433  1.00  0.00     0.135 A 
ATOM     74  F   UNL A   1      42.370  22.783  29.975  1.00  0.00    -0.206 F 
ATOM     75  C   UNL A   1      42.224  21.379  28.101  1.00  0.00     0.059 A 
ATOM     76  C   UNL A   1      42.310  22.334  25.870  1.00  0.00     0.059 A 
ATOM     77  F   UNL A   1      42.572  24.649  25.608  1.00  0.00    -0.206 F 
ATOM     78  C   UNL A   1      42.201  21.229  26.713  1.00  0.00     0.060 A 
BRANCH  78  79
ATOM     79  S   UNL A   1      41.992  19.572  26.024  1.00  0.00     0.124 S 
ATOM     80  O   UNL A   1      42.888  19.615  24.875  1.00  0.00    -0.237 OA
ATOM     81  O   UNL A   1      42.415  18.724  27.133  1.00  0.00    -0.237 OA
ATOM     82  O   UNL A   1      40.566  19.518  25.712  1.00  0.00    -0.744 OA
ENDBRANCH  78  79
ENDBRANCH  46  71
BRANCH  58  83
ATOM     83  C   UNL A   1      47.739  27.079  31.022  1.00  0.00     0.058 A 
ATOM     84  C   UNL A   1      48.819  27.179  30.130  1.00  0.00     0.135 A 
ATOM     85  C   UNL A   1      48.001  26.587  32.312  1.00  0.00     0.135 A 
ATOM     86  F   UNL A   1      48.625  27.638  28.884  1.00  0.00    -0.206 F 
ATOM     87  C   UNL A   1      50.101  26.773  30.490  1.00  0.00     0.059 A 
ATOM     88  C   UNL A   1      49.281  26.207  32.704  1.00  0.00     0.059 A 
ATOM     89  F   UNL A   1      47.010  26.481  33.211  1.00  0.00    -0.206 F 
ATOM     90  C   UNL A   1      50.322  26.288  31.780  1.00  0.00     0.060 A 
BRANCH  90  91
ATOM     91  S   UNL A   1      51.992  25.779  32.239  1.00  0.00     0.124 S 
ATOM     92  O   UNL A   1      52.040  26.162  33.646  1.00  0.00    -0.237 OA
ATOM     93  O   UNL A   1      51.965  24.344  31.973  1.00  0.00    -0.237 OA
ATOM     94  O   UNL A   1      52.844  26.560  31.347  1.00  0.00    -0.744 OA
ENDBRANCH  90  91
ENDBRANCH  58  83
ENDBRANCH  32  33
ENDBRANCH  24  27
ENDBRANCH  22  23
ENDBRANCH  21  22
ENDBRANCH   1  21
TORSDOF 17
ENDMDL
