MODEL 1
REMARK VINA RESULT:     -12.3      0.000      0.000
REMARK SMILES C[C@H](C(=O)NCCCNC(=O)c1ccc(-c2c3nc(c(-c4c(F)cc(S(=O)(=O)[O-])cc4F)c4ccc([nH]4)c(-c4c(F)cc(S(=O)(=O)[O-])cc4F)c4nc(c(-c5c(F)cc(S(=O)(=O)[O-])cc5F)c5ccc2[nH]5)C=C4)C=C3)cc1)c1ccc2c(c1)OCCO2
REMARK SMILES IDX 8 1 7 2 6 3 5 4 3 5 4 6 2 8 1 9 78 10 79 11 83 12 80 13
REMARK SMILES IDX 82 14 81 15 84 16 87 17 85 18 86 19 9 20 10 21 11 23 12 24
REMARK SMILES IDX 13 25 77 26 14 27 76 28 15 29 16 30 17 31 70 32 18 33 75 34
REMARK SMILES IDX 69 35 71 36 19 37 74 38 68 39 67 40 20 42 54 43 33 44 53 45
REMARK SMILES IDX 34 46 37 47 52 48 72 49 35 50 36 51 51 53 73 54 38 55 21 56
REMARK SMILES IDX 22 57 31 58 23 59 24 60 30 61 32 62 25 63 26 64 27 65 28 66
REMARK SMILES IDX 29 67 55 68 56 69 65 70 57 71 58 72 64 73 66 74 59 75 60 76
REMARK SMILES IDX 61 77 62 78 63 79 39 80 40 81 49 82 41 83 42 84 48 85 50 86
REMARK SMILES IDX 43 87 44 88 45 89 46 90 47 91
REMARK H PARENT 5 7 9 22 71 41 37 52
REMARK Flexibility Score: inf
ROOT
ATOM      1  C   UNL A   1      39.875  23.052  27.067  1.00  0.00     0.118 C 
ENDROOT
BRANCH   1   2
ATOM      2  C   UNL A   1      38.720  22.457  26.271  1.00  0.00     0.042 C 
BRANCH   2   3
ATOM      3  C   UNL A   1      37.674  23.477  25.809  1.00  0.00     0.117 C 
BRANCH   3   4
ATOM      4  N   UNL A   1      37.430  23.373  24.378  1.00  0.00    -0.356 N 
ATOM      5  C   UNL A   1      36.335  23.141  23.607  1.00  0.00     0.227 C 
ATOM      6  O   UNL A   1      36.592  22.976  22.404  1.00  0.00    -0.274 OA
ATOM      7  H   UNL A   1      38.248  23.500  23.844  1.00  0.00     0.163 HD
BRANCH   5   8
ATOM      8  C   UNL A   1      34.864  23.247  24.055  1.00  0.00     0.105 C 
ATOM      9  C   UNL A   1      33.992  23.816  22.937  1.00  0.00     0.023 C 
BRANCH   8  10
ATOM     10  C   UNL A   1      34.184  22.063  24.708  1.00  0.00    -0.032 A 
ATOM     11  C   UNL A   1      32.855  22.062  25.142  1.00  0.00     0.008 A 
ATOM     12  C   UNL A   1      34.910  20.863  24.746  1.00  0.00     0.055 A 
ATOM     13  C   UNL A   1      32.167  20.847  25.235  1.00  0.00     0.051 A 
ATOM     14  C   UNL A   1      34.232  19.663  24.808  1.00  0.00     0.161 A 
ATOM     15  C   UNL A   1      32.843  19.669  24.932  1.00  0.00     0.161 A 
ATOM     16  O   UNL A   1      34.970  18.543  24.536  1.00  0.00    -0.486 OA
ATOM     17  O   UNL A   1      32.106  18.567  24.562  1.00  0.00    -0.486 OA
ATOM     18  C   UNL A   1      34.180  17.474  23.999  1.00  0.00     0.271 C 
ATOM     19  C   UNL A   1      32.825  17.942  23.483  1.00  0.00     0.271 C 
ENDBRANCH   8  10
ENDBRANCH   5   8
ENDBRANCH   3   4
ENDBRANCH   2   3
ENDBRANCH   1   2
BRANCH   1  20
ATOM     20  N   UNL A   1      40.990  23.445  26.220  1.00  0.00    -0.352 N 
ATOM     21  C   UNL A   1      41.687  24.628  26.187  1.00  0.00     0.251 C 
ATOM     22  H   UNL A   1      41.291  22.762  25.577  1.00  0.00     0.163 HD
ATOM     23  O   UNL A   1      42.461  24.844  25.248  1.00  0.00    -0.269 OA
BRANCH  21  24
ATOM     24  C   UNL A   1      41.509  25.649  27.245  1.00  0.00     0.039 A 
ATOM     25  C   UNL A   1      40.470  25.503  28.170  1.00  0.00     0.014 A 
ATOM     26  C   UNL A   1      42.341  26.769  27.312  1.00  0.00     0.014 A 
ATOM     27  C   UNL A   1      40.302  26.445  29.191  1.00  0.00     0.010 A 
ATOM     28  C   UNL A   1      42.230  27.657  28.378  1.00  0.00     0.010 A 
ATOM     29  C   UNL A   1      41.200  27.517  29.322  1.00  0.00    -0.014 A 
BRANCH  29  30
ATOM     30  C   UNL A   1      41.069  28.533  30.401  1.00  0.00     0.031 A 
ATOM     31  C   UNL A   1      41.943  28.432  31.624  1.00  0.00     0.074 A 
ATOM     32  C   UNL A   1      40.114  29.481  30.332  1.00  0.00     0.049 A 
ATOM     33  N   UNL A   1      41.886  29.107  32.743  1.00  0.00    -0.248 NA
ATOM     34  C   UNL A   1      42.999  27.407  31.594  1.00  0.00     0.031 C 
ATOM     35  C   UNL A   1      39.185  29.667  29.216  1.00  0.00     0.029 A 
ATOM     36  N   UNL A   1      39.749  30.450  31.233  1.00  0.00    -0.354 N 
ATOM     37  C   UNL A   1      42.875  28.569  33.559  1.00  0.00     0.074 A 
ATOM     38  C   UNL A   1      43.478  27.477  32.827  1.00  0.00     0.031 C 
ATOM     39  C   UNL A   1      38.362  30.690  29.496  1.00  0.00     0.029 A 
ATOM     40  C   UNL A   1      38.669  31.201  30.828  1.00  0.00     0.049 A 
ATOM     41  H   UNL A   1      40.215  30.595  32.088  1.00  0.00     0.167 HD
ATOM     42  C   UNL A   1      43.260  28.961  34.798  1.00  0.00     0.037 A 
ATOM     43  C   UNL A   1      37.990  32.175  31.467  1.00  0.00     0.037 A 
ATOM     44  C   UNL A   1      42.668  30.063  35.509  1.00  0.00     0.049 A 
ATOM     45  C   UNL A   1      38.425  32.594  32.845  1.00  0.00     0.074 A 
ATOM     46  C   UNL A   1      43.016  30.576  36.746  1.00  0.00     0.029 A 
ATOM     47  N   UNL A   1      41.601  30.822  35.048  1.00  0.00    -0.354 N 
ATOM     48  N   UNL A   1      39.391  32.106  33.587  1.00  0.00    -0.248 NA
ATOM     49  C   UNL A   1      37.684  33.696  33.473  1.00  0.00     0.031 C 
ATOM     50  C   UNL A   1      42.127  31.610  37.055  1.00  0.00     0.029 A 
ATOM     51  C   UNL A   1      41.265  31.787  35.984  1.00  0.00     0.049 A 
ATOM     52  H   UNL A   1      41.149  30.694  34.182  1.00  0.00     0.167 HD
ATOM     53  C   UNL A   1      39.400  32.866  34.752  1.00  0.00     0.074 A 
ATOM     54  C   UNL A   1      38.340  33.844  34.618  1.00  0.00     0.031 C 
ATOM     55  C   UNL A   1      40.218  32.768  35.829  1.00  0.00     0.037 A 
BRANCH  42  56
ATOM     56  C   UNL A   1      44.364  28.180  35.462  1.00  0.00     0.058 A 
ATOM     57  C   UNL A   1      45.719  28.492  35.261  1.00  0.00     0.135 A 
ATOM     58  C   UNL A   1      44.064  27.101  36.310  1.00  0.00     0.135 A 
ATOM     59  F   UNL A   1      46.067  29.505  34.453  1.00  0.00    -0.206 F 
ATOM     60  C   UNL A   1      46.735  27.731  35.831  1.00  0.00     0.059 A 
ATOM     61  C   UNL A   1      45.063  26.348  36.920  1.00  0.00     0.059 A 
ATOM     62  F   UNL A   1      42.787  26.758  36.544  1.00  0.00    -0.206 F 
ATOM     63  C   UNL A   1      46.396  26.656  36.653  1.00  0.00     0.060 A 
BRANCH  63  64
ATOM     64  S   UNL A   1      47.725  25.659  37.359  1.00  0.00     0.124 S 
ATOM     65  O   UNL A   1      47.710  24.492  36.481  1.00  0.00    -0.237 OA
ATOM     66  O   UNL A   1      48.882  26.538  37.222  1.00  0.00    -0.237 OA
ATOM     67  O   UNL A   1      47.282  25.419  38.727  1.00  0.00    -0.744 OA
ENDBRANCH  63  64
ENDBRANCH  42  56
BRANCH  43  68
ATOM     68  C   UNL A   1      36.839  32.832  30.789  1.00  0.00     0.058 A 
ATOM     69  C   UNL A   1      35.520  32.453  31.076  1.00  0.00     0.135 A 
ATOM     70  C   UNL A   1      37.032  33.883  29.879  1.00  0.00     0.135 A 
ATOM     71  F   UNL A   1      35.283  31.447  31.932  1.00  0.00    -0.206 F 
ATOM     72  C   UNL A   1      34.433  33.090  30.486  1.00  0.00     0.059 A 
ATOM     73  C   UNL A   1      35.961  34.553  29.295  1.00  0.00     0.059 A 
ATOM     74  F   UNL A   1      38.275  34.294  29.580  1.00  0.00    -0.206 F 
ATOM     75  C   UNL A   1      34.664  34.147  29.603  1.00  0.00     0.060 A 
BRANCH  75  76
ATOM     76  S   UNL A   1      33.243  35.017  28.908  1.00  0.00     0.124 S 
ATOM     77  O   UNL A   1      32.733  34.037  27.956  1.00  0.00    -0.237 OA
ATOM     78  O   UNL A   1      32.418  35.248  30.090  1.00  0.00    -0.237 OA
ATOM     79  O   UNL A   1      33.836  36.216  28.323  1.00  0.00    -0.744 OA
ENDBRANCH  75  76
ENDBRANCH  43  68
BRANCH  55  80
ATOM     80  C   UNL A   1      40.051  33.775  36.933  1.00  0.00     0.058 A 
ATOM     81  C   UNL A   1      40.720  35.008  36.926  1.00  0.00     0.135 A 
ATOM     82  C   UNL A   1      39.135  33.532  37.972  1.00  0.00     0.135 A 
ATOM     83  F   UNL A   1      41.611  35.289  35.963  1.00  0.00    -0.206 F 
ATOM     84  C   UNL A   1      40.493  35.963  37.915  1.00  0.00     0.059 A 
ATOM     85  C   UNL A   1      38.872  34.483  38.952  1.00  0.00     0.059 A 
ATOM     86  F   UNL A   1      38.461  32.372  38.021  1.00  0.00    -0.206 F 
ATOM     87  C   UNL A   1      39.560  35.694  38.918  1.00  0.00     0.060 A 
BRANCH  87  88
ATOM     88  S   UNL A   1      39.229  36.966  40.156  1.00  0.00     0.124 S 
ATOM     89  O   UNL A   1      38.589  38.001  39.352  1.00  0.00    -0.237 OA
ATOM     90  O   UNL A   1      38.361  36.266  41.097  1.00  0.00    -0.237 OA
ATOM     91  O   UNL A   1      40.556  37.299  40.666  1.00  0.00    -0.744 OA
ENDBRANCH  87  88
ENDBRANCH  55  80
ENDBRANCH  29  30
ENDBRANCH  21  24
ENDBRANCH   1  20
TORSDOF 14
ENDMDL
MODEL 2
REMARK VINA RESULT:     -12.3      1.314      2.597
REMARK SMILES C[C@H](C(=O)NCCCNC(=O)c1ccc(-c2c3nc(c(-c4c(F)cc(S(=O)(=O)[O-])cc4F)c4ccc([nH]4)c(-c4c(F)cc(S(=O)(=O)[O-])cc4F)c4nc(c(-c5c(F)cc(S(=O)(=O)[O-])cc5F)c5ccc2[nH]5)C=C4)C=C3)cc1)c1ccc2c(c1)OCCO2
REMARK SMILES IDX 8 1 7 2 6 3 5 4 3 5 4 6 2 8 1 9 78 10 79 11 83 12 80 13
REMARK SMILES IDX 82 14 81 15 84 16 87 17 85 18 86 19 9 20 10 21 11 23 12 24
REMARK SMILES IDX 13 25 77 26 14 27 76 28 15 29 16 30 17 31 70 32 18 33 75 34
REMARK SMILES IDX 69 35 71 36 19 37 74 38 68 39 67 40 20 42 54 43 33 44 53 45
REMARK SMILES IDX 34 46 37 47 52 48 72 49 35 50 36 51 51 53 73 54 38 55 21 56
REMARK SMILES IDX 22 57 31 58 23 59 24 60 30 61 32 62 25 63 26 64 27 65 28 66
REMARK SMILES IDX 29 67 55 68 56 69 65 70 57 71 58 72 64 73 66 74 59 75 60 76
REMARK SMILES IDX 61 77 62 78 63 79 39 80 40 81 49 82 41 83 42 84 48 85 50 86
REMARK SMILES IDX 43 87 44 88 45 89 46 90 47 91
REMARK H PARENT 5 7 9 22 71 41 37 52
REMARK Flexibility Score: inf
ROOT
ATOM      1  C   UNL A   1      38.262  24.138  26.473  1.00  0.00     0.118 C 
ENDROOT
BRANCH   1   2
ATOM      2  C   UNL A   1      37.331  23.490  25.455  1.00  0.00     0.042 C 
BRANCH   2   3
ATOM      3  C   UNL A   1      37.081  21.996  25.682  1.00  0.00     0.117 C 
BRANCH   3   4
ATOM      4  N   UNL A   1      35.804  21.767  26.342  1.00  0.00    -0.356 N 
ATOM      5  C   UNL A   1      34.527  21.580  25.918  1.00  0.00     0.227 C 
ATOM      6  O   UNL A   1      33.689  21.573  26.833  1.00  0.00    -0.274 OA
ATOM      7  H   UNL A   1      35.884  21.744  27.323  1.00  0.00     0.163 HD
BRANCH   5   8
ATOM      8  C   UNL A   1      34.085  21.208  24.489  1.00  0.00     0.105 C 
ATOM      9  C   UNL A   1      33.541  19.781  24.440  1.00  0.00     0.023 C 
BRANCH   8  10
ATOM     10  C   UNL A   1      33.190  22.144  23.705  1.00  0.00    -0.032 A 
ATOM     11  C   UNL A   1      31.801  22.206  23.849  1.00  0.00     0.008 A 
ATOM     12  C   UNL A   1      33.830  23.090  22.891  1.00  0.00     0.055 A 
ATOM     13  C   UNL A   1      31.131  23.389  23.515  1.00  0.00     0.051 A 
ATOM     14  C   UNL A   1      33.182  24.269  22.585  1.00  0.00     0.161 A 
ATOM     15  C   UNL A   1      31.868  24.456  23.010  1.00  0.00     0.161 A 
ATOM     16  O   UNL A   1      33.962  25.261  22.055  1.00  0.00    -0.486 OA
ATOM     17  O   UNL A   1      31.346  25.724  23.123  1.00  0.00    -0.486 OA
ATOM     18  C   UNL A   1      33.462  26.574  22.340  1.00  0.00     0.271 C 
ATOM     19  C   UNL A   1      32.445  26.584  23.475  1.00  0.00     0.271 C 
ENDBRANCH   8  10
ENDBRANCH   5   8
ENDBRANCH   3   4
ENDBRANCH   2   3
ENDBRANCH   1   2
BRANCH   1  20
ATOM     20  N   UNL A   1      39.666  23.915  26.164  1.00  0.00    -0.352 N 
ATOM     21  C   UNL A   1      40.769  24.643  26.537  1.00  0.00     0.251 C 
ATOM     22  H   UNL A   1      39.854  23.124  25.607  1.00  0.00     0.163 HD
ATOM     23  O   UNL A   1      41.854  24.412  25.994  1.00  0.00    -0.269 OA
BRANCH  21  24
ATOM     24  C   UNL A   1      40.670  25.708  27.562  1.00  0.00     0.039 A 
ATOM     25  C   UNL A   1      39.693  25.610  28.559  1.00  0.00     0.014 A 
ATOM     26  C   UNL A   1      41.513  26.821  27.528  1.00  0.00     0.014 A 
ATOM     27  C   UNL A   1      39.601  26.595  29.548  1.00  0.00     0.010 A 
ATOM     28  C   UNL A   1      41.479  27.753  28.561  1.00  0.00     0.010 A 
ATOM     29  C   UNL A   1      40.513  27.661  29.576  1.00  0.00    -0.014 A 
BRANCH  29  30
ATOM     30  C   UNL A   1      40.462  28.722  30.618  1.00  0.00     0.031 A 
ATOM     31  C   UNL A   1      41.350  28.613  31.831  1.00  0.00     0.074 A 
ATOM     32  C   UNL A   1      39.564  29.722  30.529  1.00  0.00     0.049 A 
ATOM     33  N   UNL A   1      41.354  29.330  32.924  1.00  0.00    -0.248 NA
ATOM     34  C   UNL A   1      42.343  27.527  31.822  1.00  0.00     0.031 C 
ATOM     35  C   UNL A   1      38.628  29.923  29.422  1.00  0.00     0.029 A 
ATOM     36  N   UNL A   1      39.273  30.744  31.399  1.00  0.00    -0.354 N 
ATOM     37  C   UNL A   1      42.324  28.764  33.744  1.00  0.00     0.074 A 
ATOM     38  C   UNL A   1      42.848  27.613  33.043  1.00  0.00     0.031 C 
ATOM     39  C   UNL A   1      37.872  31.003  29.677  1.00  0.00     0.029 A 
ATOM     40  C   UNL A   1      38.233  31.542  30.985  1.00  0.00     0.049 A 
ATOM     41  H   UNL A   1      39.762  30.891  32.241  1.00  0.00     0.167 HD
ATOM     42  C   UNL A   1      42.753  29.177  34.961  1.00  0.00     0.037 A 
ATOM     43  C   UNL A   1      37.623  32.578  31.597  1.00  0.00     0.037 A 
ATOM     44  C   UNL A   1      42.240  30.337  35.641  1.00  0.00     0.049 A 
ATOM     45  C   UNL A   1      38.107  33.019  32.952  1.00  0.00     0.074 A 
ATOM     46  C   UNL A   1      42.640  30.873  36.852  1.00  0.00     0.029 A 
ATOM     47  N   UNL A   1      41.212  31.142  35.168  1.00  0.00    -0.354 N 
ATOM     48  N   UNL A   1      39.056  32.502  33.696  1.00  0.00    -0.248 NA
ATOM     49  C   UNL A   1      37.445  34.186  33.551  1.00  0.00     0.031 C 
ATOM     50  C   UNL A   1      41.820  31.969  37.137  1.00  0.00     0.029 A 
ATOM     51  C   UNL A   1      40.951  32.158  36.073  1.00  0.00     0.049 A 
ATOM     52  H   UNL A   1      40.738  31.009  34.315  1.00  0.00     0.167 HD
ATOM     53  C   UNL A   1      39.131  33.302  34.831  1.00  0.00     0.074 A 
ATOM     54  C   UNL A   1      38.128  34.336  34.678  1.00  0.00     0.031 C 
ATOM     55  C   UNL A   1      39.961  33.193  35.898  1.00  0.00     0.037 A 
BRANCH  42  56
ATOM     56  C   UNL A   1      43.821  28.355  35.636  1.00  0.00     0.058 A 
ATOM     57  C   UNL A   1      43.507  27.344  36.559  1.00  0.00     0.135 A 
ATOM     58  C   UNL A   1      45.179  28.583  35.358  1.00  0.00     0.135 A 
ATOM     59  F   UNL A   1      42.227  27.087  36.872  1.00  0.00    -0.206 F 
ATOM     60  C   UNL A   1      44.499  26.628  37.222  1.00  0.00     0.059 A 
ATOM     61  C   UNL A   1      46.187  27.854  35.982  1.00  0.00     0.059 A 
ATOM     62  F   UNL A   1      45.540  29.533  34.481  1.00  0.00    -0.206 F 
ATOM     63  C   UNL A   1      45.837  26.896  36.932  1.00  0.00     0.060 A 
BRANCH  63  64
ATOM     64  S   UNL A   1      47.112  25.981  37.824  1.00  0.00     0.124 S 
ATOM     65  O   UNL A   1      48.277  26.838  37.625  1.00  0.00    -0.237 OA
ATOM     66  O   UNL A   1      46.579  25.944  39.182  1.00  0.00    -0.237 OA
ATOM     67  O   UNL A   1      47.155  24.696  37.135  1.00  0.00    -0.744 OA
ENDBRANCH  63  64
ENDBRANCH  42  56
BRANCH  43  68
ATOM     68  C   UNL A   1      36.502  33.277  30.913  1.00  0.00     0.058 A 
ATOM     69  C   UNL A   1      35.186  33.164  31.386  1.00  0.00     0.135 A 
ATOM     70  C   UNL A   1      36.728  34.111  29.807  1.00  0.00     0.135 A 
ATOM     71  F   UNL A   1      34.916  32.372  32.434  1.00  0.00    -0.206 F 
ATOM     72  C   UNL A   1      34.134  33.850  30.785  1.00  0.00     0.059 A 
ATOM     73  C   UNL A   1      35.698  34.828  29.206  1.00  0.00     0.059 A 
ATOM     74  F   UNL A   1      37.972  34.265  29.325  1.00  0.00    -0.206 F 
ATOM     75  C   UNL A   1      34.402  34.687  29.701  1.00  0.00     0.060 A 
BRANCH  75  76
ATOM     76  S   UNL A   1      33.042  35.634  28.985  1.00  0.00     0.124 S 
ATOM     77  O   UNL A   1      33.758  36.665  28.242  1.00  0.00    -0.237 OA
ATOM     78  O   UNL A   1      32.359  34.625  28.180  1.00  0.00    -0.237 OA
ATOM     79  O   UNL A   1      32.302  36.097  30.154  1.00  0.00    -0.744 OA
ENDBRANCH  75  76
ENDBRANCH  43  68
BRANCH  55  80
ATOM     80  C   UNL A   1      39.874  34.248  36.967  1.00  0.00     0.058 A 
ATOM     81  C   UNL A   1      40.509  35.492  36.842  1.00  0.00     0.135 A 
ATOM     82  C   UNL A   1      39.065  34.036  38.098  1.00  0.00     0.135 A 
ATOM     83  F   UNL A   1      41.298  35.745  35.786  1.00  0.00    -0.206 F 
ATOM     84  C   UNL A   1      40.352  36.487  37.803  1.00  0.00     0.059 A 
ATOM     85  C   UNL A   1      38.872  35.026  39.055  1.00  0.00     0.059 A 
ATOM     86  F   UNL A   1      38.428  32.865  38.263  1.00  0.00    -0.206 F 
ATOM     87  C   UNL A   1      39.524  36.248  38.902  1.00  0.00     0.060 A 
BRANCH  87  88
ATOM     88  S   UNL A   1      39.280  37.569  40.107  1.00  0.00     0.124 S 
ATOM     89  O   UNL A   1      38.898  36.816  41.297  1.00  0.00    -0.237 OA
ATOM     90  O   UNL A   1      40.596  38.199  40.150  1.00  0.00    -0.237 OA
ATOM     91  O   UNL A   1      38.222  38.382  39.513  1.00  0.00    -0.744 OA
ENDBRANCH  87  88
ENDBRANCH  55  80
ENDBRANCH  29  30
ENDBRANCH  21  24
ENDBRANCH   1  20
TORSDOF 14
ENDMDL
MODEL 3
REMARK VINA RESULT:     -12.3      5.651     10.992
REMARK SMILES C[C@H](C(=O)NCCCNC(=O)c1ccc(-c2c3nc(c(-c4c(F)cc(S(=O)(=O)[O-])cc4F)c4ccc([nH]4)c(-c4c(F)cc(S(=O)(=O)[O-])cc4F)c4nc(c(-c5c(F)cc(S(=O)(=O)[O-])cc5F)c5ccc2[nH]5)C=C4)C=C3)cc1)c1ccc2c(c1)OCCO2
REMARK SMILES IDX 8 1 7 2 6 3 5 4 3 5 4 6 2 8 1 9 78 10 79 11 83 12 80 13
REMARK SMILES IDX 82 14 81 15 84 16 87 17 85 18 86 19 9 20 10 21 11 23 12 24
REMARK SMILES IDX 13 25 77 26 14 27 76 28 15 29 16 30 17 31 70 32 18 33 75 34
REMARK SMILES IDX 69 35 71 36 19 37 74 38 68 39 67 40 20 42 54 43 33 44 53 45
REMARK SMILES IDX 34 46 37 47 52 48 72 49 35 50 36 51 51 53 73 54 38 55 21 56
REMARK SMILES IDX 22 57 31 58 23 59 24 60 30 61 32 62 25 63 26 64 27 65 28 66
REMARK SMILES IDX 29 67 55 68 56 69 65 70 57 71 58 72 64 73 66 74 59 75 60 76
REMARK SMILES IDX 61 77 62 78 63 79 39 80 40 81 49 82 41 83 42 84 48 85 50 86
REMARK SMILES IDX 43 87 44 88 45 89 46 90 47 91
REMARK H PARENT 5 7 9 22 71 41 37 52
REMARK Flexibility Score: inf
ROOT
ATOM      1  C   UNL A   1      34.089  28.807  26.121  1.00  0.00     0.118 C 
ENDROOT
BRANCH   1   2
ATOM      2  C   UNL A   1      33.260  27.620  26.593  1.00  0.00     0.042 C 
BRANCH   2   3
ATOM      3  C   UNL A   1      31.779  27.933  26.833  1.00  0.00     0.117 C 
BRANCH   3   4
ATOM      4  N   UNL A   1      30.984  26.715  26.893  1.00  0.00    -0.356 N 
ATOM      5  C   UNL A   1      30.269  25.993  25.990  1.00  0.00     0.227 C 
ATOM      6  O   UNL A   1      29.597  25.081  26.494  1.00  0.00    -0.274 OA
ATOM      7  H   UNL A   1      30.956  26.325  27.796  1.00  0.00     0.163 HD
BRANCH   5   8
ATOM      8  C   UNL A   1      30.370  26.094  24.455  1.00  0.00     0.105 C 
ATOM      9  C   UNL A   1      30.569  24.714  23.829  1.00  0.00     0.023 C 
BRANCH   8  10
ATOM     10  C   UNL A   1      29.340  26.884  23.679  1.00  0.00    -0.032 A 
ATOM     11  C   UNL A   1      27.961  26.814  23.904  1.00  0.00     0.008 A 
ATOM     12  C   UNL A   1      29.829  27.840  22.776  1.00  0.00     0.055 A 
ATOM     13  C   UNL A   1      27.153  27.900  23.549  1.00  0.00     0.051 A 
ATOM     14  C   UNL A   1      29.045  28.927  22.447  1.00  0.00     0.161 A 
ATOM     15  C   UNL A   1      27.744  29.003  22.942  1.00  0.00     0.161 A 
ATOM     16  O   UNL A   1      29.686  29.959  21.817  1.00  0.00    -0.486 OA
ATOM     17  O   UNL A   1      27.099  30.216  23.018  1.00  0.00    -0.486 OA
ATOM     18  C   UNL A   1      29.067  31.229  22.061  1.00  0.00     0.271 C 
ATOM     19  C   UNL A   1      28.119  31.204  23.254  1.00  0.00     0.271 C 
ENDBRANCH   8  10
ENDBRANCH   5   8
ENDBRANCH   3   4
ENDBRANCH   2   3
ENDBRANCH   1   2
BRANCH   1  20
ATOM     20  N   UNL A   1      33.821  30.014  26.887  1.00  0.00    -0.352 N 
ATOM     21  C   UNL A   1      34.556  30.593  27.892  1.00  0.00     0.251 C 
ATOM     22  H   UNL A   1      32.989  30.487  26.650  1.00  0.00     0.163 HD
ATOM     23  O   UNL A   1      34.050  31.498  28.563  1.00  0.00    -0.269 OA
BRANCH  21  24
ATOM     24  C   UNL A   1      35.934  30.136  28.190  1.00  0.00     0.039 A 
ATOM     25  C   UNL A   1      36.906  30.193  27.186  1.00  0.00     0.014 A 
ATOM     26  C   UNL A   1      36.265  29.621  29.445  1.00  0.00     0.014 A 
ATOM     27  C   UNL A   1      38.218  29.788  27.457  1.00  0.00     0.010 A 
ATOM     28  C   UNL A   1      37.588  29.303  29.740  1.00  0.00     0.010 A 
ATOM     29  C   UNL A   1      38.578  29.366  28.747  1.00  0.00    -0.014 A 
BRANCH  29  30
ATOM     30  C   UNL A   1      39.963  28.942  29.084  1.00  0.00     0.031 A 
ATOM     31  C   UNL A   1      40.924  29.944  29.670  1.00  0.00     0.074 A 
ATOM     32  C   UNL A   1      40.388  27.699  28.783  1.00  0.00     0.049 A 
ATOM     33  N   UNL A   1      42.209  29.834  29.886  1.00  0.00    -0.248 NA
ATOM     34  C   UNL A   1      40.366  31.259  30.024  1.00  0.00     0.031 C 
ATOM     35  C   UNL A   1      39.565  26.645  28.187  1.00  0.00     0.029 A 
ATOM     36  N   UNL A   1      41.626  27.120  28.912  1.00  0.00    -0.354 N 
ATOM     37  C   UNL A   1      42.618  31.072  30.371  1.00  0.00     0.074 A 
ATOM     38  C   UNL A   1      41.455  31.931  30.365  1.00  0.00     0.031 C 
ATOM     39  C   UNL A   1      40.319  25.548  28.009  1.00  0.00     0.029 A 
ATOM     40  C   UNL A   1      41.687  25.834  28.429  1.00  0.00     0.049 A 
ATOM     41  H   UNL A   1      42.398  27.583  29.312  1.00  0.00     0.167 HD
ATOM     42  C   UNL A   1      43.845  31.452  30.802  1.00  0.00     0.037 A 
ATOM     43  C   UNL A   1      42.732  24.988  28.316  1.00  0.00     0.037 A 
ATOM     44  C   UNL A   1      44.991  30.582  30.825  1.00  0.00     0.049 A 
ATOM     45  C   UNL A   1      44.090  25.428  28.792  1.00  0.00     0.074 A 
ATOM     46  C   UNL A   1      46.267  30.850  31.288  1.00  0.00     0.029 A 
ATOM     47  N   UNL A   1      45.001  29.273  30.361  1.00  0.00    -0.354 N 
ATOM     48  N   UNL A   1      44.452  26.586  29.290  1.00  0.00    -0.248 NA
ATOM     49  C   UNL A   1      45.181  24.449  28.696  1.00  0.00     0.031 C 
ATOM     50  C   UNL A   1      47.061  29.722  31.057  1.00  0.00     0.029 A 
ATOM     51  C   UNL A   1      46.266  28.727  30.510  1.00  0.00     0.049 A 
ATOM     52  H   UNL A   1      44.224  28.802  29.983  1.00  0.00     0.167 HD
ATOM     53  C   UNL A   1      45.801  26.463  29.604  1.00  0.00     0.074 A 
ATOM     54  C   UNL A   1      46.192  25.118  29.235  1.00  0.00     0.031 C 
ATOM     55  C   UNL A   1      46.637  27.378  30.155  1.00  0.00     0.037 A 
BRANCH  42  56
ATOM     56  C   UNL A   1      44.007  32.875  31.268  1.00  0.00     0.058 A 
ATOM     57  C   UNL A   1      44.394  33.904  30.393  1.00  0.00     0.135 A 
ATOM     58  C   UNL A   1      43.773  33.218  32.611  1.00  0.00     0.135 A 
ATOM     59  F   UNL A   1      44.642  33.636  29.102  1.00  0.00    -0.206 F 
ATOM     60  C   UNL A   1      44.598  35.205  30.842  1.00  0.00     0.059 A 
ATOM     61  C   UNL A   1      43.935  34.520  33.074  1.00  0.00     0.059 A 
ATOM     62  F   UNL A   1      43.395  32.279  33.492  1.00  0.00    -0.206 F 
ATOM     63  C   UNL A   1      44.373  35.502  32.187  1.00  0.00     0.060 A 
BRANCH  63  64
ATOM     64  S   UNL A   1      44.673  37.187  32.760  1.00  0.00     0.124 S 
ATOM     65  O   UNL A   1      45.977  37.048  33.399  1.00  0.00    -0.237 OA
ATOM     66  O   UNL A   1      44.658  37.948  31.514  1.00  0.00    -0.237 OA
ATOM     67  O   UNL A   1      43.557  37.444  33.662  1.00  0.00    -0.744 OA
ENDBRANCH  63  64
ENDBRANCH  42  56
BRANCH  43  68
ATOM     68  C   UNL A   1      42.517  23.631  27.746  1.00  0.00     0.058 A 
ATOM     69  C   UNL A   1      42.543  23.418  26.360  1.00  0.00     0.135 A 
ATOM     70  C   UNL A   1      42.331  22.513  28.574  1.00  0.00     0.135 A 
ATOM     71  F   UNL A   1      42.708  24.455  25.525  1.00  0.00    -0.206 F 
ATOM     72  C   UNL A   1      42.391  22.146  25.814  1.00  0.00     0.059 A 
ATOM     73  C   UNL A   1      42.203  21.228  28.053  1.00  0.00     0.059 A 
ATOM     74  F   UNL A   1      42.313  22.660  29.908  1.00  0.00    -0.206 F 
ATOM     75  C   UNL A   1      42.232  21.056  26.670  1.00  0.00     0.060 A 
BRANCH  75  76
ATOM     76  S   UNL A   1      42.118  19.403  25.952  1.00  0.00     0.124 S 
ATOM     77  O   UNL A   1      42.971  19.533  24.776  1.00  0.00    -0.237 OA
ATOM     78  O   UNL A   1      42.639  18.566  27.028  1.00  0.00    -0.237 OA
ATOM     79  O   UNL A   1      40.692  19.250  25.683  1.00  0.00    -0.744 OA
ENDBRANCH  75  76
ENDBRANCH  43  68
BRANCH  55  80
ATOM     80  C   UNL A   1      48.048  26.952  30.455  1.00  0.00     0.058 A 
ATOM     81  C   UNL A   1      49.101  27.173  29.556  1.00  0.00     0.135 A 
ATOM     82  C   UNL A   1      48.360  26.392  31.706  1.00  0.00     0.135 A 
ATOM     83  F   UNL A   1      48.858  27.698  28.345  1.00  0.00    -0.206 F 
ATOM     84  C   UNL A   1      50.415  26.846  29.883  1.00  0.00     0.059 A 
ATOM     85  C   UNL A   1      49.669  26.085  32.064  1.00  0.00     0.059 A 
ATOM     86  F   UNL A   1      47.390  26.167  32.607  1.00  0.00    -0.206 F 
ATOM     87  C   UNL A   1      50.690  26.311  31.143  1.00  0.00     0.060 A 
BRANCH  87  88
ATOM     88  S   UNL A   1      52.405  25.951  31.576  1.00  0.00     0.124 S 
ATOM     89  O   UNL A   1      52.303  24.583  32.074  1.00  0.00    -0.237 OA
ATOM     90  O   UNL A   1      53.089  26.111  30.297  1.00  0.00    -0.237 OA
ATOM     91  O   UNL A   1      52.722  26.962  32.581  1.00  0.00    -0.744 OA
ENDBRANCH  87  88
ENDBRANCH  55  80
ENDBRANCH  29  30
ENDBRANCH  21  24
ENDBRANCH   1  20
TORSDOF 14
ENDMDL
