MODEL 1
REMARK VINA RESULT:     -13.2      0.000      0.000
REMARK SMILES NS(=O)(=O)c1ccc(-n2nc(C(F)F)cc2-c2ccc(C(=O)NCCCNC(=O)c3ccc(-c4c5nc(c(-c6c(F)cc(S(=O)(=O)[O-])cc6F)c6ccc([nH]6)c(-c6c(F)cc(S(=O)(=O)[O-])cc6F)c6nc(c(-c7c(F)cc(S(=O)(=O)[O-])cc7F)c7ccc4[nH]7)C=C6)C=C5)cc3)cc2)cc1
REMARK SMILES IDX 24 1 23 2 21 3 22 4 20 6 17 7 18 8 97 9 19 10 96 11 16 12
REMARK SMILES IDX 9 13 10 14 11 15 15 16 8 17 5 18 6 19 99 20 7 21 98 22 2 23
REMARK SMILES IDX 3 24 4 25 1 26 12 29 13 30 14 31 25 32 26 33 27 34 28 35
REMARK SMILES IDX 29 37 30 38 31 39 95 40 32 41 94 42 33 43 34 44 35 45 88 46
REMARK SMILES IDX 36 47 93 48 87 49 89 50 37 51 92 52 86 53 85 54 38 56 72 57
REMARK SMILES IDX 51 58 71 59 52 60 55 61 70 62 90 63 53 64 54 65 69 67 91 68
REMARK SMILES IDX 56 69 39 70 40 71 49 72 41 73 42 74 48 75 50 76 43 77 44 78
REMARK SMILES IDX 45 79 46 80 47 81 73 82 74 83 83 84 75 85 76 86 82 87 84 88
REMARK SMILES IDX 77 89 78 90 79 91 80 92 81 93 57 94 58 95 67 96 59 97 60 98
REMARK SMILES IDX 66 99 68 100 61 101 62 102 63 103 64 104 65 105
REMARK H PARENT 23 5 1 27 1 28 27 36 89 55 55 66
REMARK Flexibility Score: inf
ROOT
ATOM      1  C   UNL A   1      38.406  20.864  25.255  1.00  0.00     0.118 C 
ENDROOT
BRANCH   1   2
ATOM      2  N   UNL A   1      38.858  22.144  25.779  1.00  0.00    -0.352 N 
ATOM      3  C   UNL A   1      38.181  23.317  26.013  1.00  0.00     0.251 C 
ATOM      4  O   UNL A   1      38.767  24.226  26.597  1.00  0.00    -0.269 OA
ATOM      5  H   UNL A   1      39.816  22.176  26.005  1.00  0.00     0.163 HD
BRANCH   3   6
ATOM      6  C   UNL A   1      36.753  23.502  25.639  1.00  0.00     0.039 A 
ATOM      7  C   UNL A   1      34.107  23.984  24.836  1.00  0.00     0.000 A 
ATOM      8  C   UNL A   1      35.112  23.809  23.876  1.00  0.00     0.011 A 
ATOM      9  C   UNL A   1      34.417  23.869  26.186  1.00  0.00     0.011 A 
ATOM     10  C   UNL A   1      36.430  23.573  24.278  1.00  0.00     0.014 A 
ATOM     11  C   UNL A   1      35.721  23.586  26.574  1.00  0.00     0.014 A 
BRANCH   7  12
ATOM     12  C   UNL A   1      32.727  24.239  24.463  1.00  0.00     0.075 A 
ATOM     13  N   UNL A   1      31.816  23.275  24.063  1.00  0.00    -0.233 N 
ATOM     14  N   UNL A   1      30.662  23.832  23.612  1.00  0.00    -0.166 NA
ATOM     15  C   UNL A   1      30.765  25.136  23.930  1.00  0.00     0.129 A 
ATOM     16  C   UNL A   1      32.055  25.440  24.416  1.00  0.00     0.060 A 
BRANCH  13  17
ATOM     17  C   UNL A   1      32.003  21.870  24.071  1.00  0.00     0.065 A 
ATOM     18  C   UNL A   1      32.689  19.179  24.066  1.00  0.00     0.082 A 
ATOM     19  C   UNL A   1      32.532  19.839  25.285  1.00  0.00     0.024 A 
ATOM     20  C   UNL A   1      32.465  19.842  22.853  1.00  0.00     0.024 A 
ATOM     21  C   UNL A   1      32.196  21.191  25.286  1.00  0.00     0.030 A 
ATOM     22  C   UNL A   1      32.090  21.187  22.854  1.00  0.00     0.030 A 
BRANCH  18  23
ATOM     23  S   UNL A   1      33.204  17.489  24.060  1.00  0.00     0.238 S 
ATOM     24  O   UNL A   1      33.311  17.021  22.708  1.00  0.00    -0.207 OA
ATOM     25  O   UNL A   1      32.470  16.784  25.094  1.00  0.00    -0.207 OA
BRANCH  23  26
ATOM     26  N   UNL A   1      34.788  17.592  24.615  1.00  0.00    -0.225 NA
ATOM     27  H   UNL A   1      34.828  18.223  25.416  1.00  0.00     0.137 HD
ATOM     28  H   UNL A   1      35.386  17.950  23.871  1.00  0.00     0.137 HD
ENDBRANCH  23  26
ENDBRANCH  18  23
ENDBRANCH  13  17
BRANCH  15  29
ATOM     29  C   UNL A   1      29.639  26.113  23.776  1.00  0.00     0.393 C 
ATOM     30  F   UNL A   1      28.741  26.053  24.795  1.00  0.00    -0.203 F 
ATOM     31  F   UNL A   1      30.094  27.396  23.729  1.00  0.00    -0.203 F 
ENDBRANCH  15  29
ENDBRANCH   7  12
ENDBRANCH   3   6
ENDBRANCH   1   2
BRANCH   1  32
ATOM     32  C   UNL A   1      39.358  19.719  25.630  1.00  0.00     0.042 C 
BRANCH  32  33
ATOM     33  C   UNL A   1      40.406  20.141  26.636  1.00  0.00     0.118 C 
BRANCH  33  34
ATOM     34  N   UNL A   1      41.756  20.085  26.074  1.00  0.00    -0.352 N 
ATOM     35  C   UNL A   1      42.659  21.116  25.914  1.00  0.00     0.251 C 
ATOM     36  H   UNL A   1      42.058  19.198  25.772  1.00  0.00     0.163 HD
ATOM     37  O   UNL A   1      43.595  21.007  25.131  1.00  0.00    -0.269 OA
BRANCH  35  38
ATOM     38  C   UNL A   1      42.467  22.346  26.696  1.00  0.00     0.039 A 
ATOM     39  C   UNL A   1      42.744  22.393  28.066  1.00  0.00     0.014 A 
ATOM     40  C   UNL A   1      42.057  23.483  26.011  1.00  0.00     0.014 A 
ATOM     41  C   UNL A   1      42.686  23.621  28.721  1.00  0.00     0.010 A 
ATOM     42  C   UNL A   1      42.191  24.706  26.607  1.00  0.00     0.010 A 
ATOM     43  C   UNL A   1      42.425  24.779  27.977  1.00  0.00    -0.014 A 
BRANCH  43  44
ATOM     44  C   UNL A   1      42.498  26.110  28.577  1.00  0.00     0.031 A 
ATOM     45  C   UNL A   1      43.658  26.930  28.117  1.00  0.00     0.074 A 
ATOM     46  C   UNL A   1      41.432  26.628  29.231  1.00  0.00     0.049 A 
ATOM     47  N   UNL A   1      44.623  27.433  28.815  1.00  0.00    -0.248 NA
ATOM     48  C   UNL A   1      43.844  27.093  26.661  1.00  0.00     0.031 C 
ATOM     49  C   UNL A   1      40.111  26.001  29.415  1.00  0.00     0.029 A 
ATOM     50  N   UNL A   1      41.227  27.877  29.726  1.00  0.00    -0.354 N 
ATOM     51  C   UNL A   1      45.389  28.182  27.919  1.00  0.00     0.074 A 
ATOM     52  C   UNL A   1      45.003  27.752  26.603  1.00  0.00     0.031 C 
ATOM     53  C   UNL A   1      39.194  26.946  29.708  1.00  0.00     0.029 A 
ATOM     54  C   UNL A   1      39.887  28.199  29.929  1.00  0.00     0.049 A 
ATOM     55  H   UNL A   1      41.962  28.501  29.924  1.00  0.00     0.167 HD
ATOM     56  C   UNL A   1      46.059  29.299  28.318  1.00  0.00     0.037 A 
ATOM     57  C   UNL A   1      39.372  29.417  30.224  1.00  0.00     0.037 A 
ATOM     58  C   UNL A   1      46.157  29.351  29.753  1.00  0.00     0.049 A 
ATOM     59  C   UNL A   1      40.494  30.241  30.735  1.00  0.00     0.074 A 
ATOM     60  C   UNL A   1      46.761  28.588  30.729  1.00  0.00     0.029 A 
ATOM     61  N   UNL A   1      45.215  30.126  30.381  1.00  0.00    -0.354 N 
ATOM     62  N   UNL A   1      41.156  29.975  31.829  1.00  0.00    -0.248 NA
ATOM     63  C   UNL A   1      41.161  31.145  29.811  1.00  0.00     0.031 C 
ATOM     64  C   UNL A   1      45.892  28.661  31.856  1.00  0.00     0.029 A 
ATOM     65  C   UNL A   1      44.830  29.513  31.543  1.00  0.00     0.049 A 
ATOM     66  H   UNL A   1      44.870  30.986  30.048  1.00  0.00     0.167 HD
ATOM     67  C   UNL A   1      42.466  30.327  31.547  1.00  0.00     0.074 A 
ATOM     68  C   UNL A   1      42.380  31.166  30.356  1.00  0.00     0.031 C 
ATOM     69  C   UNL A   1      43.510  29.665  32.129  1.00  0.00     0.037 A 
BRANCH  56  70
ATOM     70  C   UNL A   1      46.237  30.549  27.472  1.00  0.00     0.058 A 
ATOM     71  C   UNL A   1      47.528  31.101  27.318  1.00  0.00     0.135 A 
ATOM     72  C   UNL A   1      45.174  31.386  27.061  1.00  0.00     0.135 A 
ATOM     73  F   UNL A   1      48.616  30.406  27.686  1.00  0.00    -0.206 F 
ATOM     74  C   UNL A   1      47.740  32.404  26.858  1.00  0.00     0.059 A 
ATOM     75  C   UNL A   1      45.366  32.665  26.549  1.00  0.00     0.059 A 
ATOM     76  F   UNL A   1      43.890  31.051  27.227  1.00  0.00    -0.206 F 
ATOM     77  C   UNL A   1      46.647  33.183  26.489  1.00  0.00     0.060 A 
BRANCH  77  78
ATOM     78  S   UNL A   1      46.901  34.894  25.984  1.00  0.00     0.124 S 
ATOM     79  O   UNL A   1      45.595  35.230  25.430  1.00  0.00    -0.237 OA
ATOM     80  O   UNL A   1      47.245  35.534  27.249  1.00  0.00    -0.237 OA
ATOM     81  O   UNL A   1      47.993  34.800  25.020  1.00  0.00    -0.744 OA
ENDBRANCH  77  78
ENDBRANCH  56  70
BRANCH  57  82
ATOM     82  C   UNL A   1      38.070  29.990  29.790  1.00  0.00     0.058 A 
ATOM     83  C   UNL A   1      37.194  30.601  30.703  1.00  0.00     0.135 A 
ATOM     84  C   UNL A   1      37.777  30.185  28.424  1.00  0.00     0.135 A 
ATOM     85  F   UNL A   1      37.411  30.490  32.022  1.00  0.00    -0.206 F 
ATOM     86  C   UNL A   1      36.110  31.385  30.287  1.00  0.00     0.059 A 
ATOM     87  C   UNL A   1      36.700  30.956  27.985  1.00  0.00     0.059 A 
ATOM     88  F   UNL A   1      38.586  29.698  27.471  1.00  0.00    -0.206 F 
ATOM     89  C   UNL A   1      35.881  31.571  28.925  1.00  0.00     0.060 A 
BRANCH  89  90
ATOM     90  S   UNL A   1      34.571  32.701  28.390  1.00  0.00     0.124 S 
ATOM     91  O   UNL A   1      35.312  33.660  27.578  1.00  0.00    -0.237 OA
ATOM     92  O   UNL A   1      33.674  31.810  27.662  1.00  0.00    -0.237 OA
ATOM     93  O   UNL A   1      34.041  33.227  29.645  1.00  0.00    -0.744 OA
ENDBRANCH  89  90
ENDBRANCH  57  82
BRANCH  69  94
ATOM     94  C   UNL A   1      43.240  28.868  33.379  1.00  0.00     0.058 A 
ATOM     95  C   UNL A   1      43.059  29.412  34.662  1.00  0.00     0.135 A 
ATOM     96  C   UNL A   1      42.983  27.498  33.223  1.00  0.00     0.135 A 
ATOM     97  F   UNL A   1      43.202  30.725  34.882  1.00  0.00    -0.206 F 
ATOM     98  C   UNL A   1      42.655  28.624  35.744  1.00  0.00     0.059 A 
ATOM     99  C   UNL A   1      42.549  26.701  34.277  1.00  0.00     0.059 A 
ATOM    100  F   UNL A   1      43.087  26.929  32.010  1.00  0.00    -0.206 F 
ATOM    101  C   UNL A   1      42.391  27.269  35.538  1.00  0.00     0.060 A 
BRANCH 101 102
ATOM    102  S   UNL A   1      41.759  26.272  36.905  1.00  0.00     0.124 S 
ATOM    103  O   UNL A   1      41.512  24.987  36.260  1.00  0.00    -0.237 OA
ATOM    104  O   UNL A   1      42.865  26.302  37.858  1.00  0.00    -0.237 OA
ATOM    105  O   UNL A   1      40.564  26.997  37.332  1.00  0.00    -0.744 OA
ENDBRANCH 101 102
ENDBRANCH  69  94
ENDBRANCH  43  44
ENDBRANCH  35  38
ENDBRANCH  33  34
ENDBRANCH  32  33
ENDBRANCH   1  32
TORSDOF 18
ENDMDL
MODEL 2
REMARK VINA RESULT:     -12.8      3.379      9.475
REMARK SMILES NS(=O)(=O)c1ccc(-n2nc(C(F)F)cc2-c2ccc(C(=O)NCCCNC(=O)c3ccc(-c4c5nc(c(-c6c(F)cc(S(=O)(=O)[O-])cc6F)c6ccc([nH]6)c(-c6c(F)cc(S(=O)(=O)[O-])cc6F)c6nc(c(-c7c(F)cc(S(=O)(=O)[O-])cc7F)c7ccc4[nH]7)C=C6)C=C5)cc3)cc2)cc1
REMARK SMILES IDX 24 1 23 2 21 3 22 4 20 6 17 7 18 8 97 9 19 10 96 11 16 12
REMARK SMILES IDX 9 13 10 14 11 15 15 16 8 17 5 18 6 19 99 20 7 21 98 22 2 23
REMARK SMILES IDX 3 24 4 25 1 26 12 29 13 30 14 31 25 32 26 33 27 34 28 35
REMARK SMILES IDX 29 37 30 38 31 39 95 40 32 41 94 42 33 43 34 44 35 45 88 46
REMARK SMILES IDX 36 47 93 48 87 49 89 50 37 51 92 52 86 53 85 54 38 56 72 57
REMARK SMILES IDX 51 58 71 59 52 60 55 61 70 62 90 63 53 64 54 65 69 67 91 68
REMARK SMILES IDX 56 69 39 70 40 71 49 72 41 73 42 74 48 75 50 76 43 77 44 78
REMARK SMILES IDX 45 79 46 80 47 81 73 82 74 83 83 84 75 85 76 86 82 87 84 88
REMARK SMILES IDX 77 89 78 90 79 91 80 92 81 93 57 94 58 95 67 96 59 97 60 98
REMARK SMILES IDX 66 99 68 100 61 101 62 102 63 103 64 104 65 105
REMARK H PARENT 23 5 1 27 1 28 27 36 89 55 55 66
REMARK Flexibility Score: inf
ROOT
ATOM      1  C   UNL A   1      33.091  31.581  27.333  1.00  0.00     0.118 C 
ENDROOT
BRANCH   1   2
ATOM      2  N   UNL A   1      34.149  30.869  28.033  1.00  0.00    -0.352 N 
ATOM      3  C   UNL A   1      34.625  29.587  27.894  1.00  0.00     0.251 C 
ATOM      4  O   UNL A   1      35.633  29.265  28.518  1.00  0.00    -0.269 OA
ATOM      5  H   UNL A   1      34.604  31.398  28.728  1.00  0.00     0.163 HD
BRANCH   3   6
ATOM      6  C   UNL A   1      34.001  28.601  26.971  1.00  0.00     0.039 A 
ATOM      7  C   UNL A   1      32.819  26.627  25.362  1.00  0.00     0.000 A 
ATOM      8  C   UNL A   1      32.219  27.001  26.571  1.00  0.00     0.011 A 
ATOM      9  C   UNL A   1      33.975  27.274  24.940  1.00  0.00     0.011 A 
ATOM     10  C   UNL A   1      32.810  27.981  27.373  1.00  0.00     0.014 A 
ATOM     11  C   UNL A   1      34.530  28.280  25.720  1.00  0.00     0.014 A 
BRANCH   7  12
ATOM     12  C   UNL A   1      32.243  25.609  24.503  1.00  0.00     0.075 A 
ATOM     13  N   UNL A   1      31.151  25.791  23.669  1.00  0.00    -0.233 N 
ATOM     14  N   UNL A   1      30.736  24.618  23.124  1.00  0.00    -0.166 NA
ATOM     15  C   UNL A   1      31.699  23.733  23.443  1.00  0.00     0.129 A 
ATOM     16  C   UNL A   1      32.629  24.297  24.343  1.00  0.00     0.060 A 
BRANCH  13  17
ATOM     17  C   UNL A   1      30.484  27.010  23.392  1.00  0.00     0.065 A 
ATOM     18  C   UNL A   1      29.108  29.274  22.558  1.00  0.00     0.082 A 
ATOM     19  C   UNL A   1      28.423  28.280  23.257  1.00  0.00     0.024 A 
ATOM     20  C   UNL A   1      30.482  29.164  22.311  1.00  0.00     0.024 A 
ATOM     21  C   UNL A   1      29.112  27.141  23.668  1.00  0.00     0.030 A 
ATOM     22  C   UNL A   1      31.182  28.041  22.757  1.00  0.00     0.030 A 
BRANCH  18  23
ATOM     23  S   UNL A   1      28.218  30.676  21.957  1.00  0.00     0.238 S 
ATOM     24  O   UNL A   1      27.263  31.100  22.940  1.00  0.00    -0.207 OA
ATOM     25  O   UNL A   1      27.882  30.442  20.565  1.00  0.00    -0.207 OA
BRANCH  23  26
ATOM     26  N   UNL A   1      29.398  31.875  21.947  1.00  0.00    -0.225 NA
ATOM     27  H   UNL A   1      29.022  32.727  22.363  1.00  0.00     0.137 HD
ATOM     28  H   UNL A   1      29.683  32.063  20.986  1.00  0.00     0.137 HD
ENDBRANCH  23  26
ENDBRANCH  18  23
ENDBRANCH  13  17
BRANCH  15  29
ATOM     29  C   UNL A   1      31.748  22.337  22.900  1.00  0.00     0.393 C 
ATOM     30  F   UNL A   1      32.721  22.165  21.967  1.00  0.00    -0.203 F 
ATOM     31  F   UNL A   1      31.984  21.426  23.885  1.00  0.00    -0.203 F 
ENDBRANCH  15  29
ENDBRANCH   7  12
ENDBRANCH   3   6
ENDBRANCH   1   2
BRANCH   1  32
ATOM     32  C   UNL A   1      33.172  33.098  27.553  1.00  0.00     0.042 C 
BRANCH  32  33
ATOM     33  C   UNL A   1      34.374  33.501  28.378  1.00  0.00     0.118 C 
BRANCH  33  34
ATOM     34  N   UNL A   1      33.985  34.221  29.592  1.00  0.00    -0.352 N 
ATOM     35  C   UNL A   1      34.394  33.993  30.890  1.00  0.00     0.251 C 
ATOM     36  H   UNL A   1      33.351  34.963  29.465  1.00  0.00     0.163 HD
ATOM     37  O   UNL A   1      33.743  34.427  31.833  1.00  0.00    -0.269 OA
BRANCH  35  38
ATOM     38  C   UNL A   1      35.619  33.210  31.113  1.00  0.00     0.039 A 
ATOM     39  C   UNL A   1      35.588  31.816  31.219  1.00  0.00     0.014 A 
ATOM     40  C   UNL A   1      36.823  33.903  31.153  1.00  0.00     0.014 A 
ATOM     41  C   UNL A   1      36.793  31.121  31.279  1.00  0.00     0.010 A 
ATOM     42  C   UNL A   1      37.995  33.213  31.014  1.00  0.00     0.010 A 
ATOM     43  C   UNL A   1      37.996  31.829  31.157  1.00  0.00    -0.014 A 
BRANCH  43  44
ATOM     44  C   UNL A   1      39.284  31.144  31.063  1.00  0.00     0.031 A 
ATOM     45  C   UNL A   1      39.985  30.967  32.369  1.00  0.00     0.074 A 
ATOM     46  C   UNL A   1      39.622  30.469  29.939  1.00  0.00     0.049 A 
ATOM     47  N   UNL A   1      41.145  31.407  32.733  1.00  0.00    -0.248 NA
ATOM     48  C   UNL A   1      39.229  30.335  33.470  1.00  0.00     0.031 C 
ATOM     49  C   UNL A   1      38.806  30.301  28.723  1.00  0.00     0.029 A 
ATOM     50  N   UNL A   1      40.679  29.650  29.689  1.00  0.00    -0.354 N 
ATOM     51  C   UNL A   1      41.363  30.889  34.011  1.00  0.00     0.074 A 
ATOM     52  C   UNL A   1      40.082  30.446  34.489  1.00  0.00     0.031 C 
ATOM     53  C   UNL A   1      39.252  29.241  28.017  1.00  0.00     0.029 A 
ATOM     54  C   UNL A   1      40.490  28.784  28.615  1.00  0.00     0.049 A 
ATOM     55  H   UNL A   1      41.506  29.669  30.223  1.00  0.00     0.167 HD
ATOM     56  C   UNL A   1      42.618  30.595  34.455  1.00  0.00     0.037 A 
ATOM     57  C   UNL A   1      41.275  27.740  28.257  1.00  0.00     0.037 A 
ATOM     58  C   UNL A   1      43.613  31.212  33.617  1.00  0.00     0.049 A 
ATOM     59  C   UNL A   1      42.588  27.948  28.914  1.00  0.00     0.074 A 
ATOM     60  C   UNL A   1      43.978  32.505  33.309  1.00  0.00     0.029 A 
ATOM     61  N   UNL A   1      44.152  30.404  32.648  1.00  0.00    -0.354 N 
ATOM     62  N   UNL A   1      43.379  28.957  28.661  1.00  0.00    -0.248 NA
ATOM     63  C   UNL A   1      42.850  27.253  30.164  1.00  0.00     0.031 C 
ATOM     64  C   UNL A   1      44.407  32.461  31.951  1.00  0.00     0.029 A 
ATOM     65  C   UNL A   1      44.345  31.137  31.508  1.00  0.00     0.049 A 
ATOM     66  H   UNL A   1      44.366  29.450  32.756  1.00  0.00     0.167 HD
ATOM     67  C   UNL A   1      43.946  29.280  29.883  1.00  0.00     0.074 A 
ATOM     68  C   UNL A   1      43.697  28.117  30.730  1.00  0.00     0.031 C 
ATOM     69  C   UNL A   1      44.299  30.567  30.174  1.00  0.00     0.037 A 
BRANCH  56  70
ATOM     70  C   UNL A   1      42.964  29.417  35.350  1.00  0.00     0.058 A 
ATOM     71  C   UNL A   1      43.783  29.627  36.481  1.00  0.00     0.135 A 
ATOM     72  C   UNL A   1      42.779  28.063  34.987  1.00  0.00     0.135 A 
ATOM     73  F   UNL A   1      44.044  30.871  36.915  1.00  0.00    -0.206 F 
ATOM     74  C   UNL A   1      44.422  28.581  37.153  1.00  0.00     0.059 A 
ATOM     75  C   UNL A   1      43.361  27.003  35.675  1.00  0.00     0.059 A 
ATOM     76  F   UNL A   1      42.110  27.699  33.888  1.00  0.00    -0.206 F 
ATOM     77  C   UNL A   1      44.213  27.271  36.731  1.00  0.00     0.060 A 
BRANCH  77  78
ATOM     78  S   UNL A   1      45.104  25.924  37.529  1.00  0.00     0.124 S 
ATOM     79  O   UNL A   1      45.695  25.246  36.380  1.00  0.00    -0.237 OA
ATOM     80  O   UNL A   1      46.031  26.645  38.394  1.00  0.00    -0.237 OA
ATOM     81  O   UNL A   1      44.050  25.191  38.223  1.00  0.00    -0.744 OA
ENDBRANCH  77  78
ENDBRANCH  56  70
BRANCH  57  82
ATOM     82  C   UNL A   1      40.857  26.442  27.663  1.00  0.00     0.058 A 
ATOM     83  C   UNL A   1      41.571  25.851  26.607  1.00  0.00     0.135 A 
ATOM     84  C   UNL A   1      39.898  25.624  28.298  1.00  0.00     0.135 A 
ATOM     85  F   UNL A   1      42.521  26.548  25.964  1.00  0.00    -0.206 F 
ATOM     86  C   UNL A   1      41.371  24.519  26.223  1.00  0.00     0.059 A 
ATOM     87  C   UNL A   1      39.675  24.296  27.929  1.00  0.00     0.059 A 
ATOM     88  F   UNL A   1      39.206  26.070  29.357  1.00  0.00    -0.206 F 
ATOM     89  C   UNL A   1      40.432  23.743  26.902  1.00  0.00     0.060 A 
BRANCH  89  90
ATOM     90  S   UNL A   1      40.276  21.984  26.503  1.00  0.00     0.124 S 
ATOM     91  O   UNL A   1      40.407  21.364  27.817  1.00  0.00    -0.237 OA
ATOM     92  O   UNL A   1      38.950  21.921  25.899  1.00  0.00    -0.237 OA
ATOM     93  O   UNL A   1      41.389  21.743  25.588  1.00  0.00    -0.744 OA
ENDBRANCH  89  90
ENDBRANCH  57  82
BRANCH  69  94
ATOM     94  C   UNL A   1      44.474  31.533  29.030  1.00  0.00     0.058 A 
ATOM     95  C   UNL A   1      45.554  31.537  28.131  1.00  0.00     0.135 A 
ATOM     96  C   UNL A   1      43.395  32.382  28.738  1.00  0.00     0.135 A 
ATOM     97  F   UNL A   1      46.586  30.699  28.289  1.00  0.00    -0.206 F 
ATOM     98  C   UNL A   1      45.567  32.360  27.002  1.00  0.00     0.059 A 
ATOM     99  C   UNL A   1      43.372  33.186  27.604  1.00  0.00     0.059 A 
ATOM    100  F   UNL A   1      42.310  32.385  29.529  1.00  0.00    -0.206 F 
ATOM    101  C   UNL A   1      44.464  33.174  26.740  1.00  0.00     0.060 A 
BRANCH 101 102
ATOM    102  S   UNL A   1      44.427  34.154  25.223  1.00  0.00     0.124 S 
ATOM    103  O   UNL A   1      43.221  34.955  25.403  1.00  0.00    -0.237 OA
ATOM    104  O   UNL A   1      45.689  34.885  25.286  1.00  0.00    -0.237 OA
ATOM    105  O   UNL A   1      44.355  33.146  24.168  1.00  0.00    -0.744 OA
ENDBRANCH 101 102
ENDBRANCH  69  94
ENDBRANCH  43  44
ENDBRANCH  35  38
ENDBRANCH  33  34
ENDBRANCH  32  33
ENDBRANCH   1  32
TORSDOF 18
ENDMDL
MODEL 3
REMARK VINA RESULT:     -12.6      2.959      8.971
REMARK SMILES NS(=O)(=O)c1ccc(-n2nc(C(F)F)cc2-c2ccc(C(=O)NCCCNC(=O)c3ccc(-c4c5nc(c(-c6c(F)cc(S(=O)(=O)[O-])cc6F)c6ccc([nH]6)c(-c6c(F)cc(S(=O)(=O)[O-])cc6F)c6nc(c(-c7c(F)cc(S(=O)(=O)[O-])cc7F)c7ccc4[nH]7)C=C6)C=C5)cc3)cc2)cc1
REMARK SMILES IDX 24 1 23 2 21 3 22 4 20 6 17 7 18 8 97 9 19 10 96 11 16 12
REMARK SMILES IDX 9 13 10 14 11 15 15 16 8 17 5 18 6 19 99 20 7 21 98 22 2 23
REMARK SMILES IDX 3 24 4 25 1 26 12 29 13 30 14 31 25 32 26 33 27 34 28 35
REMARK SMILES IDX 29 37 30 38 31 39 95 40 32 41 94 42 33 43 34 44 35 45 88 46
REMARK SMILES IDX 36 47 93 48 87 49 89 50 37 51 92 52 86 53 85 54 38 56 72 57
REMARK SMILES IDX 51 58 71 59 52 60 55 61 70 62 90 63 53 64 54 65 69 67 91 68
REMARK SMILES IDX 56 69 39 70 40 71 49 72 41 73 42 74 48 75 50 76 43 77 44 78
REMARK SMILES IDX 45 79 46 80 47 81 73 82 74 83 83 84 75 85 76 86 82 87 84 88
REMARK SMILES IDX 77 89 78 90 79 91 80 92 81 93 57 94 58 95 67 96 59 97 60 98
REMARK SMILES IDX 66 99 68 100 61 101 62 102 63 103 64 104 65 105
REMARK H PARENT 23 5 1 27 1 28 27 36 89 55 55 66
REMARK Flexibility Score: inf
ROOT
ATOM      1  C   UNL A   1      31.891  27.431  26.898  1.00  0.00     0.118 C 
ENDROOT
BRANCH   1   2
ATOM      2  N   UNL A   1      31.083  26.669  25.959  1.00  0.00    -0.352 N 
ATOM      3  C   UNL A   1      31.335  25.495  25.291  1.00  0.00     0.251 C 
ATOM      4  O   UNL A   1      30.423  24.976  24.651  1.00  0.00    -0.269 OA
ATOM      5  H   UNL A   1      30.200  27.062  25.769  1.00  0.00     0.163 HD
BRANCH   3   6
ATOM      6  C   UNL A   1      32.650  24.802  25.365  1.00  0.00     0.039 A 
ATOM      7  C   UNL A   1      35.150  23.561  25.663  1.00  0.00     0.000 A 
ATOM      8  C   UNL A   1      34.148  23.362  26.622  1.00  0.00     0.011 A 
ATOM      9  C   UNL A   1      34.883  24.334  24.539  1.00  0.00     0.011 A 
ATOM     10  C   UNL A   1      32.905  23.984  26.474  1.00  0.00     0.014 A 
ATOM     11  C   UNL A   1      33.629  24.909  24.377  1.00  0.00     0.014 A 
BRANCH   7  12
ATOM     12  C   UNL A   1      36.457  22.940  25.782  1.00  0.00     0.075 A 
ATOM     13  N   UNL A   1      36.733  21.604  25.539  1.00  0.00    -0.233 N 
ATOM     14  N   UNL A   1      38.002  21.281  25.900  1.00  0.00    -0.166 NA
ATOM     15  C   UNL A   1      38.592  22.460  26.168  1.00  0.00     0.129 A 
ATOM     16  C   UNL A   1      37.652  23.514  26.155  1.00  0.00     0.060 A 
BRANCH  13  17
ATOM     17  C   UNL A   1      35.847  20.634  25.007  1.00  0.00     0.065 A 
ATOM     18  C   UNL A   1      34.032  18.663  24.275  1.00  0.00     0.082 A 
ATOM     19  C   UNL A   1      33.602  19.987  24.357  1.00  0.00     0.024 A 
ATOM     20  C   UNL A   1      35.371  18.323  24.514  1.00  0.00     0.024 A 
ATOM     21  C   UNL A   1      34.512  20.974  24.733  1.00  0.00     0.030 A 
ATOM     22  C   UNL A   1      36.291  19.317  24.852  1.00  0.00     0.030 A 
BRANCH  18  23
ATOM     23  S   UNL A   1      32.863  17.398  23.888  1.00  0.00     0.238 S 
ATOM     24  O   UNL A   1      31.819  17.386  24.872  1.00  0.00    -0.207 OA
ATOM     25  O   UNL A   1      33.591  16.211  23.482  1.00  0.00    -0.207 OA
BRANCH  23  26
ATOM     26  N   UNL A   1      32.140  17.991  22.489  1.00  0.00    -0.225 NA
ATOM     27  H   UNL A   1      32.725  17.768  21.683  1.00  0.00     0.137 HD
ATOM     28  H   UNL A   1      32.035  19.002  22.563  1.00  0.00     0.137 HD
ENDBRANCH  23  26
ENDBRANCH  18  23
ENDBRANCH  13  17
BRANCH  15  29
ATOM     29  C   UNL A   1      40.059  22.604  26.442  1.00  0.00     0.393 C 
ATOM     30  F   UNL A   1      40.387  22.322  27.731  1.00  0.00    -0.203 F 
ATOM     31  F   UNL A   1      40.798  21.771  25.658  1.00  0.00    -0.203 F 
ENDBRANCH  15  29
ENDBRANCH   7  12
ENDBRANCH   3   6
ENDBRANCH   1   2
BRANCH   1  32
ATOM     32  C   UNL A   1      32.883  28.360  26.186  1.00  0.00     0.042 C 
BRANCH  32  33
ATOM     33  C   UNL A   1      33.891  28.969  27.136  1.00  0.00     0.118 C 
BRANCH  33  34
ATOM     34  N   UNL A   1      34.004  30.418  26.956  1.00  0.00    -0.352 N 
ATOM     35  C   UNL A   1      34.925  31.280  27.517  1.00  0.00     0.251 C 
ATOM     36  H   UNL A   1      33.339  30.829  26.359  1.00  0.00     0.163 HD
ATOM     37  O   UNL A   1      34.702  32.484  27.564  1.00  0.00    -0.269 OA
BRANCH  35  38
ATOM     38  C   UNL A   1      36.169  30.719  28.064  1.00  0.00     0.039 A 
ATOM     39  C   UNL A   1      36.539  29.391  27.830  1.00  0.00     0.014 A 
ATOM     40  C   UNL A   1      37.002  31.577  28.773  1.00  0.00     0.014 A 
ATOM     41  C   UNL A   1      37.797  28.960  28.245  1.00  0.00     0.010 A 
ATOM     42  C   UNL A   1      38.298  31.211  29.002  1.00  0.00     0.010 A 
ATOM     43  C   UNL A   1      38.680  29.886  28.816  1.00  0.00    -0.014 A 
BRANCH  43  44
ATOM     44  C   UNL A   1      40.062  29.532  29.134  1.00  0.00     0.031 A 
ATOM     45  C   UNL A   1      40.354  29.444  30.595  1.00  0.00     0.074 A 
ATOM     46  C   UNL A   1      40.879  29.029  28.179  1.00  0.00     0.049 A 
ATOM     47  N   UNL A   1      41.205  30.122  31.295  1.00  0.00    -0.248 NA
ATOM     48  C   UNL A   1      39.479  28.583  31.416  1.00  0.00     0.031 C 
ATOM     49  C   UNL A   1      40.538  28.751  26.772  1.00  0.00     0.029 A 
ATOM     50  N   UNL A   1      42.128  28.502  28.280  1.00  0.00    -0.354 N 
ATOM     51  C   UNL A   1      41.145  29.591  32.584  1.00  0.00     0.074 A 
ATOM     52  C   UNL A   1      39.929  28.827  32.648  1.00  0.00     0.031 C 
ATOM     53  C   UNL A   1      41.423  27.874  26.254  1.00  0.00     0.029 A 
ATOM     54  C   UNL A   1      42.492  27.686  27.212  1.00  0.00     0.049 A 
ATOM     55  H   UNL A   1      42.724  28.682  29.043  1.00  0.00     0.167 HD
ATOM     56  C   UNL A   1      42.238  29.574  33.399  1.00  0.00     0.037 A 
ATOM     57  C   UNL A   1      43.579  26.881  27.128  1.00  0.00     0.037 A 
ATOM     58  C   UNL A   1      43.258  30.461  32.902  1.00  0.00     0.049 A 
ATOM     59  C   UNL A   1      44.538  27.353  28.156  1.00  0.00     0.074 A 
ATOM     60  C   UNL A   1      43.371  31.820  32.705  1.00  0.00     0.029 A 
ATOM     61  N   UNL A   1      44.245  29.867  32.159  1.00  0.00    -0.354 N 
ATOM     62  N   UNL A   1      45.097  28.534  28.147  1.00  0.00    -0.248 NA
ATOM     63  C   UNL A   1      44.571  26.662  29.436  1.00  0.00     0.031 C 
ATOM     64  C   UNL A   1      44.189  31.965  31.547  1.00  0.00     0.029 A 
ATOM     65  C   UNL A   1      44.590  30.695  31.124  1.00  0.00     0.049 A 
ATOM     66  H   UNL A   1      44.643  28.985  32.340  1.00  0.00     0.167 HD
ATOM     67  C   UNL A   1      45.169  28.903  29.481  1.00  0.00     0.074 A 
ATOM     68  C   UNL A   1      44.967  27.664  30.224  1.00  0.00     0.031 C 
ATOM     69  C   UNL A   1      45.091  30.216  29.849  1.00  0.00     0.037 A 
BRANCH  56  70
ATOM     70  C   UNL A   1      42.573  28.457  34.372  1.00  0.00     0.058 A 
ATOM     71  C   UNL A   1      42.763  28.765  35.738  1.00  0.00     0.135 A 
ATOM     72  C   UNL A   1      43.004  27.168  33.983  1.00  0.00     0.135 A 
ATOM     73  F   UNL A   1      42.406  29.965  36.223  1.00  0.00    -0.206 F 
ATOM     74  C   UNL A   1      43.395  27.890  36.627  1.00  0.00     0.059 A 
ATOM     75  C   UNL A   1      43.584  26.260  34.864  1.00  0.00     0.059 A 
ATOM     76  F   UNL A   1      42.981  26.756  32.711  1.00  0.00    -0.206 F 
ATOM     77  C   UNL A   1      43.814  26.643  36.173  1.00  0.00     0.060 A 
BRANCH  77  78
ATOM     78  S   UNL A   1      44.711  25.545  37.285  1.00  0.00     0.124 S 
ATOM     79  O   UNL A   1      46.081  26.015  37.113  1.00  0.00    -0.237 OA
ATOM     80  O   UNL A   1      44.088  25.840  38.570  1.00  0.00    -0.237 OA
ATOM     81  O   UNL A   1      44.425  24.219  36.747  1.00  0.00    -0.744 OA
ENDBRANCH  77  78
ENDBRANCH  56  70
BRANCH  57  82
ATOM     82  C   UNL A   1      43.692  25.562  26.451  1.00  0.00     0.058 A 
ATOM     83  C   UNL A   1      44.523  25.376  25.333  1.00  0.00     0.135 A 
ATOM     84  C   UNL A   1      43.187  24.389  27.051  1.00  0.00     0.135 A 
ATOM     85  F   UNL A   1      45.069  26.435  24.717  1.00  0.00    -0.206 F 
ATOM     86  C   UNL A   1      44.860  24.102  24.857  1.00  0.00     0.059 A 
ATOM     87  C   UNL A   1      43.502  23.109  26.590  1.00  0.00     0.059 A 
ATOM     88  F   UNL A   1      42.435  24.452  28.160  1.00  0.00    -0.206 F 
ATOM     89  C   UNL A   1      44.358  22.974  25.503  1.00  0.00     0.060 A 
BRANCH  89  90
ATOM     90  S   UNL A   1      44.909  21.330  24.978  1.00  0.00     0.124 S 
ATOM     91  O   UNL A   1      44.676  21.379  23.539  1.00  0.00    -0.237 OA
ATOM     92  O   UNL A   1      46.306  21.326  25.397  1.00  0.00    -0.237 OA
ATOM     93  O   UNL A   1      44.035  20.425  25.720  1.00  0.00    -0.744 OA
ENDBRANCH  89  90
ENDBRANCH  57  82
BRANCH  69  94
ATOM     94  C   UNL A   1      45.363  31.267  28.803  1.00  0.00     0.058 A 
ATOM     95  C   UNL A   1      44.386  31.885  28.004  1.00  0.00     0.135 A 
ATOM     96  C   UNL A   1      46.664  31.788  28.740  1.00  0.00     0.135 A 
ATOM     97  F   UNL A   1      43.103  31.506  28.064  1.00  0.00    -0.206 F 
ATOM     98  C   UNL A   1      44.694  32.963  27.169  1.00  0.00     0.059 A 
ATOM     99  C   UNL A   1      46.987  32.879  27.941  1.00  0.00     0.059 A 
ATOM    100  F   UNL A   1      47.631  31.274  29.519  1.00  0.00    -0.206 F 
ATOM    101  C   UNL A   1      45.998  33.460  27.153  1.00  0.00     0.060 A 
BRANCH 101 102
ATOM    102  S   UNL A   1      46.375  34.923  26.164  1.00  0.00     0.124 S 
ATOM    103  O   UNL A   1      47.830  34.992  26.257  1.00  0.00    -0.237 OA
ATOM    104  O   UNL A   1      45.840  34.567  24.853  1.00  0.00    -0.237 OA
ATOM    105  O   UNL A   1      45.655  35.995  26.849  1.00  0.00    -0.744 OA
ENDBRANCH 101 102
ENDBRANCH  69  94
ENDBRANCH  43  44
ENDBRANCH  35  38
ENDBRANCH  33  34
ENDBRANCH  32  33
ENDBRANCH   1  32
TORSDOF 18
ENDMDL
