MODEL 1
REMARK VINA RESULT:     -11.0      0.000      0.000
REMARK SMILES O=C(C[C@H]1C[C@H]2CC[C@@H](C1)N2C(=O)NCCC1CC1)NCCCNC(=O)c1ccc(-c2c3nc(c(-c4c(F)cc(S(=O)(=O)[O-])cc4F)c4ccc([nH]4)c(-c4c(F)cc(S(=O)(=O)[O-])cc4F)c4nc(c(-c5c(F)cc(S(=O)(=O)[O-])cc5F)c5ccc2[nH]5)C=C4)C=C3)cc1
REMARK SMILES IDX 21 1 20 2 1 3 2 4 3 6 4 7 5 8 10 9 6 10 9 11 7 12 11 13 8 14
REMARK SMILES IDX 12 15 13 16 14 17 15 19 16 20 17 21 18 22 19 23 22 24 23 25
REMARK SMILES IDX 24 26 25 27 26 29 27 30 28 31 92 32 29 33 91 34 30 35 31 36
REMARK SMILES IDX 32 37 85 38 33 39 90 40 84 41 86 42 34 43 89 44 83 45 82 46
REMARK SMILES IDX 35 48 69 49 48 50 68 51 49 52 52 53 67 54 87 55 50 56 51 57
REMARK SMILES IDX 66 59 88 60 53 61 36 62 37 63 46 64 38 65 39 66 45 67 47 68
REMARK SMILES IDX 40 69 41 70 42 71 43 72 44 73 70 74 71 75 80 76 72 77 73 78
REMARK SMILES IDX 79 79 81 80 74 81 75 82 76 83 77 84 78 85 54 86 55 87 64 88
REMARK SMILES IDX 56 89 57 90 63 91 65 92 58 93 59 94 60 95 61 96 62 97
REMARK H PARENT 20 5 14 18 24 28 86 47 52 58
REMARK Flexibility Score: inf
ROOT
ATOM      1  C   UNL A   1      32.472  28.740  24.984  1.00  0.00     0.117 C 
ENDROOT
BRANCH   1   2
ATOM      2  N   UNL A   1      33.117  27.555  24.439  1.00  0.00    -0.356 N 
ATOM      3  O   UNL A   1      31.537  27.152  22.815  1.00  0.00    -0.275 OA
ATOM      4  C   UNL A   1      32.639  26.920  23.303  1.00  0.00     0.220 C 
ATOM      5  H   UNL A   1      33.915  27.195  24.888  1.00  0.00     0.163 HD
BRANCH   4   6
ATOM      6  C   UNL A   1      33.618  25.960  22.643  1.00  0.00     0.103 C 
BRANCH   6   7
ATOM      7  C   UNL A   1      33.896  24.619  23.374  1.00  0.00     0.002 C 
ATOM      8  C   UNL A   1      33.481  24.525  24.877  1.00  0.00     0.029 C 
ATOM      9  C   UNL A   1      33.501  23.372  22.571  1.00  0.00     0.029 C 
ATOM     10  C   UNL A   1      32.449  23.421  25.254  1.00  0.00     0.087 C 
ATOM     11  C   UNL A   1      32.244  22.662  23.091  1.00  0.00     0.087 C 
ATOM     12  C   UNL A   1      31.053  23.877  24.848  1.00  0.00     0.027 C 
ATOM     13  N   UNL A   1      32.623  22.240  24.413  1.00  0.00    -0.319 N 
ATOM     14  C   UNL A   1      30.981  23.488  23.374  1.00  0.00     0.027 C 
BRANCH  13  15
ATOM     15  C   UNL A   1      32.740  20.968  24.876  1.00  0.00     0.317 C 
ATOM     16  O   UNL A   1      31.764  20.335  25.282  1.00  0.00    -0.249 OA
ATOM     17  N   UNL A   1      33.944  20.343  24.902  1.00  0.00    -0.338 N 
ATOM     18  H   UNL A   1      33.864  19.371  25.032  1.00  0.00     0.165 HD
BRANCH  17  19
ATOM     19  C   UNL A   1      35.332  20.785  24.780  1.00  0.00     0.118 C 
BRANCH  19  20
ATOM     20  C   UNL A   1      35.760  21.698  25.926  1.00  0.00     0.025 C 
BRANCH  20  21
ATOM     21  C   UNL A   1      37.068  22.386  25.668  1.00  0.00    -0.009 C 
ATOM     22  C   UNL A   1      37.094  23.519  24.675  1.00  0.00     0.004 C 
ATOM     23  C   UNL A   1      37.293  23.799  26.136  1.00  0.00     0.004 C 
ENDBRANCH  20  21
ENDBRANCH  19  20
ENDBRANCH  17  19
ENDBRANCH  13  15
ENDBRANCH   6   7
ENDBRANCH   4   6
ENDBRANCH   1   2
BRANCH   1  24
ATOM     24  C   UNL A   1      32.081  28.642  26.459  1.00  0.00     0.042 C 
BRANCH  24  25
ATOM     25  C   UNL A   1      33.168  28.878  27.509  1.00  0.00     0.118 C 
BRANCH  25  26
ATOM     26  N   UNL A   1      33.402  30.264  27.888  1.00  0.00    -0.352 N 
ATOM     27  C   UNL A   1      34.572  30.916  28.230  1.00  0.00     0.251 C 
ATOM     28  H   UNL A   1      32.596  30.830  27.904  1.00  0.00     0.163 HD
ATOM     29  O   UNL A   1      34.544  32.127  28.447  1.00  0.00    -0.269 OA
BRANCH  27  30
ATOM     30  C   UNL A   1      35.842  30.171  28.419  1.00  0.00     0.039 A 
ATOM     31  C   UNL A   1      36.724  30.079  27.338  1.00  0.00     0.014 A 
ATOM     32  C   UNL A   1      36.199  29.612  29.646  1.00  0.00     0.014 A 
ATOM     33  C   UNL A   1      38.012  29.564  27.525  1.00  0.00     0.010 A 
ATOM     34  C   UNL A   1      37.510  29.182  29.854  1.00  0.00     0.010 A 
ATOM     35  C   UNL A   1      38.445  29.187  28.807  1.00  0.00    -0.014 A 
BRANCH  35  36
ATOM     36  C   UNL A   1      39.876  28.871  29.088  1.00  0.00     0.031 A 
ATOM     37  C   UNL A   1      40.803  29.922  29.638  1.00  0.00     0.074 A 
ATOM     38  C   UNL A   1      40.370  27.662  28.746  1.00  0.00     0.049 A 
ATOM     39  N   UNL A   1      42.099  29.871  29.813  1.00  0.00    -0.248 NA
ATOM     40  C   UNL A   1      40.198  31.210  30.010  1.00  0.00     0.031 C 
ATOM     41  C   UNL A   1      39.600  26.568  28.148  1.00  0.00     0.029 A 
ATOM     42  N   UNL A   1      41.645  27.154  28.832  1.00  0.00    -0.354 N 
ATOM     43  C   UNL A   1      42.470  31.123  30.287  1.00  0.00     0.074 A 
ATOM     44  C   UNL A   1      41.265  31.926  30.333  1.00  0.00     0.031 C 
ATOM     45  C   UNL A   1      40.409  25.516  27.943  1.00  0.00     0.029 A 
ATOM     46  C   UNL A   1      41.764  25.870  28.351  1.00  0.00     0.049 A 
ATOM     47  H   UNL A   1      42.402  27.661  29.203  1.00  0.00     0.167 HD
ATOM     48  C   UNL A   1      43.695  31.560  30.666  1.00  0.00     0.037 A 
ATOM     49  C   UNL A   1      42.841  25.067  28.237  1.00  0.00     0.037 A 
ATOM     50  C   UNL A   1      44.886  30.750  30.660  1.00  0.00     0.049 A 
ATOM     51  C   UNL A   1      44.185  25.565  28.691  1.00  0.00     0.074 A 
ATOM     52  C   UNL A   1      46.158  31.089  31.088  1.00  0.00     0.029 A 
ATOM     53  N   UNL A   1      44.952  29.440  30.211  1.00  0.00    -0.354 N 
ATOM     54  N   UNL A   1      44.504  26.739  29.183  1.00  0.00    -0.248 NA
ATOM     55  C   UNL A   1      45.314  24.631  28.579  1.00  0.00     0.031 C 
ATOM     56  C   UNL A   1      47.001  29.993  30.870  1.00  0.00     0.029 A 
ATOM     57  C   UNL A   1      46.244  28.959  30.342  1.00  0.00     0.049 A 
ATOM     58  H   UNL A   1      44.193  28.927  29.851  1.00  0.00     0.167 HD
ATOM     59  C   UNL A   1      45.864  26.673  29.464  1.00  0.00     0.074 A 
ATOM     60  C   UNL A   1      46.307  25.345  29.095  1.00  0.00     0.031 C 
ATOM     61  C   UNL A   1      46.672  27.630  29.984  1.00  0.00     0.037 A 
BRANCH  48  62
ATOM     62  C   UNL A   1      43.810  32.986  31.132  1.00  0.00     0.058 A 
ATOM     63  C   UNL A   1      43.495  33.357  32.449  1.00  0.00     0.135 A 
ATOM     64  C   UNL A   1      44.270  33.988  30.262  1.00  0.00     0.135 A 
ATOM     65  F   UNL A   1      43.038  32.441  33.318  1.00  0.00    -0.206 F 
ATOM     66  C   UNL A   1      43.596  34.676  32.877  1.00  0.00     0.059 A 
ATOM     67  C   UNL A   1      44.404  35.310  30.677  1.00  0.00     0.059 A 
ATOM     68  F   UNL A   1      44.588  33.689  28.993  1.00  0.00    -0.206 F 
ATOM     69  C   UNL A   1      44.047  35.647  31.982  1.00  0.00     0.060 A 
BRANCH  69  70
ATOM     70  S   UNL A   1      44.164  37.357  32.549  1.00  0.00     0.124 S 
ATOM     71  O   UNL A   1      45.573  37.443  32.917  1.00  0.00    -0.237 OA
ATOM     72  O   UNL A   1      43.772  38.109  31.361  1.00  0.00    -0.237 OA
ATOM     73  O   UNL A   1      43.220  37.410  33.660  1.00  0.00    -0.744 OA
ENDBRANCH  69  70
ENDBRANCH  48  62
BRANCH  49  74
ATOM     74  C   UNL A   1      42.688  23.694  27.687  1.00  0.00     0.058 A 
ATOM     75  C   UNL A   1      42.465  22.602  28.538  1.00  0.00     0.135 A 
ATOM     76  C   UNL A   1      42.748  23.448  26.307  1.00  0.00     0.135 A 
ATOM     77  F   UNL A   1      42.407  22.788  29.866  1.00  0.00    -0.206 F 
ATOM     78  C   UNL A   1      42.321  21.309  28.043  1.00  0.00     0.059 A 
ATOM     79  C   UNL A   1      42.583  22.167  25.786  1.00  0.00     0.059 A 
ATOM     80  F   UNL A   1      42.942  24.462  25.450  1.00  0.00    -0.206 F 
ATOM     81  C   UNL A   1      42.380  21.103  26.664  1.00  0.00     0.060 A 
BRANCH  81  82
ATOM     82  S   UNL A   1      42.137  19.430  26.026  1.00  0.00     0.124 S 
ATOM     83  O   UNL A   1      42.684  18.622  27.109  1.00  0.00    -0.237 OA
ATOM     84  O   UNL A   1      40.689  19.373  25.855  1.00  0.00    -0.237 OA
ATOM     85  O   UNL A   1      42.907  19.432  24.785  1.00  0.00    -0.744 OA
ENDBRANCH  81  82
ENDBRANCH  49  74
BRANCH  61  86
ATOM     86  C   UNL A   1      48.110  27.268  30.224  1.00  0.00     0.058 A 
ATOM     87  C   UNL A   1      49.099  27.492  29.254  1.00  0.00     0.135 A 
ATOM     88  C   UNL A   1      48.511  26.739  31.462  1.00  0.00     0.135 A 
ATOM     89  F   UNL A   1      48.765  27.989  28.052  1.00  0.00    -0.206 F 
ATOM     90  C   UNL A   1      50.435  27.191  29.497  1.00  0.00     0.059 A 
ATOM     91  C   UNL A   1      49.844  26.451  31.734  1.00  0.00     0.059 A 
ATOM     92  F   UNL A   1      47.604  26.513  32.425  1.00  0.00    -0.206 F 
ATOM     93  C   UNL A   1      50.799  26.670  30.741  1.00  0.00     0.060 A 
BRANCH  93  94
ATOM     94  S   UNL A   1      52.541  26.321  31.062  1.00  0.00     0.124 S 
ATOM     95  O   UNL A   1      52.472  24.977  31.626  1.00  0.00    -0.237 OA
ATOM     96  O   UNL A   1      53.131  26.420  29.730  1.00  0.00    -0.237 OA
ATOM     97  O   UNL A   1      52.932  27.375  31.993  1.00  0.00    -0.744 OA
ENDBRANCH  93  94
ENDBRANCH  61  86
ENDBRANCH  35  36
ENDBRANCH  27  30
ENDBRANCH  25  26
ENDBRANCH  24  25
ENDBRANCH   1  24
TORSDOF 18
ENDMDL
MODEL 2
REMARK VINA RESULT:     -10.9      4.925      9.938
REMARK SMILES O=C(C[C@H]1C[C@H]2CC[C@@H](C1)N2C(=O)NCCC1CC1)NCCCNC(=O)c1ccc(-c2c3nc(c(-c4c(F)cc(S(=O)(=O)[O-])cc4F)c4ccc([nH]4)c(-c4c(F)cc(S(=O)(=O)[O-])cc4F)c4nc(c(-c5c(F)cc(S(=O)(=O)[O-])cc5F)c5ccc2[nH]5)C=C4)C=C3)cc1
REMARK SMILES IDX 21 1 20 2 1 3 2 4 3 6 4 7 5 8 10 9 6 10 9 11 7 12 11 13 8 14
REMARK SMILES IDX 12 15 13 16 14 17 15 19 16 20 17 21 18 22 19 23 22 24 23 25
REMARK SMILES IDX 24 26 25 27 26 29 27 30 28 31 92 32 29 33 91 34 30 35 31 36
REMARK SMILES IDX 32 37 85 38 33 39 90 40 84 41 86 42 34 43 89 44 83 45 82 46
REMARK SMILES IDX 35 48 69 49 48 50 68 51 49 52 52 53 67 54 87 55 50 56 51 57
REMARK SMILES IDX 66 59 88 60 53 61 36 62 37 63 46 64 38 65 39 66 45 67 47 68
REMARK SMILES IDX 40 69 41 70 42 71 43 72 44 73 70 74 71 75 80 76 72 77 73 78
REMARK SMILES IDX 79 79 81 80 74 81 75 82 76 83 77 84 78 85 54 86 55 87 64 88
REMARK SMILES IDX 56 89 57 90 63 91 65 92 58 93 59 94 60 95 61 96 62 97
REMARK H PARENT 20 5 14 18 24 28 86 47 52 58
REMARK Flexibility Score: inf
ROOT
ATOM      1  C   UNL A   1      39.305  22.877  26.756  1.00  0.00     0.117 C 
ENDROOT
BRANCH   1   2
ATOM      2  N   UNL A   1      38.572  23.130  25.525  1.00  0.00    -0.356 N 
ATOM      3  O   UNL A   1      37.480  21.105  25.480  1.00  0.00    -0.275 OA
ATOM      4  C   UNL A   1      37.617  22.246  25.049  1.00  0.00     0.220 C 
ATOM      5  H   UNL A   1      38.758  23.952  25.017  1.00  0.00     0.163 HD
BRANCH   4   6
ATOM      6  C   UNL A   1      36.679  22.818  23.996  1.00  0.00     0.103 C 
BRANCH   6   7
ATOM      7  C   UNL A   1      35.438  23.602  24.503  1.00  0.00     0.002 C 
ATOM      8  C   UNL A   1      34.065  23.277  23.834  1.00  0.00     0.029 C 
ATOM      9  C   UNL A   1      35.342  23.706  26.032  1.00  0.00     0.029 C 
ATOM     10  C   UNL A   1      32.934  22.754  24.768  1.00  0.00     0.087 C 
ATOM     11  C   UNL A   1      34.250  22.827  26.654  1.00  0.00     0.087 C 
ATOM     12  C   UNL A   1      33.180  21.285  25.086  1.00  0.00     0.027 C 
ATOM     13  N   UNL A   1      33.036  23.358  26.094  1.00  0.00    -0.319 N 
ATOM     14  C   UNL A   1      34.161  21.347  26.253  1.00  0.00     0.027 C 
BRANCH  13  15
ATOM     15  C   UNL A   1      32.013  23.962  26.753  1.00  0.00     0.317 C 
ATOM     16  O   UNL A   1      31.313  23.350  27.562  1.00  0.00    -0.249 OA
ATOM     17  N   UNL A   1      31.728  25.272  26.548  1.00  0.00    -0.338 N 
ATOM     18  H   UNL A   1      31.135  25.645  27.239  1.00  0.00     0.165 HD
BRANCH  17  19
ATOM     19  C   UNL A   1      32.102  26.256  25.534  1.00  0.00     0.118 C 
BRANCH  19  20
ATOM     20  C   UNL A   1      33.369  27.025  25.900  1.00  0.00     0.025 C 
BRANCH  20  21
ATOM     21  C   UNL A   1      33.100  28.217  26.770  1.00  0.00    -0.009 C 
ATOM     22  C   UNL A   1      34.277  28.929  27.386  1.00  0.00     0.004 C 
ATOM     23  C   UNL A   1      33.476  29.600  26.308  1.00  0.00     0.004 C 
ENDBRANCH  20  21
ENDBRANCH  19  20
ENDBRANCH  17  19
ENDBRANCH  13  15
ENDBRANCH   6   7
ENDBRANCH   4   6
ENDBRANCH   1   2
BRANCH   1  24
ATOM     24  C   UNL A   1      40.714  22.312  26.565  1.00  0.00     0.042 C 
BRANCH  24  25
ATOM     25  C   UNL A   1      41.884  23.296  26.526  1.00  0.00     0.118 C 
BRANCH  25  26
ATOM     26  N   UNL A   1      41.729  24.441  25.640  1.00  0.00    -0.352 N 
ATOM     27  C   UNL A   1      41.673  25.793  25.923  1.00  0.00     0.251 C 
ATOM     28  H   UNL A   1      41.653  24.217  24.685  1.00  0.00     0.163 HD
ATOM     29  O   UNL A   1      41.610  26.599  24.995  1.00  0.00    -0.269 OA
BRANCH  27  30
ATOM     30  C   UNL A   1      41.603  26.286  27.321  1.00  0.00     0.039 A 
ATOM     31  C   UNL A   1      42.648  27.086  27.796  1.00  0.00     0.014 A 
ATOM     32  C   UNL A   1      40.511  26.021  28.148  1.00  0.00     0.014 A 
ATOM     33  C   UNL A   1      42.530  27.734  29.030  1.00  0.00     0.010 A 
ATOM     34  C   UNL A   1      40.355  26.736  29.337  1.00  0.00     0.010 A 
ATOM     35  C   UNL A   1      41.345  27.630  29.776  1.00  0.00    -0.014 A 
BRANCH  35  36
ATOM     36  C   UNL A   1      41.089  28.496  30.963  1.00  0.00     0.031 A 
ATOM     37  C   UNL A   1      39.992  29.528  30.942  1.00  0.00     0.074 A 
ATOM     38  C   UNL A   1      41.916  28.427  32.028  1.00  0.00     0.049 A 
ATOM     39  N   UNL A   1      39.716  30.457  31.821  1.00  0.00    -0.248 NA
ATOM     40  C   UNL A   1      39.114  29.538  29.762  1.00  0.00     0.031 C 
ATOM     41  C   UNL A   1      43.056  27.515  32.160  1.00  0.00     0.029 A 
ATOM     42  N   UNL A   1      41.940  29.150  33.197  1.00  0.00    -0.354 N 
ATOM     43  C   UNL A   1      38.652  31.178  31.292  1.00  0.00     0.074 A 
ATOM     44  C   UNL A   1      38.361  30.603  29.995  1.00  0.00     0.031 C 
ATOM     45  C   UNL A   1      43.651  27.718  33.346  1.00  0.00     0.029 A 
ATOM     46  C   UNL A   1      42.968  28.802  34.043  1.00  0.00     0.049 A 
ATOM     47  H   UNL A   1      41.284  29.852  33.409  1.00  0.00     0.167 HD
ATOM     48  C   UNL A   1      37.968  32.211  31.841  1.00  0.00     0.037 A 
ATOM     49  C   UNL A   1      43.332  29.302  35.241  1.00  0.00     0.037 A 
ATOM     50  C   UNL A   1      38.229  32.757  33.148  1.00  0.00     0.049 A 
ATOM     51  C   UNL A   1      42.540  30.430  35.842  1.00  0.00     0.074 A 
ATOM     52  C   UNL A   1      37.546  33.760  33.813  1.00  0.00     0.029 A 
ATOM     53  N   UNL A   1      39.249  32.342  33.992  1.00  0.00    -0.354 N 
ATOM     54  N   UNL A   1      41.506  31.066  35.345  1.00  0.00    -0.248 NA
ATOM     55  C   UNL A   1      42.960  30.907  37.168  1.00  0.00     0.031 C 
ATOM     56  C   UNL A   1      38.170  33.973  35.047  1.00  0.00     0.029 A 
ATOM     57  C   UNL A   1      39.219  33.075  35.167  1.00  0.00     0.049 A 
ATOM     58  H   UNL A   1      39.898  31.631  33.787  1.00  0.00     0.167 HD
ATOM     59  C   UNL A   1      41.136  31.998  36.308  1.00  0.00     0.074 A 
ATOM     60  C   UNL A   1      42.051  31.840  37.419  1.00  0.00     0.031 C 
ATOM     61  C   UNL A   1      40.126  32.902  36.273  1.00  0.00     0.037 A 
BRANCH  48  62
ATOM     62  C   UNL A   1      36.857  32.818  31.029  1.00  0.00     0.058 A 
ATOM     63  C   UNL A   1      37.112  33.778  30.036  1.00  0.00     0.135 A 
ATOM     64  C   UNL A   1      35.526  32.414  31.222  1.00  0.00     0.135 A 
ATOM     65  F   UNL A   1      38.364  34.210  29.820  1.00  0.00    -0.206 F 
ATOM     66  C   UNL A   1      36.083  34.342  29.290  1.00  0.00     0.059 A 
ATOM     67  C   UNL A   1      34.484  32.945  30.468  1.00  0.00     0.059 A 
ATOM     68  F   UNL A   1      35.226  31.497  32.155  1.00  0.00    -0.206 F 
ATOM     69  C   UNL A   1      34.772  33.923  29.516  1.00  0.00     0.060 A 
BRANCH  69  70
ATOM     70  S   UNL A   1      33.446  34.672  28.546  1.00  0.00     0.124 S 
ATOM     71  O   UNL A   1      32.504  35.054  29.593  1.00  0.00    -0.237 OA
ATOM     72  O   UNL A   1      34.130  35.773  27.876  1.00  0.00    -0.237 OA
ATOM     73  O   UNL A   1      33.010  33.586  27.674  1.00  0.00    -0.744 OA
ENDBRANCH  69  70
ENDBRANCH  48  62
BRANCH  49  74
ATOM     74  C   UNL A   1      44.495  28.723  35.965  1.00  0.00     0.058 A 
ATOM     75  C   UNL A   1      44.323  27.657  36.859  1.00  0.00     0.135 A 
ATOM     76  C   UNL A   1      45.796  29.211  35.770  1.00  0.00     0.135 A 
ATOM     77  F   UNL A   1      43.096  27.161  37.083  1.00  0.00    -0.206 F 
ATOM     78  C   UNL A   1      45.398  27.101  37.547  1.00  0.00     0.059 A 
ATOM     79  C   UNL A   1      46.890  28.657  36.428  1.00  0.00     0.059 A 
ATOM     80  F   UNL A   1      46.014  30.219  34.912  1.00  0.00    -0.206 F 
ATOM     81  C   UNL A   1      46.678  27.609  37.323  1.00  0.00     0.060 A 
BRANCH  81  82
ATOM     82  S   UNL A   1      48.075  26.847  38.179  1.00  0.00     0.124 S 
ATOM     83  O   UNL A   1      49.161  27.758  37.838  1.00  0.00    -0.237 OA
ATOM     84  O   UNL A   1      47.633  26.871  39.570  1.00  0.00    -0.237 OA
ATOM     85  O   UNL A   1      48.150  25.518  37.578  1.00  0.00    -0.744 OA
ENDBRANCH  81  82
ENDBRANCH  49  74
BRANCH  61  86
ATOM     86  C   UNL A   1      39.927  33.766  37.486  1.00  0.00     0.058 A 
ATOM     87  C   UNL A   1      40.581  35.000  37.627  1.00  0.00     0.135 A 
ATOM     88  C   UNL A   1      39.028  33.379  38.493  1.00  0.00     0.135 A 
ATOM     89  F   UNL A   1      41.456  35.410  36.695  1.00  0.00    -0.206 F 
ATOM     90  C   UNL A   1      40.363  35.813  38.734  1.00  0.00     0.059 A 
ATOM     91  C   UNL A   1      38.779  34.187  39.597  1.00  0.00     0.059 A 
ATOM     92  F   UNL A   1      38.372  32.212  38.400  1.00  0.00    -0.206 F 
ATOM     93  C   UNL A   1      39.458  35.399  39.714  1.00  0.00     0.060 A 
BRANCH  93  94
ATOM     94  S   UNL A   1      39.151  36.482  41.126  1.00  0.00     0.124 S 
ATOM     95  O   UNL A   1      38.072  35.775  41.808  1.00  0.00    -0.237 OA
ATOM     96  O   UNL A   1      40.441  36.481  41.809  1.00  0.00    -0.237 OA
ATOM     97  O   UNL A   1      38.778  37.749  40.506  1.00  0.00    -0.744 OA
ENDBRANCH  93  94
ENDBRANCH  61  86
ENDBRANCH  35  36
ENDBRANCH  27  30
ENDBRANCH  25  26
ENDBRANCH  24  25
ENDBRANCH   1  24
TORSDOF 18
ENDMDL
MODEL 3
REMARK VINA RESULT:     -10.9      4.790     10.361
REMARK SMILES O=C(C[C@H]1C[C@H]2CC[C@@H](C1)N2C(=O)NCCC1CC1)NCCCNC(=O)c1ccc(-c2c3nc(c(-c4c(F)cc(S(=O)(=O)[O-])cc4F)c4ccc([nH]4)c(-c4c(F)cc(S(=O)(=O)[O-])cc4F)c4nc(c(-c5c(F)cc(S(=O)(=O)[O-])cc5F)c5ccc2[nH]5)C=C4)C=C3)cc1
REMARK SMILES IDX 21 1 20 2 1 3 2 4 3 6 4 7 5 8 10 9 6 10 9 11 7 12 11 13 8 14
REMARK SMILES IDX 12 15 13 16 14 17 15 19 16 20 17 21 18 22 19 23 22 24 23 25
REMARK SMILES IDX 24 26 25 27 26 29 27 30 28 31 92 32 29 33 91 34 30 35 31 36
REMARK SMILES IDX 32 37 85 38 33 39 90 40 84 41 86 42 34 43 89 44 83 45 82 46
REMARK SMILES IDX 35 48 69 49 48 50 68 51 49 52 52 53 67 54 87 55 50 56 51 57
REMARK SMILES IDX 66 59 88 60 53 61 36 62 37 63 46 64 38 65 39 66 45 67 47 68
REMARK SMILES IDX 40 69 41 70 42 71 43 72 44 73 70 74 71 75 80 76 72 77 73 78
REMARK SMILES IDX 79 79 81 80 74 81 75 82 76 83 77 84 78 85 54 86 55 87 64 88
REMARK SMILES IDX 56 89 57 90 63 91 65 92 58 93 59 94 60 95 61 96 62 97
REMARK H PARENT 20 5 14 18 24 28 86 47 52 58
REMARK Flexibility Score: inf
ROOT
ATOM      1  C   UNL A   1      38.869  22.953  26.703  1.00  0.00     0.117 C 
ENDROOT
BRANCH   1   2
ATOM      2  N   UNL A   1      38.249  23.073  25.392  1.00  0.00    -0.356 N 
ATOM      3  O   UNL A   1      37.219  21.016  25.427  1.00  0.00    -0.275 OA
ATOM      4  C   UNL A   1      37.366  22.120  24.911  1.00  0.00     0.220 C 
ATOM      5  H   UNL A   1      38.460  23.855  24.832  1.00  0.00     0.163 HD
BRANCH   4   6
ATOM      6  C   UNL A   1      36.517  22.567  23.730  1.00  0.00     0.103 C 
BRANCH   6   7
ATOM      7  C   UNL A   1      35.277  23.448  24.042  1.00  0.00     0.002 C 
ATOM      8  C   UNL A   1      33.884  22.907  23.587  1.00  0.00     0.029 C 
ATOM      9  C   UNL A   1      35.255  24.019  25.467  1.00  0.00     0.029 C 
ATOM     10  C   UNL A   1      32.820  22.681  24.702  1.00  0.00     0.087 C 
ATOM     11  C   UNL A   1      34.226  23.358  26.393  1.00  0.00     0.087 C 
ATOM     12  C   UNL A   1      33.132  21.388  25.443  1.00  0.00     0.027 C 
ATOM     13  N   UNL A   1      32.968  23.668  25.768  1.00  0.00    -0.319 N 
ATOM     14  C   UNL A   1      34.168  21.825  26.474  1.00  0.00     0.027 C 
BRANCH  13  15
ATOM     15  C   UNL A   1      31.959  24.429  26.267  1.00  0.00     0.317 C 
ATOM     16  O   UNL A   1      31.320  24.084  27.262  1.00  0.00    -0.249 OA
ATOM     17  N   UNL A   1      31.623  25.609  25.687  1.00  0.00    -0.338 N 
ATOM     18  H   UNL A   1      31.052  26.166  26.263  1.00  0.00     0.165 HD
BRANCH  17  19
ATOM     19  C   UNL A   1      31.915  26.239  24.401  1.00  0.00     0.118 C 
BRANCH  19  20
ATOM     20  C   UNL A   1      33.312  26.852  24.351  1.00  0.00     0.025 C 
BRANCH  20  21
ATOM     21  C   UNL A   1      33.300  28.309  23.997  1.00  0.00    -0.009 C 
ATOM     22  C   UNL A   1      34.053  28.751  22.769  1.00  0.00     0.004 C 
ATOM     23  C   UNL A   1      32.552  28.795  22.784  1.00  0.00     0.004 C 
ENDBRANCH  20  21
ENDBRANCH  19  20
ENDBRANCH  17  19
ENDBRANCH  13  15
ENDBRANCH   6   7
ENDBRANCH   4   6
ENDBRANCH   1   2
BRANCH   1  24
ATOM     24  C   UNL A   1      40.174  22.156  26.729  1.00  0.00     0.042 C 
BRANCH  24  25
ATOM     25  C   UNL A   1      41.491  22.932  26.757  1.00  0.00     0.118 C 
BRANCH  25  26
ATOM     26  N   UNL A   1      41.626  24.001  25.776  1.00  0.00    -0.352 N 
ATOM     27  C   UNL A   1      41.792  25.361  25.949  1.00  0.00     0.251 C 
ATOM     28  H   UNL A   1      41.594  23.706  24.837  1.00  0.00     0.163 HD
ATOM     29  O   UNL A   1      41.959  26.077  24.962  1.00  0.00    -0.269 OA
BRANCH  27  30
ATOM     30  C   UNL A   1      41.691  25.986  27.292  1.00  0.00     0.039 A 
ATOM     31  C   UNL A   1      42.838  26.570  27.840  1.00  0.00     0.014 A 
ATOM     32  C   UNL A   1      40.485  26.052  27.992  1.00  0.00     0.014 A 
ATOM     33  C   UNL A   1      42.744  27.341  29.005  1.00  0.00     0.010 A 
ATOM     34  C   UNL A   1      40.375  26.892  29.101  1.00  0.00     0.010 A 
ATOM     35  C   UNL A   1      41.495  27.577  29.601  1.00  0.00    -0.014 A 
BRANCH  35  36
ATOM     36  C   UNL A   1      41.324  28.585  30.687  1.00  0.00     0.031 A 
ATOM     37  C   UNL A   1      42.165  28.524  31.934  1.00  0.00     0.074 A 
ATOM     38  C   UNL A   1      40.333  29.497  30.598  1.00  0.00     0.049 A 
ATOM     39  N   UNL A   1      42.063  29.224  33.034  1.00  0.00    -0.248 NA
ATOM     40  C   UNL A   1      43.241  27.520  31.960  1.00  0.00     0.031 C 
ATOM     41  C   UNL A   1      39.403  29.634  29.473  1.00  0.00     0.029 A 
ATOM     42  N   UNL A   1      39.927  30.473  31.477  1.00  0.00    -0.354 N 
ATOM     43  C   UNL A   1      43.038  28.732  33.893  1.00  0.00     0.074 A 
ATOM     44  C   UNL A   1      43.695  27.643  33.198  1.00  0.00     0.031 C 
ATOM     45  C   UNL A   1      38.554  30.644  29.720  1.00  0.00     0.029 A 
ATOM     46  C   UNL A   1      38.845  31.201  31.036  1.00  0.00     0.049 A 
ATOM     47  H   UNL A   1      40.368  30.636  32.341  1.00  0.00     0.167 HD
ATOM     48  C   UNL A   1      43.371  29.156  35.136  1.00  0.00     0.037 A 
ATOM     49  C   UNL A   1      38.153  32.197  31.625  1.00  0.00     0.037 A 
ATOM     50  C   UNL A   1      42.747  30.265  35.811  1.00  0.00     0.049 A 
ATOM     51  C   UNL A   1      38.559  32.670  32.994  1.00  0.00     0.074 A 
ATOM     52  C   UNL A   1      43.061  30.807  37.045  1.00  0.00     0.029 A 
ATOM     53  N   UNL A   1      41.687  31.005  35.309  1.00  0.00    -0.354 N 
ATOM     54  N   UNL A   1      39.518  32.221  33.769  1.00  0.00    -0.248 NA
ATOM     55  C   UNL A   1      37.794  33.785  33.568  1.00  0.00     0.031 C 
ATOM     56  C   UNL A   1      42.173  31.857  37.303  1.00  0.00     0.029 A 
ATOM     57  C   UNL A   1      41.330  31.993  36.211  1.00  0.00     0.049 A 
ATOM     58  H   UNL A   1      41.253  30.852  34.439  1.00  0.00     0.167 HD
ATOM     59  C   UNL A   1      39.488  33.017  34.908  1.00  0.00     0.074 A 
ATOM     60  C   UNL A   1      38.422  33.979  34.721  1.00  0.00     0.031 C 
ATOM     61  C   UNL A   1      40.276  32.955  36.010  1.00  0.00     0.037 A 
BRANCH  48  62
ATOM     62  C   UNL A   1      44.472  28.421  35.849  1.00  0.00     0.058 A 
ATOM     63  C   UNL A   1      45.819  28.781  35.691  1.00  0.00     0.135 A 
ATOM     64  C   UNL A   1      44.176  27.364  36.726  1.00  0.00     0.135 A 
ATOM     65  F   UNL A   1      46.159  29.775  34.855  1.00  0.00    -0.206 F 
ATOM     66  C   UNL A   1      46.837  28.096  36.347  1.00  0.00     0.059 A 
ATOM     67  C   UNL A   1      45.176  26.682  37.413  1.00  0.00     0.059 A 
ATOM     68  F   UNL A   1      42.904  26.980  36.917  1.00  0.00    -0.206 F 
ATOM     69  C   UNL A   1      46.506  27.045  37.202  1.00  0.00     0.060 A 
BRANCH  69  70
ATOM     70  S   UNL A   1      47.838  26.159  38.039  1.00  0.00     0.124 S 
ATOM     71  O   UNL A   1      47.856  24.901  37.299  1.00  0.00    -0.237 OA
ATOM     72  O   UNL A   1      48.983  27.038  37.824  1.00  0.00    -0.237 OA
ATOM     73  O   UNL A   1      47.371  26.070  39.418  1.00  0.00    -0.744 OA
ENDBRANCH  69  70
ENDBRANCH  48  62
BRANCH  49  74
ATOM     74  C   UNL A   1      37.014  32.834  30.911  1.00  0.00     0.058 A 
ATOM     75  C   UNL A   1      35.691  32.501  31.235  1.00  0.00     0.135 A 
ATOM     76  C   UNL A   1      37.223  33.791  29.908  1.00  0.00     0.135 A 
ATOM     77  F   UNL A   1      35.442  31.585  32.183  1.00  0.00    -0.206 F 
ATOM     78  C   UNL A   1      34.611  33.085  30.579  1.00  0.00     0.059 A 
ATOM     79  C   UNL A   1      36.160  34.406  29.253  1.00  0.00     0.059 A 
ATOM     80  F   UNL A   1      38.471  34.156  29.575  1.00  0.00    -0.206 F 
ATOM     81  C   UNL A   1      34.858  34.038  29.589  1.00  0.00     0.060 A 
BRANCH  81  82
ATOM     82  S   UNL A   1      33.450  34.831  28.779  1.00  0.00     0.124 S 
ATOM     83  O   UNL A   1      34.069  36.025  28.218  1.00  0.00    -0.237 OA
ATOM     84  O   UNL A   1      33.035  33.813  27.819  1.00  0.00    -0.237 OA
ATOM     85  O   UNL A   1      32.517  35.057  29.880  1.00  0.00    -0.744 OA
ENDBRANCH  81  82
ENDBRANCH  49  74
BRANCH  61  86
ATOM     86  C   UNL A   1      40.045  33.979  37.085  1.00  0.00     0.058 A 
ATOM     87  C   UNL A   1      40.640  35.249  37.035  1.00  0.00     0.135 A 
ATOM     88  C   UNL A   1      39.173  33.703  38.151  1.00  0.00     0.135 A 
ATOM     89  F   UNL A   1      41.487  35.558  36.040  1.00  0.00    -0.206 F 
ATOM     90  C   UNL A   1      40.391  36.206  38.013  1.00  0.00     0.059 A 
ATOM     91  C   UNL A   1      38.893  34.653  39.128  1.00  0.00     0.059 A 
ATOM     92  F   UNL A   1      38.573  32.506  38.240  1.00  0.00    -0.206 F 
ATOM     93  C   UNL A   1      39.515  35.899  39.056  1.00  0.00     0.060 A 
BRANCH  93  94
ATOM     94  S   UNL A   1      39.166  37.162  40.298  1.00  0.00     0.124 S 
ATOM     95  O   UNL A   1      38.519  38.194  39.493  1.00  0.00    -0.237 OA
ATOM     96  O   UNL A   1      38.300  36.453  41.234  1.00  0.00    -0.237 OA
ATOM     97  O   UNL A   1      40.488  37.505  40.813  1.00  0.00    -0.744 OA
ENDBRANCH  93  94
ENDBRANCH  61  86
ENDBRANCH  35  36
ENDBRANCH  27  30
ENDBRANCH  25  26
ENDBRANCH  24  25
ENDBRANCH   1  24
TORSDOF 18
ENDMDL
