MODEL 1
REMARK VINA RESULT:     -11.7      0.000      0.000
REMARK SMILES C[C@](NC(=O)c1ccc(Br)o1)(C(=O)NCCCNC(=O)c1ccc(-c2c3nc(c(-c4c(F)cc(S(=O)(=O)[O-])cc4F)c4ccc([nH]4)c(-c4c(F)cc(S(=O)(=O)[O-])cc4F)c4nc(c(-c5c(F)cc(S(=O)(=O)[O-])cc5F)c5ccc2[nH]5)C=C4)C=C3)cc1)C(F)(F)F
REMARK SMILES IDX 16 1 15 2 14 3 12 4 13 5 2 7 1 8 87 9 88 10 89 11 90 12 3 13
REMARK SMILES IDX 4 14 5 16 6 17 7 18 11 19 8 20 9 21 10 22 17 23 18 24 19 25
REMARK SMILES IDX 20 27 21 28 22 29 86 30 23 31 85 32 24 33 25 34 26 35 79 36
REMARK SMILES IDX 27 37 84 38 78 39 80 40 28 41 83 42 77 43 76 44 29 46 63 47
REMARK SMILES IDX 42 48 62 49 43 50 46 51 61 52 81 53 44 54 45 55 60 57 82 58
REMARK SMILES IDX 47 59 30 60 31 61 40 62 32 63 33 64 39 65 41 66 34 67 35 68
REMARK SMILES IDX 36 69 37 70 38 71 64 72 65 73 74 74 66 75 67 76 73 77 75 78
REMARK SMILES IDX 68 79 69 80 70 81 71 82 72 83 48 84 49 85 58 86 50 87 51 88
REMARK SMILES IDX 57 89 59 90 52 91 53 92 54 93 55 94 56 95
REMARK H PARENT 14 6 3 15 18 26 80 45 46 56
REMARK Flexibility Score: inf
ROOT
ATOM      1  C   UNL A   1      37.052  23.136  25.565  1.00  0.00     0.042 C 
ENDROOT
BRANCH   1   2
ATOM      2  C   UNL A   1      35.567  23.475  25.628  1.00  0.00     0.117 C 
BRANCH   2   3
ATOM      3  N   UNL A   1      35.197  24.552  24.721  1.00  0.00    -0.354 N 
ATOM      4  C   UNL A   1      34.052  24.815  24.023  1.00  0.00     0.254 C 
ATOM      5  O   UNL A   1      34.000  25.933  23.505  1.00  0.00    -0.272 OA
ATOM      6  H   UNL A   1      35.908  25.218  24.584  1.00  0.00     0.163 HD
BRANCH   4   7
ATOM      7  C   UNL A   1      32.864  23.825  23.994  1.00  0.00     0.212 C 
ATOM      8  C   UNL A   1      31.714  24.473  23.212  1.00  0.00     0.056 C 
BRANCH   7   9
ATOM      9  C   UNL A   1      33.372  22.585  23.217  1.00  0.00     0.420 C 
ATOM     10  F   UNL A   1      33.630  21.539  24.034  1.00  0.00    -0.168 F 
ATOM     11  F   UNL A   1      32.436  22.151  22.333  1.00  0.00    -0.168 F 
ATOM     12  F   UNL A   1      34.477  22.837  22.480  1.00  0.00    -0.168 F 
ENDBRANCH   7   9
BRANCH   7  13
ATOM     13  N   UNL A   1      32.530  23.522  25.420  1.00  0.00    -0.328 N 
ATOM     14  C   UNL A   1      32.018  24.304  26.423  1.00  0.00     0.288 C 
ATOM     15  H   UNL A   1      32.711  22.592  25.687  1.00  0.00     0.165 HD
ATOM     16  O   UNL A   1      31.543  23.723  27.396  1.00  0.00    -0.266 OA
BRANCH  14  17
ATOM     17  C   UNL A   1      32.030  25.738  26.302  1.00  0.00     0.192 A 
ATOM     18  C   UNL A   1      31.015  26.636  26.035  1.00  0.00     0.057 A 
ATOM     19  O   UNL A   1      33.184  26.417  26.580  1.00  0.00    -0.444 OA
ATOM     20  C   UNL A   1      31.584  27.930  26.127  1.00  0.00     0.059 A 
ATOM     21  C   UNL A   1      32.897  27.744  26.490  1.00  0.00     0.170 A 
ATOM     22  Br  UNL A   1      34.125  29.109  26.820  1.00  0.00    -0.008 Br
ENDBRANCH  14  17
ENDBRANCH   7  13
ENDBRANCH   4   7
ENDBRANCH   2   3
ENDBRANCH   1   2
BRANCH   1  23
ATOM     23  C   UNL A   1      37.973  24.081  26.335  1.00  0.00     0.118 C 
BRANCH  23  24
ATOM     24  N   UNL A   1      39.388  23.780  26.164  1.00  0.00    -0.352 N 
ATOM     25  C   UNL A   1      40.490  24.446  26.648  1.00  0.00     0.251 C 
ATOM     26  H   UNL A   1      39.585  22.981  25.623  1.00  0.00     0.163 HD
ATOM     27  O   UNL A   1      41.614  24.095  26.295  1.00  0.00    -0.269 OA
BRANCH  25  28
ATOM     28  C   UNL A   1      40.324  25.600  27.556  1.00  0.00     0.039 A 
ATOM     29  C   UNL A   1      39.381  25.517  28.585  1.00  0.00     0.014 A 
ATOM     30  C   UNL A   1      41.101  26.752  27.407  1.00  0.00     0.014 A 
ATOM     31  C   UNL A   1      39.283  26.549  29.522  1.00  0.00     0.010 A 
ATOM     32  C   UNL A   1      41.040  27.756  28.372  1.00  0.00     0.010 A 
ATOM     33  C   UNL A   1      40.145  27.654  29.449  1.00  0.00    -0.014 A 
BRANCH  33  34
ATOM     34  C   UNL A   1      40.165  28.690  30.512  1.00  0.00     0.031 A 
ATOM     35  C   UNL A   1      41.086  28.554  31.691  1.00  0.00     0.074 A 
ATOM     36  C   UNL A   1      39.282  29.707  30.459  1.00  0.00     0.049 A 
ATOM     37  N   UNL A   1      41.151  29.285  32.775  1.00  0.00    -0.248 NA
ATOM     38  C   UNL A   1      42.043  27.438  31.656  1.00  0.00     0.031 C 
ATOM     39  C   UNL A   1      38.305  29.927  29.392  1.00  0.00     0.029 A 
ATOM     40  N   UNL A   1      39.052  30.738  31.336  1.00  0.00    -0.354 N 
ATOM     41  C   UNL A   1      42.134  28.701  33.564  1.00  0.00     0.074 A 
ATOM     42  C   UNL A   1      42.624  27.544  32.844  1.00  0.00     0.031 C 
ATOM     43  C   UNL A   1      37.587  31.027  29.671  1.00  0.00     0.029 A 
ATOM     44  C   UNL A   1      38.028  31.570  30.952  1.00  0.00     0.049 A 
ATOM     45  H   UNL A   1      39.570  30.867  32.164  1.00  0.00     0.167 HD
ATOM     46  C   UNL A   1      42.593  29.100  34.775  1.00  0.00     0.037 A 
ATOM     47  C   UNL A   1      37.495  32.644  31.566  1.00  0.00     0.037 A 
ATOM     48  C   UNL A   1      42.135  30.272  35.474  1.00  0.00     0.049 A 
ATOM     49  C   UNL A   1      38.040  33.082  32.895  1.00  0.00     0.074 A 
ATOM     50  C   UNL A   1      42.589  30.792  36.674  1.00  0.00     0.029 A 
ATOM     51  N   UNL A   1      41.120  31.108  35.034  1.00  0.00    -0.354 N 
ATOM     52  N   UNL A   1      38.995  32.540  33.610  1.00  0.00    -0.248 NA
ATOM     53  C   UNL A   1      37.430  34.273  33.503  1.00  0.00     0.031 C 
ATOM     54  C   UNL A   1      41.836  31.936  36.968  1.00  0.00     0.029 A 
ATOM     55  C   UNL A   1      40.927  32.136  35.942  1.00  0.00     0.049 A 
ATOM     56  H   UNL A   1      40.611  30.989  34.200  1.00  0.00     0.167 HD
ATOM     57  C   UNL A   1      39.111  33.329  34.748  1.00  0.00     0.074 A 
ATOM     58  C   UNL A   1      38.133  34.393  34.622  1.00  0.00     0.031 C 
ATOM     59  C   UNL A   1      39.950  33.185  35.802  1.00  0.00     0.037 A 
BRANCH  46  60
ATOM     60  C   UNL A   1      43.653  28.256  35.418  1.00  0.00     0.058 A 
ATOM     61  C   UNL A   1      43.326  27.231  36.318  1.00  0.00     0.135 A 
ATOM     62  C   UNL A   1      45.010  28.465  35.123  1.00  0.00     0.135 A 
ATOM     63  F   UNL A   1      42.043  27.003  36.644  1.00  0.00    -0.206 F 
ATOM     64  C   UNL A   1      44.309  26.460  36.929  1.00  0.00     0.059 A 
ATOM     65  C   UNL A   1      46.010  27.694  35.709  1.00  0.00     0.059 A 
ATOM     66  F   UNL A   1      45.374  29.435  34.269  1.00  0.00    -0.206 F 
ATOM     67  C   UNL A   1      45.649  26.706  36.624  1.00  0.00     0.060 A 
BRANCH  67  68
ATOM     68  S   UNL A   1      46.921  25.712  37.433  1.00  0.00     0.124 S 
ATOM     69  O   UNL A   1      47.241  24.746  36.386  1.00  0.00    -0.237 OA
ATOM     70  O   UNL A   1      47.959  26.695  37.723  1.00  0.00    -0.237 OA
ATOM     71  O   UNL A   1      46.233  25.170  38.600  1.00  0.00    -0.744 OA
ENDBRANCH  67  68
ENDBRANCH  46  60
BRANCH  47  72
ATOM     72  C   UNL A   1      36.386  33.387  30.918  1.00  0.00     0.058 A 
ATOM     73  C   UNL A   1      35.083  33.310  31.425  1.00  0.00     0.135 A 
ATOM     74  C   UNL A   1      36.614  34.206  29.802  1.00  0.00     0.135 A 
ATOM     75  F   UNL A   1      34.821  32.534  32.488  1.00  0.00    -0.206 F 
ATOM     76  C   UNL A   1      34.035  34.015  30.844  1.00  0.00     0.059 A 
ATOM     77  C   UNL A   1      35.584  34.932  29.212  1.00  0.00     0.059 A 
ATOM     78  F   UNL A   1      37.849  34.321  29.292  1.00  0.00    -0.206 F 
ATOM     79  C   UNL A   1      34.297  34.825  29.737  1.00  0.00     0.060 A 
BRANCH  79  80
ATOM     80  S   UNL A   1      32.945  35.791  29.025  1.00  0.00     0.124 S 
ATOM     81  O   UNL A   1      32.347  34.826  28.110  1.00  0.00    -0.237 OA
ATOM     82  O   UNL A   1      32.152  36.131  30.203  1.00  0.00    -0.237 OA
ATOM     83  O   UNL A   1      33.636  36.915  28.401  1.00  0.00    -0.744 OA
ENDBRANCH  79  80
ENDBRANCH  47  72
BRANCH  59  84
ATOM     84  C   UNL A   1      39.856  34.207  36.895  1.00  0.00     0.058 A 
ATOM     85  C   UNL A   1      40.409  35.487  36.743  1.00  0.00     0.135 A 
ATOM     86  C   UNL A   1      39.170  33.920  38.084  1.00  0.00     0.135 A 
ATOM     87  F   UNL A   1      41.083  35.804  35.625  1.00  0.00    -0.206 F 
ATOM     88  C   UNL A   1      40.295  36.448  37.741  1.00  0.00     0.059 A 
ATOM     89  C   UNL A   1      39.032  34.870  39.091  1.00  0.00     0.059 A 
ATOM     90  F   UNL A   1      38.621  32.709  38.273  1.00  0.00    -0.206 F 
ATOM     91  C   UNL A   1      39.606  36.130  38.914  1.00  0.00     0.060 A 
BRANCH  91  92
ATOM     92  S   UNL A   1      39.424  37.393  40.191  1.00  0.00     0.124 S 
ATOM     93  O   UNL A   1      40.815  37.632  40.564  1.00  0.00    -0.237 OA
ATOM     94  O   UNL A   1      38.765  38.479  39.474  1.00  0.00    -0.237 OA
ATOM     95  O   UNL A   1      38.606  36.732  41.203  1.00  0.00    -0.744 OA
ENDBRANCH  91  92
ENDBRANCH  59  84
ENDBRANCH  33  34
ENDBRANCH  25  28
ENDBRANCH  23  24
ENDBRANCH   1  23
TORSDOF 16
ENDMDL
MODEL 2
REMARK VINA RESULT:     -11.7      5.074     10.478
REMARK SMILES C[C@](NC(=O)c1ccc(Br)o1)(C(=O)NCCCNC(=O)c1ccc(-c2c3nc(c(-c4c(F)cc(S(=O)(=O)[O-])cc4F)c4ccc([nH]4)c(-c4c(F)cc(S(=O)(=O)[O-])cc4F)c4nc(c(-c5c(F)cc(S(=O)(=O)[O-])cc5F)c5ccc2[nH]5)C=C4)C=C3)cc1)C(F)(F)F
REMARK SMILES IDX 16 1 15 2 14 3 12 4 13 5 2 7 1 8 87 9 88 10 89 11 90 12 3 13
REMARK SMILES IDX 4 14 5 16 6 17 7 18 11 19 8 20 9 21 10 22 17 23 18 24 19 25
REMARK SMILES IDX 20 27 21 28 22 29 86 30 23 31 85 32 24 33 25 34 26 35 79 36
REMARK SMILES IDX 27 37 84 38 78 39 80 40 28 41 83 42 77 43 76 44 29 46 63 47
REMARK SMILES IDX 42 48 62 49 43 50 46 51 61 52 81 53 44 54 45 55 60 57 82 58
REMARK SMILES IDX 47 59 30 60 31 61 40 62 32 63 33 64 39 65 41 66 34 67 35 68
REMARK SMILES IDX 36 69 37 70 38 71 64 72 65 73 74 74 66 75 67 76 73 77 75 78
REMARK SMILES IDX 68 79 69 80 70 81 71 82 72 83 48 84 49 85 58 86 50 87 51 88
REMARK SMILES IDX 57 89 59 90 52 91 53 92 54 93 55 94 56 95
REMARK H PARENT 14 6 3 15 18 26 80 45 46 56
REMARK Flexibility Score: inf
ROOT
ATOM      1  C   UNL A   1      32.851  28.288  25.886  1.00  0.00     0.042 C 
ENDROOT
BRANCH   1   2
ATOM      2  C   UNL A   1      31.846  27.145  25.805  1.00  0.00     0.117 C 
BRANCH   2   3
ATOM      3  N   UNL A   1      31.466  26.825  24.437  1.00  0.00    -0.354 N 
ATOM      4  C   UNL A   1      31.696  25.732  23.649  1.00  0.00     0.254 C 
ATOM      5  O   UNL A   1      31.051  25.699  22.599  1.00  0.00    -0.272 OA
ATOM      6  H   UNL A   1      30.945  27.532  23.993  1.00  0.00     0.163 HD
BRANCH   4   7
ATOM      7  C   UNL A   1      32.606  24.569  24.107  1.00  0.00     0.212 C 
ATOM      8  C   UNL A   1      32.526  23.451  23.058  1.00  0.00     0.056 C 
BRANCH   7   9
ATOM      9  C   UNL A   1      34.043  25.145  24.128  1.00  0.00     0.420 C 
ATOM     10  F   UNL A   1      34.136  26.315  23.458  1.00  0.00    -0.168 F 
ATOM     11  F   UNL A   1      34.442  25.406  25.400  1.00  0.00    -0.168 F 
ATOM     12  F   UNL A   1      34.964  24.290  23.628  1.00  0.00    -0.168 F 
ENDBRANCH   7   9
BRANCH   7  13
ATOM     13  N   UNL A   1      32.122  24.161  25.462  1.00  0.00    -0.328 N 
ATOM     14  C   UNL A   1      32.537  23.175  26.320  1.00  0.00     0.288 C 
ATOM     15  H   UNL A   1      31.369  24.697  25.799  1.00  0.00     0.165 HD
ATOM     16  O   UNL A   1      32.180  23.270  27.493  1.00  0.00    -0.266 OA
BRANCH  14  17
ATOM     17  C   UNL A   1      33.370  22.103  25.844  1.00  0.00     0.192 A 
ATOM     18  C   UNL A   1      33.048  20.888  25.270  1.00  0.00     0.057 A 
ATOM     19  O   UNL A   1      34.727  22.273  25.832  1.00  0.00    -0.444 OA
ATOM     20  C   UNL A   1      34.272  20.272  24.913  1.00  0.00     0.059 A 
ATOM     21  C   UNL A   1      35.262  21.166  25.248  1.00  0.00     0.170 A 
ATOM     22  Br  UNL A   1      37.085  20.914  24.948  1.00  0.00    -0.008 Br
ENDBRANCH  14  17
ENDBRANCH   7  13
ENDBRANCH   4   7
ENDBRANCH   2   3
ENDBRANCH   1   2
BRANCH   1  23
ATOM     23  C   UNL A   1      33.470  28.521  27.262  1.00  0.00     0.118 C 
BRANCH  23  24
ATOM     24  N   UNL A   1      33.446  29.916  27.681  1.00  0.00    -0.352 N 
ATOM     25  C   UNL A   1      34.437  30.674  28.260  1.00  0.00     0.251 C 
ATOM     26  H   UNL A   1      32.595  30.386  27.527  1.00  0.00     0.163 HD
ATOM     27  O   UNL A   1      34.182  31.812  28.648  1.00  0.00    -0.269 OA
BRANCH  25  28
ATOM     28  C   UNL A   1      35.791  30.112  28.450  1.00  0.00     0.039 A 
ATOM     29  C   UNL A   1      36.673  30.099  27.364  1.00  0.00     0.014 A 
ATOM     30  C   UNL A   1      36.197  29.614  29.691  1.00  0.00     0.014 A 
ATOM     31  C   UNL A   1      37.991  29.675  27.547  1.00  0.00     0.010 A 
ATOM     32  C   UNL A   1      37.526  29.241  29.884  1.00  0.00     0.010 A 
ATOM     33  C   UNL A   1      38.440  29.288  28.820  1.00  0.00    -0.014 A 
BRANCH  33  34
ATOM     34  C   UNL A   1      39.870  28.976  29.073  1.00  0.00     0.031 A 
ATOM     35  C   UNL A   1      40.799  30.034  29.596  1.00  0.00     0.074 A 
ATOM     36  C   UNL A   1      40.349  27.761  28.741  1.00  0.00     0.049 A 
ATOM     37  N   UNL A   1      42.097  29.986  29.754  1.00  0.00    -0.248 NA
ATOM     38  C   UNL A   1      40.192  31.321  29.968  1.00  0.00     0.031 C 
ATOM     39  C   UNL A   1      39.560  26.661  28.182  1.00  0.00     0.029 A 
ATOM     40  N   UNL A   1      41.623  27.253  28.808  1.00  0.00    -0.354 N 
ATOM     41  C   UNL A   1      42.468  31.242  30.216  1.00  0.00     0.074 A 
ATOM     42  C   UNL A   1      41.259  32.038  30.293  1.00  0.00     0.031 C 
ATOM     43  C   UNL A   1      40.364  25.608  27.966  1.00  0.00     0.029 A 
ATOM     44  C   UNL A   1      41.729  25.967  28.337  1.00  0.00     0.049 A 
ATOM     45  H   UNL A   1      42.389  27.764  29.158  1.00  0.00     0.167 HD
ATOM     46  C   UNL A   1      43.701  31.689  30.555  1.00  0.00     0.037 A 
ATOM     47  C   UNL A   1      42.806  25.168  28.207  1.00  0.00     0.037 A 
ATOM     48  C   UNL A   1      44.896  30.888  30.517  1.00  0.00     0.049 A 
ATOM     49  C   UNL A   1      44.158  25.677  28.615  1.00  0.00     0.074 A 
ATOM     50  C   UNL A   1      46.179  31.235  30.905  1.00  0.00     0.029 A 
ATOM     51  N   UNL A   1      44.955  29.578  30.066  1.00  0.00    -0.354 N 
ATOM     52  N   UNL A   1      44.484  26.856  29.085  1.00  0.00    -0.248 NA
ATOM     53  C   UNL A   1      45.289  24.750  28.469  1.00  0.00     0.031 C 
ATOM     54  C   UNL A   1      47.018  30.137  30.674  1.00  0.00     0.029 A 
ATOM     55  C   UNL A   1      46.253  29.104  30.159  1.00  0.00     0.049 A 
ATOM     56  H   UNL A   1      44.188  29.062  29.730  1.00  0.00     0.167 HD
ATOM     57  C   UNL A   1      45.856  26.810  29.303  1.00  0.00     0.074 A 
ATOM     58  C   UNL A   1      46.298  25.484  28.921  1.00  0.00     0.031 C 
ATOM     59  C   UNL A   1      46.675  27.781  29.774  1.00  0.00     0.037 A 
BRANCH  46  60
ATOM     60  C   UNL A   1      43.814  33.117  31.002  1.00  0.00     0.058 A 
ATOM     61  C   UNL A   1      44.003  34.158  30.082  1.00  0.00     0.135 A 
ATOM     62  C   UNL A   1      43.721  33.449  32.363  1.00  0.00     0.135 A 
ATOM     63  F   UNL A   1      44.114  33.890  28.771  1.00  0.00    -0.206 F 
ATOM     64  C   UNL A   1      44.127  35.480  30.497  1.00  0.00     0.059 A 
ATOM     65  C   UNL A   1      43.825  34.766  32.800  1.00  0.00     0.059 A 
ATOM     66  F   UNL A   1      43.542  32.487  33.283  1.00  0.00    -0.206 F 
ATOM     67  C   UNL A   1      44.045  35.772  31.859  1.00  0.00     0.060 A 
BRANCH  67  68
ATOM     68  S   UNL A   1      44.222  37.488  32.393  1.00  0.00     0.124 S 
ATOM     69  O   UNL A   1      45.626  37.523  32.790  1.00  0.00    -0.237 OA
ATOM     70  O   UNL A   1      43.888  38.235  31.185  1.00  0.00    -0.237 OA
ATOM     71  O   UNL A   1      43.257  37.602  33.482  1.00  0.00    -0.744 OA
ENDBRANCH  67  68
ENDBRANCH  46  60
BRANCH  47  72
ATOM     72  C   UNL A   1      42.641  23.792  27.675  1.00  0.00     0.058 A 
ATOM     73  C   UNL A   1      42.530  22.700  28.545  1.00  0.00     0.135 A 
ATOM     74  C   UNL A   1      42.564  23.549  26.296  1.00  0.00     0.135 A 
ATOM     75  F   UNL A   1      42.604  22.888  29.871  1.00  0.00    -0.206 F 
ATOM     76  C   UNL A   1      42.355  21.406  28.067  1.00  0.00     0.059 A 
ATOM     77  C   UNL A   1      42.374  22.265  25.794  1.00  0.00     0.059 A 
ATOM     78  F   UNL A   1      42.650  24.568  25.427  1.00  0.00    -0.206 F 
ATOM     79  C   UNL A   1      42.278  21.199  26.688  1.00  0.00     0.060 A 
BRANCH  79  80
ATOM     80  S   UNL A   1      41.984  19.526  26.074  1.00  0.00     0.124 S 
ATOM     81  O   UNL A   1      40.547  19.554  25.826  1.00  0.00    -0.237 OA
ATOM     82  O   UNL A   1      42.836  19.474  24.889  1.00  0.00    -0.237 OA
ATOM     83  O   UNL A   1      42.420  18.685  27.184  1.00  0.00    -0.744 OA
ENDBRANCH  79  80
ENDBRANCH  47  72
BRANCH  59  84
ATOM     84  C   UNL A   1      48.128  27.440  29.916  1.00  0.00     0.058 A 
ATOM     85  C   UNL A   1      49.042  27.705  28.884  1.00  0.00     0.135 A 
ATOM     86  C   UNL A   1      48.619  26.887  31.107  1.00  0.00     0.135 A 
ATOM     87  F   UNL A   1      48.616  28.226  27.722  1.00  0.00    -0.206 F 
ATOM     88  C   UNL A   1      50.395  27.421  29.025  1.00  0.00     0.059 A 
ATOM     89  C   UNL A   1      49.971  26.607  31.276  1.00  0.00     0.059 A 
ATOM     90  F   UNL A   1      47.783  26.620  32.123  1.00  0.00    -0.206 F 
ATOM     91  C   UNL A   1      50.851  26.870  30.225  1.00  0.00     0.060 A 
BRANCH  91  92
ATOM     92  S   UNL A   1      52.615  26.539  30.419  1.00  0.00     0.124 S 
ATOM     93  O   UNL A   1      52.601  25.420  31.356  1.00  0.00    -0.237 OA
ATOM     94  O   UNL A   1      53.033  26.221  29.058  1.00  0.00    -0.237 OA
ATOM     95  O   UNL A   1      53.136  27.797  30.949  1.00  0.00    -0.744 OA
ENDBRANCH  91  92
ENDBRANCH  59  84
ENDBRANCH  33  34
ENDBRANCH  25  28
ENDBRANCH  23  24
ENDBRANCH   1  23
TORSDOF 16
ENDMDL
MODEL 3
REMARK VINA RESULT:     -11.5      6.743     12.113
REMARK SMILES C[C@](NC(=O)c1ccc(Br)o1)(C(=O)NCCCNC(=O)c1ccc(-c2c3nc(c(-c4c(F)cc(S(=O)(=O)[O-])cc4F)c4ccc([nH]4)c(-c4c(F)cc(S(=O)(=O)[O-])cc4F)c4nc(c(-c5c(F)cc(S(=O)(=O)[O-])cc5F)c5ccc2[nH]5)C=C4)C=C3)cc1)C(F)(F)F
REMARK SMILES IDX 16 1 15 2 14 3 12 4 13 5 2 7 1 8 87 9 88 10 89 11 90 12 3 13
REMARK SMILES IDX 4 14 5 16 6 17 7 18 11 19 8 20 9 21 10 22 17 23 18 24 19 25
REMARK SMILES IDX 20 27 21 28 22 29 86 30 23 31 85 32 24 33 25 34 26 35 79 36
REMARK SMILES IDX 27 37 84 38 78 39 80 40 28 41 83 42 77 43 76 44 29 46 63 47
REMARK SMILES IDX 42 48 62 49 43 50 46 51 61 52 81 53 44 54 45 55 60 57 82 58
REMARK SMILES IDX 47 59 30 60 31 61 40 62 32 63 33 64 39 65 41 66 34 67 35 68
REMARK SMILES IDX 36 69 37 70 38 71 64 72 65 73 74 74 66 75 67 76 73 77 75 78
REMARK SMILES IDX 68 79 69 80 70 81 71 82 72 83 48 84 49 85 58 86 50 87 51 88
REMARK SMILES IDX 57 89 59 90 52 91 53 92 54 93 55 94 56 95
REMARK H PARENT 14 6 3 15 18 26 80 45 46 56
REMARK Flexibility Score: inf
ROOT
ATOM      1  C   UNL A   1      34.071  30.247  26.727  1.00  0.00     0.042 C 
ENDROOT
BRANCH   1   2
ATOM      2  C   UNL A   1      33.181  29.241  26.005  1.00  0.00     0.117 C 
BRANCH   2   3
ATOM      3  N   UNL A   1      32.996  29.563  24.597  1.00  0.00    -0.354 N 
ATOM      4  C   UNL A   1      32.741  28.787  23.501  1.00  0.00     0.254 C 
ATOM      5  O   UNL A   1      32.434  29.408  22.481  1.00  0.00    -0.272 OA
ATOM      6  H   UNL A   1      33.068  30.524  24.396  1.00  0.00     0.163 HD
BRANCH   4   7
ATOM      7  C   UNL A   1      32.722  27.243  23.577  1.00  0.00     0.212 C 
ATOM      8  C   UNL A   1      33.788  26.796  24.587  1.00  0.00     0.056 C 
BRANCH   7   9
ATOM      9  C   UNL A   1      31.320  26.868  24.119  1.00  0.00     0.420 C 
ATOM     10  F   UNL A   1      30.501  27.940  24.205  1.00  0.00    -0.168 F 
ATOM     11  F   UNL A   1      30.701  25.987  23.291  1.00  0.00    -0.168 F 
ATOM     12  F   UNL A   1      31.363  26.262  25.326  1.00  0.00    -0.168 F 
ENDBRANCH   7   9
BRANCH   7  13
ATOM     13  N   UNL A   1      32.961  26.746  22.187  1.00  0.00    -0.328 N 
ATOM     14  C   UNL A   1      33.174  25.485  21.693  1.00  0.00     0.288 C 
ATOM     15  H   UNL A   1      32.968  27.454  21.502  1.00  0.00     0.165 HD
ATOM     16  O   UNL A   1      33.020  25.327  20.484  1.00  0.00    -0.266 OA
BRANCH  14  17
ATOM     17  C   UNL A   1      33.539  24.412  22.578  1.00  0.00     0.192 A 
ATOM     18  C   UNL A   1      32.766  23.475  23.238  1.00  0.00     0.057 A 
ATOM     19  O   UNL A   1      34.864  24.140  22.781  1.00  0.00    -0.444 OA
ATOM     20  C   UNL A   1      33.664  22.602  23.899  1.00  0.00     0.059 A 
ATOM     21  C   UNL A   1      34.928  23.031  23.566  1.00  0.00     0.170 A 
ATOM     22  Br  UNL A   1      36.516  22.215  24.104  1.00  0.00    -0.008 Br
ENDBRANCH  14  17
ENDBRANCH   7  13
ENDBRANCH   4   7
ENDBRANCH   2   3
ENDBRANCH   1   2
BRANCH   1  23
ATOM     23  C   UNL A   1      35.031  29.653  27.756  1.00  0.00     0.118 C 
BRANCH  23  24
ATOM     24  N   UNL A   1      35.139  30.444  28.974  1.00  0.00    -0.352 N 
ATOM     25  C   UNL A   1      36.204  30.591  29.831  1.00  0.00     0.251 C 
ATOM     26  H   UNL A   1      34.331  30.949  29.219  1.00  0.00     0.163 HD
ATOM     27  O   UNL A   1      36.060  31.220  30.877  1.00  0.00    -0.269 OA
BRANCH  25  28
ATOM     28  C   UNL A   1      37.506  29.963  29.517  1.00  0.00     0.039 A 
ATOM     29  C   UNL A   1      37.975  30.009  28.201  1.00  0.00     0.014 A 
ATOM     30  C   UNL A   1      38.268  29.347  30.513  1.00  0.00     0.014 A 
ATOM     31  C   UNL A   1      39.249  29.522  27.901  1.00  0.00     0.010 A 
ATOM     32  C   UNL A   1      39.559  28.909  30.224  1.00  0.00     0.010 A 
ATOM     33  C   UNL A   1      40.069  29.012  28.920  1.00  0.00    -0.014 A 
BRANCH  33  34
ATOM     34  C   UNL A   1      41.479  28.625  28.658  1.00  0.00     0.031 A 
ATOM     35  C   UNL A   1      42.567  29.661  28.668  1.00  0.00     0.074 A 
ATOM     36  C   UNL A   1      41.762  27.352  28.317  1.00  0.00     0.049 A 
ATOM     37  N   UNL A   1      43.826  29.537  28.335  1.00  0.00    -0.248 NA
ATOM     38  C   UNL A   1      42.183  31.018  29.083  1.00  0.00     0.031 C 
ATOM     39  C   UNL A   1      40.789  26.262  28.228  1.00  0.00     0.029 A 
ATOM     40  N   UNL A   1      42.951  26.765  27.964  1.00  0.00    -0.354 N 
ATOM     41  C   UNL A   1      44.380  30.803  28.473  1.00  0.00     0.074 A 
ATOM     42  C   UNL A   1      43.313  31.686  28.900  1.00  0.00     0.031 C 
ATOM     43  C   UNL A   1      41.421  25.138  27.854  1.00  0.00     0.029 A 
ATOM     44  C   UNL A   1      42.835  25.433  27.644  1.00  0.00     0.049 A 
ATOM     45  H   UNL A   1      43.807  27.251  27.941  1.00  0.00     0.167 HD
ATOM     46  C   UNL A   1      45.662  31.193  28.272  1.00  0.00     0.037 A 
ATOM     47  C   UNL A   1      43.758  24.551  27.218  1.00  0.00     0.037 A 
ATOM     48  C   UNL A   1      46.730  30.309  27.887  1.00  0.00     0.049 A 
ATOM     49  C   UNL A   1      45.178  25.001  27.029  1.00  0.00     0.074 A 
ATOM     50  C   UNL A   1      48.074  30.600  27.725  1.00  0.00     0.029 A 
ATOM     51  N   UNL A   1      46.577  28.960  27.605  1.00  0.00    -0.354 N 
ATOM     52  N   UNL A   1      45.691  26.194  27.201  1.00  0.00    -0.248 NA
ATOM     53  C   UNL A   1      46.143  23.985  26.583  1.00  0.00     0.031 C 
ATOM     54  C   UNL A   1      48.731  29.428  27.330  1.00  0.00     0.029 A 
ATOM     55  C   UNL A   1      47.799  28.405  27.263  1.00  0.00     0.049 A 
ATOM     56  H   UNL A   1      45.725  28.468  27.643  1.00  0.00     0.167 HD
ATOM     57  C   UNL A   1      47.042  26.073  26.895  1.00  0.00     0.074 A 
ATOM     58  C   UNL A   1      47.268  24.686  26.536  1.00  0.00     0.031 C 
ATOM     59  C   UNL A   1      48.006  27.025  26.908  1.00  0.00     0.037 A 
BRANCH  46  60
ATOM     60  C   UNL A   1      45.976  32.646  28.472  1.00  0.00     0.058 A 
ATOM     61  C   UNL A   1      45.898  33.563  27.414  1.00  0.00     0.135 A 
ATOM     62  C   UNL A   1      46.349  33.128  29.737  1.00  0.00     0.135 A 
ATOM     63  F   UNL A   1      45.562  33.147  26.183  1.00  0.00    -0.206 F 
ATOM     64  C   UNL A   1      46.207  34.907  27.594  1.00  0.00     0.059 A 
ATOM     65  C   UNL A   1      46.646  34.472  29.944  1.00  0.00     0.059 A 
ATOM     66  F   UNL A   1      46.440  32.290  30.781  1.00  0.00    -0.206 F 
ATOM     67  C   UNL A   1      46.589  35.350  28.861  1.00  0.00     0.060 A 
BRANCH  67  68
ATOM     68  S   UNL A   1      47.005  37.092  29.085  1.00  0.00     0.124 S 
ATOM     69  O   UNL A   1      45.936  37.743  28.335  1.00  0.00    -0.237 OA
ATOM     70  O   UNL A   1      46.947  37.251  30.534  1.00  0.00    -0.237 OA
ATOM     71  O   UNL A   1      48.338  37.198  28.501  1.00  0.00    -0.744 OA
ENDBRANCH  67  68
ENDBRANCH  46  60
BRANCH  47  72
ATOM     72  C   UNL A   1      43.365  23.145  26.953  1.00  0.00     0.058 A 
ATOM     73  C   UNL A   1      43.286  22.661  25.640  1.00  0.00     0.135 A 
ATOM     74  C   UNL A   1      43.090  22.256  28.002  1.00  0.00     0.135 A 
ATOM     75  F   UNL A   1      43.536  23.480  24.608  1.00  0.00    -0.206 F 
ATOM     76  C   UNL A   1      42.940  21.342  25.373  1.00  0.00     0.059 A 
ATOM     77  C   UNL A   1      42.756  20.927  27.760  1.00  0.00     0.059 A 
ATOM     78  F   UNL A   1      43.169  22.672  29.275  1.00  0.00    -0.206 F 
ATOM     79  C   UNL A   1      42.677  20.482  26.441  1.00  0.00     0.060 A 
BRANCH  79  80
ATOM     80  S   UNL A   1      42.292  18.751  26.091  1.00  0.00     0.124 S 
ATOM     81  O   UNL A   1      42.553  18.127  27.383  1.00  0.00    -0.237 OA
ATOM     82  O   UNL A   1      40.891  18.819  25.686  1.00  0.00    -0.237 OA
ATOM     83  O   UNL A   1      43.227  18.414  25.022  1.00  0.00    -0.744 OA
ENDBRANCH  79  80
ENDBRANCH  47  72
BRANCH  59  84
ATOM     84  C   UNL A   1      49.394  26.597  26.538  1.00  0.00     0.058 A 
ATOM     85  C   UNL A   1      50.288  26.110  27.504  1.00  0.00     0.135 A 
ATOM     86  C   UNL A   1      49.819  26.630  25.201  1.00  0.00     0.135 A 
ATOM     87  F   UNL A   1      49.929  26.069  28.797  1.00  0.00    -0.206 F 
ATOM     88  C   UNL A   1      51.565  25.682  27.158  1.00  0.00     0.059 A 
ATOM     89  C   UNL A   1      51.087  26.193  24.831  1.00  0.00     0.059 A 
ATOM     90  F   UNL A   1      48.997  27.084  24.242  1.00  0.00    -0.206 F 
ATOM     91  C   UNL A   1      51.956  25.728  25.818  1.00  0.00     0.060 A 
BRANCH  91  92
ATOM     92  S   UNL A   1      53.600  25.133  25.367  1.00  0.00     0.124 S 
ATOM     93  O   UNL A   1      54.410  25.654  26.463  1.00  0.00    -0.237 OA
ATOM     94  O   UNL A   1      53.420  23.685  25.346  1.00  0.00    -0.237 OA
ATOM     95  O   UNL A   1      53.834  25.747  24.063  1.00  0.00    -0.744 OA
ENDBRANCH  91  92
ENDBRANCH  59  84
ENDBRANCH  33  34
ENDBRANCH  25  28
ENDBRANCH  23  24
ENDBRANCH   1  23
TORSDOF 16
ENDMDL
