MODEL 1
REMARK VINA RESULT:     -12.5      0.000      0.000
REMARK SMILES O=C(Cc1cc(=O)[nH]c(=O)[nH]1)Nc1cccc(C(=O)NCCCNC(=O)c2ccc(-c3c4nc(c(-c5c(F)cc(S(=O)(=O)[O-])cc5F)c5ccc([nH]5)c(-c5c(F)cc(S(=O)(=O)[O-])cc5F)c5nc(c(-c6c(F)cc(S(=O)(=O)[O-])cc6F)c6ccc3[nH]6)C=C5)C=C4)cc2)c1
REMARK SMILES IDX 22 1 21 2 20 3 18 4 19 5 17 7 13 8 14 9 93 10 15 11 16 12
REMARK SMILES IDX 12 13 1 14 2 15 3 17 4 18 5 19 11 20 6 21 9 22 7 24 8 25
REMARK SMILES IDX 10 26 23 28 24 29 25 30 26 32 27 33 28 34 92 35 29 36 91 37
REMARK SMILES IDX 30 38 31 39 32 40 85 41 33 42 90 43 84 44 86 45 34 46 89 47
REMARK SMILES IDX 83 48 82 49 35 51 69 52 48 53 68 54 49 55 52 56 67 57 87 58
REMARK SMILES IDX 50 59 51 60 66 62 88 63 53 64 36 65 37 66 46 67 38 68 39 69
REMARK SMILES IDX 45 70 47 71 40 72 41 73 42 74 43 75 44 76 70 77 71 78 80 79
REMARK SMILES IDX 72 80 73 81 79 82 81 83 74 84 75 85 76 86 77 87 78 88 54 89
REMARK SMILES IDX 55 90 64 91 56 92 57 93 63 94 65 95 58 96 59 97 60 98 61 99
REMARK SMILES IDX 62 100
REMARK H PARENT 20 6 12 16 11 23 8 27 24 31 86 50 52 61
REMARK Flexibility Score: inf
ROOT
ATOM      1  C   UNL A   1      33.489  28.057  26.102  1.00  0.00     0.042 C 
ENDROOT
BRANCH   1   2
ATOM      2  C   UNL A   1      32.309  27.330  25.475  1.00  0.00     0.118 C 
BRANCH   2   3
ATOM      3  N   UNL A   1      31.716  26.290  26.314  1.00  0.00    -0.352 N 
ATOM      4  C   UNL A   1      31.946  24.933  26.415  1.00  0.00     0.251 C 
ATOM      5  O   UNL A   1      31.287  24.284  27.228  1.00  0.00    -0.269 OA
ATOM      6  H   UNL A   1      31.020  26.621  26.925  1.00  0.00     0.163 HD
BRANCH   4   7
ATOM      7  C   UNL A   1      32.897  24.217  25.525  1.00  0.00     0.041 A 
ATOM      8  C   UNL A   1      33.348  22.366  24.046  1.00  0.00     0.041 A 
ATOM      9  C   UNL A   1      34.721  22.544  24.245  1.00  0.00     0.026 A 
ATOM     10  C   UNL A   1      32.465  23.306  24.566  1.00  0.00     0.040 A 
ATOM     11  C   UNL A   1      35.184  23.601  25.031  1.00  0.00     0.003 A 
ATOM     12  C   UNL A   1      34.271  24.409  25.709  1.00  0.00     0.014 A 
BRANCH   8  13
ATOM     13  N   UNL A   1      32.907  21.151  23.479  1.00  0.00    -0.326 N 
ATOM     14  O   UNL A   1      32.134  19.975  25.342  1.00  0.00    -0.274 OA
ATOM     15  C   UNL A   1      32.492  20.017  24.167  1.00  0.00     0.230 C 
ATOM     16  H   UNL A   1      32.891  21.103  22.497  1.00  0.00     0.169 HD
BRANCH  15  17
ATOM     17  C   UNL A   1      32.588  18.728  23.353  1.00  0.00     0.154 C 
BRANCH  17  18
ATOM     18  C   UNL A   1      33.077  17.588  24.196  1.00  0.00     0.034 A 
ATOM     19  C   UNL A   1      34.380  17.367  24.422  1.00  0.00     0.093 A 
ATOM     20  N   UNL A   1      32.136  16.746  24.737  1.00  0.00    -0.311 N 
ATOM     21  C   UNL A   1      34.781  16.175  25.190  1.00  0.00     0.253 A 
ATOM     22  C   UNL A   1      32.436  15.655  25.507  1.00  0.00     0.325 A 
ATOM     23  H   UNL A   1      31.187  16.941  24.562  1.00  0.00     0.171 HD
ATOM     24  O   UNL A   1      35.965  15.871  25.301  1.00  0.00    -0.269 OA
ATOM     25  N   UNL A   1      33.768  15.424  25.706  1.00  0.00    -0.274 N 
ATOM     26  O   UNL A   1      31.568  14.924  25.965  1.00  0.00    -0.248 OA
ATOM     27  H   UNL A   1      34.015  14.654  26.267  1.00  0.00     0.175 HD
ENDBRANCH  17  18
ENDBRANCH  15  17
ENDBRANCH   8  13
ENDBRANCH   4   7
ENDBRANCH   2   3
ENDBRANCH   1   2
BRANCH   1  28
ATOM     28  C   UNL A   1      33.283  28.499  27.539  1.00  0.00     0.118 C 
BRANCH  28  29
ATOM     29  N   UNL A   1      33.405  29.941  27.719  1.00  0.00    -0.352 N 
ATOM     30  C   UNL A   1      34.454  30.718  28.151  1.00  0.00     0.251 C 
ATOM     31  H   UNL A   1      32.593  30.448  27.489  1.00  0.00     0.163 HD
ATOM     32  O   UNL A   1      34.259  31.909  28.384  1.00  0.00    -0.269 OA
BRANCH  30  33
ATOM     33  C   UNL A   1      35.800  30.139  28.373  1.00  0.00     0.039 A 
ATOM     34  C   UNL A   1      36.701  30.097  27.304  1.00  0.00     0.014 A 
ATOM     35  C   UNL A   1      36.178  29.624  29.613  1.00  0.00     0.014 A 
ATOM     36  C   UNL A   1      38.006  29.638  27.509  1.00  0.00     0.010 A 
ATOM     37  C   UNL A   1      37.502  29.259  29.841  1.00  0.00     0.010 A 
ATOM     38  C   UNL A   1      38.435  29.273  28.795  1.00  0.00    -0.014 A 
BRANCH  38  39
ATOM     39  C   UNL A   1      39.860  28.947  29.077  1.00  0.00     0.031 A 
ATOM     40  C   UNL A   1      40.792  29.997  29.619  1.00  0.00     0.074 A 
ATOM     41  C   UNL A   1      40.330  27.725  28.757  1.00  0.00     0.049 A 
ATOM     42  N   UNL A   1      42.080  29.923  29.836  1.00  0.00    -0.248 NA
ATOM     43  C   UNL A   1      40.206  31.310  29.935  1.00  0.00     0.031 C 
ATOM     44  C   UNL A   1      39.537  26.639  28.176  1.00  0.00     0.029 A 
ATOM     45  N   UNL A   1      41.591  27.191  28.861  1.00  0.00    -0.354 N 
ATOM     46  C   UNL A   1      42.460  31.176  30.302  1.00  0.00     0.074 A 
ATOM     47  C   UNL A   1      41.277  32.009  30.284  1.00  0.00     0.031 C 
ATOM     48  C   UNL A   1      40.322  25.565  27.997  1.00  0.00     0.029 A 
ATOM     49  C   UNL A   1      41.684  25.898  28.400  1.00  0.00     0.049 A 
ATOM     50  H   UNL A   1      42.358  27.687  29.230  1.00  0.00     0.167 HD
ATOM     51  C   UNL A   1      43.680  31.589  30.724  1.00  0.00     0.037 A 
ATOM     52  C   UNL A   1      42.747  25.076  28.296  1.00  0.00     0.037 A 
ATOM     53  C   UNL A   1      44.849  30.748  30.752  1.00  0.00     0.049 A 
ATOM     54  C   UNL A   1      44.095  25.565  28.748  1.00  0.00     0.074 A 
ATOM     55  C   UNL A   1      46.116  31.052  31.221  1.00  0.00     0.029 A 
ATOM     56  N   UNL A   1      44.900  29.443  30.283  1.00  0.00    -0.354 N 
ATOM     57  N   UNL A   1      44.420  26.731  29.255  1.00  0.00    -0.248 NA
ATOM     58  C   UNL A   1      45.221  24.630  28.616  1.00  0.00     0.031 C 
ATOM     59  C   UNL A   1      46.946  29.951  30.983  1.00  0.00     0.029 A 
ATOM     60  C   UNL A   1      46.185  28.940  30.420  1.00  0.00     0.049 A 
ATOM     61  H   UNL A   1      44.137  28.947  29.909  1.00  0.00     0.167 HD
ATOM     62  C   UNL A   1      45.784  26.663  29.519  1.00  0.00     0.074 A 
ATOM     63  C   UNL A   1      46.217  25.335  29.135  1.00  0.00     0.031 C 
ATOM     64  C   UNL A   1      46.602  27.615  30.030  1.00  0.00     0.037 A 
BRANCH  51  65
ATOM     65  C   UNL A   1      43.815  33.013  31.193  1.00  0.00     0.058 A 
ATOM     66  C   UNL A   1      44.247  34.036  30.334  1.00  0.00     0.135 A 
ATOM     67  C   UNL A   1      43.464  33.370  32.506  1.00  0.00     0.135 A 
ATOM     68  F   UNL A   1      44.608  33.753  29.072  1.00  0.00    -0.206 F 
ATOM     69  C   UNL A   1      44.355  35.354  30.766  1.00  0.00     0.059 A 
ATOM     70  C   UNL A   1      43.534  34.687  32.951  1.00  0.00     0.059 A 
ATOM     71  F   UNL A   1      43.043  32.433  33.371  1.00  0.00    -0.206 F 
ATOM     72  C   UNL A   1      43.994  35.671  32.077  1.00  0.00     0.060 A 
BRANCH  72  73
ATOM     73  S   UNL A   1      44.132  37.387  32.617  1.00  0.00     0.124 S 
ATOM     74  O   UNL A   1      45.537  37.458  33.008  1.00  0.00    -0.237 OA
ATOM     75  O   UNL A   1      43.774  38.123  31.407  1.00  0.00    -0.237 OA
ATOM     76  O   UNL A   1      43.171  37.479  33.711  1.00  0.00    -0.744 OA
ENDBRANCH  72  73
ENDBRANCH  51  65
BRANCH  52  77
ATOM     77  C   UNL A   1      42.575  23.705  27.742  1.00  0.00     0.058 A 
ATOM     78  C   UNL A   1      42.595  23.478  26.359  1.00  0.00     0.135 A 
ATOM     79  C   UNL A   1      42.403  22.595  28.583  1.00  0.00     0.135 A 
ATOM     80  F   UNL A   1      42.748  24.507  25.512  1.00  0.00    -0.206 F 
ATOM     81  C   UNL A   1      42.440  22.202  25.826  1.00  0.00     0.059 A 
ATOM     82  C   UNL A   1      42.274  21.305  28.077  1.00  0.00     0.059 A 
ATOM     83  F   UNL A   1      42.393  22.753  29.916  1.00  0.00    -0.206 F 
ATOM     84  C   UNL A   1      42.286  21.120  26.695  1.00  0.00     0.060 A 
BRANCH  84  85
ATOM     85  S   UNL A   1      42.146  19.461  25.997  1.00  0.00     0.124 S 
ATOM     86  O   UNL A   1      42.714  18.644  27.063  1.00  0.00    -0.237 OA
ATOM     87  O   UNL A   1      40.706  19.336  25.791  1.00  0.00    -0.237 OA
ATOM     88  O   UNL A   1      42.939  19.545  24.774  1.00  0.00    -0.744 OA
ENDBRANCH  84  85
ENDBRANCH  52  77
BRANCH  64  89
ATOM     89  C   UNL A   1      48.050  27.254  30.219  1.00  0.00     0.058 A 
ATOM     90  C   UNL A   1      48.990  27.411  29.188  1.00  0.00     0.135 A 
ATOM     91  C   UNL A   1      48.515  26.796  31.463  1.00  0.00     0.135 A 
ATOM     92  F   UNL A   1      48.598  27.836  27.977  1.00  0.00    -0.206 F 
ATOM     93  C   UNL A   1      50.334  27.109  29.377  1.00  0.00     0.059 A 
ATOM     94  C   UNL A   1      49.860  26.517  31.684  1.00  0.00     0.059 A 
ATOM     95  F   UNL A   1      47.660  26.635  32.487  1.00  0.00    -0.206 F 
ATOM     96  C   UNL A   1      50.760  26.667  30.631  1.00  0.00     0.060 A 
BRANCH  96  97
ATOM     97  S   UNL A   1      52.515  26.318  30.872  1.00  0.00     0.124 S 
ATOM     98  O   UNL A   1      52.948  27.489  31.627  1.00  0.00    -0.237 OA
ATOM     99  O   UNL A   1      52.483  25.061  31.614  1.00  0.00    -0.237 OA
ATOM    100  O   UNL A   1      53.033  26.222  29.510  1.00  0.00    -0.744 OA
ENDBRANCH  96  97
ENDBRANCH  64  89
ENDBRANCH  38  39
ENDBRANCH  30  33
ENDBRANCH  28  29
ENDBRANCH   1  28
TORSDOF 16
ENDMDL
MODEL 2
REMARK VINA RESULT:     -12.2      2.016      2.878
REMARK SMILES O=C(Cc1cc(=O)[nH]c(=O)[nH]1)Nc1cccc(C(=O)NCCCNC(=O)c2ccc(-c3c4nc(c(-c5c(F)cc(S(=O)(=O)[O-])cc5F)c5ccc([nH]5)c(-c5c(F)cc(S(=O)(=O)[O-])cc5F)c5nc(c(-c6c(F)cc(S(=O)(=O)[O-])cc6F)c6ccc3[nH]6)C=C5)C=C4)cc2)c1
REMARK SMILES IDX 22 1 21 2 20 3 18 4 19 5 17 7 13 8 14 9 93 10 15 11 16 12
REMARK SMILES IDX 12 13 1 14 2 15 3 17 4 18 5 19 11 20 6 21 9 22 7 24 8 25
REMARK SMILES IDX 10 26 23 28 24 29 25 30 26 32 27 33 28 34 92 35 29 36 91 37
REMARK SMILES IDX 30 38 31 39 32 40 85 41 33 42 90 43 84 44 86 45 34 46 89 47
REMARK SMILES IDX 83 48 82 49 35 51 69 52 48 53 68 54 49 55 52 56 67 57 87 58
REMARK SMILES IDX 50 59 51 60 66 62 88 63 53 64 36 65 37 66 46 67 38 68 39 69
REMARK SMILES IDX 45 70 47 71 40 72 41 73 42 74 43 75 44 76 70 77 71 78 80 79
REMARK SMILES IDX 72 80 73 81 79 82 81 83 74 84 75 85 76 86 77 87 78 88 54 89
REMARK SMILES IDX 55 90 64 91 56 92 57 93 63 94 65 95 58 96 59 97 60 98 61 99
REMARK SMILES IDX 62 100
REMARK H PARENT 20 6 12 16 11 23 8 27 24 31 86 50 52 61
REMARK Flexibility Score: inf
ROOT
ATOM      1  C   UNL A   1      33.858  28.482  25.727  1.00  0.00     0.042 C 
ENDROOT
BRANCH   1   2
ATOM      2  C   UNL A   1      32.936  29.206  24.759  1.00  0.00     0.118 C 
BRANCH   2   3
ATOM      3  N   UNL A   1      32.626  28.464  23.538  1.00  0.00    -0.352 N 
ATOM      4  C   UNL A   1      32.033  27.237  23.321  1.00  0.00     0.251 C 
ATOM      5  O   UNL A   1      31.892  26.849  22.161  1.00  0.00    -0.269 OA
ATOM      6  H   UNL A   1      32.891  28.929  22.712  1.00  0.00     0.163 HD
BRANCH   4   7
ATOM      7  C   UNL A   1      31.634  26.336  24.434  1.00  0.00     0.041 A 
ATOM      8  C   UNL A   1      31.888  24.228  25.577  1.00  0.00     0.041 A 
ATOM      9  C   UNL A   1      30.627  24.393  26.159  1.00  0.00     0.026 A 
ATOM     10  C   UNL A   1      32.436  25.277  24.847  1.00  0.00     0.040 A 
ATOM     11  C   UNL A   1      29.898  25.563  25.931  1.00  0.00     0.003 A 
ATOM     12  C   UNL A   1      30.380  26.513  25.031  1.00  0.00     0.014 A 
BRANCH   8  13
ATOM     13  N   UNL A   1      32.473  22.944  25.605  1.00  0.00    -0.326 N 
ATOM     14  O   UNL A   1      33.161  22.750  27.828  1.00  0.00    -0.274 OA
ATOM     15  C   UNL A   1      33.187  22.381  26.656  1.00  0.00     0.230 C 
ATOM     16  H   UNL A   1      32.364  22.391  24.799  1.00  0.00     0.169 HD
BRANCH  15  17
ATOM     17  C   UNL A   1      34.128  21.254  26.234  1.00  0.00     0.154 C 
BRANCH  17  18
ATOM     18  C   UNL A   1      35.338  21.791  25.528  1.00  0.00     0.034 A 
ATOM     19  C   UNL A   1      35.292  22.246  24.268  1.00  0.00     0.093 A 
ATOM     20  N   UNL A   1      36.526  21.798  26.217  1.00  0.00    -0.311 N 
ATOM     21  C   UNL A   1      36.543  22.678  23.617  1.00  0.00     0.253 A 
ATOM     22  C   UNL A   1      37.712  22.238  25.693  1.00  0.00     0.325 A 
ATOM     23  H   UNL A   1      36.524  21.468  27.144  1.00  0.00     0.171 HD
ATOM     24  O   UNL A   1      36.560  22.972  22.426  1.00  0.00    -0.269 OA
ATOM     25  N   UNL A   1      37.659  22.672  24.399  1.00  0.00    -0.274 N 
ATOM     26  O   UNL A   1      38.752  22.221  26.337  1.00  0.00    -0.248 OA
ATOM     27  H   UNL A   1      38.493  23.007  24.000  1.00  0.00     0.175 HD
ENDBRANCH  17  18
ENDBRANCH  15  17
ENDBRANCH   8  13
ENDBRANCH   4   7
ENDBRANCH   2   3
ENDBRANCH   1   2
BRANCH   1  28
ATOM     28  C   UNL A   1      33.493  28.623  27.194  1.00  0.00     0.118 C 
BRANCH  28  29
ATOM     29  N   UNL A   1      33.540  30.001  27.667  1.00  0.00    -0.352 N 
ATOM     30  C   UNL A   1      34.529  30.708  28.311  1.00  0.00     0.251 C 
ATOM     31  H   UNL A   1      32.720  30.518  27.493  1.00  0.00     0.163 HD
ATOM     32  O   UNL A   1      34.268  31.820  28.766  1.00  0.00    -0.269 OA
BRANCH  30  33
ATOM     33  C   UNL A   1      35.885  30.140  28.495  1.00  0.00     0.039 A 
ATOM     34  C   UNL A   1      36.769  30.139  27.411  1.00  0.00     0.014 A 
ATOM     35  C   UNL A   1      36.290  29.597  29.715  1.00  0.00     0.014 A 
ATOM     36  C   UNL A   1      38.082  29.691  27.582  1.00  0.00     0.010 A 
ATOM     37  C   UNL A   1      37.622  29.243  29.911  1.00  0.00     0.010 A 
ATOM     38  C   UNL A   1      38.538  29.297  28.850  1.00  0.00    -0.014 A 
BRANCH  38  39
ATOM     39  C   UNL A   1      39.970  28.982  29.100  1.00  0.00     0.031 A 
ATOM     40  C   UNL A   1      40.906  30.038  29.623  1.00  0.00     0.074 A 
ATOM     41  C   UNL A   1      40.443  27.764  28.769  1.00  0.00     0.049 A 
ATOM     42  N   UNL A   1      42.199  29.974  29.811  1.00  0.00    -0.248 NA
ATOM     43  C   UNL A   1      40.317  31.346  29.953  1.00  0.00     0.031 C 
ATOM     44  C   UNL A   1      39.645  26.672  28.204  1.00  0.00     0.029 A 
ATOM     45  N   UNL A   1      41.710  27.239  28.844  1.00  0.00    -0.354 N 
ATOM     46  C   UNL A   1      42.580  31.230  30.269  1.00  0.00     0.074 A 
ATOM     47  C   UNL A   1      41.390  32.053  30.279  1.00  0.00     0.031 C 
ATOM     48  C   UNL A   1      40.434  25.604  28.007  1.00  0.00     0.029 A 
ATOM     49  C   UNL A   1      41.802  25.947  28.379  1.00  0.00     0.049 A 
ATOM     50  H   UNL A   1      42.481  27.741  29.196  1.00  0.00     0.167 HD
ATOM     51  C   UNL A   1      43.805  31.652  30.665  1.00  0.00     0.037 A 
ATOM     52  C   UNL A   1      42.869  25.134  28.250  1.00  0.00     0.037 A 
ATOM     53  C   UNL A   1      44.982  30.820  30.666  1.00  0.00     0.049 A 
ATOM     54  C   UNL A   1      44.223  25.633  28.673  1.00  0.00     0.074 A 
ATOM     55  C   UNL A   1      46.256  31.132  31.106  1.00  0.00     0.029 A 
ATOM     56  N   UNL A   1      45.033  29.515  30.194  1.00  0.00    -0.354 N 
ATOM     57  N   UNL A   1      44.551  26.801  29.174  1.00  0.00    -0.248 NA
ATOM     58  C   UNL A   1      45.353  24.707  28.515  1.00  0.00     0.031 C 
ATOM     59  C   UNL A   1      47.090  30.039  30.849  1.00  0.00     0.029 A 
ATOM     60  C   UNL A   1      46.323  29.022  30.302  1.00  0.00     0.049 A 
ATOM     61  H   UNL A   1      44.265  29.014  29.837  1.00  0.00     0.167 HD
ATOM     62  C   UNL A   1      45.920  26.743  29.408  1.00  0.00     0.074 A 
ATOM     63  C   UNL A   1      46.355  25.419  29.013  1.00  0.00     0.031 C 
ATOM     64  C   UNL A   1      46.742  27.701  29.901  1.00  0.00     0.037 A 
BRANCH  51  65
ATOM     65  C   UNL A   1      43.940  33.076  31.132  1.00  0.00     0.058 A 
ATOM     66  C   UNL A   1      44.392  34.095  30.278  1.00  0.00     0.135 A 
ATOM     67  C   UNL A   1      43.569  33.438  32.439  1.00  0.00     0.135 A 
ATOM     68  F   UNL A   1      44.773  33.806  29.023  1.00  0.00    -0.206 F 
ATOM     69  C   UNL A   1      44.500  35.413  30.709  1.00  0.00     0.059 A 
ATOM     70  C   UNL A   1      43.639  34.757  32.881  1.00  0.00     0.059 A 
ATOM     71  F   UNL A   1      43.129  32.506  33.299  1.00  0.00    -0.206 F 
ATOM     72  C   UNL A   1      44.119  35.735  32.012  1.00  0.00     0.060 A 
BRANCH  72  73
ATOM     73  S   UNL A   1      44.256  37.453  32.550  1.00  0.00     0.124 S 
ATOM     74  O   UNL A   1      45.662  37.525  32.938  1.00  0.00    -0.237 OA
ATOM     75  O   UNL A   1      43.894  38.186  31.340  1.00  0.00    -0.237 OA
ATOM     76  O   UNL A   1      43.297  37.545  33.646  1.00  0.00    -0.744 OA
ENDBRANCH  72  73
ENDBRANCH  51  65
BRANCH  52  77
ATOM     77  C   UNL A   1      42.695  23.763  27.699  1.00  0.00     0.058 A 
ATOM     78  C   UNL A   1      42.522  22.660  28.548  1.00  0.00     0.135 A 
ATOM     79  C   UNL A   1      42.681  23.529  26.316  1.00  0.00     0.135 A 
ATOM     80  F   UNL A   1      42.535  22.830  29.879  1.00  0.00    -0.206 F 
ATOM     81  C   UNL A   1      42.354  21.372  28.049  1.00  0.00     0.059 A 
ATOM     82  C   UNL A   1      42.486  22.254  25.790  1.00  0.00     0.059 A 
ATOM     83  F   UNL A   1      42.825  24.550  25.457  1.00  0.00    -0.206 F 
ATOM     84  C   UNL A   1      42.332  21.182  26.666  1.00  0.00     0.060 A 
BRANCH  84  85
ATOM     85  S   UNL A   1      42.053  19.516  26.026  1.00  0.00     0.124 S 
ATOM     86  O   UNL A   1      42.925  19.499  24.858  1.00  0.00    -0.237 OA
ATOM     87  O   UNL A   1      42.469  18.683  27.150  1.00  0.00    -0.237 OA
ATOM     88  O   UNL A   1      40.620  19.502  25.745  1.00  0.00    -0.744 OA
ENDBRANCH  84  85
ENDBRANCH  52  77
BRANCH  64  89
ATOM     89  C   UNL A   1      48.197  27.351  30.057  1.00  0.00     0.058 A 
ATOM     90  C   UNL A   1      49.140  27.658  29.064  1.00  0.00     0.135 A 
ATOM     91  C   UNL A   1      48.663  26.749  31.238  1.00  0.00     0.135 A 
ATOM     92  F   UNL A   1      48.747  28.224  27.912  1.00  0.00    -0.206 F 
ATOM     93  C   UNL A   1      50.489  27.364  29.226  1.00  0.00     0.059 A 
ATOM     94  C   UNL A   1      50.013  26.474  31.436  1.00  0.00     0.059 A 
ATOM     95  F   UNL A   1      47.805  26.441  32.225  1.00  0.00    -0.206 F 
ATOM     96  C   UNL A   1      50.917  26.776  30.419  1.00  0.00     0.060 A 
BRANCH  96  97
ATOM     97  S   UNL A   1      52.677  26.438  30.631  1.00  0.00     0.124 S 
ATOM     98  O   UNL A   1      53.100  26.200  29.255  1.00  0.00    -0.237 OA
ATOM     99  O   UNL A   1      53.160  27.675  31.238  1.00  0.00    -0.237 OA
ATOM    100  O   UNL A   1      52.697  25.269  31.506  1.00  0.00    -0.744 OA
ENDBRANCH  96  97
ENDBRANCH  64  89
ENDBRANCH  38  39
ENDBRANCH  30  33
ENDBRANCH  28  29
ENDBRANCH   1  28
TORSDOF 16
ENDMDL
MODEL 3
REMARK VINA RESULT:     -12.1      5.040     10.965
REMARK SMILES O=C(Cc1cc(=O)[nH]c(=O)[nH]1)Nc1cccc(C(=O)NCCCNC(=O)c2ccc(-c3c4nc(c(-c5c(F)cc(S(=O)(=O)[O-])cc5F)c5ccc([nH]5)c(-c5c(F)cc(S(=O)(=O)[O-])cc5F)c5nc(c(-c6c(F)cc(S(=O)(=O)[O-])cc6F)c6ccc3[nH]6)C=C5)C=C4)cc2)c1
REMARK SMILES IDX 22 1 21 2 20 3 18 4 19 5 17 7 13 8 14 9 93 10 15 11 16 12
REMARK SMILES IDX 12 13 1 14 2 15 3 17 4 18 5 19 11 20 6 21 9 22 7 24 8 25
REMARK SMILES IDX 10 26 23 28 24 29 25 30 26 32 27 33 28 34 92 35 29 36 91 37
REMARK SMILES IDX 30 38 31 39 32 40 85 41 33 42 90 43 84 44 86 45 34 46 89 47
REMARK SMILES IDX 83 48 82 49 35 51 69 52 48 53 68 54 49 55 52 56 67 57 87 58
REMARK SMILES IDX 50 59 51 60 66 62 88 63 53 64 36 65 37 66 46 67 38 68 39 69
REMARK SMILES IDX 45 70 47 71 40 72 41 73 42 74 43 75 44 76 70 77 71 78 80 79
REMARK SMILES IDX 72 80 73 81 79 82 81 83 74 84 75 85 76 86 77 87 78 88 54 89
REMARK SMILES IDX 55 90 64 91 56 92 57 93 63 94 65 95 58 96 59 97 60 98 61 99
REMARK SMILES IDX 62 100
REMARK H PARENT 20 6 12 16 11 23 8 27 24 31 86 50 52 61
REMARK Flexibility Score: inf
ROOT
ATOM      1  C   UNL A   1      37.356  23.373  25.153  1.00  0.00     0.042 C 
ENDROOT
BRANCH   1   2
ATOM      2  C   UNL A   1      36.980  21.924  25.422  1.00  0.00     0.118 C 
BRANCH   2   3
ATOM      3  N   UNL A   1      35.982  21.736  26.474  1.00  0.00    -0.352 N 
ATOM      4  C   UNL A   1      34.603  21.690  26.450  1.00  0.00     0.251 C 
ATOM      5  O   UNL A   1      34.002  21.512  27.510  1.00  0.00    -0.269 OA
ATOM      6  H   UNL A   1      36.368  21.618  27.371  1.00  0.00     0.163 HD
BRANCH   4   7
ATOM      7  C   UNL A   1      33.819  21.928  25.210  1.00  0.00     0.041 A 
ATOM      8  C   UNL A   1      32.338  23.349  23.944  1.00  0.00     0.041 A 
ATOM      9  C   UNL A   1      31.944  22.250  23.174  1.00  0.00     0.026 A 
ATOM     10  C   UNL A   1      33.385  23.199  24.846  1.00  0.00     0.040 A 
ATOM     11  C   UNL A   1      32.538  21.002  23.378  1.00  0.00     0.003 A 
ATOM     12  C   UNL A   1      33.441  20.831  24.428  1.00  0.00     0.014 A 
BRANCH   8  13
ATOM     13  N   UNL A   1      31.542  24.514  23.901  1.00  0.00    -0.326 N 
ATOM     14  O   UNL A   1      31.071  24.889  26.157  1.00  0.00    -0.274 OA
ATOM     15  C   UNL A   1      30.856  25.089  24.964  1.00  0.00     0.230 C 
ATOM     16  H   UNL A   1      31.466  24.964  23.030  1.00  0.00     0.169 HD
BRANCH  15  17
ATOM     17  C   UNL A   1      29.692  25.983  24.540  1.00  0.00     0.154 C 
BRANCH  17  18
ATOM     18  C   UNL A   1      30.178  27.321  24.065  1.00  0.00     0.034 A 
ATOM     19  C   UNL A   1      29.677  27.923  22.977  1.00  0.00     0.093 A 
ATOM     20  N   UNL A   1      31.180  27.926  24.784  1.00  0.00    -0.311 N 
ATOM     21  C   UNL A   1      30.269  29.197  22.528  1.00  0.00     0.253 A 
ATOM     22  C   UNL A   1      31.735  29.134  24.456  1.00  0.00     0.325 A 
ATOM     23  H   UNL A   1      31.518  27.463  25.584  1.00  0.00     0.171 HD
ATOM     24  O   UNL A   1      29.927  29.705  21.466  1.00  0.00    -0.269 OA
ATOM     25  N   UNL A   1      31.237  29.724  23.330  1.00  0.00    -0.274 N 
ATOM     26  O   UNL A   1      32.632  29.637  25.119  1.00  0.00    -0.248 OA
ATOM     27  H   UNL A   1      31.606  30.600  23.077  1.00  0.00     0.175 HD
ENDBRANCH  17  18
ENDBRANCH  15  17
ENDBRANCH   8  13
ENDBRANCH   4   7
ENDBRANCH   2   3
ENDBRANCH   1   2
BRANCH   1  28
ATOM     28  C   UNL A   1      38.141  24.051  26.261  1.00  0.00     0.118 C 
BRANCH  28  29
ATOM     29  N   UNL A   1      39.568  23.757  26.216  1.00  0.00    -0.352 N 
ATOM     30  C   UNL A   1      40.652  24.427  26.734  1.00  0.00     0.251 C 
ATOM     31  H   UNL A   1      39.797  22.932  25.730  1.00  0.00     0.163 HD
ATOM     32  O   UNL A   1      41.784  24.070  26.415  1.00  0.00    -0.269 OA
BRANCH  30  33
ATOM     33  C   UNL A   1      40.478  25.589  27.637  1.00  0.00     0.039 A 
ATOM     34  C   UNL A   1      39.476  25.541  28.612  1.00  0.00     0.014 A 
ATOM     35  C   UNL A   1      41.276  26.728  27.525  1.00  0.00     0.014 A 
ATOM     36  C   UNL A   1      39.349  26.586  29.533  1.00  0.00     0.010 A 
ATOM     37  C   UNL A   1      41.215  27.720  28.499  1.00  0.00     0.010 A 
ATOM     38  C   UNL A   1      40.258  27.655  29.523  1.00  0.00    -0.014 A 
BRANCH  38  39
ATOM     39  C   UNL A   1      40.257  28.689  30.593  1.00  0.00     0.031 A 
ATOM     40  C   UNL A   1      41.161  28.555  31.787  1.00  0.00     0.074 A 
ATOM     41  C   UNL A   1      39.371  29.704  30.525  1.00  0.00     0.049 A 
ATOM     42  N   UNL A   1      41.229  29.304  32.858  1.00  0.00    -0.248 NA
ATOM     43  C   UNL A   1      42.094  27.416  31.793  1.00  0.00     0.031 C 
ATOM     44  C   UNL A   1      38.405  29.913  29.443  1.00  0.00     0.029 A 
ATOM     45  N   UNL A   1      39.126  30.743  31.389  1.00  0.00    -0.354 N 
ATOM     46  C   UNL A   1      42.199  28.724  33.667  1.00  0.00     0.074 A 
ATOM     47  C   UNL A   1      42.655  27.530  32.989  1.00  0.00     0.031 C 
ATOM     48  C   UNL A   1      37.691  31.021  29.696  1.00  0.00     0.029 A 
ATOM     49  C   UNL A   1      38.108  31.574  30.980  1.00  0.00     0.049 A 
ATOM     50  H   UNL A   1      39.630  30.880  32.223  1.00  0.00     0.167 HD
ATOM     51  C   UNL A   1      42.681  29.158  34.857  1.00  0.00     0.037 A 
ATOM     52  C   UNL A   1      37.559  32.650  31.576  1.00  0.00     0.037 A 
ATOM     53  C   UNL A   1      42.232  30.358  35.518  1.00  0.00     0.049 A 
ATOM     54  C   UNL A   1      38.094  33.099  32.909  1.00  0.00     0.074 A 
ATOM     55  C   UNL A   1      42.700  30.918  36.694  1.00  0.00     0.029 A 
ATOM     56  N   UNL A   1      41.205  31.175  35.068  1.00  0.00    -0.354 N 
ATOM     57  N   UNL A   1      39.064  32.579  33.624  1.00  0.00    -0.248 NA
ATOM     58  C   UNL A   1      37.463  34.279  33.515  1.00  0.00     0.031 C 
ATOM     59  C   UNL A   1      41.920  32.042  36.985  1.00  0.00     0.029 A 
ATOM     60  C   UNL A   1      41.002  32.216  35.961  1.00  0.00     0.049 A 
ATOM     61  H   UNL A   1      40.696  31.037  34.237  1.00  0.00     0.167 HD
ATOM     62  C   UNL A   1      39.171  33.379  34.756  1.00  0.00     0.074 A 
ATOM     63  C   UNL A   1      38.182  34.429  34.620  1.00  0.00     0.031 C 
ATOM     64  C   UNL A   1      40.011  33.254  35.813  1.00  0.00     0.037 A 
BRANCH  51  65
ATOM     65  C   UNL A   1      43.751  28.336  35.524  1.00  0.00     0.058 A 
ATOM     66  C   UNL A   1      43.439  27.335  36.459  1.00  0.00     0.135 A 
ATOM     67  C   UNL A   1      45.104  28.517  35.190  1.00  0.00     0.135 A 
ATOM     68  F   UNL A   1      42.165  27.126  36.825  1.00  0.00    -0.206 F 
ATOM     69  C   UNL A   1      44.429  26.566  37.060  1.00  0.00     0.059 A 
ATOM     70  C   UNL A   1      46.109  27.737  35.757  1.00  0.00     0.059 A 
ATOM     71  F   UNL A   1      45.461  29.458  34.302  1.00  0.00    -0.206 F 
ATOM     72  C   UNL A   1      45.762  26.773  36.702  1.00  0.00     0.060 A 
BRANCH  72  73
ATOM     73  S   UNL A   1      47.032  25.758  37.486  1.00  0.00     0.124 S 
ATOM     74  O   UNL A   1      46.532  25.672  38.855  1.00  0.00    -0.237 OA
ATOM     75  O   UNL A   1      46.967  24.524  36.709  1.00  0.00    -0.237 OA
ATOM     76  O   UNL A   1      48.251  26.542  37.312  1.00  0.00    -0.744 OA
ENDBRANCH  72  73
ENDBRANCH  51  65
BRANCH  52  77
ATOM     77  C   UNL A   1      36.443  33.378  30.914  1.00  0.00     0.058 A 
ATOM     78  C   UNL A   1      35.133  33.292  31.408  1.00  0.00     0.135 A 
ATOM     79  C   UNL A   1      36.664  34.184  29.787  1.00  0.00     0.135 A 
ATOM     80  F   UNL A   1      34.868  32.528  32.478  1.00  0.00    -0.206 F 
ATOM     81  C   UNL A   1      34.078  33.969  30.803  1.00  0.00     0.059 A 
ATOM     82  C   UNL A   1      35.631  34.895  29.181  1.00  0.00     0.059 A 
ATOM     83  F   UNL A   1      37.900  34.315  29.284  1.00  0.00    -0.206 F 
ATOM     84  C   UNL A   1      34.341  34.774  29.692  1.00  0.00     0.060 A 
BRANCH  84  85
ATOM     85  S   UNL A   1      32.977  35.697  28.950  1.00  0.00     0.124 S 
ATOM     86  O   UNL A   1      32.210  36.086  30.126  1.00  0.00    -0.237 OA
ATOM     87  O   UNL A   1      33.678  36.773  28.256  1.00  0.00    -0.237 OA
ATOM     88  O   UNL A   1      32.342  34.712  28.078  1.00  0.00    -0.744 OA
ENDBRANCH  84  85
ENDBRANCH  52  77
BRANCH  64  89
ATOM     89  C   UNL A   1      39.909  34.285  36.903  1.00  0.00     0.058 A 
ATOM     90  C   UNL A   1      40.569  35.520  36.814  1.00  0.00     0.135 A 
ATOM     91  C   UNL A   1      39.096  34.057  38.026  1.00  0.00     0.135 A 
ATOM     92  F   UNL A   1      41.366  35.785  35.767  1.00  0.00    -0.206 F 
ATOM     93  C   UNL A   1      40.445  36.485  37.808  1.00  0.00     0.059 A 
ATOM     94  C   UNL A   1      38.932  35.020  39.018  1.00  0.00     0.059 A 
ATOM     95  F   UNL A   1      38.434  32.896  38.159  1.00  0.00    -0.206 F 
ATOM     96  C   UNL A   1      39.619  36.227  38.904  1.00  0.00     0.060 A 
BRANCH  96  97
ATOM     97  S   UNL A   1      39.435  37.506  40.165  1.00  0.00     0.124 S 
ATOM     98  O   UNL A   1      38.923  36.735  41.294  1.00  0.00    -0.237 OA
ATOM     99  O   UNL A   1      40.800  38.004  40.303  1.00  0.00    -0.237 OA
ATOM    100  O   UNL A   1      38.490  38.443  39.564  1.00  0.00    -0.744 OA
ENDBRANCH  96  97
ENDBRANCH  64  89
ENDBRANCH  38  39
ENDBRANCH  30  33
ENDBRANCH  28  29
ENDBRANCH   1  28
TORSDOF 16
ENDMDL
