MODEL 1
REMARK VINA RESULT:     -10.9      0.000      0.000
REMARK SMILES CC(C)C[C@@H](NC(=O)c1cccnc1)C(=O)NCCCNC(=O)c1ccc(-c2c3nc(c(-c4c(F)cc(S(=O)(=O)[O-])cc4F)c4ccc([nH]4)c(-c4c(F)cc(S(=O)(=O)[O-])cc4F)c4nc(c(-c5c(F)cc(S(=O)(=O)[O-])cc5F)c5ccc2[nH]5)C=C4)C=C3)cc1
REMARK SMILES IDX 19 1 18 2 17 3 15 4 16 5 5 7 4 8 2 9 1 10 3 11 6 12 7 13
REMARK SMILES IDX 8 15 9 16 10 17 14 18 11 19 13 20 12 21 20 22 21 23 22 24
REMARK SMILES IDX 23 26 24 27 25 28 89 29 26 30 88 31 27 32 28 33 29 34 82 35
REMARK SMILES IDX 30 36 87 37 81 38 83 39 31 40 86 41 80 42 79 43 32 45 66 46
REMARK SMILES IDX 45 47 65 48 46 49 49 50 64 51 84 52 47 53 48 54 63 56 85 57
REMARK SMILES IDX 50 58 33 59 34 60 43 61 35 62 36 63 42 64 44 65 37 66 38 67
REMARK SMILES IDX 39 68 40 69 41 70 67 71 68 72 77 73 69 74 70 75 76 76 78 77
REMARK SMILES IDX 71 78 72 79 73 80 74 81 75 82 51 83 52 84 61 85 53 86 54 87
REMARK SMILES IDX 60 88 62 89 55 90 56 91 57 92 58 93 59 94
REMARK H PARENT 17 6 6 14 21 25 83 44 49 55
REMARK Flexibility Score: inf
ROOT
ATOM      1  C   UNL A   1      33.583  28.716  25.593  1.00  0.00     0.042 C 
ENDROOT
BRANCH   1   2
ATOM      2  C   UNL A   1      33.450  27.313  25.035  1.00  0.00     0.117 C 
BRANCH   2   3
ATOM      3  N   UNL A   1      32.629  27.290  23.836  1.00  0.00    -0.354 N 
ATOM      4  C   UNL A   1      31.961  26.255  23.256  1.00  0.00     0.242 C 
ATOM      5  O   UNL A   1      31.401  26.455  22.174  1.00  0.00    -0.273 OA
ATOM      6  H   UNL A   1      32.542  28.154  23.373  1.00  0.00     0.163 HD
BRANCH   4   7
ATOM      7  C   UNL A   1      32.009  24.839  23.861  1.00  0.00     0.171 C 
BRANCH   7   8
ATOM      8  C   UNL A   1      30.834  24.806  24.874  1.00  0.00     0.038 C 
BRANCH   8   9
ATOM      9  C   UNL A   1      31.041  24.065  26.203  1.00  0.00    -0.015 C 
ATOM     10  C   UNL A   1      30.542  22.626  26.136  1.00  0.00     0.007 C 
ATOM     11  C   UNL A   1      32.536  24.086  26.555  1.00  0.00     0.007 C 
ENDBRANCH   8   9
ENDBRANCH   7   8
BRANCH   7  12
ATOM     12  N   UNL A   1      31.962  23.730  22.891  1.00  0.00    -0.340 N 
ATOM     13  C   UNL A   1      32.524  22.473  22.928  1.00  0.00     0.253 C 
ATOM     14  H   UNL A   1      31.441  23.920  22.078  1.00  0.00     0.164 HD
ATOM     15  O   UNL A   1      32.095  21.597  22.180  1.00  0.00    -0.269 OA
BRANCH  13  16
ATOM     16  C   UNL A   1      33.744  22.200  23.702  1.00  0.00     0.058 A 
ATOM     17  C   UNL A   1      34.930  22.917  23.578  1.00  0.00     0.017 A 
ATOM     18  C   UNL A   1      33.722  21.109  24.565  1.00  0.00     0.124 A 
ATOM     19  C   UNL A   1      36.068  22.451  24.238  1.00  0.00     0.021 A 
ATOM     20  N   UNL A   1      34.814  20.633  25.211  1.00  0.00    -0.264 NA
ATOM     21  C   UNL A   1      35.967  21.307  25.019  1.00  0.00     0.111 A 
ENDBRANCH  13  16
ENDBRANCH   7  12
ENDBRANCH   4   7
ENDBRANCH   2   3
ENDBRANCH   1   2
BRANCH   1  22
ATOM     22  C   UNL A   1      33.631  28.748  27.112  1.00  0.00     0.118 C 
BRANCH  22  23
ATOM     23  N   UNL A   1      33.608  30.101  27.660  1.00  0.00    -0.352 N 
ATOM     24  C   UNL A   1      34.612  30.747  28.343  1.00  0.00     0.251 C 
ATOM     25  H   UNL A   1      32.777  30.611  27.523  1.00  0.00     0.163 HD
ATOM     26  O   UNL A   1      34.425  31.829  28.884  1.00  0.00    -0.269 OA
BRANCH  24  27
ATOM     27  C   UNL A   1      35.922  30.075  28.429  1.00  0.00     0.039 A 
ATOM     28  C   UNL A   1      36.823  30.192  27.370  1.00  0.00     0.014 A 
ATOM     29  C   UNL A   1      36.290  29.454  29.625  1.00  0.00     0.014 A 
ATOM     30  C   UNL A   1      38.138  29.759  27.546  1.00  0.00     0.010 A 
ATOM     31  C   UNL A   1      37.618  29.105  29.824  1.00  0.00     0.010 A 
ATOM     32  C   UNL A   1      38.556  29.259  28.790  1.00  0.00    -0.014 A 
BRANCH  32  33
ATOM     33  C   UNL A   1      39.966  28.883  29.057  1.00  0.00     0.031 A 
ATOM     34  C   UNL A   1      40.914  29.926  29.581  1.00  0.00     0.074 A 
ATOM     35  C   UNL A   1      40.415  27.659  28.722  1.00  0.00     0.049 A 
ATOM     36  N   UNL A   1      42.214  29.877  29.695  1.00  0.00    -0.248 NA
ATOM     37  C   UNL A   1      40.320  31.212  29.985  1.00  0.00     0.031 C 
ATOM     38  C   UNL A   1      39.602  26.578  28.158  1.00  0.00     0.029 A 
ATOM     39  N   UNL A   1      41.678  27.123  28.784  1.00  0.00    -0.354 N 
ATOM     40  C   UNL A   1      42.598  31.136  30.141  1.00  0.00     0.074 A 
ATOM     41  C   UNL A   1      41.398  31.938  30.239  1.00  0.00     0.031 C 
ATOM     42  C   UNL A   1      40.383  25.505  27.940  1.00  0.00     0.029 A 
ATOM     43  C   UNL A   1      41.756  25.834  28.310  1.00  0.00     0.049 A 
ATOM     44  H   UNL A   1      42.454  27.614  29.137  1.00  0.00     0.167 HD
ATOM     45  C   UNL A   1      43.838  31.579  30.457  1.00  0.00     0.037 A 
ATOM     46  C   UNL A   1      42.819  25.017  28.175  1.00  0.00     0.037 A 
ATOM     47  C   UNL A   1      45.016  30.757  30.414  1.00  0.00     0.049 A 
ATOM     48  C   UNL A   1      44.178  25.510  28.588  1.00  0.00     0.074 A 
ATOM     49  C   UNL A   1      46.310  31.088  30.775  1.00  0.00     0.029 A 
ATOM     50  N   UNL A   1      45.039  29.433  30.002  1.00  0.00    -0.354 N 
ATOM     51  N   UNL A   1      44.520  26.693  29.041  1.00  0.00    -0.248 NA
ATOM     52  C   UNL A   1      45.296  24.562  28.477  1.00  0.00     0.031 C 
ATOM     53  C   UNL A   1      47.120  29.966  30.564  1.00  0.00     0.029 A 
ATOM     54  C   UNL A   1      46.323  28.930  30.101  1.00  0.00     0.049 A 
ATOM     55  H   UNL A   1      44.257  28.926  29.685  1.00  0.00     0.167 HD
ATOM     56  C   UNL A   1      45.884  26.623  29.297  1.00  0.00     0.074 A 
ATOM     57  C   UNL A   1      46.306  25.281  28.948  1.00  0.00     0.031 C 
ATOM     58  C   UNL A   1      46.713  27.582  29.776  1.00  0.00     0.037 A 
BRANCH  45  59
ATOM     59  C   UNL A   1      43.971  33.011  30.887  1.00  0.00     0.058 A 
ATOM     60  C   UNL A   1      43.830  33.391  32.230  1.00  0.00     0.135 A 
ATOM     61  C   UNL A   1      44.250  34.015  29.946  1.00  0.00     0.135 A 
ATOM     62  F   UNL A   1      43.543  32.472  33.166  1.00  0.00    -0.206 F 
ATOM     63  C   UNL A   1      43.927  34.721  32.624  1.00  0.00     0.059 A 
ATOM     64  C   UNL A   1      44.377  35.350  30.321  1.00  0.00     0.059 A 
ATOM     65  F   UNL A   1      44.391  33.706  28.647  1.00  0.00    -0.206 F 
ATOM     66  C   UNL A   1      44.196  35.695  31.659  1.00  0.00     0.060 A 
BRANCH  66  67
ATOM     67  S   UNL A   1      44.313  37.419  32.180  1.00  0.00     0.124 S 
ATOM     68  O   UNL A   1      43.934  38.117  30.955  1.00  0.00    -0.237 OA
ATOM     69  O   UNL A   1      43.345  37.487  33.271  1.00  0.00    -0.237 OA
ATOM     70  O   UNL A   1      45.710  37.558  32.577  1.00  0.00    -0.744 OA
ENDBRANCH  66  67
ENDBRANCH  45  59
BRANCH  46  71
ATOM     71  C   UNL A   1      42.635  23.638  27.653  1.00  0.00     0.058 A 
ATOM     72  C   UNL A   1      42.667  23.385  26.274  1.00  0.00     0.135 A 
ATOM     73  C   UNL A   1      42.446  22.547  28.515  1.00  0.00     0.135 A 
ATOM     74  F   UNL A   1      42.840  24.397  25.411  1.00  0.00    -0.206 F 
ATOM     75  C   UNL A   1      42.506  22.101  25.764  1.00  0.00     0.059 A 
ATOM     76  C   UNL A   1      42.303  21.251  28.030  1.00  0.00     0.059 A 
ATOM     77  F   UNL A   1      42.428  22.734  29.844  1.00  0.00    -0.206 F 
ATOM     78  C   UNL A   1      42.324  21.038  26.651  1.00  0.00     0.060 A 
BRANCH  78  79
ATOM     79  S   UNL A   1      42.173  19.366  25.985  1.00  0.00     0.124 S 
ATOM     80  O   UNL A   1      40.736  19.272  25.755  1.00  0.00    -0.237 OA
ATOM     81  O   UNL A   1      43.008  19.432  24.791  1.00  0.00    -0.237 OA
ATOM     82  O   UNL A   1      42.698  18.530  27.061  1.00  0.00    -0.744 OA
ENDBRANCH  78  79
ENDBRANCH  46  71
BRANCH  58  83
ATOM     83  C   UNL A   1      48.147  27.209  30.007  1.00  0.00     0.058 A 
ATOM     84  C   UNL A   1      49.133  27.450  29.038  1.00  0.00     0.135 A 
ATOM     85  C   UNL A   1      48.551  26.692  31.247  1.00  0.00     0.135 A 
ATOM     86  F   UNL A   1      48.793  27.938  27.836  1.00  0.00    -0.206 F 
ATOM     87  C   UNL A   1      50.475  27.186  29.292  1.00  0.00     0.059 A 
ATOM     88  C   UNL A   1      49.888  26.438  31.529  1.00  0.00     0.059 A 
ATOM     89  F   UNL A   1      47.643  26.452  32.208  1.00  0.00    -0.206 F 
ATOM     90  C   UNL A   1      50.843  26.686  30.543  1.00  0.00     0.060 A 
BRANCH  90  91
ATOM     91  S   UNL A   1      52.595  26.413  30.888  1.00  0.00     0.124 S 
ATOM     92  O   UNL A   1      52.547  25.221  31.728  1.00  0.00    -0.237 OA
ATOM     93  O   UNL A   1      53.152  26.225  29.551  1.00  0.00    -0.237 OA
ATOM     94  O   UNL A   1      53.002  27.642  31.561  1.00  0.00    -0.744 OA
ENDBRANCH  90  91
ENDBRANCH  58  83
ENDBRANCH  32  33
ENDBRANCH  24  27
ENDBRANCH  22  23
ENDBRANCH   1  22
TORSDOF 17
ENDMDL
MODEL 2
REMARK VINA RESULT:     -10.7      1.592      2.803
REMARK SMILES CC(C)C[C@@H](NC(=O)c1cccnc1)C(=O)NCCCNC(=O)c1ccc(-c2c3nc(c(-c4c(F)cc(S(=O)(=O)[O-])cc4F)c4ccc([nH]4)c(-c4c(F)cc(S(=O)(=O)[O-])cc4F)c4nc(c(-c5c(F)cc(S(=O)(=O)[O-])cc5F)c5ccc2[nH]5)C=C4)C=C3)cc1
REMARK SMILES IDX 19 1 18 2 17 3 15 4 16 5 5 7 4 8 2 9 1 10 3 11 6 12 7 13
REMARK SMILES IDX 8 15 9 16 10 17 14 18 11 19 13 20 12 21 20 22 21 23 22 24
REMARK SMILES IDX 23 26 24 27 25 28 89 29 26 30 88 31 27 32 28 33 29 34 82 35
REMARK SMILES IDX 30 36 87 37 81 38 83 39 31 40 86 41 80 42 79 43 32 45 66 46
REMARK SMILES IDX 45 47 65 48 46 49 49 50 64 51 84 52 47 53 48 54 63 56 85 57
REMARK SMILES IDX 50 58 33 59 34 60 43 61 35 62 36 63 42 64 44 65 37 66 38 67
REMARK SMILES IDX 39 68 40 69 41 70 67 71 68 72 77 73 69 74 70 75 76 76 78 77
REMARK SMILES IDX 71 78 72 79 73 80 74 81 75 82 51 83 52 84 61 85 53 86 54 87
REMARK SMILES IDX 60 88 62 89 55 90 56 91 57 92 58 93 59 94
REMARK H PARENT 17 6 6 14 21 25 83 44 49 55
REMARK Flexibility Score: inf
ROOT
ATOM      1  C   UNL A   1      33.847  28.773  25.806  1.00  0.00     0.042 C 
ENDROOT
BRANCH   1   2
ATOM      2  C   UNL A   1      32.860  29.665  25.079  1.00  0.00     0.117 C 
BRANCH   2   3
ATOM      3  N   UNL A   1      32.661  29.233  23.705  1.00  0.00    -0.354 N 
ATOM      4  C   UNL A   1      31.509  28.942  23.041  1.00  0.00     0.242 C 
ATOM      5  O   UNL A   1      31.594  28.497  21.892  1.00  0.00    -0.273 OA
ATOM      6  H   UNL A   1      33.484  29.137  23.174  1.00  0.00     0.163 HD
BRANCH   4   7
ATOM      7  C   UNL A   1      30.141  29.037  23.742  1.00  0.00     0.171 C 
BRANCH   7   8
ATOM      8  C   UNL A   1      29.580  30.421  23.320  1.00  0.00     0.038 C 
BRANCH   8   9
ATOM      9  C   UNL A   1      28.125  30.497  22.832  1.00  0.00    -0.015 C 
ATOM     10  C   UNL A   1      27.318  31.531  23.610  1.00  0.00     0.007 C 
ATOM     11  C   UNL A   1      28.121  30.844  21.336  1.00  0.00     0.007 C 
ENDBRANCH   8   9
ENDBRANCH   7   8
BRANCH   7  12
ATOM     12  N   UNL A   1      29.205  27.931  23.467  1.00  0.00    -0.340 N 
ATOM     13  C   UNL A   1      29.095  26.679  24.031  1.00  0.00     0.253 C 
ATOM     14  H   UNL A   1      28.547  28.119  22.759  1.00  0.00     0.164 HD
ATOM     15  O   UNL A   1      28.054  26.043  23.891  1.00  0.00    -0.269 OA
BRANCH  13  16
ATOM     16  C   UNL A   1      30.254  26.006  24.637  1.00  0.00     0.058 A 
ATOM     17  C   UNL A   1      30.662  26.177  25.955  1.00  0.00     0.017 A 
ATOM     18  C   UNL A   1      31.026  25.198  23.808  1.00  0.00     0.124 A 
ATOM     19  C   UNL A   1      31.877  25.621  26.360  1.00  0.00     0.021 A 
ATOM     20  N   UNL A   1      32.212  24.653  24.174  1.00  0.00    -0.264 NA
ATOM     21  C   UNL A   1      32.617  24.892  25.439  1.00  0.00     0.111 A 
ENDBRANCH  13  16
ENDBRANCH   7  12
ENDBRANCH   4   7
ENDBRANCH   2   3
ENDBRANCH   1   2
BRANCH   1  22
ATOM     22  C   UNL A   1      33.677  28.809  27.316  1.00  0.00     0.118 C 
BRANCH  22  23
ATOM     23  N   UNL A   1      33.672  30.163  27.861  1.00  0.00    -0.352 N 
ATOM     24  C   UNL A   1      34.691  30.804  28.526  1.00  0.00     0.251 C 
ATOM     25  H   UNL A   1      32.842  30.678  27.737  1.00  0.00     0.163 HD
ATOM     26  O   UNL A   1      34.520  31.889  29.068  1.00  0.00    -0.269 OA
BRANCH  24  27
ATOM     27  C   UNL A   1      35.998  30.124  28.592  1.00  0.00     0.039 A 
ATOM     28  C   UNL A   1      36.848  30.164  27.486  1.00  0.00     0.014 A 
ATOM     29  C   UNL A   1      36.419  29.575  29.806  1.00  0.00     0.014 A 
ATOM     30  C   UNL A   1      38.166  29.728  27.626  1.00  0.00     0.010 A 
ATOM     31  C   UNL A   1      37.752  29.224  29.963  1.00  0.00     0.010 A 
ATOM     32  C   UNL A   1      38.640  29.303  28.878  1.00  0.00    -0.014 A 
BRANCH  32  33
ATOM     33  C   UNL A   1      40.058  28.928  29.101  1.00  0.00     0.031 A 
ATOM     34  C   UNL A   1      41.021  29.972  29.594  1.00  0.00     0.074 A 
ATOM     35  C   UNL A   1      40.498  27.704  28.751  1.00  0.00     0.049 A 
ATOM     36  N   UNL A   1      42.324  29.925  29.667  1.00  0.00    -0.248 NA
ATOM     37  C   UNL A   1      40.438  31.257  30.016  1.00  0.00     0.031 C 
ATOM     38  C   UNL A   1      39.668  26.622  28.213  1.00  0.00     0.029 A 
ATOM     39  N   UNL A   1      41.762  27.169  28.774  1.00  0.00    -0.354 N 
ATOM     40  C   UNL A   1      42.720  31.184  30.100  1.00  0.00     0.074 A 
ATOM     41  C   UNL A   1      41.523  31.985  30.236  1.00  0.00     0.031 C 
ATOM     42  C   UNL A   1      40.443  25.550  27.971  1.00  0.00     0.029 A 
ATOM     43  C   UNL A   1      41.827  25.881  28.297  1.00  0.00     0.049 A 
ATOM     44  H   UNL A   1      42.548  27.662  29.102  1.00  0.00     0.167 HD
ATOM     45  C   UNL A   1      43.969  31.628  30.378  1.00  0.00     0.037 A 
ATOM     46  C   UNL A   1      42.886  25.064  28.129  1.00  0.00     0.037 A 
ATOM     47  C   UNL A   1      45.146  30.807  30.297  1.00  0.00     0.049 A 
ATOM     48  C   UNL A   1      44.257  25.559  28.499  1.00  0.00     0.074 A 
ATOM     49  C   UNL A   1      46.450  31.139  30.617  1.00  0.00     0.029 A 
ATOM     50  N   UNL A   1      45.157  29.483  29.885  1.00  0.00    -0.354 N 
ATOM     51  N   UNL A   1      44.611  26.743  28.941  1.00  0.00    -0.248 NA
ATOM     52  C   UNL A   1      45.372  24.612  28.353  1.00  0.00     0.031 C 
ATOM     53  C   UNL A   1      47.254  30.019  30.381  1.00  0.00     0.029 A 
ATOM     54  C   UNL A   1      46.445  28.981  29.944  1.00  0.00     0.049 A 
ATOM     55  H   UNL A   1      44.366  28.975  29.593  1.00  0.00     0.167 HD
ATOM     56  C   UNL A   1      45.983  26.674  29.154  1.00  0.00     0.074 A 
ATOM     57  C   UNL A   1      46.395  25.333  28.793  1.00  0.00     0.031 C 
ATOM     58  C   UNL A   1      46.825  27.634  29.607  1.00  0.00     0.037 A 
BRANCH  45  59
ATOM     59  C   UNL A   1      44.114  33.060  30.803  1.00  0.00     0.058 A 
ATOM     60  C   UNL A   1      44.416  34.074  29.881  1.00  0.00     0.135 A 
ATOM     61  C   UNL A   1      43.942  33.425  32.148  1.00  0.00     0.135 A 
ATOM     62  F   UNL A   1      44.610  33.774  28.587  1.00  0.00    -0.206 F 
ATOM     63  C   UNL A   1      44.576  35.396  30.281  1.00  0.00     0.059 A 
ATOM     64  C   UNL A   1      44.072  34.747  32.566  1.00  0.00     0.059 A 
ATOM     65  F   UNL A   1      43.655  32.494  33.071  1.00  0.00    -0.206 F 
ATOM     66  C   UNL A   1      44.408  35.721  31.628  1.00  0.00     0.060 A 
BRANCH  66  67
ATOM     67  S   UNL A   1      44.626  37.439  32.137  1.00  0.00     0.124 S 
ATOM     68  O   UNL A   1      43.738  38.131  31.208  1.00  0.00    -0.237 OA
ATOM     69  O   UNL A   1      44.188  37.415  33.529  1.00  0.00    -0.237 OA
ATOM     70  O   UNL A   1      46.052  37.673  31.936  1.00  0.00    -0.744 OA
ENDBRANCH  66  67
ENDBRANCH  45  59
BRANCH  46  71
ATOM     71  C   UNL A   1      42.686  23.685  27.613  1.00  0.00     0.058 A 
ATOM     72  C   UNL A   1      42.769  23.416  26.240  1.00  0.00     0.135 A 
ATOM     73  C   UNL A   1      42.433  22.609  28.477  1.00  0.00     0.135 A 
ATOM     74  F   UNL A   1      43.005  24.415  25.375  1.00  0.00    -0.206 F 
ATOM     75  C   UNL A   1      42.595  22.132  25.736  1.00  0.00     0.059 A 
ATOM     76  C   UNL A   1      42.275  21.312  28.000  1.00  0.00     0.059 A 
ATOM     77  F   UNL A   1      42.364  22.811  29.802  1.00  0.00    -0.206 F 
ATOM     78  C   UNL A   1      42.349  21.084  26.625  1.00  0.00     0.060 A 
BRANCH  78  79
ATOM     79  S   UNL A   1      42.180  19.409  25.970  1.00  0.00     0.124 S 
ATOM     80  O   UNL A   1      43.058  19.460  24.807  1.00  0.00    -0.237 OA
ATOM     81  O   UNL A   1      42.644  18.592  27.086  1.00  0.00    -0.237 OA
ATOM     82  O   UNL A   1      40.752  19.307  25.681  1.00  0.00    -0.744 OA
ENDBRANCH  78  79
ENDBRANCH  46  71
BRANCH  58  83
ATOM     83  C   UNL A   1      48.267  27.263  29.793  1.00  0.00     0.058 A 
ATOM     84  C   UNL A   1      49.183  27.325  28.732  1.00  0.00     0.135 A 
ATOM     85  C   UNL A   1      48.751  26.931  31.067  1.00  0.00     0.135 A 
ATOM     86  F   UNL A   1      48.764  27.632  27.495  1.00  0.00    -0.206 F 
ATOM     87  C   UNL A   1      50.535  27.068  28.930  1.00  0.00     0.059 A 
ATOM     88  C   UNL A   1      50.101  26.688  31.291  1.00  0.00     0.059 A 
ATOM     89  F   UNL A   1      47.912  26.866  32.114  1.00  0.00    -0.206 F 
ATOM     90  C   UNL A   1      50.986  26.756  30.215  1.00  0.00     0.060 A 
BRANCH  90  91
ATOM     91  S   UNL A   1      52.753  26.492  30.475  1.00  0.00     0.124 S 
ATOM     92  O   UNL A   1      53.201  26.156  29.128  1.00  0.00    -0.237 OA
ATOM     93  O   UNL A   1      53.193  27.788  30.985  1.00  0.00    -0.237 OA
ATOM     94  O   UNL A   1      52.793  25.399  31.442  1.00  0.00    -0.744 OA
ENDBRANCH  90  91
ENDBRANCH  58  83
ENDBRANCH  32  33
ENDBRANCH  24  27
ENDBRANCH  22  23
ENDBRANCH   1  22
TORSDOF 17
ENDMDL
MODEL 3
REMARK VINA RESULT:     -10.7      3.218      9.305
REMARK SMILES CC(C)C[C@@H](NC(=O)c1cccnc1)C(=O)NCCCNC(=O)c1ccc(-c2c3nc(c(-c4c(F)cc(S(=O)(=O)[O-])cc4F)c4ccc([nH]4)c(-c4c(F)cc(S(=O)(=O)[O-])cc4F)c4nc(c(-c5c(F)cc(S(=O)(=O)[O-])cc5F)c5ccc2[nH]5)C=C4)C=C3)cc1
REMARK SMILES IDX 19 1 18 2 17 3 15 4 16 5 5 7 4 8 2 9 1 10 3 11 6 12 7 13
REMARK SMILES IDX 8 15 9 16 10 17 14 18 11 19 13 20 12 21 20 22 21 23 22 24
REMARK SMILES IDX 23 26 24 27 25 28 89 29 26 30 88 31 27 32 28 33 29 34 82 35
REMARK SMILES IDX 30 36 87 37 81 38 83 39 31 40 86 41 80 42 79 43 32 45 66 46
REMARK SMILES IDX 45 47 65 48 46 49 49 50 64 51 84 52 47 53 48 54 63 56 85 57
REMARK SMILES IDX 50 58 33 59 34 60 43 61 35 62 36 63 42 64 44 65 37 66 38 67
REMARK SMILES IDX 39 68 40 69 41 70 67 71 68 72 77 73 69 74 70 75 76 76 78 77
REMARK SMILES IDX 71 78 72 79 73 80 74 81 75 82 51 83 52 84 61 85 53 86 54 87
REMARK SMILES IDX 60 88 62 89 55 90 56 91 57 92 58 93 59 94
REMARK H PARENT 17 6 6 14 21 25 83 44 49 55
REMARK Flexibility Score: inf
ROOT
ATOM      1  C   UNL A   1      36.273  23.284  24.027  1.00  0.00     0.042 C 
ENDROOT
BRANCH   1   2
ATOM      2  C   UNL A   1      34.781  23.499  24.181  1.00  0.00     0.117 C 
BRANCH   2   3
ATOM      3  N   UNL A   1      34.358  24.760  23.594  1.00  0.00    -0.354 N 
ATOM      4  C   UNL A   1      33.671  25.794  24.151  1.00  0.00     0.242 C 
ATOM      5  O   UNL A   1      33.338  26.734  23.423  1.00  0.00    -0.273 OA
ATOM      6  H   UNL A   1      34.608  24.885  22.650  1.00  0.00     0.163 HD
BRANCH   4   7
ATOM      7  C   UNL A   1      33.205  25.741  25.619  1.00  0.00     0.171 C 
BRANCH   7   8
ATOM      8  C   UNL A   1      33.471  27.167  26.167  1.00  0.00     0.038 C 
BRANCH   8   9
ATOM      9  C   UNL A   1      32.298  28.159  26.210  1.00  0.00    -0.015 C 
ATOM     10  C   UNL A   1      31.660  28.224  27.593  1.00  0.00     0.007 C 
ATOM     11  C   UNL A   1      32.807  29.549  25.801  1.00  0.00     0.007 C 
ENDBRANCH   8   9
ENDBRANCH   7   8
BRANCH   7  12
ATOM     12  N   UNL A   1      31.815  25.295  25.830  1.00  0.00    -0.340 N 
ATOM     13  C   UNL A   1      31.310  24.171  26.445  1.00  0.00     0.253 C 
ATOM     14  H   UNL A   1      31.132  25.905  25.469  1.00  0.00     0.164 HD
ATOM     15  O   UNL A   1      30.135  24.153  26.800  1.00  0.00    -0.269 OA
BRANCH  13  16
ATOM     16  C   UNL A   1      32.086  22.923  26.519  1.00  0.00     0.058 A 
ATOM     17  C   UNL A   1      33.117  22.692  27.423  1.00  0.00     0.017 A 
ATOM     18  C   UNL A   1      31.806  21.941  25.574  1.00  0.00     0.124 A 
ATOM     19  C   UNL A   1      33.891  21.539  27.279  1.00  0.00     0.021 A 
ATOM     20  N   UNL A   1      32.546  20.818  25.408  1.00  0.00    -0.264 NA
ATOM     21  C   UNL A   1      33.583  20.652  26.256  1.00  0.00     0.111 A 
ENDBRANCH  13  16
ENDBRANCH   7  12
ENDBRANCH   4   7
ENDBRANCH   2   3
ENDBRANCH   1   2
BRANCH   1  22
ATOM     22  C   UNL A   1      37.054  23.629  25.285  1.00  0.00     0.118 C 
BRANCH  22  23
ATOM     23  N   UNL A   1      38.211  22.764  25.498  1.00  0.00    -0.352 N 
ATOM     24  C   UNL A   1      39.385  23.077  26.143  1.00  0.00     0.251 C 
ATOM     25  H   UNL A   1      38.141  21.849  25.140  1.00  0.00     0.163 HD
ATOM     26  O   UNL A   1      40.345  22.316  26.132  1.00  0.00    -0.269 OA
BRANCH  24  27
ATOM     27  C   UNL A   1      39.463  24.381  26.827  1.00  0.00     0.039 A 
ATOM     28  C   UNL A   1      38.946  24.511  28.116  1.00  0.00     0.014 A 
ATOM     29  C   UNL A   1      40.177  25.422  26.227  1.00  0.00     0.014 A 
ATOM     30  C   UNL A   1      39.226  25.666  28.847  1.00  0.00     0.010 A 
ATOM     31  C   UNL A   1      40.524  26.529  26.987  1.00  0.00     0.010 A 
ATOM     32  C   UNL A   1      40.058  26.660  28.306  1.00  0.00    -0.014 A 
BRANCH  32  33
ATOM     33  C   UNL A   1      40.468  27.856  29.081  1.00  0.00     0.031 A 
ATOM     34  C   UNL A   1      41.771  27.830  29.831  1.00  0.00     0.074 A 
ATOM     35  C   UNL A   1      39.627  28.901  29.209  1.00  0.00     0.049 A 
ATOM     36  N   UNL A   1      42.229  28.670  30.720  1.00  0.00    -0.248 NA
ATOM     37  C   UNL A   1      42.653  26.679  29.576  1.00  0.00     0.031 C 
ATOM     38  C   UNL A   1      38.313  29.020  28.571  1.00  0.00     0.029 A 
ATOM     39  N   UNL A   1      39.745  30.057  29.940  1.00  0.00    -0.354 N 
ATOM     40  C   UNL A   1      43.429  28.128  31.163  1.00  0.00     0.074 A 
ATOM     41  C   UNL A   1      43.609  26.869  30.474  1.00  0.00     0.031 C 
ATOM     42  C   UNL A   1      37.754  30.189  28.928  1.00  0.00     0.029 A 
ATOM     43  C   UNL A   1      38.648  30.883  29.849  1.00  0.00     0.049 A 
ATOM     44  H   UNL A   1      40.539  30.275  30.478  1.00  0.00     0.167 HD
ATOM     45  C   UNL A   1      44.311  28.642  32.053  1.00  0.00     0.037 A 
ATOM     46  C   UNL A   1      38.390  32.060  30.452  1.00  0.00     0.037 A 
ATOM     47  C   UNL A   1      44.153  29.921  32.688  1.00  0.00     0.049 A 
ATOM     48  C   UNL A   1      39.411  32.640  31.392  1.00  0.00     0.074 A 
ATOM     49  C   UNL A   1      45.018  30.564  33.555  1.00  0.00     0.029 A 
ATOM     50  N   UNL A   1      43.065  30.762  32.508  1.00  0.00    -0.354 N 
ATOM     51  N   UNL A   1      40.558  32.131  31.775  1.00  0.00    -0.248 NA
ATOM     52  C   UNL A   1      39.108  33.953  31.980  1.00  0.00     0.031 C 
ATOM     53  C   UNL A   1      44.444  31.789  33.913  1.00  0.00     0.029 A 
ATOM     54  C   UNL A   1      43.236  31.920  33.245  1.00  0.00     0.049 A 
ATOM     55  H   UNL A   1      42.286  30.564  31.939  1.00  0.00     0.167 HD
ATOM     56  C   UNL A   1      41.127  33.073  32.623  1.00  0.00     0.074 A 
ATOM     57  C   UNL A   1      40.199  34.183  32.699  1.00  0.00     0.031 C 
ATOM     58  C   UNL A   1      42.311  33.023  33.281  1.00  0.00     0.037 A 
BRANCH  45  59
ATOM     59  C   UNL A   1      45.526  27.820  32.375  1.00  0.00     0.058 A 
ATOM     60  C   UNL A   1      46.750  28.033  31.725  1.00  0.00     0.135 A 
ATOM     61  C   UNL A   1      45.466  26.812  33.351  1.00  0.00     0.135 A 
ATOM     62  F   UNL A   1      46.854  28.971  30.769  1.00  0.00    -0.206 F 
ATOM     63  C   UNL A   1      47.867  27.253  32.005  1.00  0.00     0.059 A 
ATOM     64  C   UNL A   1      46.579  26.037  33.666  1.00  0.00     0.059 A 
ATOM     65  F   UNL A   1      44.318  26.565  34.001  1.00  0.00    -0.206 F 
ATOM     66  C   UNL A   1      47.769  26.253  32.974  1.00  0.00     0.060 A 
BRANCH  66  67
ATOM     67  S   UNL A   1      49.223  25.242  33.324  1.00  0.00     0.124 S 
ATOM     68  O   UNL A   1      50.053  26.180  34.073  1.00  0.00    -0.237 OA
ATOM     69  O   UNL A   1      48.662  24.138  34.098  1.00  0.00    -0.237 OA
ATOM     70  O   UNL A   1      49.715  24.887  31.997  1.00  0.00    -0.744 OA
ENDBRANCH  66  67
ENDBRANCH  45  59
BRANCH  46  71
ATOM     71  C   UNL A   1      37.123  32.781  30.163  1.00  0.00     0.058 A 
ATOM     72  C   UNL A   1      37.046  33.692  29.100  1.00  0.00     0.135 A 
ATOM     73  C   UNL A   1      35.964  32.559  30.921  1.00  0.00     0.135 A 
ATOM     74  F   UNL A   1      38.130  33.940  28.350  1.00  0.00    -0.206 F 
ATOM     75  C   UNL A   1      35.868  34.371  28.804  1.00  0.00     0.059 A 
ATOM     76  C   UNL A   1      34.768  33.210  30.633  1.00  0.00     0.059 A 
ATOM     77  F   UNL A   1      35.981  31.682  31.936  1.00  0.00    -0.206 F 
ATOM     78  C   UNL A   1      34.732  34.122  29.578  1.00  0.00     0.060 A 
BRANCH  78  79
ATOM     79  S   UNL A   1      33.192  34.964  29.154  1.00  0.00     0.124 S 
ATOM     80  O   UNL A   1      32.494  34.959  30.435  1.00  0.00    -0.237 OA
ATOM     81  O   UNL A   1      33.666  36.264  28.690  1.00  0.00    -0.237 OA
ATOM     82  O   UNL A   1      32.620  34.109  28.118  1.00  0.00    -0.744 OA
ENDBRANCH  78  79
ENDBRANCH  46  71
BRANCH  58  83
ATOM     83  C   UNL A   1      42.704  34.219  34.097  1.00  0.00     0.058 A 
ATOM     84  C   UNL A   1      42.430  34.292  35.471  1.00  0.00     0.135 A 
ATOM     85  C   UNL A   1      43.442  35.259  33.513  1.00  0.00     0.135 A 
ATOM     86  F   UNL A   1      41.721  33.322  36.070  1.00  0.00    -0.206 F 
ATOM     87  C   UNL A   1      42.876  35.361  36.241  1.00  0.00     0.059 A 
ATOM     88  C   UNL A   1      43.914  36.328  34.267  1.00  0.00     0.059 A 
ATOM     89  F   UNL A   1      43.735  35.229  32.203  1.00  0.00    -0.206 F 
ATOM     90  C   UNL A   1      43.622  36.371  35.630  1.00  0.00     0.060 A 
BRANCH  90  91
ATOM     91  S   UNL A   1      44.256  37.719  36.651  1.00  0.00     0.124 S 
ATOM     92  O   UNL A   1      44.166  38.850  35.734  1.00  0.00    -0.237 OA
ATOM     93  O   UNL A   1      43.317  37.734  37.770  1.00  0.00    -0.237 OA
ATOM     94  O   UNL A   1      45.609  37.284  36.984  1.00  0.00    -0.744 OA
ENDBRANCH  90  91
ENDBRANCH  58  83
ENDBRANCH  32  33
ENDBRANCH  24  27
ENDBRANCH  22  23
ENDBRANCH   1  22
TORSDOF 17
ENDMDL
