MODEL 1
REMARK VINA RESULT:     -10.9      0.000      0.000
REMARK SMILES CC(=O)Oc1ccccc1C(=O)NCCCNC(=O)c1ccc(-c2c3nc(c(-c4c(F)cc(S(=O)(=O)[O-])cc4F)c4ccc([nH]4)c(-c4c(F)cc(S(=O)(=O)[O-])cc4F)c4nc(c(-c5c(F)cc(S(=O)(=O)[O-])cc5F)c5ccc2[nH]5)C=C4)C=C3)cc1
REMARK SMILES IDX 15 1 14 2 13 3 11 4 12 5 10 7 5 8 6 9 7 10 9 11 8 12 4 13
REMARK SMILES IDX 2 14 1 15 3 16 16 17 17 18 18 19 19 21 20 22 21 23 85 24
REMARK SMILES IDX 22 25 84 26 23 27 24 28 25 29 78 30 26 31 83 32 77 33 79 34
REMARK SMILES IDX 27 35 82 36 76 37 75 38 28 40 62 41 41 42 61 43 42 44 45 45
REMARK SMILES IDX 60 46 80 47 43 48 44 49 59 51 81 52 46 53 29 54 30 55 39 56
REMARK SMILES IDX 31 57 32 58 38 59 40 60 33 61 34 62 35 63 36 64 37 65 63 66
REMARK SMILES IDX 64 67 73 68 65 69 66 70 72 71 74 72 67 73 68 74 69 75 70 76
REMARK SMILES IDX 71 77 47 78 48 79 57 80 49 81 50 82 56 83 58 84 51 85 52 86
REMARK SMILES IDX 53 87 54 88 55 89
REMARK H PARENT 13 6 17 20 79 39 45 50
REMARK Flexibility Score: inf
ROOT
ATOM      1  C   UNL A   1      33.884  28.286  26.037  1.00  0.00     0.042 C 
ENDROOT
BRANCH   1   2
ATOM      2  C   UNL A   1      33.321  29.097  24.895  1.00  0.00     0.118 C 
BRANCH   2   3
ATOM      3  N   UNL A   1      33.988  28.989  23.623  1.00  0.00    -0.352 N 
ATOM      4  C   UNL A   1      33.744  28.103  22.601  1.00  0.00     0.255 C 
ATOM      5  O   UNL A   1      34.352  28.271  21.543  1.00  0.00    -0.269 OA
ATOM      6  H   UNL A   1      34.714  29.636  23.466  1.00  0.00     0.163 HD
BRANCH   4   7
ATOM      7  C   UNL A   1      32.897  26.885  22.763  1.00  0.00     0.082 A 
ATOM      8  C   UNL A   1      31.532  26.721  22.480  1.00  0.00     0.143 A 
ATOM      9  C   UNL A   1      30.864  25.539  22.833  1.00  0.00     0.048 A 
ATOM     10  C   UNL A   1      31.556  24.482  23.417  1.00  0.00     0.004 A 
ATOM     11  C   UNL A   1      33.584  25.783  23.317  1.00  0.00     0.018 A 
ATOM     12  C   UNL A   1      32.923  24.596  23.643  1.00  0.00     0.001 A 
BRANCH   8  13
ATOM     13  O   UNL A   1      30.671  27.715  21.978  1.00  0.00    -0.426 OA
BRANCH  13  14
ATOM     14  C   UNL A   1      30.061  28.612  22.851  1.00  0.00     0.308 C 
ATOM     15  C   UNL A   1      29.325  29.643  22.031  1.00  0.00     0.139 C 
ATOM     16  O   UNL A   1      30.122  28.590  24.068  1.00  0.00    -0.252 OA
ENDBRANCH  13  14
ENDBRANCH   8  13
ENDBRANCH   4   7
ENDBRANCH   2   3
ENDBRANCH   1   2
BRANCH   1  17
ATOM     17  C   UNL A   1      33.298  28.617  27.399  1.00  0.00     0.118 C 
BRANCH  17  18
ATOM     18  N   UNL A   1      33.437  30.017  27.804  1.00  0.00    -0.352 N 
ATOM     19  C   UNL A   1      34.504  30.730  28.307  1.00  0.00     0.251 C 
ATOM     20  H   UNL A   1      32.614  30.548  27.697  1.00  0.00     0.163 HD
ATOM     21  O   UNL A   1      34.327  31.888  28.680  1.00  0.00    -0.269 OA
BRANCH  19  22
ATOM     22  C   UNL A   1      35.839  30.106  28.444  1.00  0.00     0.039 A 
ATOM     23  C   UNL A   1      36.724  30.112  27.362  1.00  0.00     0.014 A 
ATOM     24  C   UNL A   1      36.238  29.537  29.649  1.00  0.00     0.014 A 
ATOM     25  C   UNL A   1      38.040  29.668  27.537  1.00  0.00     0.010 A 
ATOM     26  C   UNL A   1      37.578  29.249  29.867  1.00  0.00     0.010 A 
ATOM     27  C   UNL A   1      38.499  29.300  28.812  1.00  0.00    -0.014 A 
BRANCH  27  28
ATOM     28  C   UNL A   1      39.920  28.951  29.082  1.00  0.00     0.031 A 
ATOM     29  C   UNL A   1      40.854  29.992  29.647  1.00  0.00     0.074 A 
ATOM     30  C   UNL A   1      40.394  27.740  28.723  1.00  0.00     0.049 A 
ATOM     31  N   UNL A   1      42.148  29.933  29.823  1.00  0.00    -0.248 NA
ATOM     32  C   UNL A   1      40.261  31.289  30.017  1.00  0.00     0.031 C 
ATOM     33  C   UNL A   1      39.611  26.668  28.101  1.00  0.00     0.029 A 
ATOM     34  N   UNL A   1      41.658  27.208  28.815  1.00  0.00    -0.354 N 
ATOM     35  C   UNL A   1      42.523  31.189  30.293  1.00  0.00     0.074 A 
ATOM     36  C   UNL A   1      41.334  32.009  30.301  1.00  0.00     0.031 C 
ATOM     37  C   UNL A   1      40.400  25.600  27.903  1.00  0.00     0.029 A 
ATOM     38  C   UNL A   1      41.755  25.923  28.333  1.00  0.00     0.049 A 
ATOM     39  H   UNL A   1      42.422  27.702  29.191  1.00  0.00     0.167 HD
ATOM     40  C   UNL A   1      43.738  31.610  30.715  1.00  0.00     0.037 A 
ATOM     41  C   UNL A   1      42.819  25.101  28.241  1.00  0.00     0.037 A 
ATOM     42  C   UNL A   1      44.907  30.771  30.748  1.00  0.00     0.049 A 
ATOM     43  C   UNL A   1      44.157  25.583  28.733  1.00  0.00     0.074 A 
ATOM     44  C   UNL A   1      46.170  31.074  31.223  1.00  0.00     0.029 A 
ATOM     45  N   UNL A   1      44.954  29.462  30.291  1.00  0.00    -0.354 N 
ATOM     46  N   UNL A   1      44.477  26.751  29.238  1.00  0.00    -0.248 NA
ATOM     47  C   UNL A   1      45.276  24.637  28.649  1.00  0.00     0.031 C 
ATOM     48  C   UNL A   1      46.993  29.965  31.010  1.00  0.00     0.029 A 
ATOM     49  C   UNL A   1      46.230  28.950  30.455  1.00  0.00     0.049 A 
ATOM     50  H   UNL A   1      44.193  28.970  29.907  1.00  0.00     0.167 HD
ATOM     51  C   UNL A   1      45.827  26.668  29.562  1.00  0.00     0.074 A 
ATOM     52  C   UNL A   1      46.258  25.331  29.207  1.00  0.00     0.031 C 
ATOM     53  C   UNL A   1      46.638  27.612  30.104  1.00  0.00     0.037 A 
BRANCH  40  54
ATOM     54  C   UNL A   1      43.860  33.034  31.190  1.00  0.00     0.058 A 
ATOM     55  C   UNL A   1      44.141  34.088  30.305  1.00  0.00     0.135 A 
ATOM     56  C   UNL A   1      43.668  33.354  32.544  1.00  0.00     0.135 A 
ATOM     57  F   UNL A   1      44.352  33.839  29.002  1.00  0.00    -0.206 F 
ATOM     58  C   UNL A   1      44.261  35.401  30.748  1.00  0.00     0.059 A 
ATOM     59  C   UNL A   1      43.750  34.666  33.004  1.00  0.00     0.059 A 
ATOM     60  F   UNL A   1      43.399  32.389  33.436  1.00  0.00    -0.206 F 
ATOM     61  C   UNL A   1      44.062  35.680  32.101  1.00  0.00     0.060 A 
BRANCH  61  62
ATOM     62  S   UNL A   1      44.212  37.391  32.656  1.00  0.00     0.124 S 
ATOM     63  O   UNL A   1      43.080  37.499  33.572  1.00  0.00    -0.237 OA
ATOM     64  O   UNL A   1      45.532  37.400  33.279  1.00  0.00    -0.237 OA
ATOM     65  O   UNL A   1      44.097  38.161  31.423  1.00  0.00    -0.744 OA
ENDBRANCH  61  62
ENDBRANCH  40  54
BRANCH  41  66
ATOM     66  C   UNL A   1      42.656  23.727  27.689  1.00  0.00     0.058 A 
ATOM     67  C   UNL A   1      42.490  22.623  28.540  1.00  0.00     0.135 A 
ATOM     68  C   UNL A   1      42.651  23.488  26.305  1.00  0.00     0.135 A 
ATOM     69  F   UNL A   1      42.493  22.797  29.870  1.00  0.00    -0.206 F 
ATOM     70  C   UNL A   1      42.343  21.332  28.042  1.00  0.00     0.059 A 
ATOM     71  C   UNL A   1      42.477  22.210  25.783  1.00  0.00     0.059 A 
ATOM     72  F   UNL A   1      42.786  24.510  25.447  1.00  0.00    -0.206 F 
ATOM     73  C   UNL A   1      42.335  21.136  26.661  1.00  0.00     0.060 A 
BRANCH  73  74
ATOM     74  S   UNL A   1      42.096  19.462  26.026  1.00  0.00     0.124 S 
ATOM     75  O   UNL A   1      42.942  19.474  24.839  1.00  0.00    -0.237 OA
ATOM     76  O   UNL A   1      42.567  18.644  27.139  1.00  0.00    -0.237 OA
ATOM     77  O   UNL A   1      40.659  19.400  25.778  1.00  0.00    -0.744 OA
ENDBRANCH  73  74
ENDBRANCH  41  66
BRANCH  53  78
ATOM     78  C   UNL A   1      48.061  27.222  30.389  1.00  0.00     0.058 A 
ATOM     79  C   UNL A   1      49.093  27.460  29.468  1.00  0.00     0.135 A 
ATOM     80  C   UNL A   1      48.405  26.649  31.625  1.00  0.00     0.135 A 
ATOM     81  F   UNL A   1      48.819  28.000  28.270  1.00  0.00    -0.206 F 
ATOM     82  C   UNL A   1      50.411  27.118  29.751  1.00  0.00     0.059 A 
ATOM     83  C   UNL A   1      49.720  26.330  31.942  1.00  0.00     0.059 A 
ATOM     84  F   UNL A   1      47.458  26.412  32.547  1.00  0.00    -0.206 F 
ATOM     85  C   UNL A   1      50.715  26.555  30.993  1.00  0.00     0.060 A 
BRANCH  85  86
ATOM     86  S   UNL A   1      52.434  26.144  31.357  1.00  0.00     0.124 S 
ATOM     87  O   UNL A   1      53.040  26.215  30.032  1.00  0.00    -0.237 OA
ATOM     88  O   UNL A   1      52.816  27.201  32.287  1.00  0.00    -0.237 OA
ATOM     89  O   UNL A   1      52.347  24.807  31.938  1.00  0.00    -0.744 OA
ENDBRANCH  85  86
ENDBRANCH  53  78
ENDBRANCH  27  28
ENDBRANCH  19  22
ENDBRANCH  17  18
ENDBRANCH   1  17
TORSDOF 15
ENDMDL
MODEL 2
REMARK VINA RESULT:     -10.7      5.614     11.075
REMARK SMILES CC(=O)Oc1ccccc1C(=O)NCCCNC(=O)c1ccc(-c2c3nc(c(-c4c(F)cc(S(=O)(=O)[O-])cc4F)c4ccc([nH]4)c(-c4c(F)cc(S(=O)(=O)[O-])cc4F)c4nc(c(-c5c(F)cc(S(=O)(=O)[O-])cc5F)c5ccc2[nH]5)C=C4)C=C3)cc1
REMARK SMILES IDX 15 1 14 2 13 3 11 4 12 5 10 7 5 8 6 9 7 10 9 11 8 12 4 13
REMARK SMILES IDX 2 14 1 15 3 16 16 17 17 18 18 19 19 21 20 22 21 23 85 24
REMARK SMILES IDX 22 25 84 26 23 27 24 28 25 29 78 30 26 31 83 32 77 33 79 34
REMARK SMILES IDX 27 35 82 36 76 37 75 38 28 40 62 41 41 42 61 43 42 44 45 45
REMARK SMILES IDX 60 46 80 47 43 48 44 49 59 51 81 52 46 53 29 54 30 55 39 56
REMARK SMILES IDX 31 57 32 58 38 59 40 60 33 61 34 62 35 63 36 64 37 65 63 66
REMARK SMILES IDX 64 67 73 68 65 69 66 70 72 71 74 72 67 73 68 74 69 75 70 76
REMARK SMILES IDX 71 77 47 78 48 79 57 80 49 81 50 82 56 83 58 84 51 85 52 86
REMARK SMILES IDX 53 87 54 88 55 89
REMARK H PARENT 13 6 17 20 79 39 45 50
REMARK Flexibility Score: inf
ROOT
ATOM      1  C   UNL A   1      37.492  23.411  25.156  1.00  0.00     0.042 C 
ENDROOT
BRANCH   1   2
ATOM      2  C   UNL A   1      36.743  22.111  25.314  1.00  0.00     0.118 C 
BRANCH   2   3
ATOM      3  N   UNL A   1      35.892  21.982  26.468  1.00  0.00    -0.352 N 
ATOM      4  C   UNL A   1      34.579  21.577  26.523  1.00  0.00     0.255 C 
ATOM      5  O   UNL A   1      34.077  21.415  27.636  1.00  0.00    -0.269 OA
ATOM      6  H   UNL A   1      36.305  22.214  27.331  1.00  0.00     0.163 HD
BRANCH   4   7
ATOM      7  C   UNL A   1      33.709  21.464  25.314  1.00  0.00     0.082 A 
ATOM      8  C   UNL A   1      33.241  20.307  24.675  1.00  0.00     0.143 A 
ATOM      9  C   UNL A   1      32.548  20.391  23.458  1.00  0.00     0.048 A 
ATOM     10  C   UNL A   1      32.260  21.630  22.891  1.00  0.00     0.004 A 
ATOM     11  C   UNL A   1      33.368  22.708  24.742  1.00  0.00     0.018 A 
ATOM     12  C   UNL A   1      32.654  22.792  23.544  1.00  0.00     0.001 A 
BRANCH   8  13
ATOM     13  O   UNL A   1      33.520  18.983  25.062  1.00  0.00    -0.426 OA
BRANCH  13  14
ATOM     14  C   UNL A   1      34.604  18.309  24.506  1.00  0.00     0.308 C 
ATOM     15  C   UNL A   1      34.081  17.100  23.769  1.00  0.00     0.139 C 
ATOM     16  O   UNL A   1      35.777  18.621  24.607  1.00  0.00    -0.252 OA
ENDBRANCH  13  14
ENDBRANCH   8  13
ENDBRANCH   4   7
ENDBRANCH   2   3
ENDBRANCH   1   2
BRANCH   1  17
ATOM     17  C   UNL A   1      38.282  23.841  26.381  1.00  0.00     0.118 C 
BRANCH  17  18
ATOM     18  N   UNL A   1      39.737  23.784  26.225  1.00  0.00    -0.352 N 
ATOM     19  C   UNL A   1      40.748  24.593  26.698  1.00  0.00     0.251 C 
ATOM     20  H   UNL A   1      40.052  23.027  25.680  1.00  0.00     0.163 HD
ATOM     21  O   UNL A   1      41.901  24.391  26.324  1.00  0.00    -0.269 OA
BRANCH  19  22
ATOM     22  C   UNL A   1      40.453  25.725  27.607  1.00  0.00     0.039 A 
ATOM     23  C   UNL A   1      39.490  25.578  28.610  1.00  0.00     0.014 A 
ATOM     24  C   UNL A   1      41.145  26.926  27.495  1.00  0.00     0.014 A 
ATOM     25  C   UNL A   1      39.325  26.586  29.567  1.00  0.00     0.010 A 
ATOM     26  C   UNL A   1      41.098  27.849  28.530  1.00  0.00     0.010 A 
ATOM     27  C   UNL A   1      40.180  27.699  29.578  1.00  0.00    -0.014 A 
BRANCH  27  28
ATOM     28  C   UNL A   1      40.139  28.731  30.649  1.00  0.00     0.031 A 
ATOM     29  C   UNL A   1      41.025  28.588  31.862  1.00  0.00     0.074 A 
ATOM     30  C   UNL A   1      39.235  29.731  30.585  1.00  0.00     0.049 A 
ATOM     31  N   UNL A   1      41.042  29.295  32.962  1.00  0.00    -0.248 NA
ATOM     32  C   UNL A   1      41.988  27.473  31.857  1.00  0.00     0.031 C 
ATOM     33  C   UNL A   1      38.271  29.940  29.502  1.00  0.00     0.029 A 
ATOM     34  N   UNL A   1      38.969  30.755  31.461  1.00  0.00    -0.354 N 
ATOM     35  C   UNL A   1      41.989  28.693  33.784  1.00  0.00     0.074 A 
ATOM     36  C   UNL A   1      42.468  27.520  33.089  1.00  0.00     0.031 C 
ATOM     37  C   UNL A   1      37.547  31.041  29.758  1.00  0.00     0.029 A 
ATOM     38  C   UNL A   1      37.956  31.590  31.046  1.00  0.00     0.049 A 
ATOM     39  H   UNL A   1      39.457  30.880  32.306  1.00  0.00     0.167 HD
ATOM     40  C   UNL A   1      42.447  29.097  34.992  1.00  0.00     0.037 A 
ATOM     41  C   UNL A   1      37.412  32.669  31.641  1.00  0.00     0.037 A 
ATOM     42  C   UNL A   1      41.997  30.293  35.656  1.00  0.00     0.049 A 
ATOM     43  C   UNL A   1      37.948  33.113  32.976  1.00  0.00     0.074 A 
ATOM     44  C   UNL A   1      42.445  30.835  36.847  1.00  0.00     0.029 A 
ATOM     45  N   UNL A   1      41.001  31.134  35.183  1.00  0.00    -0.354 N 
ATOM     46  N   UNL A   1      38.892  32.569  33.706  1.00  0.00    -0.248 NA
ATOM     47  C   UNL A   1      37.351  34.319  33.564  1.00  0.00     0.031 C 
ATOM     48  C   UNL A   1      41.686  31.977  37.118  1.00  0.00     0.029 A 
ATOM     49  C   UNL A   1      40.806  32.180  36.068  1.00  0.00     0.049 A 
ATOM     50  H   UNL A   1      40.506  31.006  34.341  1.00  0.00     0.167 HD
ATOM     51  C   UNL A   1      39.025  33.385  34.826  1.00  0.00     0.074 A 
ATOM     52  C   UNL A   1      38.073  34.465  34.667  1.00  0.00     0.031 C 
ATOM     53  C   UNL A   1      39.858  33.252  35.888  1.00  0.00     0.037 A 
BRANCH  40  54
ATOM     54  C   UNL A   1      43.496  28.252  35.664  1.00  0.00     0.058 A 
ATOM     55  C   UNL A   1      43.158  27.243  36.581  1.00  0.00     0.135 A 
ATOM     56  C   UNL A   1      44.857  28.433  35.367  1.00  0.00     0.135 A 
ATOM     57  F   UNL A   1      41.874  27.036  36.916  1.00  0.00    -0.206 F 
ATOM     58  C   UNL A   1      44.130  26.469  37.206  1.00  0.00     0.059 A 
ATOM     59  C   UNL A   1      45.845  27.647  35.955  1.00  0.00     0.059 A 
ATOM     60  F   UNL A   1      45.240  29.382  34.500  1.00  0.00    -0.206 F 
ATOM     61  C   UNL A   1      45.472  26.678  36.885  1.00  0.00     0.060 A 
BRANCH  61  62
ATOM     62  S   UNL A   1      46.719  25.657  37.698  1.00  0.00     0.124 S 
ATOM     63  O   UNL A   1      45.917  24.968  38.705  1.00  0.00    -0.237 OA
ATOM     64  O   UNL A   1      47.205  24.828  36.601  1.00  0.00    -0.237 OA
ATOM     65  O   UNL A   1      47.673  26.632  38.216  1.00  0.00    -0.744 OA
ENDBRANCH  61  62
ENDBRANCH  40  54
BRANCH  41  66
ATOM     66  C   UNL A   1      36.320  33.424  30.966  1.00  0.00     0.058 A 
ATOM     67  C   UNL A   1      35.004  33.377  31.452  1.00  0.00     0.135 A 
ATOM     68  C   UNL A   1      36.566  34.217  29.834  1.00  0.00     0.135 A 
ATOM     69  F   UNL A   1      34.714  32.631  32.528  1.00  0.00    -0.206 F 
ATOM     70  C   UNL A   1      33.969  34.070  30.831  1.00  0.00     0.059 A 
ATOM     71  C   UNL A   1      35.554  34.942  29.211  1.00  0.00     0.059 A 
ATOM     72  F   UNL A   1      37.810  34.313  29.339  1.00  0.00    -0.206 F 
ATOM     73  C   UNL A   1      34.256  34.853  29.712  1.00  0.00     0.060 A 
BRANCH  73  74
ATOM     74  S   UNL A   1      32.914  35.787  28.943  1.00  0.00     0.124 S 
ATOM     75  O   UNL A   1      32.336  34.789  28.050  1.00  0.00    -0.237 OA
ATOM     76  O   UNL A   1      32.103  36.161  30.096  1.00  0.00    -0.237 OA
ATOM     77  O   UNL A   1      33.608  36.893  28.290  1.00  0.00    -0.744 OA
ENDBRANCH  73  74
ENDBRANCH  41  66
BRANCH  53  78
ATOM     78  C   UNL A   1      39.812  34.323  36.942  1.00  0.00     0.058 A 
ATOM     79  C   UNL A   1      39.043  34.183  38.107  1.00  0.00     0.135 A 
ATOM     80  C   UNL A   1      40.592  35.484  36.807  1.00  0.00     0.135 A 
ATOM     81  F   UNL A   1      38.275  33.095  38.285  1.00  0.00    -0.206 F 
ATOM     82  C   UNL A   1      39.026  35.168  39.088  1.00  0.00     0.059 A 
ATOM     83  C   UNL A   1      40.615  36.466  37.790  1.00  0.00     0.059 A 
ATOM     84  F   UNL A   1      41.356  35.662  35.717  1.00  0.00    -0.206 F 
ATOM     85  C   UNL A   1      39.818  36.306  38.922  1.00  0.00     0.060 A 
BRANCH  85  86
ATOM     86  S   UNL A   1      39.809  37.563  40.217  1.00  0.00     0.124 S 
ATOM     87  O   UNL A   1      39.112  36.870  41.294  1.00  0.00    -0.237 OA
ATOM     88  O   UNL A   1      41.233  37.799  40.431  1.00  0.00    -0.237 OA
ATOM     89  O   UNL A   1      39.080  38.673  39.608  1.00  0.00    -0.744 OA
ENDBRANCH  85  86
ENDBRANCH  53  78
ENDBRANCH  27  28
ENDBRANCH  19  22
ENDBRANCH  17  18
ENDBRANCH   1  17
TORSDOF 15
ENDMDL
MODEL 3
REMARK VINA RESULT:     -10.7      5.566     10.985
REMARK SMILES CC(=O)Oc1ccccc1C(=O)NCCCNC(=O)c1ccc(-c2c3nc(c(-c4c(F)cc(S(=O)(=O)[O-])cc4F)c4ccc([nH]4)c(-c4c(F)cc(S(=O)(=O)[O-])cc4F)c4nc(c(-c5c(F)cc(S(=O)(=O)[O-])cc5F)c5ccc2[nH]5)C=C4)C=C3)cc1
REMARK SMILES IDX 15 1 14 2 13 3 11 4 12 5 10 7 5 8 6 9 7 10 9 11 8 12 4 13
REMARK SMILES IDX 2 14 1 15 3 16 16 17 17 18 18 19 19 21 20 22 21 23 85 24
REMARK SMILES IDX 22 25 84 26 23 27 24 28 25 29 78 30 26 31 83 32 77 33 79 34
REMARK SMILES IDX 27 35 82 36 76 37 75 38 28 40 62 41 41 42 61 43 42 44 45 45
REMARK SMILES IDX 60 46 80 47 43 48 44 49 59 51 81 52 46 53 29 54 30 55 39 56
REMARK SMILES IDX 31 57 32 58 38 59 40 60 33 61 34 62 35 63 36 64 37 65 63 66
REMARK SMILES IDX 64 67 73 68 65 69 66 70 72 71 74 72 67 73 68 74 69 75 70 76
REMARK SMILES IDX 71 77 47 78 48 79 57 80 49 81 50 82 56 83 58 84 51 85 52 86
REMARK SMILES IDX 53 87 54 88 55 89
REMARK H PARENT 13 6 17 20 79 39 45 50
REMARK Flexibility Score: inf
ROOT
ATOM      1  C   UNL A   1      37.606  23.456  25.288  1.00  0.00     0.042 C 
ENDROOT
BRANCH   1   2
ATOM      2  C   UNL A   1      36.749  22.217  25.373  1.00  0.00     0.118 C 
BRANCH   2   3
ATOM      3  N   UNL A   1      35.952  22.052  26.561  1.00  0.00    -0.352 N 
ATOM      4  C   UNL A   1      34.612  21.762  26.659  1.00  0.00     0.255 C 
ATOM      5  O   UNL A   1      34.157  21.537  27.782  1.00  0.00    -0.269 OA
ATOM      6  H   UNL A   1      36.430  22.161  27.415  1.00  0.00     0.163 HD
BRANCH   4   7
ATOM      7  C   UNL A   1      33.672  21.845  25.502  1.00  0.00     0.082 A 
ATOM      8  C   UNL A   1      33.400  20.880  24.521  1.00  0.00     0.143 A 
ATOM      9  C   UNL A   1      32.591  21.188  23.417  1.00  0.00     0.048 A 
ATOM     10  C   UNL A   1      31.991  22.440  23.306  1.00  0.00     0.004 A 
ATOM     11  C   UNL A   1      33.020  23.092  25.387  1.00  0.00     0.018 A 
ATOM     12  C   UNL A   1      32.191  23.388  24.302  1.00  0.00     0.001 A 
BRANCH   8  13
ATOM     13  O   UNL A   1      33.991  19.605  24.435  1.00  0.00    -0.426 OA
BRANCH  13  14
ATOM     14  C   UNL A   1      33.322  18.493  24.940  1.00  0.00     0.308 C 
ATOM     15  C   UNL A   1      34.088  17.257  24.535  1.00  0.00     0.139 C 
ATOM     16  O   UNL A   1      32.285  18.503  25.580  1.00  0.00    -0.252 OA
ENDBRANCH  13  14
ENDBRANCH   8  13
ENDBRANCH   4   7
ENDBRANCH   2   3
ENDBRANCH   1   2
BRANCH   1  17
ATOM     17  C   UNL A   1      38.468  23.716  26.512  1.00  0.00     0.118 C 
BRANCH  17  18
ATOM     18  N   UNL A   1      39.909  23.739  26.254  1.00  0.00    -0.352 N 
ATOM     19  C   UNL A   1      40.903  24.609  26.650  1.00  0.00     0.251 C 
ATOM     20  H   UNL A   1      40.228  22.994  25.694  1.00  0.00     0.163 HD
ATOM     21  O   UNL A   1      42.037  24.467  26.197  1.00  0.00    -0.269 OA
BRANCH  19  22
ATOM     22  C   UNL A   1      40.609  25.732  27.569  1.00  0.00     0.039 A 
ATOM     23  C   UNL A   1      39.612  25.594  28.539  1.00  0.00     0.014 A 
ATOM     24  C   UNL A   1      41.334  26.917  27.499  1.00  0.00     0.014 A 
ATOM     25  C   UNL A   1      39.442  26.589  29.507  1.00  0.00     0.010 A 
ATOM     26  C   UNL A   1      41.278  27.824  28.548  1.00  0.00     0.010 A 
ATOM     27  C   UNL A   1      40.324  27.680  29.564  1.00  0.00    -0.014 A 
BRANCH  27  28
ATOM     28  C   UNL A   1      40.276  28.695  30.651  1.00  0.00     0.031 A 
ATOM     29  C   UNL A   1      41.167  28.542  31.859  1.00  0.00     0.074 A 
ATOM     30  C   UNL A   1      39.361  29.686  30.606  1.00  0.00     0.049 A 
ATOM     31  N   UNL A   1      41.180  29.233  32.970  1.00  0.00    -0.248 NA
ATOM     32  C   UNL A   1      42.141  27.437  31.834  1.00  0.00     0.031 C 
ATOM     33  C   UNL A   1      38.392  29.902  29.528  1.00  0.00     0.029 A 
ATOM     34  N   UNL A   1      39.087  30.694  31.498  1.00  0.00    -0.354 N 
ATOM     35  C   UNL A   1      42.135  28.627  33.780  1.00  0.00     0.074 A 
ATOM     36  C   UNL A   1      42.624  27.471  33.065  1.00  0.00     0.031 C 
ATOM     37  C   UNL A   1      37.658  30.991  29.804  1.00  0.00     0.029 A 
ATOM     38  C   UNL A   1      38.064  31.524  31.099  1.00  0.00     0.049 A 
ATOM     39  H   UNL A   1      39.576  30.811  32.344  1.00  0.00     0.167 HD
ATOM     40  C   UNL A   1      42.592  29.018  34.993  1.00  0.00     0.037 A 
ATOM     41  C   UNL A   1      37.511  32.589  31.712  1.00  0.00     0.037 A 
ATOM     42  C   UNL A   1      42.133  30.198  35.677  1.00  0.00     0.049 A 
ATOM     43  C   UNL A   1      38.046  33.017  33.052  1.00  0.00     0.074 A 
ATOM     44  C   UNL A   1      42.578  30.726  36.875  1.00  0.00     0.029 A 
ATOM     45  N   UNL A   1      41.127  31.035  35.219  1.00  0.00    -0.354 N 
ATOM     46  N   UNL A   1      38.998  32.471  33.772  1.00  0.00    -0.248 NA
ATOM     47  C   UNL A   1      37.439  34.208  33.661  1.00  0.00     0.031 C 
ATOM     48  C   UNL A   1      41.808  31.856  37.166  1.00  0.00     0.029 A 
ATOM     49  C   UNL A   1      40.923  32.066  36.121  1.00  0.00     0.049 A 
ATOM     50  H   UNL A   1      40.630  30.915  34.377  1.00  0.00     0.167 HD
ATOM     51  C   UNL A   1      39.126  33.271  34.903  1.00  0.00     0.074 A 
ATOM     52  C   UNL A   1      38.162  34.344  34.764  1.00  0.00     0.031 C 
ATOM     53  C   UNL A   1      39.964  33.131  35.961  1.00  0.00     0.037 A 
BRANCH  40  54
ATOM     54  C   UNL A   1      43.653  28.172  35.648  1.00  0.00     0.058 A 
ATOM     55  C   UNL A   1      45.020  28.371  35.391  1.00  0.00     0.135 A 
ATOM     56  C   UNL A   1      43.301  27.168  36.565  1.00  0.00     0.135 A 
ATOM     57  F   UNL A   1      45.414  29.304  34.510  1.00  0.00    -0.206 F 
ATOM     58  C   UNL A   1      45.996  27.583  35.991  1.00  0.00     0.059 A 
ATOM     59  C   UNL A   1      44.264  26.391  37.203  1.00  0.00     0.059 A 
ATOM     60  F   UNL A   1      42.011  26.932  36.848  1.00  0.00    -0.206 F 
ATOM     61  C   UNL A   1      45.608  26.596  36.897  1.00  0.00     0.060 A 
BRANCH  61  62
ATOM     62  S   UNL A   1      46.891  25.590  37.674  1.00  0.00     0.124 S 
ATOM     63  O   UNL A   1      46.963  24.455  36.757  1.00  0.00    -0.237 OA
ATOM     64  O   UNL A   1      48.041  26.488  37.660  1.00  0.00    -0.237 OA
ATOM     65  O   UNL A   1      46.342  25.297  38.993  1.00  0.00    -0.744 OA
ENDBRANCH  61  62
ENDBRANCH  40  54
BRANCH  41  66
ATOM     66  C   UNL A   1      36.409  33.343  31.052  1.00  0.00     0.058 A 
ATOM     67  C   UNL A   1      36.664  34.172  29.948  1.00  0.00     0.135 A 
ATOM     68  C   UNL A   1      35.082  33.243  31.497  1.00  0.00     0.135 A 
ATOM     69  F   UNL A   1      37.916  34.306  29.486  1.00  0.00    -0.206 F 
ATOM     70  C   UNL A   1      35.648  34.889  29.323  1.00  0.00     0.059 A 
ATOM     71  C   UNL A   1      34.045  33.928  30.871  1.00  0.00     0.059 A 
ATOM     72  F   UNL A   1      34.780  32.449  32.536  1.00  0.00    -0.206 F 
ATOM     73  C   UNL A   1      34.341  34.757  29.790  1.00  0.00     0.060 A 
BRANCH  73  74
ATOM     74  S   UNL A   1      33.024  35.656  28.941  1.00  0.00     0.124 S 
ATOM     75  O   UNL A   1      33.785  36.613  28.147  1.00  0.00    -0.237 OA
ATOM     76  O   UNL A   1      32.360  34.592  28.195  1.00  0.00    -0.237 OA
ATOM     77  O   UNL A   1      32.243  36.222  30.037  1.00  0.00    -0.744 OA
ENDBRANCH  73  74
ENDBRANCH  41  66
BRANCH  53  78
ATOM     78  C   UNL A   1      39.910  34.185  37.031  1.00  0.00     0.058 A 
ATOM     79  C   UNL A   1      40.540  35.430  36.878  1.00  0.00     0.135 A 
ATOM     80  C   UNL A   1      39.171  33.965  38.205  1.00  0.00     0.135 A 
ATOM     81  F   UNL A   1      41.264  35.690  35.777  1.00  0.00    -0.206 F 
ATOM     82  C   UNL A   1      40.464  36.408  37.863  1.00  0.00     0.059 A 
ATOM     83  C   UNL A   1      39.054  34.941  39.188  1.00  0.00     0.059 A 
ATOM     84  F   UNL A   1      38.538  32.797  38.396  1.00  0.00    -0.206 F 
ATOM     85  C   UNL A   1      39.716  36.155  39.015  1.00  0.00     0.060 A 
BRANCH  85  86
ATOM     86  S   UNL A   1      39.602  37.444  40.272  1.00  0.00     0.124 S 
ATOM     87  O   UNL A   1      41.009  37.686  40.573  1.00  0.00    -0.237 OA
ATOM     88  O   UNL A   1      38.913  38.514  39.558  1.00  0.00    -0.237 OA
ATOM     89  O   UNL A   1      38.831  36.812  41.339  1.00  0.00    -0.744 OA
ENDBRANCH  85  86
ENDBRANCH  53  78
ENDBRANCH  27  28
ENDBRANCH  19  22
ENDBRANCH  17  18
ENDBRANCH   1  17
TORSDOF 15
ENDMDL
