MODEL 1
REMARK VINA RESULT:     -13.1      0.000      0.000
REMARK SMILES O=C(CN1C(=O)/C(=C/c2cccs2)SC1=S)Nc1ccc(O)cc1C(=O)NCCCNC(=O)c1ccc(-c2c3nc(c(-c4c(F)cc(S(=O)(=O)[O-])cc4F)c4ccc([nH]4)c(-c4c(F)cc(S(=O)(=O)[O-])cc4F)c4nc(c(-c5c(F)cc(S(=O)(=O)[O-])cc5F)c5ccc2[nH]5)C=C4)C=C3)cc1
REMARK SMILES IDX 28 1 27 2 25 3 26 4 24 6 18 7 19 8 20 9 23 10 21 11 17 12
REMARK SMILES IDX 1 13 2 14 3 16 4 17 5 18 15 19 6 20 7 21 14 22 16 23 8 24
REMARK SMILES IDX 9 25 10 26 13 27 11 28 12 29 22 30 29 32 30 33 31 34 32 35
REMARK SMILES IDX 33 37 34 38 35 39 99 40 36 41 98 42 37 43 38 44 39 45 92 46
REMARK SMILES IDX 40 47 97 48 91 49 93 50 41 51 96 52 90 53 89 54 42 56 76 57
REMARK SMILES IDX 55 58 75 59 56 60 59 61 74 62 94 63 57 64 58 65 73 67 95 68
REMARK SMILES IDX 60 69 43 70 44 71 53 72 45 73 46 74 52 75 54 76 47 77 48 78
REMARK SMILES IDX 49 79 50 80 51 81 77 82 78 83 87 84 79 85 80 86 86 87 88 88
REMARK SMILES IDX 81 89 82 90 83 91 84 92 85 93 61 94 62 95 71 96 63 97 64 98
REMARK SMILES IDX 70 99 72 100 65 101 66 102 67 103 68 104 69 105
REMARK H PARENT 27 5 17 15 22 31 31 36 93 55 59 66
REMARK Flexibility Score: inf
ROOT
ATOM      1  C   UNL A   1      36.537  20.934  24.817  1.00  0.00     0.118 C 
ENDROOT
BRANCH   1   2
ATOM      2  N   UNL A   1      35.608  20.992  25.913  1.00  0.00    -0.352 N 
ATOM      3  C   UNL A   1      34.315  20.522  25.956  1.00  0.00     0.253 C 
ATOM      4  O   UNL A   1      33.606  20.801  26.919  1.00  0.00    -0.269 OA
ATOM      5  H   UNL A   1      35.939  21.421  26.735  1.00  0.00     0.163 HD
BRANCH   3   6
ATOM      6  C   UNL A   1      33.737  19.764  24.820  1.00  0.00     0.067 A 
ATOM      7  C   UNL A   1      32.633  20.173  24.040  1.00  0.00     0.054 A 
ATOM      8  C   UNL A   1      32.103  19.270  23.110  1.00  0.00     0.031 A 
ATOM      9  C   UNL A   1      32.674  18.002  22.931  1.00  0.00     0.048 A 
ATOM     10  C   UNL A   1      34.311  18.498  24.627  1.00  0.00     0.062 A 
ATOM     11  C   UNL A   1      33.778  17.631  23.688  1.00  0.00     0.116 A 
BRANCH   7  12
ATOM     12  N   UNL A   1      32.041  21.456  24.227  1.00  0.00    -0.324 N 
ATOM     13  O   UNL A   1      33.272  22.596  22.614  1.00  0.00    -0.273 OA
ATOM     14  C   UNL A   1      32.331  22.550  23.403  1.00  0.00     0.244 C 
ATOM     15  H   UNL A   1      31.402  21.578  24.966  1.00  0.00     0.170 HD
BRANCH  14  16
ATOM     16  C   UNL A   1      31.238  23.631  23.399  1.00  0.00     0.227 C 
BRANCH  16  17
ATOM     17  N   UNL A   1      31.776  24.910  23.882  1.00  0.00    -0.283 N 
ATOM     18  C   UNL A   1      31.510  25.381  25.594  1.00  0.00     0.266 C 
ATOM     19  C   UNL A   1      32.506  26.046  22.729  1.00  0.00     0.148 C 
ATOM     20  O   UNL A   1      30.921  24.736  26.440  1.00  0.00    -0.268 OA
ATOM     21  C   UNL A   1      32.199  27.255  25.802  1.00  0.00     0.081 C 
ATOM     22  S   UNL A   1      33.065  28.004  23.803  1.00  0.00    -0.054 SA
ATOM     23  S   UNL A   1      32.541  25.965  21.036  1.00  0.00    -0.052 S 
ATOM     24  C   UNL A   1      32.087  28.059  26.870  1.00  0.00     0.040 C 
BRANCH  24  25
ATOM     25  C   UNL A   1      32.356  29.459  26.892  1.00  0.00     0.028 A 
ATOM     26  C   UNL A   1      31.529  30.555  26.690  1.00  0.00     0.020 A 
ATOM     27  S   UNL A   1      33.919  29.997  27.389  1.00  0.00    -0.144 S 
ATOM     28  C   UNL A   1      32.148  31.802  26.990  1.00  0.00     0.012 A 
ATOM     29  C   UNL A   1      33.452  31.639  27.386  1.00  0.00     0.065 A 
ENDBRANCH  24  25
ENDBRANCH  16  17
ENDBRANCH  14  16
ENDBRANCH   7  12
BRANCH  11  30
ATOM     30  O   UNL A   1      34.361  16.407  23.555  1.00  0.00    -0.508 OA
ATOM     31  H   UNL A   1      34.695  16.135  22.723  1.00  0.00     0.293 HD
ENDBRANCH  11  30
ENDBRANCH   3   6
ENDBRANCH   1   2
BRANCH   1  32
ATOM     32  C   UNL A   1      37.837  19.921  24.880  1.00  0.00     0.042 C 
BRANCH  32  33
ATOM     33  C   UNL A   1      39.684  19.562  26.048  1.00  0.00     0.118 C 
BRANCH  33  34
ATOM     34  N   UNL A   1      41.091  18.934  25.815  1.00  0.00    -0.352 N 
ATOM     35  C   UNL A   1      42.324  19.563  26.067  1.00  0.00     0.251 C 
ATOM     36  H   UNL A   1      41.120  18.015  25.462  1.00  0.00     0.163 HD
ATOM     37  O   UNL A   1      43.369  18.942  25.904  1.00  0.00    -0.269 OA
BRANCH  35  38
ATOM     38  C   UNL A   1      42.364  20.996  26.489  1.00  0.00     0.039 A 
ATOM     39  C   UNL A   1      42.645  21.335  27.811  1.00  0.00     0.014 A 
ATOM     40  C   UNL A   1      42.254  22.013  25.546  1.00  0.00     0.014 A 
ATOM     41  C   UNL A   1      42.964  22.666  28.136  1.00  0.00     0.010 A 
ATOM     42  C   UNL A   1      42.748  23.284  25.834  1.00  0.00     0.010 A 
ATOM     43  C   UNL A   1      43.116  23.644  27.133  1.00  0.00    -0.014 A 
BRANCH  43  44
ATOM     44  C   UNL A   1      43.671  25.010  27.419  1.00  0.00     0.031 A 
ATOM     45  C   UNL A   1      45.130  25.346  27.156  1.00  0.00     0.074 A 
ATOM     46  C   UNL A   1      42.892  25.944  28.013  1.00  0.00     0.049 A 
ATOM     47  N   UNL A   1      45.772  26.471  27.367  1.00  0.00    -0.248 NA
ATOM     48  C   UNL A   1      45.998  24.268  26.654  1.00  0.00     0.031 C 
ATOM     49  C   UNL A   1      41.519  25.734  28.481  1.00  0.00     0.029 A 
ATOM     50  N   UNL A   1      43.139  27.262  28.328  1.00  0.00    -0.354 N 
ATOM     51  C   UNL A   1      47.106  26.216  27.059  1.00  0.00     0.074 A 
ATOM     52  C   UNL A   1      47.200  24.810  26.747  1.00  0.00     0.031 C 
ATOM     53  C   UNL A   1      41.022  26.892  28.945  1.00  0.00     0.029 A 
ATOM     54  C   UNL A   1      42.049  27.924  28.852  1.00  0.00     0.049 A 
ATOM     55  H   UNL A   1      44.014  27.693  28.191  1.00  0.00     0.167 HD
ATOM     56  C   UNL A   1      48.152  27.075  26.980  1.00  0.00     0.037 A 
ATOM     57  C   UNL A   1      41.882  29.216  29.202  1.00  0.00     0.037 A 
ATOM     58  C   UNL A   1      48.044  28.490  27.216  1.00  0.00     0.049 A 
ATOM     59  C   UNL A   1      43.023  30.179  29.017  1.00  0.00     0.074 A 
ATOM     60  C   UNL A   1      49.009  29.469  27.047  1.00  0.00     0.029 A 
ATOM     61  N   UNL A   1      46.900  29.132  27.666  1.00  0.00    -0.354 N 
ATOM     62  N   UNL A   1      44.241  29.942  28.594  1.00  0.00    -0.248 NA
ATOM     63  C   UNL A   1      42.765  31.590  29.341  1.00  0.00     0.031 C 
ATOM     64  C   UNL A   1      48.461  30.694  27.437  1.00  0.00     0.029 A 
ATOM     65  C   UNL A   1      47.139  30.489  27.797  1.00  0.00     0.049 A 
ATOM     66  H   UNL A   1      46.044  28.687  27.864  1.00  0.00     0.167 HD
ATOM     67  C   UNL A   1      44.886  31.173  28.574  1.00  0.00     0.074 A 
ATOM     68  C   UNL A   1      43.920  32.157  29.014  1.00  0.00     0.031 C 
ATOM     69  C   UNL A   1      46.164  31.461  28.224  1.00  0.00     0.037 A 
BRANCH  56  70
ATOM     70  C   UNL A   1      49.495  26.517  26.578  1.00  0.00     0.058 A 
ATOM     71  C   UNL A   1      49.912  26.488  25.236  1.00  0.00     0.135 A 
ATOM     72  C   UNL A   1      50.391  26.030  27.545  1.00  0.00     0.135 A 
ATOM     73  F   UNL A   1      49.098  26.934  24.265  1.00  0.00    -0.206 F 
ATOM     74  C   UNL A   1      51.139  25.951  24.862  1.00  0.00     0.059 A 
ATOM     75  C   UNL A   1      51.642  25.523  27.197  1.00  0.00     0.059 A 
ATOM     76  F   UNL A   1      50.056  26.040  28.845  1.00  0.00    -0.206 F 
ATOM     77  C   UNL A   1      51.997  25.468  25.849  1.00  0.00     0.060 A 
BRANCH  77  78
ATOM     78  S   UNL A   1      53.581  24.766  25.343  1.00  0.00     0.124 S 
ATOM     79  O   UNL A   1      54.370  24.922  26.562  1.00  0.00    -0.237 OA
ATOM     80  O   UNL A   1      53.219  23.396  24.996  1.00  0.00    -0.237 OA
ATOM     81  O   UNL A   1      53.985  25.608  24.222  1.00  0.00    -0.744 OA
ENDBRANCH  77  78
ENDBRANCH  56  70
BRANCH  57  82
ATOM     82  C   UNL A   1      40.556  29.687  29.699  1.00  0.00     0.058 A 
ATOM     83  C   UNL A   1      40.355  29.969  31.060  1.00  0.00     0.135 A 
ATOM     84  C   UNL A   1      39.476  29.892  28.827  1.00  0.00     0.135 A 
ATOM     85  F   UNL A   1      41.353  29.782  31.937  1.00  0.00    -0.206 F 
ATOM     86  C   UNL A   1      39.131  30.424  31.541  1.00  0.00     0.059 A 
ATOM     87  C   UNL A   1      38.249  30.374  29.280  1.00  0.00     0.059 A 
ATOM     88  F   UNL A   1      39.617  29.654  27.514  1.00  0.00    -0.206 F 
ATOM     89  C   UNL A   1      38.084  30.630  30.640  1.00  0.00     0.060 A 
BRANCH  89  90
ATOM     90  S   UNL A   1      36.519  31.279  31.269  1.00  0.00     0.124 S 
ATOM     91  O   UNL A   1      35.848  31.676  30.037  1.00  0.00    -0.237 OA
ATOM     92  O   UNL A   1      35.960  30.119  31.955  1.00  0.00    -0.237 OA
ATOM     93  O   UNL A   1      36.935  32.373  32.142  1.00  0.00    -0.744 OA
ENDBRANCH  89  90
ENDBRANCH  57  82
BRANCH  69  94
ATOM     94  C   UNL A   1      46.592  32.903  28.261  1.00  0.00     0.058 A 
ATOM     95  C   UNL A   1      46.370  33.767  27.178  1.00  0.00     0.135 A 
ATOM     96  C   UNL A   1      47.167  33.441  29.423  1.00  0.00     0.135 A 
ATOM     97  F   UNL A   1      45.827  33.303  26.042  1.00  0.00    -0.206 F 
ATOM     98  C   UNL A   1      46.724  35.111  27.238  1.00  0.00     0.059 A 
ATOM     99  C   UNL A   1      47.501  34.788  29.517  1.00  0.00     0.059 A 
ATOM    100  F   UNL A   1      47.389  32.660  30.492  1.00  0.00    -0.206 F 
ATOM    101  C   UNL A   1      47.285  35.613  28.414  1.00  0.00     0.060 A 
BRANCH 101 102
ATOM    102  S   UNL A   1      47.701  37.368  28.494  1.00  0.00     0.124 S 
ATOM    103  O   UNL A   1      49.158  37.322  28.571  1.00  0.00    -0.237 OA
ATOM    104  O   UNL A   1      47.148  37.876  27.242  1.00  0.00    -0.237 OA
ATOM    105  O   UNL A   1      47.022  37.825  29.702  1.00  0.00    -0.744 OA
ENDBRANCH 101 102
ENDBRANCH  69  94
ENDBRANCH  43  44
ENDBRANCH  35  38
ENDBRANCH  33  34
ENDBRANCH  32  33
ENDBRANCH   1  32
TORSDOF 18
ENDMDL
MODEL 2
REMARK VINA RESULT:     -12.6      6.033     12.191
REMARK SMILES O=C(CN1C(=O)/C(=C/c2cccs2)SC1=S)Nc1ccc(O)cc1C(=O)NCCCNC(=O)c1ccc(-c2c3nc(c(-c4c(F)cc(S(=O)(=O)[O-])cc4F)c4ccc([nH]4)c(-c4c(F)cc(S(=O)(=O)[O-])cc4F)c4nc(c(-c5c(F)cc(S(=O)(=O)[O-])cc5F)c5ccc2[nH]5)C=C4)C=C3)cc1
REMARK SMILES IDX 28 1 27 2 25 3 26 4 24 6 18 7 19 8 20 9 23 10 21 11 17 12
REMARK SMILES IDX 1 13 2 14 3 16 4 17 5 18 15 19 6 20 7 21 14 22 16 23 8 24
REMARK SMILES IDX 9 25 10 26 13 27 11 28 12 29 22 30 29 32 30 33 31 34 32 35
REMARK SMILES IDX 33 37 34 38 35 39 99 40 36 41 98 42 37 43 38 44 39 45 92 46
REMARK SMILES IDX 40 47 97 48 91 49 93 50 41 51 96 52 90 53 89 54 42 56 76 57
REMARK SMILES IDX 55 58 75 59 56 60 59 61 74 62 94 63 57 64 58 65 73 67 95 68
REMARK SMILES IDX 60 69 43 70 44 71 53 72 45 73 46 74 52 75 54 76 47 77 48 78
REMARK SMILES IDX 49 79 50 80 51 81 77 82 78 83 87 84 79 85 80 86 86 87 88 88
REMARK SMILES IDX 81 89 82 90 83 91 84 92 85 93 61 94 62 95 71 96 63 97 64 98
REMARK SMILES IDX 70 99 72 100 65 101 66 102 67 103 68 104 69 105
REMARK H PARENT 27 5 17 15 22 31 31 36 93 55 59 66
REMARK Flexibility Score: inf
ROOT
ATOM      1  C   UNL A   1      32.140  29.173  26.143  1.00  0.00     0.118 C 
ENDROOT
BRANCH   1   2
ATOM      2  N   UNL A   1      31.463  28.010  26.648  1.00  0.00    -0.352 N 
ATOM      3  C   UNL A   1      30.908  26.972  25.932  1.00  0.00     0.253 C 
ATOM      4  O   UNL A   1      30.222  26.139  26.516  1.00  0.00    -0.269 OA
ATOM      5  H   UNL A   1      31.385  27.948  27.627  1.00  0.00     0.163 HD
BRANCH   3   6
ATOM      6  C   UNL A   1      31.051  26.897  24.458  1.00  0.00     0.067 A 
ATOM      7  C   UNL A   1      31.956  26.061  23.766  1.00  0.00     0.054 A 
ATOM      8  C   UNL A   1      32.088  26.225  22.381  1.00  0.00     0.031 A 
ATOM      9  C   UNL A   1      31.318  27.172  21.691  1.00  0.00     0.048 A 
ATOM     10  C   UNL A   1      30.275  27.834  23.759  1.00  0.00     0.062 A 
ATOM     11  C   UNL A   1      30.414  27.964  22.387  1.00  0.00     0.116 A 
BRANCH   7  12
ATOM     12  N   UNL A   1      32.750  25.106  24.464  1.00  0.00    -0.324 N 
ATOM     13  O   UNL A   1      34.411  26.565  25.190  1.00  0.00    -0.273 OA
ATOM     14  C   UNL A   1      33.866  25.465  25.230  1.00  0.00     0.244 C 
ATOM     15  H   UNL A   1      32.504  24.154  24.406  1.00  0.00     0.170 HD
BRANCH  14  16
ATOM     16  C   UNL A   1      34.236  24.434  26.309  1.00  0.00     0.227 C 
BRANCH  16  17
ATOM     17  N   UNL A   1      34.316  23.087  25.728  1.00  0.00    -0.283 N 
ATOM     18  C   UNL A   1      32.810  22.137  25.505  1.00  0.00     0.266 C 
ATOM     19  C   UNL A   1      35.907  22.352  25.436  1.00  0.00     0.148 C 
ATOM     20  O   UNL A   1      31.681  22.494  25.781  1.00  0.00    -0.268 OA
ATOM     21  C   UNL A   1      33.355  20.303  24.896  1.00  0.00     0.081 C 
ATOM     22  S   UNL A   1      35.647  20.186  24.701  1.00  0.00    -0.054 SA
ATOM     23  S   UNL A   1      37.438  22.916  25.895  1.00  0.00    -0.052 S 
ATOM     24  C   UNL A   1      32.575  19.224  24.736  1.00  0.00     0.040 C 
BRANCH  24  25
ATOM     25  C   UNL A   1      33.030  17.885  24.554  1.00  0.00     0.028 A 
ATOM     26  C   UNL A   1      33.772  17.299  23.538  1.00  0.00     0.020 A 
ATOM     27  S   UNL A   1      32.798  16.748  25.832  1.00  0.00    -0.144 S 
ATOM     28  C   UNL A   1      34.186  15.967  23.826  1.00  0.00     0.012 A 
ATOM     29  C   UNL A   1      33.724  15.546  25.048  1.00  0.00     0.065 A 
ENDBRANCH  24  25
ENDBRANCH  16  17
ENDBRANCH  14  16
ENDBRANCH   7  12
BRANCH  11  30
ATOM     30  O   UNL A   1      29.650  28.902  21.761  1.00  0.00    -0.508 OA
ATOM     31  H   UNL A   1      29.064  28.648  21.075  1.00  0.00     0.293 HD
ENDBRANCH  11  30
ENDBRANCH   3   6
ENDBRANCH   1   2
BRANCH   1  32
ATOM     32  C   UNL A   1      33.143  30.043  27.122  1.00  0.00     0.042 C 
BRANCH  32  33
ATOM     33  C   UNL A   1      33.633  32.136  27.657  1.00  0.00     0.118 C 
BRANCH  33  34
ATOM     34  N   UNL A   1      32.879  33.489  27.827  1.00  0.00    -0.352 N 
ATOM     35  C   UNL A   1      33.261  34.541  28.679  1.00  0.00     0.251 C 
ATOM     36  H   UNL A   1      32.064  33.619  27.290  1.00  0.00     0.163 HD
ATOM     37  O   UNL A   1      32.620  35.588  28.679  1.00  0.00    -0.269 OA
BRANCH  35  38
ATOM     38  C   UNL A   1      34.414  34.372  29.613  1.00  0.00     0.039 A 
ATOM     39  C   UNL A   1      34.221  33.835  30.884  1.00  0.00     0.014 A 
ATOM     40  C   UNL A   1      35.714  34.623  29.183  1.00  0.00     0.014 A 
ATOM     41  C   UNL A   1      35.331  33.414  31.638  1.00  0.00     0.010 A 
ATOM     42  C   UNL A   1      36.791  34.040  29.848  1.00  0.00     0.010 A 
ATOM     43  C   UNL A   1      36.629  33.421  31.091  1.00  0.00    -0.014 A 
BRANCH  43  44
ATOM     44  C   UNL A   1      37.796  32.774  31.780  1.00  0.00     0.031 A 
ATOM     45  C   UNL A   1      38.278  33.247  33.141  1.00  0.00     0.074 A 
ATOM     46  C   UNL A   1      38.504  31.810  31.146  1.00  0.00     0.049 A 
ATOM     47  N   UNL A   1      39.282  32.810  33.863  1.00  0.00    -0.248 NA
ATOM     48  C   UNL A   1      37.589  34.400  33.744  1.00  0.00     0.031 C 
ATOM     49  C   UNL A   1      38.276  31.351  29.773  1.00  0.00     0.029 A 
ATOM     50  N   UNL A   1      39.561  31.036  31.570  1.00  0.00    -0.354 N 
ATOM     51  C   UNL A   1      39.358  33.653  34.969  1.00  0.00     0.074 A 
ATOM     52  C   UNL A   1      38.369  34.686  34.773  1.00  0.00     0.031 C 
ATOM     53  C   UNL A   1      39.106  30.333  29.497  1.00  0.00     0.029 A 
ATOM     54  C   UNL A   1      39.959  30.085  30.654  1.00  0.00     0.049 A 
ATOM     55  H   UNL A   1      39.994  31.151  32.447  1.00  0.00     0.167 HD
ATOM     56  C   UNL A   1      40.132  33.553  36.078  1.00  0.00     0.037 A 
ATOM     57  C   UNL A   1      40.889  29.111  30.736  1.00  0.00     0.037 A 
ATOM     58  C   UNL A   1      41.064  32.482  36.309  1.00  0.00     0.049 A 
ATOM     59  C   UNL A   1      41.673  28.951  32.011  1.00  0.00     0.074 A 
ATOM     60  C   UNL A   1      41.808  32.217  37.445  1.00  0.00     0.029 A 
ATOM     61  N   UNL A   1      41.376  31.494  35.388  1.00  0.00    -0.354 N 
ATOM     62  N   UNL A   1      41.631  29.680  33.101  1.00  0.00    -0.248 NA
ATOM     63  C   UNL A   1      42.618  27.827  32.077  1.00  0.00     0.031 C 
ATOM     64  C   UNL A   1      42.603  31.094  37.195  1.00  0.00     0.029 A 
ATOM     65  C   UNL A   1      42.313  30.627  35.923  1.00  0.00     0.049 A 
ATOM     66  H   UNL A   1      40.988  31.419  34.486  1.00  0.00     0.167 HD
ATOM     67  C   UNL A   1      42.522  29.089  33.990  1.00  0.00     0.074 A 
ATOM     68  C   UNL A   1      43.078  27.934  33.318  1.00  0.00     0.031 C 
ATOM     69  C   UNL A   1      42.850  29.472  35.249  1.00  0.00     0.037 A 
BRANCH  56  70
ATOM     70  C   UNL A   1      39.970  34.605  37.148  1.00  0.00     0.058 A 
ATOM     71  C   UNL A   1      40.727  35.790  37.140  1.00  0.00     0.135 A 
ATOM     72  C   UNL A   1      39.030  34.445  38.179  1.00  0.00     0.135 A 
ATOM     73  F   UNL A   1      41.647  36.000  36.184  1.00  0.00    -0.206 F 
ATOM     74  C   UNL A   1      40.596  36.748  38.140  1.00  0.00     0.059 A 
ATOM     75  C   UNL A   1      38.855  35.409  39.169  1.00  0.00     0.059 A 
ATOM     76  F   UNL A   1      38.270  33.340  38.236  1.00  0.00    -0.206 F 
ATOM     77  C   UNL A   1      39.660  36.548  39.152  1.00  0.00     0.060 A 
BRANCH  77  78
ATOM     78  S   UNL A   1      39.512  37.799  40.446  1.00  0.00     0.124 S 
ATOM     79  O   UNL A   1      40.785  38.502  40.316  1.00  0.00    -0.237 OA
ATOM     80  O   UNL A   1      38.331  38.545  40.026  1.00  0.00    -0.237 OA
ATOM     81  O   UNL A   1      39.352  37.011  41.665  1.00  0.00    -0.744 OA
ENDBRANCH  77  78
ENDBRANCH  56  70
BRANCH  57  82
ATOM     82  C   UNL A   1      41.080  28.166  29.597  1.00  0.00     0.058 A 
ATOM     83  C   UNL A   1      42.181  28.290  28.735  1.00  0.00     0.135 A 
ATOM     84  C   UNL A   1      40.189  27.108  29.364  1.00  0.00     0.135 A 
ATOM     85  F   UNL A   1      43.060  29.289  28.909  1.00  0.00    -0.206 F 
ATOM     86  C   UNL A   1      42.386  27.410  27.676  1.00  0.00     0.059 A 
ATOM     87  C   UNL A   1      40.387  26.197  28.328  1.00  0.00     0.059 A 
ATOM     88  F   UNL A   1      39.128  26.933  30.167  1.00  0.00    -0.206 F 
ATOM     89  C   UNL A   1      41.485  26.361  27.485  1.00  0.00     0.060 A 
BRANCH  89  90
ATOM     90  S   UNL A   1      41.795  25.189  26.145  1.00  0.00     0.124 S 
ATOM     91  O   UNL A   1      40.838  24.133  26.448  1.00  0.00    -0.237 OA
ATOM     92  O   UNL A   1      41.505  25.994  24.961  1.00  0.00    -0.237 OA
ATOM     93  O   UNL A   1      43.200  24.838  26.324  1.00  0.00    -0.744 OA
ENDBRANCH  89  90
ENDBRANCH  57  82
BRANCH  69  94
ATOM     94  C   UNL A   1      43.827  28.616  36.007  1.00  0.00     0.058 A 
ATOM     95  C   UNL A   1      43.409  27.513  36.767  1.00  0.00     0.135 A 
ATOM     96  C   UNL A   1      45.206  28.865  35.915  1.00  0.00     0.135 A 
ATOM     97  F   UNL A   1      42.103  27.234  36.891  1.00  0.00    -0.206 F 
ATOM     98  C   UNL A   1      44.323  26.698  37.426  1.00  0.00     0.059 A 
ATOM     99  C   UNL A   1      46.140  28.045  36.540  1.00  0.00     0.059 A 
ATOM    100  F   UNL A   1      45.660  29.901  35.191  1.00  0.00    -0.206 F 
ATOM    101  C   UNL A   1      45.687  26.970  37.303  1.00  0.00     0.060 A 
BRANCH 101 102
ATOM    102  S   UNL A   1      46.865  25.879  38.128  1.00  0.00     0.124 S 
ATOM    103  O   UNL A   1      47.074  26.575  39.394  1.00  0.00    -0.237 OA
ATOM    104  O   UNL A   1      46.123  24.624  38.210  1.00  0.00    -0.237 OA
ATOM    105  O   UNL A   1      48.010  25.864  37.223  1.00  0.00    -0.744 OA
ENDBRANCH 101 102
ENDBRANCH  69  94
ENDBRANCH  43  44
ENDBRANCH  35  38
ENDBRANCH  33  34
ENDBRANCH  32  33
ENDBRANCH   1  32
TORSDOF 18
ENDMDL
MODEL 3
REMARK VINA RESULT:     -12.5      5.828      8.149
REMARK SMILES O=C(CN1C(=O)/C(=C/c2cccs2)SC1=S)Nc1ccc(O)cc1C(=O)NCCCNC(=O)c1ccc(-c2c3nc(c(-c4c(F)cc(S(=O)(=O)[O-])cc4F)c4ccc([nH]4)c(-c4c(F)cc(S(=O)(=O)[O-])cc4F)c4nc(c(-c5c(F)cc(S(=O)(=O)[O-])cc5F)c5ccc2[nH]5)C=C4)C=C3)cc1
REMARK SMILES IDX 28 1 27 2 25 3 26 4 24 6 18 7 19 8 20 9 23 10 21 11 17 12
REMARK SMILES IDX 1 13 2 14 3 16 4 17 5 18 15 19 6 20 7 21 14 22 16 23 8 24
REMARK SMILES IDX 9 25 10 26 13 27 11 28 12 29 22 30 29 32 30 33 31 34 32 35
REMARK SMILES IDX 33 37 34 38 35 39 99 40 36 41 98 42 37 43 38 44 39 45 92 46
REMARK SMILES IDX 40 47 97 48 91 49 93 50 41 51 96 52 90 53 89 54 42 56 76 57
REMARK SMILES IDX 55 58 75 59 56 60 59 61 74 62 94 63 57 64 58 65 73 67 95 68
REMARK SMILES IDX 60 69 43 70 44 71 53 72 45 73 46 74 52 75 54 76 47 77 48 78
REMARK SMILES IDX 49 79 50 80 51 81 77 82 78 83 87 84 79 85 80 86 86 87 88 88
REMARK SMILES IDX 81 89 82 90 83 91 84 92 85 93 61 94 62 95 71 96 63 97 64 98
REMARK SMILES IDX 70 99 72 100 65 101 66 102 67 103 68 104 69 105
REMARK H PARENT 27 5 17 15 22 31 31 36 93 55 59 66
REMARK Flexibility Score: inf
ROOT
ATOM      1  C   UNL A   1      38.026  21.894  26.025  1.00  0.00     0.118 C 
ENDROOT
BRANCH   1   2
ATOM      2  N   UNL A   1      37.228  22.992  25.550  1.00  0.00    -0.352 N 
ATOM      3  C   UNL A   1      36.014  22.942  24.902  1.00  0.00     0.253 C 
ATOM      4  O   UNL A   1      35.547  23.969  24.419  1.00  0.00    -0.269 OA
ATOM      5  H   UNL A   1      37.596  23.890  25.707  1.00  0.00     0.163 HD
BRANCH   3   6
ATOM      6  C   UNL A   1      35.306  21.653  24.701  1.00  0.00     0.067 A 
ATOM      7  C   UNL A   1      33.920  21.510  24.468  1.00  0.00     0.054 A 
ATOM      8  C   UNL A   1      33.375  20.219  24.464  1.00  0.00     0.031 A 
ATOM      9  C   UNL A   1      34.190  19.094  24.652  1.00  0.00     0.048 A 
ATOM     10  C   UNL A   1      36.117  20.522  24.877  1.00  0.00     0.062 A 
ATOM     11  C   UNL A   1      35.555  19.256  24.852  1.00  0.00     0.116 A 
BRANCH   7  12
ATOM     12  N   UNL A   1      33.086  22.652  24.288  1.00  0.00    -0.324 N 
ATOM     13  O   UNL A   1      32.881  22.516  21.974  1.00  0.00    -0.273 OA
ATOM     14  C   UNL A   1      32.530  22.995  23.050  1.00  0.00     0.244 C 
ATOM     15  H   UNL A   1      32.894  23.223  25.067  1.00  0.00     0.170 HD
BRANCH  14  16
ATOM     16  C   UNL A   1      31.274  23.874  23.156  1.00  0.00     0.227 C 
BRANCH  16  17
ATOM     17  N   UNL A   1      31.523  25.025  24.036  1.00  0.00    -0.283 N 
ATOM     18  C   UNL A   1      32.557  26.370  23.449  1.00  0.00     0.266 C 
ATOM     19  C   UNL A   1      30.961  24.977  25.720  1.00  0.00     0.148 C 
ATOM     20  O   UNL A   1      33.091  26.451  22.360  1.00  0.00    -0.268 OA
ATOM     21  C   UNL A   1      32.824  27.623  24.994  1.00  0.00     0.081 C 
ATOM     22  S   UNL A   1      31.684  26.853  26.842  1.00  0.00    -0.054 SA
ATOM     23  S   UNL A   1      30.287  23.680  26.579  1.00  0.00    -0.052 S 
ATOM     24  C   UNL A   1      33.633  28.692  25.056  1.00  0.00     0.040 C 
BRANCH  24  25
ATOM     25  C   UNL A   1      33.989  29.400  26.241  1.00  0.00     0.028 A 
ATOM     26  C   UNL A   1      35.115  29.328  27.048  1.00  0.00     0.020 A 
ATOM     27  S   UNL A   1      32.981  30.699  26.768  1.00  0.00    -0.144 S 
ATOM     28  C   UNL A   1      35.176  30.348  28.040  1.00  0.00     0.012 A 
ATOM     29  C   UNL A   1      34.074  31.165  27.994  1.00  0.00     0.065 A 
ENDBRANCH  24  25
ENDBRANCH  16  17
ENDBRANCH  14  16
ENDBRANCH   7  12
BRANCH  11  30
ATOM     30  O   UNL A   1      36.384  18.193  25.047  1.00  0.00    -0.508 OA
ATOM     31  H   UNL A   1      37.306  18.288  24.915  1.00  0.00     0.293 HD
ENDBRANCH  11  30
ENDBRANCH   3   6
ENDBRANCH   1   2
BRANCH   1  32
ATOM     32  C   UNL A   1      39.569  22.151  26.546  1.00  0.00     0.042 C 
BRANCH  32  33
ATOM     33  C   UNL A   1      41.245  23.581  26.321  1.00  0.00     0.118 C 
BRANCH  33  34
ATOM     34  N   UNL A   1      41.649  24.741  25.361  1.00  0.00    -0.352 N 
ATOM     35  C   UNL A   1      41.954  26.058  25.748  1.00  0.00     0.251 C 
ATOM     36  H   UNL A   1      41.697  24.532  24.400  1.00  0.00     0.163 HD
ATOM     37  O   UNL A   1      42.323  26.870  24.905  1.00  0.00    -0.269 OA
BRANCH  35  38
ATOM     38  C   UNL A   1      41.788  26.483  27.171  1.00  0.00     0.039 A 
ATOM     39  C   UNL A   1      42.865  27.010  27.880  1.00  0.00     0.014 A 
ATOM     40  C   UNL A   1      40.531  26.481  27.766  1.00  0.00     0.014 A 
ATOM     41  C   UNL A   1      42.638  27.667  29.103  1.00  0.00     0.010 A 
ATOM     42  C   UNL A   1      40.287  27.287  28.877  1.00  0.00     0.010 A 
ATOM     43  C   UNL A   1      41.331  27.900  29.573  1.00  0.00    -0.014 A 
BRANCH  43  44
ATOM     44  C   UNL A   1      41.046  28.787  30.752  1.00  0.00     0.031 A 
ATOM     45  C   UNL A   1      41.842  28.676  32.041  1.00  0.00     0.074 A 
ATOM     46  C   UNL A   1      39.999  29.644  30.713  1.00  0.00     0.049 A 
ATOM     47  N   UNL A   1      41.710  29.352  33.158  1.00  0.00    -0.248 NA
ATOM     48  C   UNL A   1      42.876  27.630  32.115  1.00  0.00     0.031 C 
ATOM     49  C   UNL A   1      39.035  29.761  29.615  1.00  0.00     0.029 A 
ATOM     50  N   UNL A   1      39.565  30.585  31.620  1.00  0.00    -0.354 N 
ATOM     51  C   UNL A   1      42.610  28.788  34.058  1.00  0.00     0.074 A 
ATOM     52  C   UNL A   1      43.207  27.654  33.396  1.00  0.00     0.031 C 
ATOM     53  C   UNL A   1      38.179  30.762  29.875  1.00  0.00     0.029 A 
ATOM     54  C   UNL A   1      38.499  31.338  31.177  1.00  0.00     0.049 A 
ATOM     55  H   UNL A   1      39.979  30.709  32.506  1.00  0.00     0.167 HD
ATOM     56  C   UNL A   1      42.960  29.203  35.301  1.00  0.00     0.037 A 
ATOM     57  C   UNL A   1      37.860  32.385  31.738  1.00  0.00     0.037 A 
ATOM     58  C   UNL A   1      42.422  30.378  35.933  1.00  0.00     0.049 A 
ATOM     59  C   UNL A   1      38.324  32.896  33.075  1.00  0.00     0.074 A 
ATOM     60  C   UNL A   1      42.793  30.957  37.135  1.00  0.00     0.029 A 
ATOM     61  N   UNL A   1      41.402  31.159  35.412  1.00  0.00    -0.354 N 
ATOM     62  N   UNL A   1      39.272  32.429  33.852  1.00  0.00    -0.248 NA
ATOM     63  C   UNL A   1      37.645  34.087  33.608  1.00  0.00     0.031 C 
ATOM     64  C   UNL A   1      41.967  32.061  37.361  1.00  0.00     0.029 A 
ATOM     65  C   UNL A   1      41.118  32.204  36.275  1.00  0.00     0.049 A 
ATOM     66  H   UNL A   1      40.947  30.994  34.555  1.00  0.00     0.167 HD
ATOM     67  C   UNL A   1      39.321  33.281  34.950  1.00  0.00     0.074 A 
ATOM     68  C   UNL A   1      38.319  34.302  34.730  1.00  0.00     0.031 C 
ATOM     69  C   UNL A   1      40.125  33.222  36.040  1.00  0.00     0.037 A 
BRANCH  56  70
ATOM     70  C   UNL A   1      44.008  28.408  36.041  1.00  0.00     0.058 A 
ATOM     71  C   UNL A   1      45.377  28.709  35.934  1.00  0.00     0.135 A 
ATOM     72  C   UNL A   1      43.643  27.350  36.891  1.00  0.00     0.135 A 
ATOM     73  F   UNL A   1      45.790  29.705  35.134  1.00  0.00    -0.206 F 
ATOM     74  C   UNL A   1      46.345  27.961  36.597  1.00  0.00     0.059 A 
ATOM     75  C   UNL A   1      44.592  26.612  37.594  1.00  0.00     0.059 A 
ATOM     76  F   UNL A   1      42.350  27.020  37.043  1.00  0.00    -0.206 F 
ATOM     77  C   UNL A   1      45.943  26.912  37.422  1.00  0.00     0.060 A 
BRANCH  77  78
ATOM     78  S   UNL A   1      47.215  25.947  38.265  1.00  0.00     0.124 S 
ATOM     79  O   UNL A   1      48.417  26.710  37.945  1.00  0.00    -0.237 OA
ATOM     80  O   UNL A   1      46.780  26.006  39.657  1.00  0.00    -0.237 OA
ATOM     81  O   UNL A   1      47.118  24.633  37.636  1.00  0.00    -0.744 OA
ENDBRANCH  77  78
ENDBRANCH  56  70
BRANCH  57  82
ATOM     82  C   UNL A   1      36.754  33.064  31.002  1.00  0.00     0.058 A 
ATOM     83  C   UNL A   1      35.415  32.885  31.386  1.00  0.00     0.135 A 
ATOM     84  C   UNL A   1      37.010  33.924  29.923  1.00  0.00     0.135 A 
ATOM     85  F   UNL A   1      35.115  32.067  32.406  1.00  0.00    -0.206 F 
ATOM     86  C   UNL A   1      34.371  33.521  30.722  1.00  0.00     0.059 A 
ATOM     87  C   UNL A   1      35.984  34.595  29.260  1.00  0.00     0.059 A 
ATOM     88  F   UNL A   1      38.272  34.144  29.523  1.00  0.00    -0.206 F 
ATOM     89  C   UNL A   1      34.666  34.380  29.662  1.00  0.00     0.060 A 
BRANCH  89  90
ATOM     90  S   UNL A   1      33.305  35.248  28.849  1.00  0.00     0.124 S 
ATOM     91  O   UNL A   1      34.021  36.239  28.054  1.00  0.00    -0.237 OA
ATOM     92  O   UNL A   1      32.662  34.172  28.099  1.00  0.00    -0.237 OA
ATOM     93  O   UNL A   1      32.527  35.775  29.965  1.00  0.00    -0.744 OA
ENDBRANCH  89  90
ENDBRANCH  57  82
BRANCH  69  94
ATOM     94  C   UNL A   1      39.989  34.310  37.070  1.00  0.00     0.058 A 
ATOM     95  C   UNL A   1      40.659  35.536  36.943  1.00  0.00     0.135 A 
ATOM     96  C   UNL A   1      39.121  34.146  38.161  1.00  0.00     0.135 A 
ATOM     97  F   UNL A   1      41.503  35.743  35.920  1.00  0.00    -0.206 F 
ATOM     98  C   UNL A   1      40.489  36.555  37.873  1.00  0.00     0.059 A 
ATOM     99  C   UNL A   1      38.913  35.162  39.088  1.00  0.00     0.059 A 
ATOM    100  F   UNL A   1      38.446  32.997  38.323  1.00  0.00    -0.206 F 
ATOM    101  C   UNL A   1      39.610  36.360  38.941  1.00  0.00     0.060 A 
BRANCH 101 102
ATOM    102  S   UNL A   1      39.367  37.706  40.118  1.00  0.00     0.124 S 
ATOM    103  O   UNL A   1      40.614  38.451  39.976  1.00  0.00    -0.237 OA
ATOM    104  O   UNL A   1      38.173  38.365  39.596  1.00  0.00    -0.237 OA
ATOM    105  O   UNL A   1      39.188  37.018  41.392  1.00  0.00    -0.744 OA
ENDBRANCH 101 102
ENDBRANCH  69  94
ENDBRANCH  43  44
ENDBRANCH  35  38
ENDBRANCH  33  34
ENDBRANCH  32  33
ENDBRANCH   1  32
TORSDOF 18
ENDMDL
