MODEL 1
REMARK VINA RESULT:     -11.3      0.000      0.000
REMARK SMILES COc1cccc(/C=C(/C#N)c2ccc(Br)cc2)c1O[C@@H](C)C(=O)NCCCNC(=O)c1ccc(-c2c3nc(c(-c4c(F)cc(S(=O)(=O)[O-])cc4F)c4ccc([nH]4)c(-c4c(F)cc(S(=O)(=O)[O-])cc4F)c4nc(c(-c5c(F)cc(S(=O)(=O)[O-])cc5F)c5ccc2[nH]5)C=C4)C=C3)cc1
REMARK SMILES IDX 26 1 25 2 23 3 24 4 21 6 22 7 20 8 19 9 3 10 4 11 5 12 7 13
REMARK SMILES IDX 6 14 2 15 1 16 8 17 9 18 10 19 11 20 12 21 13 22 18 23 14 24
REMARK SMILES IDX 17 25 15 26 16 27 27 28 28 29 29 30 30 31 31 33 32 34 33 35
REMARK SMILES IDX 97 36 34 37 96 38 35 39 36 40 37 41 90 42 38 43 95 44 89 45
REMARK SMILES IDX 91 46 39 47 94 48 88 49 87 50 40 52 74 53 53 54 73 55 54 56
REMARK SMILES IDX 57 57 72 58 92 59 55 60 56 61 71 63 93 64 58 65 41 66 42 67
REMARK SMILES IDX 51 68 43 69 44 70 50 71 52 72 45 73 46 74 47 75 48 76 49 77
REMARK SMILES IDX 75 78 76 79 85 80 77 81 78 82 84 83 86 84 79 85 80 86 81 87
REMARK SMILES IDX 82 88 83 89 59 90 60 91 69 92 61 93 62 94 68 95 70 96 63 97
REMARK SMILES IDX 64 98 65 99 66 100 67 101
REMARK H PARENT 25 5 29 32 91 51 57 62
REMARK Flexibility Score: inf
ROOT
ATOM      1  C   UNL A   1      33.874  26.505  25.047  1.00  0.00     0.118 C 
ENDROOT
BRANCH   1   2
ATOM      2  N   UNL A   1      34.124  26.438  23.626  1.00  0.00    -0.353 N 
ATOM      3  C   UNL A   1      33.563  25.761  22.600  1.00  0.00     0.260 C 
ATOM      4  O   UNL A   1      33.721  26.328  21.501  1.00  0.00    -0.271 OA
ATOM      5  H   UNL A   1      34.871  27.013  23.342  1.00  0.00     0.163 HD
BRANCH   3   6
ATOM      6  C   UNL A   1      32.797  24.373  22.609  1.00  0.00     0.259 C 
ATOM      7  C   UNL A   1      33.323  23.490  21.458  1.00  0.00     0.064 C 
BRANCH   6   8
ATOM      8  O   UNL A   1      31.560  23.848  23.048  1.00  0.00    -0.476 OA
BRANCH   8   9
ATOM      9  C   UNL A   1      30.966  24.314  24.180  1.00  0.00     0.169 A 
ATOM     10  C   UNL A   1      30.345  25.580  24.246  1.00  0.00     0.161 A 
ATOM     11  C   UNL A   1      29.755  26.004  25.437  1.00  0.00     0.050 A 
ATOM     12  C   UNL A   1      29.841  25.205  26.570  1.00  0.00     0.005 A 
ATOM     13  C   UNL A   1      30.865  23.406  25.265  1.00  0.00     0.022 A 
ATOM     14  C   UNL A   1      30.418  23.932  26.488  1.00  0.00     0.012 A 
BRANCH  10  15
ATOM     15  O   UNL A   1      30.191  26.307  23.097  1.00  0.00    -0.493 OA
ATOM     16  C   UNL A   1      30.439  27.708  23.196  1.00  0.00     0.278 C 
ENDBRANCH  10  15
BRANCH  13  17
ATOM     17  C   UNL A   1      31.119  21.931  25.057  1.00  0.00     0.032 C 
ATOM     18  C   UNL A   1      32.297  21.262  25.118  1.00  0.00     0.060 C 
BRANCH  18  19
ATOM     19  C   UNL A   1      32.420  19.748  25.162  1.00  0.00     0.100 C 
ATOM     20  N   UNL A   1      32.523  18.490  25.200  1.00  0.00    -0.192 NA
ENDBRANCH  18  19
BRANCH  18  21
ATOM     21  C   UNL A   1      33.627  21.914  25.261  1.00  0.00    -0.008 A 
ATOM     22  C   UNL A   1      33.875  22.729  26.379  1.00  0.00     0.010 A 
ATOM     23  C   UNL A   1      34.650  21.726  24.319  1.00  0.00     0.010 A 
ATOM     24  C   UNL A   1      35.140  23.285  26.588  1.00  0.00     0.016 A 
ATOM     25  C   UNL A   1      35.925  22.258  24.544  1.00  0.00     0.016 A 
ATOM     26  C   UNL A   1      36.166  23.024  25.684  1.00  0.00     0.018 A 
ATOM     27  Br  UNL A   1      37.902  23.687  26.023  1.00  0.00    -0.051 Br
ENDBRANCH  18  21
ENDBRANCH  13  17
ENDBRANCH   8   9
ENDBRANCH   6   8
ENDBRANCH   3   6
ENDBRANCH   1   2
BRANCH   1  28
ATOM     28  C   UNL A   1      33.422  27.873  25.522  1.00  0.00     0.042 C 
BRANCH  28  29
ATOM     29  C   UNL A   1      33.564  28.111  27.020  1.00  0.00     0.118 C 
BRANCH  29  30
ATOM     30  N   UNL A   1      33.496  29.521  27.396  1.00  0.00    -0.352 N 
ATOM     31  C   UNL A   1      34.420  30.380  27.946  1.00  0.00     0.251 C 
ATOM     32  H   UNL A   1      32.621  29.936  27.222  1.00  0.00     0.163 HD
ATOM     33  O   UNL A   1      34.036  31.506  28.261  1.00  0.00    -0.269 OA
BRANCH  31  34
ATOM     34  C   UNL A   1      35.836  29.996  28.191  1.00  0.00     0.039 A 
ATOM     35  C   UNL A   1      36.193  29.517  29.460  1.00  0.00     0.014 A 
ATOM     36  C   UNL A   1      36.833  30.151  27.230  1.00  0.00     0.014 A 
ATOM     37  C   UNL A   1      37.518  29.160  29.737  1.00  0.00     0.010 A 
ATOM     38  C   UNL A   1      38.122  29.675  27.463  1.00  0.00     0.010 A 
ATOM     39  C   UNL A   1      38.494  29.210  28.731  1.00  0.00    -0.014 A 
BRANCH  39  40
ATOM     40  C   UNL A   1      39.920  28.867  28.992  1.00  0.00     0.031 A 
ATOM     41  C   UNL A   1      40.843  29.912  29.576  1.00  0.00     0.074 A 
ATOM     42  C   UNL A   1      40.402  27.654  28.652  1.00  0.00     0.049 A 
ATOM     43  N   UNL A   1      42.137  29.865  29.762  1.00  0.00    -0.248 NA
ATOM     44  C   UNL A   1      40.236  31.198  29.957  1.00  0.00     0.031 C 
ATOM     45  C   UNL A   1      39.633  26.580  28.021  1.00  0.00     0.029 A 
ATOM     46  N   UNL A   1      41.662  27.125  28.780  1.00  0.00    -0.354 N 
ATOM     47  C   UNL A   1      42.497  31.117  30.251  1.00  0.00     0.074 A 
ATOM     48  C   UNL A   1      41.299  31.926  30.262  1.00  0.00     0.031 C 
ATOM     49  C   UNL A   1      40.429  25.514  27.841  1.00  0.00     0.029 A 
ATOM     50  C   UNL A   1      41.772  25.836  28.312  1.00  0.00     0.049 A 
ATOM     51  H   UNL A   1      42.417  27.621  29.172  1.00  0.00     0.167 HD
ATOM     52  C   UNL A   1      43.704  31.547  30.692  1.00  0.00     0.037 A 
ATOM     53  C   UNL A   1      42.836  25.011  28.267  1.00  0.00     0.037 A 
ATOM     54  C   UNL A   1      44.878  30.719  30.741  1.00  0.00     0.049 A 
ATOM     55  C   UNL A   1      44.154  25.489  28.819  1.00  0.00     0.074 A 
ATOM     56  C   UNL A   1      46.139  31.036  31.215  1.00  0.00     0.029 A 
ATOM     57  N   UNL A   1      44.928  29.396  30.324  1.00  0.00    -0.354 N 
ATOM     58  N   UNL A   1      44.462  26.665  29.312  1.00  0.00    -0.248 NA
ATOM     59  C   UNL A   1      45.263  24.526  28.822  1.00  0.00     0.031 C 
ATOM     60  C   UNL A   1      46.956  29.909  31.068  1.00  0.00     0.029 A 
ATOM     61  C   UNL A   1      46.195  28.882  30.534  1.00  0.00     0.049 A 
ATOM     62  H   UNL A   1      44.173  28.898  29.935  1.00  0.00     0.167 HD
ATOM     63  C   UNL A   1      45.795  26.578  29.700  1.00  0.00     0.074 A 
ATOM     64  C   UNL A   1      46.227  25.226  29.406  1.00  0.00     0.031 C 
ATOM     65  C   UNL A   1      46.595  27.529  30.243  1.00  0.00     0.037 A 
BRANCH  52  66
ATOM     66  C   UNL A   1      43.801  32.964  31.193  1.00  0.00     0.058 A 
ATOM     67  C   UNL A   1      43.991  34.040  30.310  1.00  0.00     0.135 A 
ATOM     68  C   UNL A   1      43.678  33.256  32.561  1.00  0.00     0.135 A 
ATOM     69  F   UNL A   1      44.133  33.816  28.992  1.00  0.00    -0.206 F 
ATOM     70  C   UNL A   1      44.090  35.349  30.766  1.00  0.00     0.059 A 
ATOM     71  C   UNL A   1      43.744  34.564  33.037  1.00  0.00     0.059 A 
ATOM     72  F   UNL A   1      43.496  32.268  33.450  1.00  0.00    -0.206 F 
ATOM     73  C   UNL A   1      43.966  35.602  32.132  1.00  0.00     0.060 A 
BRANCH  73  74
ATOM     74  S   UNL A   1      44.091  37.309  32.706  1.00  0.00     0.124 S 
ATOM     75  O   UNL A   1      45.401  37.304  33.348  1.00  0.00    -0.237 OA
ATOM     76  O   UNL A   1      44.000  38.065  31.460  1.00  0.00    -0.237 OA
ATOM     77  O   UNL A   1      42.950  37.450  33.606  1.00  0.00    -0.744 OA
ENDBRANCH  73  74
ENDBRANCH  52  66
BRANCH  53  78
ATOM     78  C   UNL A   1      42.695  23.640  27.706  1.00  0.00     0.058 A 
ATOM     79  C   UNL A   1      42.819  23.408  26.328  1.00  0.00     0.135 A 
ATOM     80  C   UNL A   1      42.437  22.536  28.533  1.00  0.00     0.135 A 
ATOM     81  F   UNL A   1      43.065  24.431  25.496  1.00  0.00    -0.206 F 
ATOM     82  C   UNL A   1      42.661  22.136  25.785  1.00  0.00     0.059 A 
ATOM     83  C   UNL A   1      42.301  21.250  28.016  1.00  0.00     0.059 A 
ATOM     84  F   UNL A   1      42.333  22.699  29.862  1.00  0.00    -0.206 F 
ATOM     85  C   UNL A   1      42.399  21.064  26.638  1.00  0.00     0.060 A 
BRANCH  85  86
ATOM     86  S   UNL A   1      42.219  19.413  25.925  1.00  0.00     0.124 S 
ATOM     87  O   UNL A   1      43.020  19.531  24.712  1.00  0.00    -0.237 OA
ATOM     88  O   UNL A   1      42.772  18.562  26.974  1.00  0.00    -0.237 OA
ATOM     89  O   UNL A   1      40.779  19.293  25.722  1.00  0.00    -0.744 OA
ENDBRANCH  85  86
ENDBRANCH  53  78
BRANCH  65  90
ATOM     90  C   UNL A   1      48.006  27.133  30.575  1.00  0.00     0.058 A 
ATOM     91  C   UNL A   1      49.061  27.359  29.679  1.00  0.00     0.135 A 
ATOM     92  C   UNL A   1      48.310  26.564  31.823  1.00  0.00     0.135 A 
ATOM     93  F   UNL A   1      48.820  27.898  28.474  1.00  0.00    -0.206 F 
ATOM     94  C   UNL A   1      50.368  27.010  29.996  1.00  0.00     0.059 A 
ATOM     95  C   UNL A   1      49.614  26.230  32.171  1.00  0.00     0.059 A 
ATOM     96  F   UNL A   1      47.337  26.341  32.720  1.00  0.00    -0.206 F 
ATOM     97  C   UNL A   1      50.635  26.443  31.246  1.00  0.00     0.060 A 
BRANCH  97  98
ATOM     98  S   UNL A   1      52.340  26.015  31.656  1.00  0.00     0.124 S 
ATOM     99  O   UNL A   1      52.177  24.684  32.229  1.00  0.00    -0.237 OA
ATOM    100  O   UNL A   1      52.999  26.069  30.354  1.00  0.00    -0.237 OA
ATOM    101  O   UNL A   1      52.735  27.060  32.594  1.00  0.00    -0.744 OA
ENDBRANCH  97  98
ENDBRANCH  65  90
ENDBRANCH  39  40
ENDBRANCH  31  34
ENDBRANCH  29  30
ENDBRANCH  28  29
ENDBRANCH   1  28
TORSDOF 19
ENDMDL
MODEL 2
REMARK VINA RESULT:     -11.1      2.994      9.164
REMARK SMILES COc1cccc(/C=C(/C#N)c2ccc(Br)cc2)c1O[C@@H](C)C(=O)NCCCNC(=O)c1ccc(-c2c3nc(c(-c4c(F)cc(S(=O)(=O)[O-])cc4F)c4ccc([nH]4)c(-c4c(F)cc(S(=O)(=O)[O-])cc4F)c4nc(c(-c5c(F)cc(S(=O)(=O)[O-])cc5F)c5ccc2[nH]5)C=C4)C=C3)cc1
REMARK SMILES IDX 26 1 25 2 23 3 24 4 21 6 22 7 20 8 19 9 3 10 4 11 5 12 7 13
REMARK SMILES IDX 6 14 2 15 1 16 8 17 9 18 10 19 11 20 12 21 13 22 18 23 14 24
REMARK SMILES IDX 17 25 15 26 16 27 27 28 28 29 29 30 30 31 31 33 32 34 33 35
REMARK SMILES IDX 97 36 34 37 96 38 35 39 36 40 37 41 90 42 38 43 95 44 89 45
REMARK SMILES IDX 91 46 39 47 94 48 88 49 87 50 40 52 74 53 53 54 73 55 54 56
REMARK SMILES IDX 57 57 72 58 92 59 55 60 56 61 71 63 93 64 58 65 41 66 42 67
REMARK SMILES IDX 51 68 43 69 44 70 50 71 52 72 45 73 46 74 47 75 48 76 49 77
REMARK SMILES IDX 75 78 76 79 85 80 77 81 78 82 84 83 86 84 79 85 80 86 81 87
REMARK SMILES IDX 82 88 83 89 59 90 60 91 69 92 61 93 62 94 68 95 70 96 63 97
REMARK SMILES IDX 64 98 65 99 66 100 67 101
REMARK H PARENT 25 5 29 32 91 51 57 62
REMARK Flexibility Score: inf
ROOT
ATOM      1  C   UNL A   1      34.198  24.394  25.730  1.00  0.00     0.118 C 
ENDROOT
BRANCH   1   2
ATOM      2  N   UNL A   1      33.533  23.886  26.907  1.00  0.00    -0.353 N 
ATOM      3  C   UNL A   1      32.361  23.253  27.130  1.00  0.00     0.260 C 
ATOM      4  O   UNL A   1      32.374  22.558  28.164  1.00  0.00    -0.271 OA
ATOM      5  H   UNL A   1      34.050  24.035  27.732  1.00  0.00     0.163 HD
BRANCH   3   6
ATOM      6  C   UNL A   1      31.012  23.312  26.298  1.00  0.00     0.259 C 
ATOM      7  C   UNL A   1      29.830  22.926  27.213  1.00  0.00     0.064 C 
BRANCH   6   8
ATOM      8  O   UNL A   1      30.591  23.210  24.953  1.00  0.00    -0.476 OA
BRANCH   8   9
ATOM      9  C   UNL A   1      31.497  23.165  23.940  1.00  0.00     0.169 A 
ATOM     10  C   UNL A   1      32.278  22.021  23.671  1.00  0.00     0.161 A 
ATOM     11  C   UNL A   1      33.194  22.036  22.618  1.00  0.00     0.050 A 
ATOM     12  C   UNL A   1      33.378  23.200  21.883  1.00  0.00     0.005 A 
ATOM     13  C   UNL A   1      31.522  24.277  23.059  1.00  0.00     0.022 A 
ATOM     14  C   UNL A   1      32.569  24.317  22.124  1.00  0.00     0.012 A 
BRANCH  10  15
ATOM     15  O   UNL A   1      32.015  20.860  24.345  1.00  0.00    -0.493 OA
ATOM     16  C   UNL A   1      33.128  20.222  24.967  1.00  0.00     0.278 C 
ENDBRANCH  10  15
BRANCH  13  17
ATOM     17  C   UNL A   1      30.400  25.290  23.070  1.00  0.00     0.032 C 
ATOM     18  C   UNL A   1      30.380  26.517  23.646  1.00  0.00     0.060 C 
BRANCH  18  19
ATOM     19  C   UNL A   1      29.317  27.570  23.379  1.00  0.00     0.100 C 
ATOM     20  N   UNL A   1      28.434  28.445  23.159  1.00  0.00    -0.192 NA
ENDBRANCH  18  19
BRANCH  18  21
ATOM     21  C   UNL A   1      31.451  27.047  24.534  1.00  0.00    -0.008 A 
ATOM     22  C   UNL A   1      32.570  27.675  23.959  1.00  0.00     0.010 A 
ATOM     23  C   UNL A   1      31.369  26.954  25.932  1.00  0.00     0.010 A 
ATOM     24  C   UNL A   1      33.549  28.260  24.766  1.00  0.00     0.016 A 
ATOM     25  C   UNL A   1      32.335  27.565  26.738  1.00  0.00     0.016 A 
ATOM     26  C   UNL A   1      33.413  28.226  26.151  1.00  0.00     0.018 A 
ATOM     27  Br  UNL A   1      34.681  29.109  27.238  1.00  0.00    -0.051 Br
ENDBRANCH  18  21
ENDBRANCH  13  17
ENDBRANCH   8   9
ENDBRANCH   6   8
ENDBRANCH   3   6
ENDBRANCH   1   2
BRANCH   1  28
ATOM     28  C   UNL A   1      35.247  23.453  25.168  1.00  0.00     0.042 C 
BRANCH  28  29
ATOM     29  C   UNL A   1      36.657  24.027  25.105  1.00  0.00     0.118 C 
BRANCH  29  30
ATOM     30  N   UNL A   1      37.700  23.046  25.388  1.00  0.00    -0.352 N 
ATOM     31  C   UNL A   1      38.871  23.119  26.109  1.00  0.00     0.251 C 
ATOM     32  H   UNL A   1      37.534  22.163  24.987  1.00  0.00     0.163 HD
ATOM     33  O   UNL A   1      39.620  22.142  26.081  1.00  0.00    -0.269 OA
BRANCH  31  34
ATOM     34  C   UNL A   1      39.268  24.322  26.887  1.00  0.00     0.039 A 
ATOM     35  C   UNL A   1      40.040  25.307  26.254  1.00  0.00     0.014 A 
ATOM     36  C   UNL A   1      38.957  24.481  28.236  1.00  0.00     0.014 A 
ATOM     37  C   UNL A   1      40.448  26.449  26.956  1.00  0.00     0.010 A 
ATOM     38  C   UNL A   1      39.252  25.672  28.896  1.00  0.00     0.010 A 
ATOM     39  C   UNL A   1      40.035  26.656  28.280  1.00  0.00    -0.014 A 
BRANCH  39  40
ATOM     40  C   UNL A   1      40.471  27.840  29.070  1.00  0.00     0.031 A 
ATOM     41  C   UNL A   1      41.822  27.828  29.749  1.00  0.00     0.074 A 
ATOM     42  C   UNL A   1      39.644  28.893  29.233  1.00  0.00     0.049 A 
ATOM     43  N   UNL A   1      42.340  28.693  30.583  1.00  0.00    -0.248 NA
ATOM     44  C   UNL A   1      42.684  26.661  29.494  1.00  0.00     0.031 C 
ATOM     45  C   UNL A   1      38.291  29.003  28.686  1.00  0.00     0.029 A 
ATOM     46  N   UNL A   1      39.818  30.070  29.918  1.00  0.00    -0.354 N 
ATOM     47  C   UNL A   1      43.567  28.161  30.968  1.00  0.00     0.074 A 
ATOM     48  C   UNL A   1      43.683  26.866  30.339  1.00  0.00     0.031 C 
ATOM     49  C   UNL A   1      37.768  30.191  29.035  1.00  0.00     0.029 A 
ATOM     50  C   UNL A   1      38.734  30.913  29.856  1.00  0.00     0.049 A 
ATOM     51  H   UNL A   1      40.644  30.290  30.408  1.00  0.00     0.167 HD
ATOM     52  C   UNL A   1      44.532  28.715  31.742  1.00  0.00     0.037 A 
ATOM     53  C   UNL A   1      38.541  32.130  30.402  1.00  0.00     0.037 A 
ATOM     54  C   UNL A   1      44.441  30.032  32.313  1.00  0.00     0.049 A 
ATOM     55  C   UNL A   1      39.651  32.752  31.208  1.00  0.00     0.074 A 
ATOM     56  C   UNL A   1      45.379  30.711  33.071  1.00  0.00     0.029 A 
ATOM     57  N   UNL A   1      43.354  30.881  32.166  1.00  0.00    -0.354 N 
ATOM     58  N   UNL A   1      40.819  32.248  31.529  1.00  0.00    -0.248 NA
ATOM     59  C   UNL A   1      39.424  34.112  31.715  1.00  0.00     0.031 C 
ATOM     60  C   UNL A   1      44.852  31.965  33.396  1.00  0.00     0.029 A 
ATOM     61  C   UNL A   1      43.599  32.080  32.813  1.00  0.00     0.049 A 
ATOM     62  H   UNL A   1      42.530  30.663  31.674  1.00  0.00     0.167 HD
ATOM     63  C   UNL A   1      41.473  33.234  32.258  1.00  0.00     0.074 A 
ATOM     64  C   UNL A   1      40.579  34.374  32.312  1.00  0.00     0.031 C 
ATOM     65  C   UNL A   1      42.697  33.202  32.840  1.00  0.00     0.037 A 
BRANCH  52  66
ATOM     66  C   UNL A   1      45.784  27.912  31.980  1.00  0.00     0.058 A 
ATOM     67  C   UNL A   1      45.929  27.105  33.120  1.00  0.00     0.135 A 
ATOM     68  C   UNL A   1      46.838  27.927  31.052  1.00  0.00     0.135 A 
ATOM     69  F   UNL A   1      44.959  27.067  34.049  1.00  0.00    -0.206 F 
ATOM     70  C   UNL A   1      47.085  26.368  33.349  1.00  0.00     0.059 A 
ATOM     71  C   UNL A   1      47.993  27.173  31.247  1.00  0.00     0.059 A 
ATOM     72  F   UNL A   1      46.754  28.680  29.945  1.00  0.00    -0.206 F 
ATOM     73  C   UNL A   1      48.113  26.409  32.408  1.00  0.00     0.060 A 
BRANCH  73  74
ATOM     74  S   UNL A   1      49.604  25.441  32.720  1.00  0.00     0.124 S 
ATOM     75  O   UNL A   1      49.070  24.327  33.497  1.00  0.00    -0.237 OA
ATOM     76  O   UNL A   1      50.053  25.114  31.370  1.00  0.00    -0.237 OA
ATOM     77  O   UNL A   1      50.462  26.365  33.455  1.00  0.00    -0.744 OA
ENDBRANCH  73  74
ENDBRANCH  52  66
BRANCH  53  78
ATOM     78  C   UNL A   1      37.259  32.853  30.182  1.00  0.00     0.058 A 
ATOM     79  C   UNL A   1      36.181  32.697  31.068  1.00  0.00     0.135 A 
ATOM     80  C   UNL A   1      37.084  33.713  29.088  1.00  0.00     0.135 A 
ATOM     81  F   UNL A   1      36.299  31.884  32.129  1.00  0.00    -0.206 F 
ATOM     82  C   UNL A   1      34.966  33.343  30.860  1.00  0.00     0.059 A 
ATOM     83  C   UNL A   1      35.887  34.392  28.873  1.00  0.00     0.059 A 
ATOM     84  F   UNL A   1      38.092  33.916  28.223  1.00  0.00    -0.206 F 
ATOM     85  C   UNL A   1      34.829  34.187  29.757  1.00  0.00     0.060 A 
BRANCH  85  86
ATOM     86  S   UNL A   1      33.255  35.039  29.510  1.00  0.00     0.124 S 
ATOM     87  O   UNL A   1      32.629  34.206  28.490  1.00  0.00    -0.237 OA
ATOM     88  O   UNL A   1      32.658  34.977  30.840  1.00  0.00    -0.237 OA
ATOM     89  O   UNL A   1      33.662  36.372  29.074  1.00  0.00    -0.744 OA
ENDBRANCH  85  86
ENDBRANCH  53  78
BRANCH  65  90
ATOM     90  C   UNL A   1      43.149  34.441  33.560  1.00  0.00     0.058 A 
ATOM     91  C   UNL A   1      43.871  35.449  32.902  1.00  0.00     0.135 A 
ATOM     92  C   UNL A   1      42.816  34.642  34.909  1.00  0.00     0.135 A 
ATOM     93  F   UNL A   1      44.214  35.302  31.613  1.00  0.00    -0.206 F 
ATOM     94  C   UNL A   1      44.271  36.603  33.565  1.00  0.00     0.059 A 
ATOM     95  C   UNL A   1      43.185  35.800  35.585  1.00  0.00     0.059 A 
ATOM     96  F   UNL A   1      42.116  33.713  35.579  1.00  0.00    -0.206 F 
ATOM     97  C   UNL A   1      43.925  36.769  34.908  1.00  0.00     0.060 A 
BRANCH  97  98
ATOM     98  S   UNL A   1      44.430  38.283  35.752  1.00  0.00     0.124 S 
ATOM     99  O   UNL A   1      45.884  38.179  35.692  1.00  0.00    -0.237 OA
ATOM    100  O   UNL A   1      43.833  39.321  34.918  1.00  0.00    -0.237 OA
ATOM    101  O   UNL A   1      43.844  38.142  37.080  1.00  0.00    -0.744 OA
ENDBRANCH  97  98
ENDBRANCH  65  90
ENDBRANCH  39  40
ENDBRANCH  31  34
ENDBRANCH  29  30
ENDBRANCH  28  29
ENDBRANCH   1  28
TORSDOF 19
ENDMDL
MODEL 3
REMARK VINA RESULT:     -10.9      2.744      3.607
REMARK SMILES COc1cccc(/C=C(/C#N)c2ccc(Br)cc2)c1O[C@@H](C)C(=O)NCCCNC(=O)c1ccc(-c2c3nc(c(-c4c(F)cc(S(=O)(=O)[O-])cc4F)c4ccc([nH]4)c(-c4c(F)cc(S(=O)(=O)[O-])cc4F)c4nc(c(-c5c(F)cc(S(=O)(=O)[O-])cc5F)c5ccc2[nH]5)C=C4)C=C3)cc1
REMARK SMILES IDX 26 1 25 2 23 3 24 4 21 6 22 7 20 8 19 9 3 10 4 11 5 12 7 13
REMARK SMILES IDX 6 14 2 15 1 16 8 17 9 18 10 19 11 20 12 21 13 22 18 23 14 24
REMARK SMILES IDX 17 25 15 26 16 27 27 28 28 29 29 30 30 31 31 33 32 34 33 35
REMARK SMILES IDX 97 36 34 37 96 38 35 39 36 40 37 41 90 42 38 43 95 44 89 45
REMARK SMILES IDX 91 46 39 47 94 48 88 49 87 50 40 52 74 53 53 54 73 55 54 56
REMARK SMILES IDX 57 57 72 58 92 59 55 60 56 61 71 63 93 64 58 65 41 66 42 67
REMARK SMILES IDX 51 68 43 69 44 70 50 71 52 72 45 73 46 74 47 75 48 76 49 77
REMARK SMILES IDX 75 78 76 79 85 80 77 81 78 82 84 83 86 84 79 85 80 86 81 87
REMARK SMILES IDX 82 88 83 89 59 90 60 91 69 92 61 93 62 94 68 95 70 96 63 97
REMARK SMILES IDX 64 98 65 99 66 100 67 101
REMARK H PARENT 25 5 29 32 91 51 57 62
REMARK Flexibility Score: inf
ROOT
ATOM      1  C   UNL A   1      31.718  27.839  26.718  1.00  0.00     0.118 C 
ENDROOT
BRANCH   1   2
ATOM      2  N   UNL A   1      30.808  26.728  26.872  1.00  0.00    -0.353 N 
ATOM      3  C   UNL A   1      30.170  25.905  26.012  1.00  0.00     0.260 C 
ATOM      4  O   UNL A   1      29.885  24.802  26.517  1.00  0.00    -0.271 OA
ATOM      5  H   UNL A   1      30.607  26.527  27.815  1.00  0.00     0.163 HD
BRANCH   3   6
ATOM      6  C   UNL A   1      29.718  26.169  24.515  1.00  0.00     0.259 C 
ATOM      7  C   UNL A   1      28.181  26.302  24.460  1.00  0.00     0.064 C 
BRANCH   6   8
ATOM      8  O   UNL A   1      30.195  25.929  23.206  1.00  0.00    -0.476 OA
BRANCH   8   9
ATOM      9  C   UNL A   1      31.456  26.292  22.845  1.00  0.00     0.169 A 
ATOM     10  C   UNL A   1      31.886  27.635  22.840  1.00  0.00     0.161 A 
ATOM     11  C   UNL A   1      33.192  27.946  22.458  1.00  0.00     0.050 A 
ATOM     12  C   UNL A   1      34.039  26.935  22.020  1.00  0.00     0.005 A 
ATOM     13  C   UNL A   1      32.378  25.240  22.613  1.00  0.00     0.022 A 
ATOM     14  C   UNL A   1      33.622  25.601  22.070  1.00  0.00     0.012 A 
BRANCH  10  15
ATOM     15  O   UNL A   1      31.068  28.600  23.362  1.00  0.00    -0.493 OA
ATOM     16  C   UNL A   1      30.328  29.379  22.424  1.00  0.00     0.278 C 
ENDBRANCH  10  15
BRANCH  13  17
ATOM     17  C   UNL A   1      32.056  23.827  23.045  1.00  0.00     0.032 C 
ATOM     18  C   UNL A   1      32.782  23.004  23.841  1.00  0.00     0.060 C 
BRANCH  18  19
ATOM     19  C   UNL A   1      32.258  21.709  24.439  1.00  0.00     0.100 C 
ATOM     20  N   UNL A   1      31.822  20.634  24.936  1.00  0.00    -0.192 NA
ENDBRANCH  18  19
BRANCH  18  21
ATOM     21  C   UNL A   1      34.155  23.305  24.331  1.00  0.00    -0.008 A 
ATOM     22  C   UNL A   1      34.316  24.125  25.463  1.00  0.00     0.010 A 
ATOM     23  C   UNL A   1      35.298  22.781  23.707  1.00  0.00     0.010 A 
ATOM     24  C   UNL A   1      35.585  24.354  26.000  1.00  0.00     0.016 A 
ATOM     25  C   UNL A   1      36.565  22.988  24.263  1.00  0.00     0.016 A 
ATOM     26  C   UNL A   1      36.701  23.763  25.413  1.00  0.00     0.018 A 
ATOM     27  Br  UNL A   1      38.402  23.987  26.203  1.00  0.00    -0.051 Br
ENDBRANCH  18  21
ENDBRANCH  13  17
ENDBRANCH   8   9
ENDBRANCH   6   8
ENDBRANCH   3   6
ENDBRANCH   1   2
BRANCH   1  28
ATOM     28  C   UNL A   1      33.138  27.422  26.382  1.00  0.00     0.042 C 
BRANCH  28  29
ATOM     29  C   UNL A   1      34.009  28.525  25.794  1.00  0.00     0.118 C 
BRANCH  29  30
ATOM     30  N   UNL A   1      33.717  29.849  26.335  1.00  0.00    -0.352 N 
ATOM     31  C   UNL A   1      34.337  30.616  27.294  1.00  0.00     0.251 C 
ATOM     32  H   UNL A   1      32.924  30.275  25.937  1.00  0.00     0.163 HD
ATOM     33  O   UNL A   1      33.789  31.668  27.627  1.00  0.00    -0.269 OA
BRANCH  31  34
ATOM     34  C   UNL A   1      35.611  30.218  27.950  1.00  0.00     0.039 A 
ATOM     35  C   UNL A   1      35.563  29.692  29.249  1.00  0.00     0.014 A 
ATOM     36  C   UNL A   1      36.855  30.402  27.349  1.00  0.00     0.014 A 
ATOM     37  C   UNL A   1      36.741  29.319  29.909  1.00  0.00     0.010 A 
ATOM     38  C   UNL A   1      38.013  29.913  27.952  1.00  0.00     0.010 A 
ATOM     39  C   UNL A   1      37.979  29.400  29.254  1.00  0.00    -0.014 A 
BRANCH  39  40
ATOM     40  C   UNL A   1      39.257  29.042  29.930  1.00  0.00     0.031 A 
ATOM     41  C   UNL A   1      39.690  29.805  31.161  1.00  0.00     0.074 A 
ATOM     42  C   UNL A   1      40.055  28.086  29.413  1.00  0.00     0.049 A 
ATOM     43  N   UNL A   1      40.816  29.742  31.823  1.00  0.00    -0.248 NA
ATOM     44  C   UNL A   1      38.748  30.807  31.688  1.00  0.00     0.031 C 
ATOM     45  C   UNL A   1      39.786  27.320  28.195  1.00  0.00     0.029 A 
ATOM     46  N   UNL A   1      41.266  27.602  29.844  1.00  0.00    -0.354 N 
ATOM     47  C   UNL A   1      40.727  30.711  32.818  1.00  0.00     0.074 A 
ATOM     48  C   UNL A   1      39.470  31.398  32.628  1.00  0.00     0.031 C 
ATOM     49  C   UNL A   1      40.786  26.447  27.991  1.00  0.00     0.029 A 
ATOM     50  C   UNL A   1      41.784  26.611  29.043  1.00  0.00     0.049 A 
ATOM     51  H   UNL A   1      41.720  27.933  30.653  1.00  0.00     0.167 HD
ATOM     52  C   UNL A   1      41.591  30.980  33.827  1.00  0.00     0.037 A 
ATOM     53  C   UNL A   1      42.934  25.917  29.145  1.00  0.00     0.037 A 
ATOM     54  C   UNL A   1      42.809  30.250  34.053  1.00  0.00     0.049 A 
ATOM     55  C   UNL A   1      43.850  26.191  30.310  1.00  0.00     0.074 A 
ATOM     56  C   UNL A   1      43.732  30.405  35.072  1.00  0.00     0.029 A 
ATOM     57  N   UNL A   1      43.261  29.206  33.258  1.00  0.00    -0.354 N 
ATOM     58  N   UNL A   1      43.728  27.086  31.262  1.00  0.00    -0.248 NA
ATOM     59  C   UNL A   1      45.052  25.354  30.423  1.00  0.00     0.031 C 
ATOM     60  C   UNL A   1      44.751  29.465  34.884  1.00  0.00     0.029 A 
ATOM     61  C   UNL A   1      44.446  28.704  33.767  1.00  0.00     0.049 A 
ATOM     62  H   UNL A   1      42.805  28.873  32.452  1.00  0.00     0.167 HD
ATOM     63  C   UNL A   1      44.826  26.907  32.096  1.00  0.00     0.074 A 
ATOM     64  C   UNL A   1      45.589  25.804  31.549  1.00  0.00     0.031 C 
ATOM     65  C   UNL A   1      45.179  27.596  33.209  1.00  0.00     0.037 A 
BRANCH  52  66
ATOM     66  C   UNL A   1      41.225  32.083  34.785  1.00  0.00     0.058 A 
ATOM     67  C   UNL A   1      41.649  33.405  34.573  1.00  0.00     0.135 A 
ATOM     68  C   UNL A   1      40.424  31.827  35.910  1.00  0.00     0.135 A 
ATOM     69  F   UNL A   1      42.432  33.704  33.522  1.00  0.00    -0.206 F 
ATOM     70  C   UNL A   1      41.322  34.427  35.457  1.00  0.00     0.059 A 
ATOM     71  C   UNL A   1      40.059  32.841  36.792  1.00  0.00     0.059 A 
ATOM     72  F   UNL A   1      39.990  30.583  36.162  1.00  0.00    -0.206 F 
ATOM     73  C   UNL A   1      40.527  34.135  36.565  1.00  0.00     0.060 A 
BRANCH  73  74
ATOM     74  S   UNL A   1      40.107  35.476  37.699  1.00  0.00     0.124 S 
ATOM     75  O   UNL A   1      38.883  34.968  38.308  1.00  0.00    -0.237 OA
ATOM     76  O   UNL A   1      41.277  35.524  38.572  1.00  0.00    -0.237 OA
ATOM     77  O   UNL A   1      39.940  36.627  36.817  1.00  0.00    -0.744 OA
ENDBRANCH  73  74
ENDBRANCH  52  66
BRANCH  53  78
ATOM     78  C   UNL A   1      43.273  24.878  28.136  1.00  0.00     0.058 A 
ATOM     79  C   UNL A   1      43.945  25.215  26.951  1.00  0.00     0.135 A 
ATOM     80  C   UNL A   1      42.933  23.531  28.332  1.00  0.00     0.135 A 
ATOM     81  F   UNL A   1      44.291  26.489  26.716  1.00  0.00    -0.206 F 
ATOM     82  C   UNL A   1      44.243  24.259  25.984  1.00  0.00     0.059 A 
ATOM     83  C   UNL A   1      43.243  22.552  27.392  1.00  0.00     0.059 A 
ATOM     84  F   UNL A   1      42.309  23.152  29.460  1.00  0.00    -0.206 F 
ATOM     85  C   UNL A   1      43.885  22.930  26.213  1.00  0.00     0.060 A 
BRANCH  85  86
ATOM     86  S   UNL A   1      44.297  21.694  24.962  1.00  0.00     0.124 S 
ATOM     87  O   UNL A   1      44.132  22.458  23.731  1.00  0.00    -0.237 OA
ATOM     88  O   UNL A   1      45.667  21.341  25.316  1.00  0.00    -0.237 OA
ATOM     89  O   UNL A   1      43.307  20.645  25.190  1.00  0.00    -0.744 OA
ENDBRANCH  85  86
ENDBRANCH  53  78
BRANCH  65  90
ATOM     90  C   UNL A   1      46.428  27.160  33.921  1.00  0.00     0.058 A 
ATOM     91  C   UNL A   1      47.678  27.720  33.617  1.00  0.00     0.135 A 
ATOM     92  C   UNL A   1      46.366  26.206  34.949  1.00  0.00     0.135 A 
ATOM     93  F   UNL A   1      47.790  28.635  32.641  1.00  0.00    -0.206 F 
ATOM     94  C   UNL A   1      48.830  27.329  34.289  1.00  0.00     0.059 A 
ATOM     95  C   UNL A   1      47.501  25.818  35.651  1.00  0.00     0.059 A 
ATOM     96  F   UNL A   1      45.191  25.650  35.286  1.00  0.00    -0.206 F 
ATOM     97  C   UNL A   1      48.732  26.375  35.305  1.00  0.00     0.060 A 
BRANCH  97  98
ATOM     98  S   UNL A   1      50.230  25.892  36.188  1.00  0.00     0.124 S 
ATOM     99  O   UNL A   1      51.132  26.988  35.854  1.00  0.00    -0.237 OA
ATOM    100  O   UNL A   1      49.776  25.843  37.574  1.00  0.00    -0.237 OA
ATOM    101  O   UNL A   1      50.567  24.599  35.601  1.00  0.00    -0.744 OA
ENDBRANCH  97  98
ENDBRANCH  65  90
ENDBRANCH  39  40
ENDBRANCH  31  34
ENDBRANCH  29  30
ENDBRANCH  28  29
ENDBRANCH   1  28
TORSDOF 19
ENDMDL
