MODEL 1
REMARK VINA RESULT:     -14.3      0.000      0.000
REMARK SMILES Cc1cccc(C(=O)NCCCNC(=O)c2ccc(-c3c4nc(c(-c5c(F)cc(S(=O)(=O)[O-])cc5F)c5ccc([nH]5)c(-c5c(F)cc(S(=O)(=O)[O-])cc5F)c5nc(c(-c6c(F)cc(S(=O)(=O)[O-])cc6F)c6ccc3[nH]6)C=C5)C=C4)cc2)c1OC[C@@H]1C[C@H]2CC[C@@H]1C2
REMARK SMILES IDX 11 1 10 2 9 3 7 4 8 5 6 7 1 8 2 9 3 10 82 11 4 12 5 13 83 14
REMARK SMILES IDX 84 15 85 16 86 17 90 18 87 19 89 20 91 21 88 22 12 23 13 24
REMARK SMILES IDX 14 25 15 27 16 28 17 29 81 30 18 31 80 32 19 33 20 34 21 35
REMARK SMILES IDX 74 36 22 37 79 38 73 39 75 40 23 41 78 42 72 43 71 44 24 46
REMARK SMILES IDX 58 47 37 48 57 49 38 50 41 51 56 52 76 53 39 54 40 55 55 57
REMARK SMILES IDX 77 58 42 59 25 60 26 61 35 62 27 63 28 64 34 65 36 66 29 67
REMARK SMILES IDX 30 68 31 69 32 70 33 71 59 72 60 73 69 74 61 75 62 76 68 77
REMARK SMILES IDX 70 78 63 79 64 80 65 81 66 82 67 83 43 84 44 85 53 86 45 87
REMARK SMILES IDX 46 88 52 89 54 90 47 91 48 92 49 93 50 94 51 95
REMARK H PARENT 9 6 13 26 75 45 41 56
REMARK Flexibility Score: inf
ROOT
ATOM      1  C   UNL A   1      32.917  30.554  26.883  1.00  0.00     0.042 C 
ENDROOT
BRANCH   1   2
ATOM      2  C   UNL A   1      32.250  29.732  25.788  1.00  0.00     0.118 C 
BRANCH   2   3
ATOM      3  N   UNL A   1      31.741  28.496  26.343  1.00  0.00    -0.352 N 
ATOM      4  C   UNL A   1      31.815  27.187  25.959  1.00  0.00     0.255 C 
ATOM      5  O   UNL A   1      31.150  26.410  26.658  1.00  0.00    -0.269 OA
ATOM      6  H   UNL A   1      31.232  28.626  27.176  1.00  0.00     0.163 HD
BRANCH   4   7
ATOM      7  C   UNL A   1      32.621  26.583  24.839  1.00  0.00     0.082 A 
ATOM      8  C   UNL A   1      32.722  25.585  21.134  1.00  0.00     0.048 C 
ATOM      9  C   UNL A   1      33.093  25.788  22.580  1.00  0.00    -0.008 A 
ATOM     10  C   UNL A   1      33.968  24.819  23.105  1.00  0.00     0.007 A 
ATOM     11  C   UNL A   1      32.506  26.754  23.437  1.00  0.00     0.134 A 
ATOM     12  C   UNL A   1      34.188  24.726  24.466  1.00  0.00     0.001 A 
ATOM     13  C   UNL A   1      33.494  25.575  25.318  1.00  0.00     0.018 A 
BRANCH  11  14
ATOM     14  O   UNL A   1      31.736  27.761  22.942  1.00  0.00    -0.492 OA
BRANCH  14  15
ATOM     15  C   UNL A   1      30.302  27.606  22.831  1.00  0.00     0.233 C 
BRANCH  15  16
ATOM     16  C   UNL A   1      29.413  28.686  23.481  1.00  0.00     0.030 C 
ATOM     17  C   UNL A   1      27.932  28.613  23.000  1.00  0.00     0.011 C 
ATOM     18  C   UNL A   1      29.815  30.099  22.979  1.00  0.00    -0.004 C 
ATOM     19  C   UNL A   1      27.692  29.982  22.339  1.00  0.00    -0.010 C 
ATOM     20  C   UNL A   1      29.134  31.155  23.861  1.00  0.00     0.004 C 
ATOM     21  C   UNL A   1      29.036  30.238  21.669  1.00  0.00     0.007 C 
ATOM     22  C   UNL A   1      27.667  31.071  23.424  1.00  0.00     0.004 C 
ENDBRANCH  15  16
ENDBRANCH  14  15
ENDBRANCH  11  14
ENDBRANCH   4   7
ENDBRANCH   2   3
ENDBRANCH   1   2
BRANCH   1  23
ATOM     23  C   UNL A   1      34.315  30.103  27.250  1.00  0.00     0.118 C 
BRANCH  23  24
ATOM     24  N   UNL A   1      35.153  31.254  27.600  1.00  0.00    -0.352 N 
ATOM     25  C   UNL A   1      36.400  31.260  28.202  1.00  0.00     0.251 C 
ATOM     26  H   UNL A   1      34.779  32.138  27.378  1.00  0.00     0.163 HD
ATOM     27  O   UNL A   1      36.926  32.253  28.647  1.00  0.00    -0.269 OA
BRANCH  25  28
ATOM     28  C   UNL A   1      37.112  29.971  28.151  1.00  0.00     0.039 A 
ATOM     29  C   UNL A   1      37.181  29.275  29.363  1.00  0.00     0.014 A 
ATOM     30  C   UNL A   1      38.027  29.764  27.123  1.00  0.00     0.014 A 
ATOM     31  C   UNL A   1      38.304  28.509  29.636  1.00  0.00     0.010 A 
ATOM     32  C   UNL A   1      39.185  29.084  27.439  1.00  0.00     0.010 A 
ATOM     33  C   UNL A   1      39.343  28.504  28.711  1.00  0.00    -0.014 A 
BRANCH  33  34
ATOM     34  C   UNL A   1      40.656  27.933  28.984  1.00  0.00     0.031 A 
ATOM     35  C   UNL A   1      40.879  26.511  28.648  1.00  0.00     0.074 A 
ATOM     36  C   UNL A   1      41.664  28.705  29.441  1.00  0.00     0.049 A 
ATOM     37  N   UNL A   1      41.885  25.804  29.034  1.00  0.00    -0.248 NA
ATOM     38  C   UNL A   1      39.909  25.745  27.873  1.00  0.00     0.031 C 
ATOM     39  C   UNL A   1      43.089  28.389  29.426  1.00  0.00     0.029 A 
ATOM     40  N   UNL A   1      41.573  29.864  30.222  1.00  0.00    -0.354 N 
ATOM     41  C   UNL A   1      41.841  24.601  28.362  1.00  0.00     0.074 A 
ATOM     42  C   UNL A   1      40.564  24.598  27.693  1.00  0.00     0.031 C 
ATOM     43  C   UNL A   1      43.714  29.144  30.342  1.00  0.00     0.029 A 
ATOM     44  C   UNL A   1      42.687  29.851  31.087  1.00  0.00     0.049 A 
ATOM     45  H   UNL A   1      40.870  30.553  30.176  1.00  0.00     0.167 HD
ATOM     46  C   UNL A   1      42.951  23.807  28.358  1.00  0.00     0.037 A 
ATOM     47  C   UNL A   1      42.532  29.774  32.442  1.00  0.00     0.037 A 
ATOM     48  C   UNL A   1      43.946  24.315  29.303  1.00  0.00     0.049 A 
ATOM     49  C   UNL A   1      43.146  28.537  33.061  1.00  0.00     0.074 A 
ATOM     50  C   UNL A   1      45.062  25.124  29.154  1.00  0.00     0.029 A 
ATOM     51  N   UNL A   1      43.666  24.284  30.666  1.00  0.00    -0.354 N 
ATOM     52  N   UNL A   1      43.475  27.469  32.384  1.00  0.00    -0.248 NA
ATOM     53  C   UNL A   1      43.440  28.402  34.485  1.00  0.00     0.031 C 
ATOM     54  C   UNL A   1      45.396  25.651  30.429  1.00  0.00     0.029 A 
ATOM     55  C   UNL A   1      44.505  25.137  31.357  1.00  0.00     0.049 A 
ATOM     56  H   UNL A   1      42.965  23.729  31.081  1.00  0.00     0.167 HD
ATOM     57  C   UNL A   1      43.988  26.523  33.235  1.00  0.00     0.074 A 
ATOM     58  C   UNL A   1      43.966  27.165  34.537  1.00  0.00     0.031 C 
ATOM     59  C   UNL A   1      44.386  25.289  32.800  1.00  0.00     0.037 A 
BRANCH  46  60
ATOM     60  C   UNL A   1      43.237  22.766  27.289  1.00  0.00     0.058 A 
ATOM     61  C   UNL A   1      42.508  21.556  27.253  1.00  0.00     0.135 A 
ATOM     62  C   UNL A   1      44.269  22.845  26.332  1.00  0.00     0.135 A 
ATOM     63  F   UNL A   1      41.432  21.363  28.028  1.00  0.00    -0.206 F 
ATOM     64  C   UNL A   1      42.852  20.479  26.428  1.00  0.00     0.059 A 
ATOM     65  C   UNL A   1      44.672  21.764  25.541  1.00  0.00     0.059 A 
ATOM     66  F   UNL A   1      44.894  23.997  26.069  1.00  0.00    -0.206 F 
ATOM     67  C   UNL A   1      43.962  20.577  25.603  1.00  0.00     0.060 A 
BRANCH  67  68
ATOM     68  S   UNL A   1      44.447  19.156  24.605  1.00  0.00     0.124 S 
ATOM     69  O   UNL A   1      43.398  18.190  24.914  1.00  0.00    -0.237 OA
ATOM     70  O   UNL A   1      44.423  19.712  23.255  1.00  0.00    -0.237 OA
ATOM     71  O   UNL A   1      45.772  18.815  25.118  1.00  0.00    -0.744 OA
ENDBRANCH  67  68
ENDBRANCH  46  60
BRANCH  47  72
ATOM     72  C   UNL A   1      41.326  30.501  32.931  1.00  0.00     0.058 A 
ATOM     73  C   UNL A   1      40.163  29.737  33.158  1.00  0.00     0.135 A 
ATOM     74  C   UNL A   1      41.430  31.732  33.591  1.00  0.00     0.135 A 
ATOM     75  F   UNL A   1      40.000  28.560  32.532  1.00  0.00    -0.206 F 
ATOM     76  C   UNL A   1      39.236  30.087  34.133  1.00  0.00     0.059 A 
ATOM     77  C   UNL A   1      40.503  32.109  34.568  1.00  0.00     0.059 A 
ATOM     78  F   UNL A   1      42.509  32.508  33.408  1.00  0.00    -0.206 F 
ATOM     79  C   UNL A   1      39.455  31.241  34.883  1.00  0.00     0.060 A 
BRANCH  79  80
ATOM     80  S   UNL A   1      38.469  31.468  36.382  1.00  0.00     0.124 S 
ATOM     81  O   UNL A   1      38.224  30.091  36.797  1.00  0.00    -0.237 OA
ATOM     82  O   UNL A   1      39.385  32.227  37.235  1.00  0.00    -0.237 OA
ATOM     83  O   UNL A   1      37.302  32.202  35.911  1.00  0.00    -0.744 OA
ENDBRANCH  79  80
ENDBRANCH  47  72
BRANCH  59  84
ATOM     84  C   UNL A   1      44.777  24.125  33.682  1.00  0.00     0.058 A 
ATOM     85  C   UNL A   1      43.862  23.207  34.222  1.00  0.00     0.135 A 
ATOM     86  C   UNL A   1      46.145  23.811  33.879  1.00  0.00     0.135 A 
ATOM     87  F   UNL A   1      42.543  23.334  34.016  1.00  0.00    -0.206 F 
ATOM     88  C   UNL A   1      44.268  22.089  34.957  1.00  0.00     0.059 A 
ATOM     89  C   UNL A   1      46.572  22.673  34.559  1.00  0.00     0.059 A 
ATOM     90  F   UNL A   1      47.119  24.601  33.402  1.00  0.00    -0.206 F 
ATOM     91  C   UNL A   1      45.626  21.828  35.116  1.00  0.00     0.060 A 
BRANCH  91  92
ATOM     92  S   UNL A   1      46.165  20.348  35.992  1.00  0.00     0.124 S 
ATOM     93  O   UNL A   1      45.733  20.642  37.354  1.00  0.00    -0.237 OA
ATOM     94  O   UNL A   1      45.431  19.281  35.316  1.00  0.00    -0.237 OA
ATOM     95  O   UNL A   1      47.607  20.340  35.771  1.00  0.00    -0.744 OA
ENDBRANCH  91  92
ENDBRANCH  59  84
ENDBRANCH  33  34
ENDBRANCH  25  28
ENDBRANCH  23  24
ENDBRANCH   1  23
TORSDOF 16
ENDMDL
MODEL 2
REMARK VINA RESULT:     -14.0      1.220      3.331
REMARK SMILES Cc1cccc(C(=O)NCCCNC(=O)c2ccc(-c3c4nc(c(-c5c(F)cc(S(=O)(=O)[O-])cc5F)c5ccc([nH]5)c(-c5c(F)cc(S(=O)(=O)[O-])cc5F)c5nc(c(-c6c(F)cc(S(=O)(=O)[O-])cc6F)c6ccc3[nH]6)C=C5)C=C4)cc2)c1OC[C@@H]1C[C@H]2CC[C@@H]1C2
REMARK SMILES IDX 11 1 10 2 9 3 7 4 8 5 6 7 1 8 2 9 3 10 82 11 4 12 5 13 83 14
REMARK SMILES IDX 84 15 85 16 86 17 90 18 87 19 89 20 91 21 88 22 12 23 13 24
REMARK SMILES IDX 14 25 15 27 16 28 17 29 81 30 18 31 80 32 19 33 20 34 21 35
REMARK SMILES IDX 74 36 22 37 79 38 73 39 75 40 23 41 78 42 72 43 71 44 24 46
REMARK SMILES IDX 58 47 37 48 57 49 38 50 41 51 56 52 76 53 39 54 40 55 55 57
REMARK SMILES IDX 77 58 42 59 25 60 26 61 35 62 27 63 28 64 34 65 36 66 29 67
REMARK SMILES IDX 30 68 31 69 32 70 33 71 59 72 60 73 69 74 61 75 62 76 68 77
REMARK SMILES IDX 70 78 63 79 64 80 65 81 66 82 67 83 43 84 44 85 53 86 45 87
REMARK SMILES IDX 46 88 52 89 54 90 47 91 48 92 49 93 50 94 51 95
REMARK H PARENT 9 6 13 26 75 45 41 56
REMARK Flexibility Score: inf
ROOT
ATOM      1  C   UNL A   1      33.018  30.267  27.236  1.00  0.00     0.042 C 
ENDROOT
BRANCH   1   2
ATOM      2  C   UNL A   1      32.273  30.303  25.908  1.00  0.00     0.118 C 
BRANCH   2   3
ATOM      3  N   UNL A   1      33.085  29.698  24.873  1.00  0.00    -0.352 N 
ATOM      4  C   UNL A   1      33.060  28.486  24.242  1.00  0.00     0.255 C 
ATOM      5  O   UNL A   1      34.005  28.295  23.465  1.00  0.00    -0.269 OA
ATOM      6  H   UNL A   1      33.809  30.283  24.557  1.00  0.00     0.163 HD
BRANCH   4   7
ATOM      7  C   UNL A   1      32.025  27.397  24.345  1.00  0.00     0.082 A 
ATOM      8  C   UNL A   1      31.345  23.625  24.566  1.00  0.00     0.048 C 
ATOM      9  C   UNL A   1      31.160  25.118  24.475  1.00  0.00    -0.008 A 
ATOM     10  C   UNL A   1      29.986  25.527  23.815  1.00  0.00     0.007 A 
ATOM     11  C   UNL A   1      32.135  26.078  24.850  1.00  0.00     0.134 A 
ATOM     12  C   UNL A   1      29.811  26.843  23.431  1.00  0.00     0.001 A 
ATOM     13  C   UNL A   1      30.834  27.752  23.663  1.00  0.00     0.018 A 
BRANCH  11  14
ATOM     14  O   UNL A   1      33.231  25.723  25.575  1.00  0.00    -0.492 OA
BRANCH  14  15
ATOM     15  C   UNL A   1      34.422  25.230  24.919  1.00  0.00     0.233 C 
BRANCH  15  16
ATOM     16  C   UNL A   1      34.982  23.870  25.381  1.00  0.00     0.030 C 
ATOM     17  C   UNL A   1      36.524  23.902  25.608  1.00  0.00     0.011 C 
ATOM     18  C   UNL A   1      34.876  22.820  24.242  1.00  0.00    -0.004 C 
ATOM     19  C   UNL A   1      37.064  22.859  24.613  1.00  0.00    -0.010 C 
ATOM     20  C   UNL A   1      35.148  21.424  24.822  1.00  0.00     0.004 C 
ATOM     21  C   UNL A   1      36.141  23.069  23.419  1.00  0.00     0.007 C 
ATOM     22  C   UNL A   1      36.659  21.453  25.084  1.00  0.00     0.004 C 
ENDBRANCH  15  16
ENDBRANCH  14  15
ENDBRANCH  11  14
ENDBRANCH   4   7
ENDBRANCH   2   3
ENDBRANCH   1   2
BRANCH   1  23
ATOM     23  C   UNL A   1      34.497  29.960  27.124  1.00  0.00     0.118 C 
BRANCH  23  24
ATOM     24  N   UNL A   1      35.297  31.114  27.545  1.00  0.00    -0.352 N 
ATOM     25  C   UNL A   1      36.533  31.125  28.168  1.00  0.00     0.251 C 
ATOM     26  H   UNL A   1      34.902  31.998  27.359  1.00  0.00     0.163 HD
ATOM     27  O   UNL A   1      37.023  32.108  28.671  1.00  0.00    -0.269 OA
BRANCH  25  28
ATOM     28  C   UNL A   1      37.282  29.859  28.067  1.00  0.00     0.039 A 
ATOM     29  C   UNL A   1      37.317  29.089  29.235  1.00  0.00     0.014 A 
ATOM     30  C   UNL A   1      38.244  29.742  27.070  1.00  0.00     0.014 A 
ATOM     31  C   UNL A   1      38.449  28.334  29.508  1.00  0.00     0.010 A 
ATOM     32  C   UNL A   1      39.406  29.072  27.393  1.00  0.00     0.010 A 
ATOM     33  C   UNL A   1      39.526  28.415  28.631  1.00  0.00    -0.014 A 
BRANCH  33  34
ATOM     34  C   UNL A   1      40.841  27.860  28.925  1.00  0.00     0.031 A 
ATOM     35  C   UNL A   1      41.098  26.449  28.563  1.00  0.00     0.074 A 
ATOM     36  C   UNL A   1      41.824  28.638  29.426  1.00  0.00     0.049 A 
ATOM     37  N   UNL A   1      42.105  25.751  28.959  1.00  0.00    -0.248 NA
ATOM     38  C   UNL A   1      40.161  25.686  27.745  1.00  0.00     0.031 C 
ATOM     39  C   UNL A   1      43.253  28.346  29.440  1.00  0.00     0.029 A 
ATOM     40  N   UNL A   1      41.692  29.777  30.230  1.00  0.00    -0.354 N 
ATOM     41  C   UNL A   1      42.100  24.563  28.258  1.00  0.00     0.074 A 
ATOM     42  C   UNL A   1      40.840  24.554  27.556  1.00  0.00     0.031 C 
ATOM     43  C   UNL A   1      43.841  29.089  30.390  1.00  0.00     0.029 A 
ATOM     44  C   UNL A   1      42.784  29.762  31.124  1.00  0.00     0.049 A 
ATOM     45  H   UNL A   1      40.979  30.454  30.182  1.00  0.00     0.167 HD
ATOM     46  C   UNL A   1      43.223  23.788  28.265  1.00  0.00     0.037 A 
ATOM     47  C   UNL A   1      42.596  29.650  32.472  1.00  0.00     0.037 A 
ATOM     48  C   UNL A   1      44.184  24.291  29.247  1.00  0.00     0.049 A 
ATOM     49  C   UNL A   1      43.215  28.410  33.078  1.00  0.00     0.074 A 
ATOM     50  C   UNL A   1      45.290  25.122  29.146  1.00  0.00     0.029 A 
ATOM     51  N   UNL A   1      43.869  24.223  30.601  1.00  0.00    -0.354 N 
ATOM     52  N   UNL A   1      43.580  27.364  32.386  1.00  0.00    -0.248 NA
ATOM     53  C   UNL A   1      43.475  28.247  34.506  1.00  0.00     0.031 C 
ATOM     54  C   UNL A   1      45.581  25.624  30.440  1.00  0.00     0.029 A 
ATOM     55  C   UNL A   1      44.676  25.074  31.332  1.00  0.00     0.049 A 
ATOM     56  H   UNL A   1      43.168  23.647  30.984  1.00  0.00     0.167 HD
ATOM     57  C   UNL A   1      44.087  26.407  33.228  1.00  0.00     0.074 A 
ATOM     58  C   UNL A   1      44.021  27.018  34.543  1.00  0.00     0.031 C 
ATOM     59  C   UNL A   1      44.517  25.191  32.776  1.00  0.00     0.037 A 
BRANCH  46  60
ATOM     60  C   UNL A   1      43.554  22.777  27.180  1.00  0.00     0.058 A 
ATOM     61  C   UNL A   1      42.798  21.590  27.051  1.00  0.00     0.135 A 
ATOM     62  C   UNL A   1      44.650  22.861  26.298  1.00  0.00     0.135 A 
ATOM     63  F   UNL A   1      41.668  21.401  27.745  1.00  0.00    -0.206 F 
ATOM     64  C   UNL A   1      43.170  20.533  26.212  1.00  0.00     0.059 A 
ATOM     65  C   UNL A   1      45.078  21.797  25.497  1.00  0.00     0.059 A 
ATOM     66  F   UNL A   1      45.321  24.003  26.120  1.00  0.00    -0.206 F 
ATOM     67  C   UNL A   1      44.336  20.629  25.468  1.00  0.00     0.060 A 
BRANCH  67  68
ATOM     68  S   UNL A   1      44.851  19.231  24.453  1.00  0.00     0.124 S 
ATOM     69  O   UNL A   1      44.419  19.640  23.121  1.00  0.00    -0.237 OA
ATOM     70  O   UNL A   1      46.293  19.209  24.676  1.00  0.00    -0.237 OA
ATOM     71  O   UNL A   1      44.113  18.105  25.023  1.00  0.00    -0.744 OA
ENDBRANCH  67  68
ENDBRANCH  46  60
BRANCH  47  72
ATOM     72  C   UNL A   1      41.365  30.345  32.946  1.00  0.00     0.058 A 
ATOM     73  C   UNL A   1      40.255  29.539  33.269  1.00  0.00     0.135 A 
ATOM     74  C   UNL A   1      41.418  31.627  33.508  1.00  0.00     0.135 A 
ATOM     75  F   UNL A   1      40.141  28.310  32.739  1.00  0.00    -0.206 F 
ATOM     76  C   UNL A   1      39.338  29.912  34.246  1.00  0.00     0.059 A 
ATOM     77  C   UNL A   1      40.500  32.027  34.485  1.00  0.00     0.059 A 
ATOM     78  F   UNL A   1      42.445  32.445  33.231  1.00  0.00    -0.206 F 
ATOM     79  C   UNL A   1      39.514  31.129  34.899  1.00  0.00     0.060 A 
BRANCH  79  80
ATOM     80  S   UNL A   1      38.561  31.416  36.410  1.00  0.00     0.124 S 
ATOM     81  O   UNL A   1      39.563  32.002  37.294  1.00  0.00    -0.237 OA
ATOM     82  O   UNL A   1      37.522  32.335  35.943  1.00  0.00    -0.237 OA
ATOM     83  O   UNL A   1      38.099  30.084  36.776  1.00  0.00    -0.744 OA
ENDBRANCH  79  80
ENDBRANCH  47  72
BRANCH  59  84
ATOM     84  C   UNL A   1      44.906  24.012  33.640  1.00  0.00     0.058 A 
ATOM     85  C   UNL A   1      44.019  22.994  34.025  1.00  0.00     0.135 A 
ATOM     86  C   UNL A   1      46.265  23.799  33.981  1.00  0.00     0.135 A 
ATOM     87  F   UNL A   1      42.726  23.026  33.673  1.00  0.00    -0.206 F 
ATOM     88  C   UNL A   1      44.435  21.873  34.748  1.00  0.00     0.059 A 
ATOM     89  C   UNL A   1      46.710  22.662  34.651  1.00  0.00     0.059 A 
ATOM     90  F   UNL A   1      47.215  24.691  33.659  1.00  0.00    -0.206 F 
ATOM     91  C   UNL A   1      45.783  21.713  35.052  1.00  0.00     0.060 A 
BRANCH  91  92
ATOM     92  S   UNL A   1      46.346  20.233  35.913  1.00  0.00     0.124 S 
ATOM     93  O   UNL A   1      47.793  20.415  35.890  1.00  0.00    -0.237 OA
ATOM     94  O   UNL A   1      45.717  20.357  37.226  1.00  0.00    -0.237 OA
ATOM     95  O   UNL A   1      45.829  19.150  35.082  1.00  0.00    -0.744 OA
ENDBRANCH  91  92
ENDBRANCH  59  84
ENDBRANCH  33  34
ENDBRANCH  25  28
ENDBRANCH  23  24
ENDBRANCH   1  23
TORSDOF 16
ENDMDL
MODEL 3
REMARK VINA RESULT:     -13.9      5.461     11.856
REMARK SMILES Cc1cccc(C(=O)NCCCNC(=O)c2ccc(-c3c4nc(c(-c5c(F)cc(S(=O)(=O)[O-])cc5F)c5ccc([nH]5)c(-c5c(F)cc(S(=O)(=O)[O-])cc5F)c5nc(c(-c6c(F)cc(S(=O)(=O)[O-])cc6F)c6ccc3[nH]6)C=C5)C=C4)cc2)c1OC[C@@H]1C[C@H]2CC[C@@H]1C2
REMARK SMILES IDX 11 1 10 2 9 3 7 4 8 5 6 7 1 8 2 9 3 10 82 11 4 12 5 13 83 14
REMARK SMILES IDX 84 15 85 16 86 17 90 18 87 19 89 20 91 21 88 22 12 23 13 24
REMARK SMILES IDX 14 25 15 27 16 28 17 29 81 30 18 31 80 32 19 33 20 34 21 35
REMARK SMILES IDX 74 36 22 37 79 38 73 39 75 40 23 41 78 42 72 43 71 44 24 46
REMARK SMILES IDX 58 47 37 48 57 49 38 50 41 51 56 52 76 53 39 54 40 55 55 57
REMARK SMILES IDX 77 58 42 59 25 60 26 61 35 62 27 63 28 64 34 65 36 66 29 67
REMARK SMILES IDX 30 68 31 69 32 70 33 71 59 72 60 73 69 74 61 75 62 76 68 77
REMARK SMILES IDX 70 78 63 79 64 80 65 81 66 82 67 83 43 84 44 85 53 86 45 87
REMARK SMILES IDX 46 88 52 89 54 90 47 91 48 92 49 93 50 94 51 95
REMARK H PARENT 9 6 13 26 75 45 41 56
REMARK Flexibility Score: inf
ROOT
ATOM      1  C   UNL A   1      37.787  21.915  25.375  1.00  0.00     0.042 C 
ENDROOT
BRANCH   1   2
ATOM      2  C   UNL A   1      36.298  21.765  25.090  1.00  0.00     0.118 C 
BRANCH   2   3
ATOM      3  N   UNL A   1      35.585  21.518  26.326  1.00  0.00    -0.352 N 
ATOM      4  C   UNL A   1      34.420  21.997  26.855  1.00  0.00     0.255 C 
ATOM      5  O   UNL A   1      34.187  21.613  28.010  1.00  0.00    -0.269 OA
ATOM      6  H   UNL A   1      36.036  20.867  26.910  1.00  0.00     0.163 HD
BRANCH   4   7
ATOM      7  C   UNL A   1      33.388  22.881  26.204  1.00  0.00     0.082 A 
ATOM      8  C   UNL A   1      30.888  23.315  23.324  1.00  0.00     0.048 C 
ATOM      9  C   UNL A   1      31.729  23.563  24.550  1.00  0.00    -0.008 A 
ATOM     10  C   UNL A   1      32.067  24.912  24.769  1.00  0.00     0.007 A 
ATOM     11  C   UNL A   1      32.305  22.547  25.354  1.00  0.00     0.134 A 
ATOM     12  C   UNL A   1      33.035  25.259  25.692  1.00  0.00     0.001 A 
ATOM     13  C   UNL A   1      33.707  24.252  26.371  1.00  0.00     0.018 A 
BRANCH  11  14
ATOM     14  O   UNL A   1      31.922  21.247  25.230  1.00  0.00    -0.492 OA
BRANCH  14  15
ATOM     15  C   UNL A   1      32.651  20.343  24.368  1.00  0.00     0.233 C 
BRANCH  15  16
ATOM     16  C   UNL A   1      33.135  19.010  24.973  1.00  0.00     0.030 C 
ATOM     17  C   UNL A   1      34.558  18.609  24.482  1.00  0.00     0.011 C 
ATOM     18  C   UNL A   1      32.292  17.825  24.428  1.00  0.00    -0.004 C 
ATOM     19  C   UNL A   1      34.337  17.260  23.773  1.00  0.00    -0.010 C 
ATOM     20  C   UNL A   1      32.586  16.574  25.268  1.00  0.00     0.004 C 
ATOM     21  C   UNL A   1      32.985  17.484  23.107  1.00  0.00     0.007 C 
ATOM     22  C   UNL A   1      34.001  16.187  24.821  1.00  0.00     0.004 C 
ENDBRANCH  15  16
ENDBRANCH  14  15
ENDBRANCH  11  14
ENDBRANCH   4   7
ENDBRANCH   2   3
ENDBRANCH   1   2
BRANCH   1  23
ATOM     23  C   UNL A   1      38.158  23.148  26.172  1.00  0.00     0.118 C 
BRANCH  23  24
ATOM     24  N   UNL A   1      39.369  22.908  26.961  1.00  0.00    -0.352 N 
ATOM     25  C   UNL A   1      40.215  23.836  27.546  1.00  0.00     0.251 C 
ATOM     26  H   UNL A   1      39.613  21.963  27.092  1.00  0.00     0.163 HD
ATOM     27  O   UNL A   1      41.302  23.562  27.996  1.00  0.00    -0.269 OA
BRANCH  25  28
ATOM     28  C   UNL A   1      39.636  25.183  27.698  1.00  0.00     0.039 A 
ATOM     29  C   UNL A   1      40.179  26.166  26.863  1.00  0.00     0.014 A 
ATOM     30  C   UNL A   1      38.998  25.494  28.894  1.00  0.00     0.014 A 
ATOM     31  C   UNL A   1      40.269  27.469  27.329  1.00  0.00     0.010 A 
ATOM     32  C   UNL A   1      39.180  26.767  29.392  1.00  0.00     0.010 A 
ATOM     33  C   UNL A   1      39.862  27.736  28.632  1.00  0.00    -0.014 A 
BRANCH  33  34
ATOM     34  C   UNL A   1      40.119  29.000  29.309  1.00  0.00     0.031 A 
ATOM     35  C   UNL A   1      39.097  30.063  29.210  1.00  0.00     0.074 A 
ATOM     36  C   UNL A   1      41.215  29.160  30.081  1.00  0.00     0.049 A 
ATOM     37  N   UNL A   1      39.270  31.295  29.544  1.00  0.00    -0.248 NA
ATOM     38  C   UNL A   1      37.777  29.807  28.645  1.00  0.00     0.031 C 
ATOM     39  C   UNL A   1      41.438  30.196  31.085  1.00  0.00     0.029 A 
ATOM     40  N   UNL A   1      42.457  28.526  29.952  1.00  0.00    -0.354 N 
ATOM     41  C   UNL A   1      38.043  31.925  29.496  1.00  0.00     0.074 A 
ATOM     42  C   UNL A   1      37.160  30.965  28.881  1.00  0.00     0.031 C 
ATOM     43  C   UNL A   1      42.756  30.316  31.303  1.00  0.00     0.029 A 
ATOM     44  C   UNL A   1      43.430  29.476  30.329  1.00  0.00     0.049 A 
ATOM     45  H   UNL A   1      42.619  27.600  29.657  1.00  0.00     0.167 HD
ATOM     46  C   UNL A   1      37.902  33.141  30.097  1.00  0.00     0.037 A 
ATOM     47  C   UNL A   1      44.360  29.930  29.437  1.00  0.00     0.037 A 
ATOM     48  C   UNL A   1      39.206  33.664  30.506  1.00  0.00     0.049 A 
ATOM     49  C   UNL A   1      44.282  31.417  29.172  1.00  0.00     0.074 A 
ATOM     50  C   UNL A   1      39.899  33.641  31.707  1.00  0.00     0.029 A 
ATOM     51  N   UNL A   1      40.132  34.016  29.528  1.00  0.00    -0.354 N 
ATOM     52  N   UNL A   1      43.242  32.155  29.456  1.00  0.00    -0.248 NA
ATOM     53  C   UNL A   1      45.362  32.193  28.569  1.00  0.00     0.031 C 
ATOM     54  C   UNL A   1      41.267  33.894  31.429  1.00  0.00     0.029 A 
ATOM     55  C   UNL A   1      41.402  34.104  30.067  1.00  0.00     0.049 A 
ATOM     56  H   UNL A   1      39.912  34.180  28.582  1.00  0.00     0.167 HD
ATOM     57  C   UNL A   1      43.478  33.453  29.078  1.00  0.00     0.074 A 
ATOM     58  C   UNL A   1      44.830  33.428  28.549  1.00  0.00     0.031 C 
ATOM     59  C   UNL A   1      42.544  34.439  29.228  1.00  0.00     0.037 A 
BRANCH  46  60
ATOM     60  C   UNL A   1      36.569  33.694  30.573  1.00  0.00     0.058 A 
ATOM     61  C   UNL A   1      35.610  34.155  29.643  1.00  0.00     0.135 A 
ATOM     62  C   UNL A   1      36.204  33.890  31.921  1.00  0.00     0.135 A 
ATOM     63  F   UNL A   1      35.759  33.953  28.327  1.00  0.00    -0.206 F 
ATOM     64  C   UNL A   1      34.456  34.854  30.014  1.00  0.00     0.059 A 
ATOM     65  C   UNL A   1      35.091  34.639  32.317  1.00  0.00     0.059 A 
ATOM     66  F   UNL A   1      36.873  33.307  32.920  1.00  0.00    -0.206 F 
ATOM     67  C   UNL A   1      34.225  35.128  31.354  1.00  0.00     0.060 A 
BRANCH  67  68
ATOM     68  S   UNL A   1      32.780  36.101  31.818  1.00  0.00     0.124 S 
ATOM     69  O   UNL A   1      32.336  36.627  30.532  1.00  0.00    -0.237 OA
ATOM     70  O   UNL A   1      31.918  35.092  32.425  1.00  0.00    -0.237 OA
ATOM     71  O   UNL A   1      33.321  37.098  32.739  1.00  0.00    -0.744 OA
ENDBRANCH  67  68
ENDBRANCH  46  60
BRANCH  47  72
ATOM     72  C   UNL A   1      44.799  28.882  28.472  1.00  0.00     0.058 A 
ATOM     73  C   UNL A   1      44.208  28.898  27.193  1.00  0.00     0.135 A 
ATOM     74  C   UNL A   1      46.035  28.235  28.606  1.00  0.00     0.135 A 
ATOM     75  F   UNL A   1      43.013  29.484  27.012  1.00  0.00    -0.206 F 
ATOM     76  C   UNL A   1      44.892  28.458  26.064  1.00  0.00     0.059 A 
ATOM     77  C   UNL A   1      46.735  27.775  27.486  1.00  0.00     0.059 A 
ATOM     78  F   UNL A   1      46.642  28.178  29.800  1.00  0.00    -0.206 F 
ATOM     79  C   UNL A   1      46.186  27.964  26.215  1.00  0.00     0.060 A 
BRANCH  79  80
ATOM     80  S   UNL A   1      47.189  27.767  24.723  1.00  0.00     0.124 S 
ATOM     81  O   UNL A   1      46.586  28.742  23.820  1.00  0.00    -0.237 OA
ATOM     82  O   UNL A   1      48.527  28.106  25.210  1.00  0.00    -0.237 OA
ATOM     83  O   UNL A   1      46.990  26.368  24.365  1.00  0.00    -0.744 OA
ENDBRANCH  79  80
ENDBRANCH  47  72
BRANCH  59  84
ATOM     84  C   UNL A   1      42.640  35.841  28.669  1.00  0.00     0.058 A 
ATOM     85  C   UNL A   1      42.211  36.204  27.382  1.00  0.00     0.135 A 
ATOM     86  C   UNL A   1      43.038  36.913  29.506  1.00  0.00     0.135 A 
ATOM     87  F   UNL A   1      41.713  35.296  26.531  1.00  0.00    -0.206 F 
ATOM     88  C   UNL A   1      42.230  37.527  26.933  1.00  0.00     0.059 A 
ATOM     89  C   UNL A   1      43.011  38.244  29.097  1.00  0.00     0.059 A 
ATOM     90  F   UNL A   1      43.457  36.701  30.763  1.00  0.00    -0.206 F 
ATOM     91  C   UNL A   1      42.627  38.542  27.799  1.00  0.00     0.060 A 
BRANCH  91  92
ATOM     92  S   UNL A   1      42.581  40.261  27.260  1.00  0.00     0.124 S 
ATOM     93  O   UNL A   1      43.362  40.201  26.028  1.00  0.00    -0.237 OA
ATOM     94  O   UNL A   1      41.152  40.512  27.088  1.00  0.00    -0.237 OA
ATOM     95  O   UNL A   1      43.203  40.972  28.372  1.00  0.00    -0.744 OA
ENDBRANCH  91  92
ENDBRANCH  59  84
ENDBRANCH  33  34
ENDBRANCH  25  28
ENDBRANCH  23  24
ENDBRANCH   1  23
TORSDOF 16
ENDMDL
