MODEL 1
REMARK VINA RESULT:     -12.1      0.000      0.000
REMARK SMILES CS(=O)(=O)Nc1cc(NS(C)(=O)=O)cc(C(=O)NCCCNC(=O)c2ccc(-c3c4nc(c(-c5c(F)cc(S(=O)(=O)[O-])cc5F)c5ccc([nH]5)c(-c5c(F)cc(S(=O)(=O)[O-])cc5F)c5nc(c(-c6c(F)cc(S(=O)(=O)[O-])cc6F)c6ccc3[nH]6)C=C5)C=C4)cc2)c1
REMARK SMILES IDX 20 1 19 2 18 3 16 4 17 5 15 7 6 8 7 9 91 10 8 11 14 12 5 13
REMARK SMILES IDX 2 15 1 16 3 17 4 18 9 19 10 21 11 22 12 23 13 24 21 25 22 26
REMARK SMILES IDX 23 27 24 29 25 30 26 31 90 32 27 33 89 34 28 35 29 36 30 37
REMARK SMILES IDX 83 38 31 39 88 40 82 41 84 42 32 43 87 44 81 45 80 46 33 48
REMARK SMILES IDX 67 49 46 50 66 51 47 52 50 53 65 54 85 55 48 56 49 57 64 59
REMARK SMILES IDX 86 60 51 61 34 62 35 63 44 64 36 65 37 66 43 67 45 68 38 69
REMARK SMILES IDX 39 70 40 71 41 72 42 73 68 74 69 75 78 76 70 77 71 78 77 79
REMARK SMILES IDX 79 80 72 81 73 82 74 83 75 84 76 85 52 86 53 87 62 88 54 89
REMARK SMILES IDX 55 90 61 91 63 92 56 93 57 94 58 95 59 96 60 97
REMARK H PARENT 18 6 5 14 9 20 22 28 84 47 50 58
REMARK Flexibility Score: inf
ROOT
ATOM      1  C   UNL A   1      34.260  31.412  28.070  1.00  0.00     0.042 C 
ENDROOT
BRANCH   1   2
ATOM      2  C   UNL A   1      33.718  30.471  26.999  1.00  0.00     0.118 C 
BRANCH   2   3
ATOM      3  N   UNL A   1      32.834  29.473  27.575  1.00  0.00    -0.352 N 
ATOM      4  C   UNL A   1      31.928  28.595  27.039  1.00  0.00     0.251 C 
ATOM      5  O   UNL A   1      31.345  27.844  27.824  1.00  0.00    -0.269 OA
ATOM      6  H   UNL A   1      32.899  29.414  28.556  1.00  0.00     0.163 HD
BRANCH   4   7
ATOM      7  C   UNL A   1      31.680  28.431  25.577  1.00  0.00     0.043 A 
ATOM      8  C   UNL A   1      31.549  27.122  23.560  1.00  0.00     0.051 A 
ATOM      9  C   UNL A   1      30.796  28.125  22.948  1.00  0.00     0.053 A 
ATOM     10  C   UNL A   1      32.106  27.348  24.814  1.00  0.00     0.040 A 
ATOM     11  C   UNL A   1      30.567  29.333  23.600  1.00  0.00     0.051 A 
ATOM     12  C   UNL A   1      30.925  29.434  24.946  1.00  0.00     0.040 A 
BRANCH   8  13
ATOM     13  N   UNL A   1      31.765  25.931  22.805  1.00  0.00    -0.284 N 
ATOM     14  H   UNL A   1      31.012  25.311  22.675  1.00  0.00     0.180 HD
BRANCH  13  15
ATOM     15  S   UNL A   1      33.256  25.550  22.132  1.00  0.00     0.229 S 
ATOM     16  C   UNL A   1      34.170  24.850  23.496  1.00  0.00     0.183 C 
ATOM     17  O   UNL A   1      33.905  26.777  21.729  1.00  0.00    -0.207 OA
ATOM     18  O   UNL A   1      33.003  24.493  21.176  1.00  0.00    -0.207 OA
ENDBRANCH  13  15
ENDBRANCH   8  13
BRANCH  11  19
ATOM     19  N   UNL A   1      29.792  30.405  23.036  1.00  0.00    -0.284 N 
ATOM     20  H   UNL A   1      30.230  31.250  22.787  1.00  0.00     0.180 HD
BRANCH  19  21
ATOM     21  S   UNL A   1      28.117  30.211  22.798  1.00  0.00     0.229 S 
ATOM     22  C   UNL A   1      28.037  30.526  21.051  1.00  0.00     0.183 C 
ATOM     23  O   UNL A   1      27.842  28.804  23.006  1.00  0.00    -0.207 OA
ATOM     24  O   UNL A   1      27.358  31.243  23.460  1.00  0.00    -0.207 OA
ENDBRANCH  19  21
ENDBRANCH  11  19
ENDBRANCH   4   7
ENDBRANCH   2   3
ENDBRANCH   1   2
BRANCH   1  25
ATOM     25  C   UNL A   1      35.626  30.970  28.584  1.00  0.00     0.118 C 
BRANCH  25  26
ATOM     26  N   UNL A   1      35.623  30.798  30.034  1.00  0.00    -0.352 N 
ATOM     27  C   UNL A   1      36.560  30.235  30.861  1.00  0.00     0.251 C 
ATOM     28  H   UNL A   1      34.821  31.141  30.490  1.00  0.00     0.163 HD
ATOM     29  O   UNL A   1      36.248  29.950  32.014  1.00  0.00    -0.269 OA
BRANCH  27  30
ATOM     30  C   UNL A   1      37.929  29.977  30.371  1.00  0.00     0.039 A 
ATOM     31  C   UNL A   1      38.924  29.629  31.287  1.00  0.00     0.014 A 
ATOM     32  C   UNL A   1      38.238  30.106  29.015  1.00  0.00     0.014 A 
ATOM     33  C   UNL A   1      40.213  29.355  30.832  1.00  0.00     0.010 A 
ATOM     34  C   UNL A   1      39.494  29.737  28.552  1.00  0.00     0.010 A 
ATOM     35  C   UNL A   1      40.499  29.368  29.456  1.00  0.00    -0.014 A 
BRANCH  35  36
ATOM     36  C   UNL A   1      41.840  28.990  28.946  1.00  0.00     0.031 A 
ATOM     37  C   UNL A   1      42.926  30.025  28.823  1.00  0.00     0.074 A 
ATOM     38  C   UNL A   1      42.054  27.724  28.535  1.00  0.00     0.049 A 
ATOM     39  N   UNL A   1      44.140  29.894  28.356  1.00  0.00    -0.248 NA
ATOM     40  C   UNL A   1      42.594  31.394  29.251  1.00  0.00     0.031 C 
ATOM     41  C   UNL A   1      41.056  26.651  28.546  1.00  0.00     0.029 A 
ATOM     42  N   UNL A   1      43.175  27.126  28.018  1.00  0.00    -0.354 N 
ATOM     43  C   UNL A   1      44.710  31.160  28.420  1.00  0.00     0.074 A 
ATOM     44  C   UNL A   1      43.690  32.059  28.914  1.00  0.00     0.031 C 
ATOM     45  C   UNL A   1      41.617  25.521  28.091  1.00  0.00     0.029 A 
ATOM     46  C   UNL A   1      42.999  25.798  27.711  1.00  0.00     0.049 A 
ATOM     47  H   UNL A   1      44.026  27.602  27.881  1.00  0.00     0.167 HD
ATOM     48  C   UNL A   1      45.977  31.535  28.118  1.00  0.00     0.037 A 
ATOM     49  C   UNL A   1      43.852  24.903  27.175  1.00  0.00     0.037 A 
ATOM     50  C   UNL A   1      46.988  30.624  27.647  1.00  0.00     0.049 A 
ATOM     51  C   UNL A   1      45.253  25.340  26.852  1.00  0.00     0.074 A 
ATOM     52  C   UNL A   1      48.320  30.884  27.377  1.00  0.00     0.029 A 
ATOM     53  N   UNL A   1      46.778  29.281  27.365  1.00  0.00    -0.354 N 
ATOM     54  N   UNL A   1      45.801  26.524  26.998  1.00  0.00    -0.248 NA
ATOM     55  C   UNL A   1      46.156  24.321  26.302  1.00  0.00     0.031 C 
ATOM     56  C   UNL A   1      48.900  29.714  26.877  1.00  0.00     0.029 A 
ATOM     57  C   UNL A   1      47.948  28.707  26.896  1.00  0.00     0.049 A 
ATOM     58  H   UNL A   1      45.924  28.806  27.484  1.00  0.00     0.167 HD
ATOM     59  C   UNL A   1      47.119  26.388  26.576  1.00  0.00     0.074 A 
ATOM     60  C   UNL A   1      47.290  25.000  26.192  1.00  0.00     0.031 C 
ATOM     61  C   UNL A   1      48.100  27.324  26.513  1.00  0.00     0.037 A 
BRANCH  48  62
ATOM     62  C   UNL A   1      46.338  32.987  28.285  1.00  0.00     0.058 A 
ATOM     63  C   UNL A   1      46.193  33.913  27.238  1.00  0.00     0.135 A 
ATOM     64  C   UNL A   1      46.802  33.469  29.520  1.00  0.00     0.135 A 
ATOM     65  F   UNL A   1      45.767  33.510  26.031  1.00  0.00    -0.206 F 
ATOM     66  C   UNL A   1      46.524  35.254  27.400  1.00  0.00     0.059 A 
ATOM     67  C   UNL A   1      47.109  34.813  29.714  1.00  0.00     0.059 A 
ATOM     68  F   UNL A   1      46.963  32.630  30.556  1.00  0.00    -0.206 F 
ATOM     69  C   UNL A   1      46.981  35.695  28.643  1.00  0.00     0.060 A 
BRANCH  69  70
ATOM     70  S   UNL A   1      47.400  37.441  28.837  1.00  0.00     0.124 S 
ATOM     71  O   UNL A   1      46.335  38.083  28.072  1.00  0.00    -0.237 OA
ATOM     72  O   UNL A   1      47.335  37.617  30.283  1.00  0.00    -0.237 OA
ATOM     73  O   UNL A   1      48.735  37.538  28.255  1.00  0.00    -0.744 OA
ENDBRANCH  69  70
ENDBRANCH  48  62
BRANCH  49  74
ATOM     74  C   UNL A   1      43.402  23.505  26.930  1.00  0.00     0.058 A 
ATOM     75  C   UNL A   1      43.084  23.063  25.638  1.00  0.00     0.135 A 
ATOM     76  C   UNL A   1      43.306  22.577  27.979  1.00  0.00     0.135 A 
ATOM     77  F   UNL A   1      43.157  23.912  24.601  1.00  0.00    -0.206 F 
ATOM     78  C   UNL A   1      42.671  21.757  25.394  1.00  0.00     0.059 A 
ATOM     79  C   UNL A   1      42.923  21.258  27.757  1.00  0.00     0.059 A 
ATOM     80  F   UNL A   1      43.616  22.944  29.232  1.00  0.00    -0.206 F 
ATOM     81  C   UNL A   1      42.597  20.861  26.462  1.00  0.00     0.060 A 
BRANCH  81  82
ATOM     82  S   UNL A   1      42.106  19.156  26.126  1.00  0.00     0.124 S 
ATOM     83  O   UNL A   1      42.977  18.813  25.008  1.00  0.00    -0.237 OA
ATOM     84  O   UNL A   1      42.404  18.496  27.393  1.00  0.00    -0.237 OA
ATOM     85  O   UNL A   1      40.686  19.272  25.806  1.00  0.00    -0.744 OA
ENDBRANCH  81  82
ENDBRANCH  49  74
BRANCH  61  86
ATOM     86  C   UNL A   1      49.452  26.873  26.033  1.00  0.00     0.058 A 
ATOM     87  C   UNL A   1      49.863  27.052  24.703  1.00  0.00     0.135 A 
ATOM     88  C   UNL A   1      50.365  26.290  26.927  1.00  0.00     0.135 A 
ATOM     89  F   UNL A   1      49.028  27.599  23.805  1.00  0.00    -0.206 F 
ATOM     90  C   UNL A   1      51.119  26.639  24.268  1.00  0.00     0.059 A 
ATOM     91  C   UNL A   1      51.638  25.901  26.523  1.00  0.00     0.059 A 
ATOM     92  F   UNL A   1      50.029  26.106  28.214  1.00  0.00    -0.206 F 
ATOM     93  C   UNL A   1      51.999  26.066  25.187  1.00  0.00     0.060 A 
BRANCH  93  94
ATOM     94  S   UNL A   1      53.633  25.555  24.614  1.00  0.00     0.124 S 
ATOM     95  O   UNL A   1      54.505  26.253  25.553  1.00  0.00    -0.237 OA
ATOM     96  O   UNL A   1      53.575  24.104  24.761  1.00  0.00    -0.237 OA
ATOM     97  O   UNL A   1      53.678  26.040  23.238  1.00  0.00    -0.744 OA
ENDBRANCH  93  94
ENDBRANCH  61  86
ENDBRANCH  35  36
ENDBRANCH  27  30
ENDBRANCH  25  26
ENDBRANCH   1  25
TORSDOF 17
ENDMDL
MODEL 2
REMARK VINA RESULT:     -12.0      6.789     12.389
REMARK SMILES CS(=O)(=O)Nc1cc(NS(C)(=O)=O)cc(C(=O)NCCCNC(=O)c2ccc(-c3c4nc(c(-c5c(F)cc(S(=O)(=O)[O-])cc5F)c5ccc([nH]5)c(-c5c(F)cc(S(=O)(=O)[O-])cc5F)c5nc(c(-c6c(F)cc(S(=O)(=O)[O-])cc6F)c6ccc3[nH]6)C=C5)C=C4)cc2)c1
REMARK SMILES IDX 20 1 19 2 18 3 16 4 17 5 15 7 6 8 7 9 91 10 8 11 14 12 5 13
REMARK SMILES IDX 2 15 1 16 3 17 4 18 9 19 10 21 11 22 12 23 13 24 21 25 22 26
REMARK SMILES IDX 23 27 24 29 25 30 26 31 90 32 27 33 89 34 28 35 29 36 30 37
REMARK SMILES IDX 83 38 31 39 88 40 82 41 84 42 32 43 87 44 81 45 80 46 33 48
REMARK SMILES IDX 67 49 46 50 66 51 47 52 50 53 65 54 85 55 48 56 49 57 64 59
REMARK SMILES IDX 86 60 51 61 34 62 35 63 44 64 36 65 37 66 43 67 45 68 38 69
REMARK SMILES IDX 39 70 40 71 41 72 42 73 68 74 69 75 78 76 70 77 71 78 77 79
REMARK SMILES IDX 79 80 72 81 73 82 74 83 75 84 76 85 52 86 53 87 62 88 54 89
REMARK SMILES IDX 55 90 61 91 63 92 56 93 57 94 58 95 59 96 60 97
REMARK H PARENT 18 6 5 14 9 20 22 28 84 47 50 58
REMARK Flexibility Score: inf
ROOT
ATOM      1  C   UNL A   1      38.880  22.353  26.417  1.00  0.00     0.042 C 
ENDROOT
BRANCH   1   2
ATOM      2  C   UNL A   1      37.575  23.061  26.065  1.00  0.00     0.118 C 
BRANCH   2   3
ATOM      3  N   UNL A   1      37.398  23.153  24.626  1.00  0.00    -0.352 N 
ATOM      4  C   UNL A   1      36.379  22.805  23.778  1.00  0.00     0.251 C 
ATOM      5  O   UNL A   1      36.541  23.048  22.580  1.00  0.00    -0.269 OA
ATOM      6  H   UNL A   1      38.172  23.547  24.163  1.00  0.00     0.163 HD
BRANCH   4   7
ATOM      7  C   UNL A   1      35.069  22.248  24.222  1.00  0.00     0.043 A 
ATOM      8  C   UNL A   1      33.703  20.569  25.279  1.00  0.00     0.051 A 
ATOM      9  C   UNL A   1      32.651  21.480  25.385  1.00  0.00     0.053 A 
ATOM     10  C   UNL A   1      34.846  20.918  24.569  1.00  0.00     0.040 A 
ATOM     11  C   UNL A   1      32.754  22.746  24.817  1.00  0.00     0.051 A 
ATOM     12  C   UNL A   1      33.999  23.151  24.330  1.00  0.00     0.040 A 
BRANCH   8  13
ATOM     13  N   UNL A   1      33.498  19.283  25.859  1.00  0.00    -0.284 N 
ATOM     14  H   UNL A   1      33.627  19.174  26.828  1.00  0.00     0.180 HD
BRANCH  13  15
ATOM     15  S   UNL A   1      33.044  17.947  24.947  1.00  0.00     0.229 S 
ATOM     16  C   UNL A   1      34.596  17.284  24.365  1.00  0.00     0.183 C 
ATOM     17  O   UNL A   1      32.287  18.406  23.804  1.00  0.00    -0.207 OA
ATOM     18  O   UNL A   1      32.478  16.999  25.882  1.00  0.00    -0.207 OA
ENDBRANCH  13  15
ENDBRANCH   8  13
BRANCH  11  19
ATOM     19  N   UNL A   1      31.716  23.738  24.895  1.00  0.00    -0.284 N 
ATOM     20  H   UNL A   1      31.135  23.904  24.118  1.00  0.00     0.180 HD
BRANCH  19  21
ATOM     21  S   UNL A   1      31.492  24.625  26.332  1.00  0.00     0.229 S 
ATOM     22  C   UNL A   1      32.789  25.823  26.134  1.00  0.00     0.183 C 
ATOM     23  O   UNL A   1      30.227  25.314  26.184  1.00  0.00    -0.207 OA
ATOM     24  O   UNL A   1      31.801  23.840  27.501  1.00  0.00    -0.207 OA
ENDBRANCH  19  21
ENDBRANCH  11  19
ENDBRANCH   4   7
ENDBRANCH   2   3
ENDBRANCH   1   2
BRANCH   1  25
ATOM     25  C   UNL A   1      39.868  23.283  27.111  1.00  0.00     0.118 C 
BRANCH  25  26
ATOM     26  N   UNL A   1      40.783  23.902  26.156  1.00  0.00    -0.352 N 
ATOM     27  C   UNL A   1      41.293  25.174  26.116  1.00  0.00     0.251 C 
ATOM     28  H   UNL A   1      41.080  23.313  25.426  1.00  0.00     0.163 HD
ATOM     29  O   UNL A   1      41.832  25.572  25.086  1.00  0.00    -0.269 OA
BRANCH  27  30
ATOM     30  C   UNL A   1      41.198  26.054  27.297  1.00  0.00     0.039 A 
ATOM     31  C   UNL A   1      42.108  27.105  27.437  1.00  0.00     0.014 A 
ATOM     32  C   UNL A   1      40.234  25.826  28.282  1.00  0.00     0.014 A 
ATOM     33  C   UNL A   1      42.009  27.959  28.534  1.00  0.00     0.010 A 
ATOM     34  C   UNL A   1      40.074  26.735  29.320  1.00  0.00     0.010 A 
ATOM     35  C   UNL A   1      40.967  27.805  29.464  1.00  0.00    -0.014 A 
BRANCH  35  36
ATOM     36  C   UNL A   1      40.791  28.759  30.587  1.00  0.00     0.031 A 
ATOM     37  C   UNL A   1      41.630  28.631  31.830  1.00  0.00     0.074 A 
ATOM     38  C   UNL A   1      39.829  29.700  30.505  1.00  0.00     0.049 A 
ATOM     39  N   UNL A   1      41.586  29.339  32.929  1.00  0.00    -0.248 NA
ATOM     40  C   UNL A   1      42.625  27.547  31.856  1.00  0.00     0.031 C 
ATOM     41  C   UNL A   1      38.913  29.877  29.376  1.00  0.00     0.029 A 
ATOM     42  N   UNL A   1      39.454  30.679  31.391  1.00  0.00    -0.354 N 
ATOM     43  C   UNL A   1      42.534  28.779  33.779  1.00  0.00     0.074 A 
ATOM     44  C   UNL A   1      43.094  27.636  33.093  1.00  0.00     0.031 C 
ATOM     45  C   UNL A   1      38.105  30.919  29.621  1.00  0.00     0.029 A 
ATOM     46  C   UNL A   1      38.412  31.455  30.943  1.00  0.00     0.049 A 
ATOM     47  H   UNL A   1      39.890  30.812  32.263  1.00  0.00     0.167 HD
ATOM     48  C   UNL A   1      42.919  29.196  35.009  1.00  0.00     0.037 A 
ATOM     49  C   UNL A   1      37.768  32.481  31.535  1.00  0.00     0.037 A 
ATOM     50  C   UNL A   1      42.366  30.349  35.671  1.00  0.00     0.049 A 
ATOM     51  C   UNL A   1      38.216  32.928  32.898  1.00  0.00     0.074 A 
ATOM     52  C   UNL A   1      42.731  30.899  36.887  1.00  0.00     0.029 A 
ATOM     53  N   UNL A   1      41.324  31.124  35.179  1.00  0.00    -0.354 N 
ATOM     54  N   UNL A   1      39.172  32.438  33.654  1.00  0.00    -0.248 NA
ATOM     55  C   UNL A   1      37.508  34.071  33.488  1.00  0.00     0.031 C 
ATOM     56  C   UNL A   1      41.872  31.969  37.158  1.00  0.00     0.029 A 
ATOM     57  C   UNL A   1      41.014  32.128  36.081  1.00  0.00     0.049 A 
ATOM     58  H   UNL A   1      40.873  30.981  34.316  1.00  0.00     0.167 HD
ATOM     59  C   UNL A   1      39.193  33.227  34.798  1.00  0.00     0.074 A 
ATOM     60  C   UNL A   1      38.169  34.238  34.624  1.00  0.00     0.031 C 
ATOM     61  C   UNL A   1      39.987  33.125  35.895  1.00  0.00     0.037 A 
BRANCH  48  62
ATOM     62  C   UNL A   1      43.984  28.401  35.718  1.00  0.00     0.058 A 
ATOM     63  C   UNL A   1      45.351  28.683  35.556  1.00  0.00     0.135 A 
ATOM     64  C   UNL A   1      43.633  27.366  36.600  1.00  0.00     0.135 A 
ATOM     65  F   UNL A   1      45.748  29.651  34.715  1.00  0.00    -0.206 F 
ATOM     66  C   UNL A   1      46.330  27.947  36.216  1.00  0.00     0.059 A 
ATOM     67  C   UNL A   1      44.595  26.639  37.296  1.00  0.00     0.059 A 
ATOM     68  F   UNL A   1      42.342  27.052  36.793  1.00  0.00    -0.206 F 
ATOM     69  C   UNL A   1      45.941  26.927  37.086  1.00  0.00     0.060 A 
BRANCH  69  70
ATOM     70  S   UNL A   1      47.226  25.988  37.939  1.00  0.00     0.124 S 
ATOM     71  O   UNL A   1      48.399  26.292  37.125  1.00  0.00    -0.237 OA
ATOM     72  O   UNL A   1      47.210  26.581  39.272  1.00  0.00    -0.237 OA
ATOM     73  O   UNL A   1      46.749  24.611  37.863  1.00  0.00    -0.744 OA
ENDBRANCH  69  70
ENDBRANCH  48  62
BRANCH  49  74
ATOM     74  C   UNL A   1      36.647  33.159  30.829  1.00  0.00     0.058 A 
ATOM     75  C   UNL A   1      35.314  32.924  31.194  1.00  0.00     0.135 A 
ATOM     76  C   UNL A   1      36.888  34.073  29.790  1.00  0.00     0.135 A 
ATOM     77  F   UNL A   1      35.030  32.056  32.177  1.00  0.00    -0.206 F 
ATOM     78  C   UNL A   1      34.257  33.557  30.547  1.00  0.00     0.059 A 
ATOM     79  C   UNL A   1      35.850  34.741  29.148  1.00  0.00     0.059 A 
ATOM     80  F   UNL A   1      38.146  34.347  29.414  1.00  0.00    -0.206 F 
ATOM     81  C   UNL A   1      34.537  34.468  29.526  1.00  0.00     0.060 A 
BRANCH  81  82
ATOM     82  S   UNL A   1      33.160  35.320  28.727  1.00  0.00     0.124 S 
ATOM     83  O   UNL A   1      32.428  35.839  29.877  1.00  0.00    -0.237 OA
ATOM     84  O   UNL A   1      33.848  36.312  27.908  1.00  0.00    -0.237 OA
ATOM     85  O   UNL A   1      32.493  34.255  27.983  1.00  0.00    -0.744 OA
ENDBRANCH  81  82
ENDBRANCH  49  74
BRANCH  61  86
ATOM     86  C   UNL A   1      39.796  34.148  36.981  1.00  0.00     0.058 A 
ATOM     87  C   UNL A   1      39.036  33.875  38.129  1.00  0.00     0.135 A 
ATOM     88  C   UNL A   1      40.418  35.404  36.890  1.00  0.00     0.135 A 
ATOM     89  F   UNL A   1      38.416  32.693  38.265  1.00  0.00    -0.206 F 
ATOM     90  C   UNL A   1      38.870  34.825  39.133  1.00  0.00     0.059 A 
ATOM     91  C   UNL A   1      40.294  36.356  37.897  1.00  0.00     0.059 A 
ATOM     92  F   UNL A   1      41.167  35.713  35.819  1.00  0.00    -0.206 F 
ATOM     93  C   UNL A   1      39.506  36.061  39.007  1.00  0.00     0.060 A 
BRANCH  93  94
ATOM     94  S   UNL A   1      39.300  37.275  40.328  1.00  0.00     0.124 S 
ATOM     95  O   UNL A   1      38.546  38.324  39.649  1.00  0.00    -0.237 OA
ATOM     96  O   UNL A   1      38.565  36.516  41.336  1.00  0.00    -0.237 OA
ATOM     97  O   UNL A   1      40.672  37.621  40.689  1.00  0.00    -0.744 OA
ENDBRANCH  93  94
ENDBRANCH  61  86
ENDBRANCH  35  36
ENDBRANCH  27  30
ENDBRANCH  25  26
ENDBRANCH   1  25
TORSDOF 17
ENDMDL
MODEL 3
REMARK VINA RESULT:     -11.9      6.645     12.513
REMARK SMILES CS(=O)(=O)Nc1cc(NS(C)(=O)=O)cc(C(=O)NCCCNC(=O)c2ccc(-c3c4nc(c(-c5c(F)cc(S(=O)(=O)[O-])cc5F)c5ccc([nH]5)c(-c5c(F)cc(S(=O)(=O)[O-])cc5F)c5nc(c(-c6c(F)cc(S(=O)(=O)[O-])cc6F)c6ccc3[nH]6)C=C5)C=C4)cc2)c1
REMARK SMILES IDX 20 1 19 2 18 3 16 4 17 5 15 7 6 8 7 9 91 10 8 11 14 12 5 13
REMARK SMILES IDX 2 15 1 16 3 17 4 18 9 19 10 21 11 22 12 23 13 24 21 25 22 26
REMARK SMILES IDX 23 27 24 29 25 30 26 31 90 32 27 33 89 34 28 35 29 36 30 37
REMARK SMILES IDX 83 38 31 39 88 40 82 41 84 42 32 43 87 44 81 45 80 46 33 48
REMARK SMILES IDX 67 49 46 50 66 51 47 52 50 53 65 54 85 55 48 56 49 57 64 59
REMARK SMILES IDX 86 60 51 61 34 62 35 63 44 64 36 65 37 66 43 67 45 68 38 69
REMARK SMILES IDX 39 70 40 71 41 72 42 73 68 74 69 75 78 76 70 77 71 78 77 79
REMARK SMILES IDX 79 80 72 81 73 82 74 83 75 84 76 85 52 86 53 87 62 88 54 89
REMARK SMILES IDX 55 90 61 91 63 92 56 93 57 94 58 95 59 96 60 97
REMARK H PARENT 18 6 5 14 9 20 22 28 84 47 50 58
REMARK Flexibility Score: inf
ROOT
ATOM      1  C   UNL A   1      39.236  22.333  26.458  1.00  0.00     0.042 C 
ENDROOT
BRANCH   1   2
ATOM      2  C   UNL A   1      38.064  23.247  26.118  1.00  0.00     0.118 C 
BRANCH   2   3
ATOM      3  N   UNL A   1      37.744  23.189  24.703  1.00  0.00    -0.352 N 
ATOM      4  C   UNL A   1      36.588  22.949  24.006  1.00  0.00     0.251 C 
ATOM      5  O   UNL A   1      36.655  22.999  22.777  1.00  0.00    -0.269 OA
ATOM      6  H   UNL A   1      38.520  23.357  24.120  1.00  0.00     0.163 HD
BRANCH   4   7
ATOM      7  C   UNL A   1      35.256  22.728  24.640  1.00  0.00     0.043 A 
ATOM      8  C   UNL A   1      32.999  23.383  25.168  1.00  0.00     0.051 A 
ATOM      9  C   UNL A   1      32.681  22.062  25.485  1.00  0.00     0.053 A 
ATOM     10  C   UNL A   1      34.318  23.725  24.890  1.00  0.00     0.040 A 
ATOM     11  C   UNL A   1      33.667  21.080  25.489  1.00  0.00     0.051 A 
ATOM     12  C   UNL A   1      34.922  21.404  24.969  1.00  0.00     0.040 A 
BRANCH   8  13
ATOM     13  N   UNL A   1      31.935  24.330  25.223  1.00  0.00    -0.284 N 
ATOM     14  H   UNL A   1      31.650  24.671  26.101  1.00  0.00     0.180 HD
BRANCH  13  15
ATOM     15  S   UNL A   1      31.151  24.885  23.845  1.00  0.00     0.229 S 
ATOM     16  C   UNL A   1      29.868  25.949  24.486  1.00  0.00     0.183 C 
ATOM     17  O   UNL A   1      30.525  23.760  23.188  1.00  0.00    -0.207 OA
ATOM     18  O   UNL A   1      32.110  25.715  23.148  1.00  0.00    -0.207 OA
ENDBRANCH  13  15
ENDBRANCH   8  13
BRANCH  11  19
ATOM     19  N   UNL A   1      33.410  19.699  25.796  1.00  0.00    -0.284 N 
ATOM     20  H   UNL A   1      33.232  19.426  26.725  1.00  0.00     0.180 HD
BRANCH  19  21
ATOM     21  S   UNL A   1      33.415  18.535  24.552  1.00  0.00     0.229 S 
ATOM     22  C   UNL A   1      32.529  17.234  25.374  1.00  0.00     0.183 C 
ATOM     23  O   UNL A   1      32.560  19.061  23.508  1.00  0.00    -0.207 OA
ATOM     24  O   UNL A   1      34.744  18.049  24.277  1.00  0.00    -0.207 OA
ENDBRANCH  19  21
ENDBRANCH  11  19
ENDBRANCH   4   7
ENDBRANCH   2   3
ENDBRANCH   1   2
BRANCH   1  25
ATOM     25  C   UNL A   1      40.392  23.095  27.096  1.00  0.00     0.118 C 
BRANCH  25  26
ATOM     26  N   UNL A   1      41.162  23.834  26.100  1.00  0.00    -0.352 N 
ATOM     27  C   UNL A   1      41.510  25.159  26.053  1.00  0.00     0.251 C 
ATOM     28  H   UNL A   1      41.484  23.295  25.342  1.00  0.00     0.163 HD
ATOM     29  O   UNL A   1      41.930  25.633  25.001  1.00  0.00    -0.269 OA
BRANCH  27  30
ATOM     30  C   UNL A   1      41.381  26.007  27.255  1.00  0.00     0.039 A 
ATOM     31  C   UNL A   1      42.386  26.933  27.545  1.00  0.00     0.014 A 
ATOM     32  C   UNL A   1      40.286  25.870  28.112  1.00  0.00     0.014 A 
ATOM     33  C   UNL A   1      42.261  27.758  28.662  1.00  0.00     0.010 A 
ATOM     34  C   UNL A   1      40.115  26.759  29.166  1.00  0.00     0.010 A 
ATOM     35  C   UNL A   1      41.105  27.705  29.459  1.00  0.00    -0.014 A 
BRANCH  35  36
ATOM     36  C   UNL A   1      40.913  28.638  30.596  1.00  0.00     0.031 A 
ATOM     37  C   UNL A   1      41.737  28.491  31.847  1.00  0.00     0.074 A 
ATOM     38  C   UNL A   1      39.948  29.576  30.521  1.00  0.00     0.049 A 
ATOM     39  N   UNL A   1      41.679  29.179  32.958  1.00  0.00    -0.248 NA
ATOM     40  C   UNL A   1      42.737  27.411  31.864  1.00  0.00     0.031 C 
ATOM     41  C   UNL A   1      39.043  29.769  29.385  1.00  0.00     0.029 A 
ATOM     42  N   UNL A   1      39.558  30.537  31.420  1.00  0.00    -0.354 N 
ATOM     43  C   UNL A   1      42.619  28.608  33.808  1.00  0.00     0.074 A 
ATOM     44  C   UNL A   1      43.192  27.480  33.108  1.00  0.00     0.031 C 
ATOM     45  C   UNL A   1      38.227  30.803  29.640  1.00  0.00     0.029 A 
ATOM     46  C   UNL A   1      38.518  31.317  30.974  1.00  0.00     0.049 A 
ATOM     47  H   UNL A   1      39.983  30.657  32.299  1.00  0.00     0.167 HD
ATOM     48  C   UNL A   1      42.989  29.004  35.050  1.00  0.00     0.037 A 
ATOM     49  C   UNL A   1      37.863  32.329  31.577  1.00  0.00     0.037 A 
ATOM     50  C   UNL A   1      42.423  30.143  35.726  1.00  0.00     0.049 A 
ATOM     51  C   UNL A   1      38.293  32.754  32.953  1.00  0.00     0.074 A 
ATOM     52  C   UNL A   1      42.773  30.673  36.956  1.00  0.00     0.029 A 
ATOM     53  N   UNL A   1      41.384  30.922  35.237  1.00  0.00    -0.354 N 
ATOM     54  N   UNL A   1      39.243  32.255  33.711  1.00  0.00    -0.248 NA
ATOM     55  C   UNL A   1      37.574  33.883  33.555  1.00  0.00     0.031 C 
ATOM     56  C   UNL A   1      41.906  31.734  37.236  1.00  0.00     0.029 A 
ATOM     57  C   UNL A   1      41.059  31.908  36.153  1.00  0.00     0.049 A 
ATOM     58  H   UNL A   1      40.944  30.793  34.366  1.00  0.00     0.167 HD
ATOM     59  C   UNL A   1      39.248  33.023  34.869  1.00  0.00     0.074 A 
ATOM     60  C   UNL A   1      38.222  34.033  34.702  1.00  0.00     0.031 C 
ATOM     61  C   UNL A   1      40.030  32.904  35.973  1.00  0.00     0.037 A 
BRANCH  48  62
ATOM     62  C   UNL A   1      44.049  28.201  35.756  1.00  0.00     0.058 A 
ATOM     63  C   UNL A   1      43.725  27.135  36.612  1.00  0.00     0.135 A 
ATOM     64  C   UNL A   1      45.410  28.477  35.546  1.00  0.00     0.135 A 
ATOM     65  F   UNL A   1      42.441  26.833  36.863  1.00  0.00    -0.206 F 
ATOM     66  C   UNL A   1      44.709  26.394  37.259  1.00  0.00     0.059 A 
ATOM     67  C   UNL A   1      46.412  27.727  36.157  1.00  0.00     0.059 A 
ATOM     68  F   UNL A   1      45.779  29.484  34.739  1.00  0.00    -0.206 F 
ATOM     69  C   UNL A   1      46.051  26.697  37.023  1.00  0.00     0.060 A 
BRANCH  69  70
ATOM     70  S   UNL A   1      47.315  25.721  37.865  1.00  0.00     0.124 S 
ATOM     71  O   UNL A   1      47.280  26.293  39.208  1.00  0.00    -0.237 OA
ATOM     72  O   UNL A   1      46.792  24.364  37.742  1.00  0.00    -0.237 OA
ATOM     73  O   UNL A   1      48.526  25.995  37.098  1.00  0.00    -0.744 OA
ENDBRANCH  69  70
ENDBRANCH  48  62
BRANCH  49  74
ATOM     74  C   UNL A   1      36.746  33.015  30.871  1.00  0.00     0.058 A 
ATOM     75  C   UNL A   1      35.413  32.807  31.251  1.00  0.00     0.135 A 
ATOM     76  C   UNL A   1      36.993  33.911  29.818  1.00  0.00     0.135 A 
ATOM     77  F   UNL A   1      35.124  31.958  32.248  1.00  0.00    -0.206 F 
ATOM     78  C   UNL A   1      34.361  33.448  30.603  1.00  0.00     0.059 A 
ATOM     79  C   UNL A   1      35.961  34.587  29.174  1.00  0.00     0.059 A 
ATOM     80  F   UNL A   1      38.253  34.159  29.427  1.00  0.00    -0.206 F 
ATOM     81  C   UNL A   1      34.647  34.340  29.568  1.00  0.00     0.060 A 
BRANCH  81  82
ATOM     82  S   UNL A   1      33.277  35.202  28.768  1.00  0.00     0.124 S 
ATOM     83  O   UNL A   1      32.528  35.695  29.918  1.00  0.00    -0.237 OA
ATOM     84  O   UNL A   1      33.971  36.214  27.977  1.00  0.00    -0.237 OA
ATOM     85  O   UNL A   1      32.624  34.150  27.994  1.00  0.00    -0.744 OA
ENDBRANCH  81  82
ENDBRANCH  49  74
BRANCH  61  86
ATOM     86  C   UNL A   1      39.823  33.907  37.075  1.00  0.00     0.058 A 
ATOM     87  C   UNL A   1      39.044  33.614  38.205  1.00  0.00     0.135 A 
ATOM     88  C   UNL A   1      40.446  35.164  37.017  1.00  0.00     0.135 A 
ATOM     89  F   UNL A   1      38.422  32.429  38.309  1.00  0.00    -0.206 F 
ATOM     90  C   UNL A   1      38.863  34.544  39.224  1.00  0.00     0.059 A 
ATOM     91  C   UNL A   1      40.307  36.097  38.040  1.00  0.00     0.059 A 
ATOM     92  F   UNL A   1      41.213  35.493  35.964  1.00  0.00    -0.206 F 
ATOM     93  C   UNL A   1      39.501  35.782  39.132  1.00  0.00     0.060 A 
BRANCH  93  94
ATOM     94  S   UNL A   1      39.276  36.970  40.472  1.00  0.00     0.124 S 
ATOM     95  O   UNL A   1      40.651  37.186  40.908  1.00  0.00    -0.237 OA
ATOM     96  O   UNL A   1      38.643  38.094  39.788  1.00  0.00    -0.237 OA
ATOM     97  O   UNL A   1      38.422  36.259  41.418  1.00  0.00    -0.744 OA
ENDBRANCH  93  94
ENDBRANCH  61  86
ENDBRANCH  35  36
ENDBRANCH  27  30
ENDBRANCH  25  26
ENDBRANCH   1  25
TORSDOF 17
ENDMDL
