MODEL 1
REMARK VINA RESULT:     -13.0      0.000      0.000
REMARK SMILES O=C(NCCCNC(=O)[C@]1(NC(=O)C2CCN(C(=O)C3CC3)CC2)CCCc2ccccc21)c1ccc(-c2c3nc(c(-c4c(F)cc(S(=O)(=O)[O-])cc4F)c4ccc([nH]4)c(-c4c(F)cc(S(=O)(=O)[O-])cc4F)c4nc(c(-c5c(F)cc(S(=O)(=O)[O-])cc5F)c5ccc2[nH]5)C=C4)C=C3)cc1
REMARK SMILES IDX 5 1 4 2 3 3 1 4 2 5 34 7 35 8 99 9 36 10 98 11 37 12 38 13
REMARK SMILES IDX 39 14 92 15 40 16 97 17 91 18 93 19 41 20 96 21 90 22 89 23
REMARK SMILES IDX 42 25 76 26 55 27 75 28 56 29 59 30 74 31 94 32 57 33 58 34
REMARK SMILES IDX 73 36 95 37 60 38 43 39 44 40 53 41 45 42 46 43 52 44 54 45
REMARK SMILES IDX 47 46 48 47 49 48 50 49 51 50 77 51 78 52 87 53 79 54 80 55
REMARK SMILES IDX 86 56 88 57 81 58 82 59 83 60 84 61 85 62 61 63 62 64 71 65
REMARK SMILES IDX 63 66 64 67 70 68 72 69 65 70 66 71 67 72 68 73 69 74 6 75
REMARK SMILES IDX 7 76 8 77 9 79 10 80 25 81 33 82 26 83 28 84 32 85 27 86
REMARK SMILES IDX 29 87 31 88 30 89 11 90 12 91 13 93 14 94 15 95 24 96 16 97
REMARK SMILES IDX 23 98 17 99 18 100 19 101 20 102 21 103 22 104
REMARK H PARENT 3 6 93 24 59 35 7 78 11 92
REMARK Flexibility Score: inf
ROOT
ATOM      1  C   UNL A   1      33.595  29.127  27.263  1.00  0.00     0.042 C 
ENDROOT
BRANCH   1   2
ATOM      2  C   UNL A   1      35.027  29.618  27.505  1.00  0.00     0.118 C 
BRANCH   2   3
ATOM      3  N   UNL A   1      35.126  30.368  28.751  1.00  0.00    -0.352 N 
ATOM      4  O   UNL A   1      35.887  30.828  30.808  1.00  0.00    -0.269 OA
ATOM      5  C   UNL A   1      36.147  30.426  29.675  1.00  0.00     0.251 C 
ATOM      6  H   UNL A   1      34.340  30.920  28.967  1.00  0.00     0.163 HD
BRANCH   5   7
ATOM      7  C   UNL A   1      37.548  30.039  29.349  1.00  0.00     0.039 A 
ATOM      8  C   UNL A   1      38.002  29.985  28.034  1.00  0.00     0.014 A 
ATOM      9  C   UNL A   1      38.474  29.864  30.389  1.00  0.00     0.014 A 
ATOM     10  C   UNL A   1      39.346  29.676  27.771  1.00  0.00     0.010 A 
ATOM     11  C   UNL A   1      39.830  29.587  30.118  1.00  0.00     0.010 A 
ATOM     12  C   UNL A   1      40.292  29.452  28.801  1.00  0.00    -0.014 A 
BRANCH  12  13
ATOM     13  C   UNL A   1      41.706  29.028  28.474  1.00  0.00     0.031 A 
ATOM     14  C   UNL A   1      42.898  29.976  28.577  1.00  0.00     0.074 A 
ATOM     15  C   UNL A   1      41.965  27.741  28.155  1.00  0.00     0.049 A 
ATOM     16  N   UNL A   1      44.177  29.725  28.393  1.00  0.00    -0.248 NA
ATOM     17  C   UNL A   1      42.634  31.371  28.964  1.00  0.00     0.031 C 
ATOM     18  C   UNL A   1      40.960  26.684  28.041  1.00  0.00     0.029 A 
ATOM     19  N   UNL A   1      43.151  27.095  27.884  1.00  0.00    -0.354 N 
ATOM     20  C   UNL A   1      44.860  30.913  28.648  1.00  0.00     0.074 A 
ATOM     21  C   UNL A   1      43.852  31.896  28.987  1.00  0.00     0.031 C 
ATOM     22  C   UNL A   1      41.571  25.519  27.786  1.00  0.00     0.029 A 
ATOM     23  C   UNL A   1      43.001  25.755  27.609  1.00  0.00     0.049 A 
ATOM     24  H   UNL A   1      44.026  27.549  27.888  1.00  0.00     0.167 HD
ATOM     25  C   UNL A   1      46.193  31.176  28.607  1.00  0.00     0.037 A 
ATOM     26  C   UNL A   1      43.884  24.814  27.213  1.00  0.00     0.037 A 
ATOM     27  C   UNL A   1      47.216  30.227  28.233  1.00  0.00     0.049 A 
ATOM     28  C   UNL A   1      45.330  25.166  27.022  1.00  0.00     0.074 A 
ATOM     29  C   UNL A   1      48.588  30.425  28.164  1.00  0.00     0.029 A 
ATOM     30  N   UNL A   1      46.991  28.918  27.839  1.00  0.00    -0.354 N 
ATOM     31  N   UNL A   1      45.941  26.299  27.262  1.00  0.00    -0.248 NA
ATOM     32  C   UNL A   1      46.204  24.111  26.488  1.00  0.00     0.031 C 
ATOM     33  C   UNL A   1      49.179  29.264  27.652  1.00  0.00     0.029 A 
ATOM     34  C   UNL A   1      48.188  28.315  27.475  1.00  0.00     0.049 A 
ATOM     35  H   UNL A   1      46.109  28.479  27.819  1.00  0.00     0.167 HD
ATOM     36  C   UNL A   1      47.276  26.088  26.929  1.00  0.00     0.074 A 
ATOM     37  C   UNL A   1      47.384  24.717  26.478  1.00  0.00     0.031 C 
ATOM     38  C   UNL A   1      48.314  26.958  27.003  1.00  0.00     0.037 A 
BRANCH  25  39
ATOM     39  C   UNL A   1      46.644  32.584  28.920  1.00  0.00     0.058 A 
ATOM     40  C   UNL A   1      47.003  32.984  30.218  1.00  0.00     0.135 A 
ATOM     41  C   UNL A   1      46.779  33.530  27.888  1.00  0.00     0.135 A 
ATOM     42  F   UNL A   1      46.891  32.128  31.245  1.00  0.00    -0.206 F 
ATOM     43  C   UNL A   1      47.446  34.279  30.485  1.00  0.00     0.059 A 
ATOM     44  C   UNL A   1      47.243  34.821  28.128  1.00  0.00     0.059 A 
ATOM     45  F   UNL A   1      46.463  33.200  26.626  1.00  0.00    -0.206 F 
ATOM     46  C   UNL A   1      47.556  35.192  29.434  1.00  0.00     0.060 A 
BRANCH  46  47
ATOM     47  S   UNL A   1      48.097  36.876  29.800  1.00  0.00     0.124 S 
ATOM     48  O   UNL A   1      47.848  36.954  31.236  1.00  0.00    -0.237 OA
ATOM     49  O   UNL A   1      49.501  36.849  29.402  1.00  0.00    -0.237 OA
ATOM     50  O   UNL A   1      47.228  37.703  28.969  1.00  0.00    -0.744 OA
ENDBRANCH  46  47
ENDBRANCH  25  39
BRANCH  26  51
ATOM     51  C   UNL A   1      43.389  23.443  26.915  1.00  0.00     0.058 A 
ATOM     52  C   UNL A   1      43.249  22.985  25.599  1.00  0.00     0.135 A 
ATOM     53  C   UNL A   1      43.100  22.544  27.958  1.00  0.00     0.135 A 
ATOM     54  F   UNL A   1      43.487  23.813  24.570  1.00  0.00    -0.206 F 
ATOM     55  C   UNL A   1      42.861  21.677  25.323  1.00  0.00     0.059 A 
ATOM     56  C   UNL A   1      42.745  21.225  27.707  1.00  0.00     0.059 A 
ATOM     57  F   UNL A   1      43.219  22.936  29.236  1.00  0.00    -0.206 F 
ATOM     58  C   UNL A   1      42.628  20.800  26.386  1.00  0.00     0.060 A 
BRANCH  58  59
ATOM     59  S   UNL A   1      42.235  19.076  26.021  1.00  0.00     0.124 S 
ATOM     60  O   UNL A   1      42.705  18.405  27.228  1.00  0.00    -0.237 OA
ATOM     61  O   UNL A   1      40.790  19.123  25.836  1.00  0.00    -0.237 OA
ATOM     62  O   UNL A   1      43.005  18.807  24.809  1.00  0.00    -0.744 OA
ENDBRANCH  58  59
ENDBRANCH  26  51
BRANCH  38  63
ATOM     63  C   UNL A   1      49.678  26.451  26.615  1.00  0.00     0.058 A 
ATOM     64  C   UNL A   1      50.171  26.567  25.304  1.00  0.00     0.135 A 
ATOM     65  C   UNL A   1      50.515  25.851  27.572  1.00  0.00     0.135 A 
ATOM     66  F   UNL A   1      49.414  27.124  24.345  1.00  0.00    -0.206 F 
ATOM     67  C   UNL A   1      51.425  26.078  24.950  1.00  0.00     0.059 A 
ATOM     68  C   UNL A   1      51.785  25.381  27.245  1.00  0.00     0.059 A 
ATOM     69  F   UNL A   1      50.104  25.720  28.842  1.00  0.00    -0.206 F 
ATOM     70  C   UNL A   1      52.225  25.485  25.927  1.00  0.00     0.060 A 
BRANCH  70  71
ATOM     71  S   UNL A   1      53.854  24.860  25.456  1.00  0.00     0.124 S 
ATOM     72  O   UNL A   1      54.188  25.727  24.331  1.00  0.00    -0.237 OA
ATOM     73  O   UNL A   1      54.634  25.074  26.672  1.00  0.00    -0.237 OA
ATOM     74  O   UNL A   1      53.599  23.463  25.119  1.00  0.00    -0.744 OA
ENDBRANCH  70  71
ENDBRANCH  38  63
ENDBRANCH  12  13
ENDBRANCH   5   7
ENDBRANCH   2   3
ENDBRANCH   1   2
BRANCH   1  75
ATOM     75  C   UNL A   1      33.427  27.805  26.508  1.00  0.00     0.117 C 
BRANCH  75  76
ATOM     76  N   UNL A   1      32.170  27.104  26.701  1.00  0.00    -0.354 N 
ATOM     77  C   UNL A   1      31.588  25.985  26.178  1.00  0.00     0.250 C 
ATOM     78  H   UNL A   1      31.599  27.542  27.373  1.00  0.00     0.163 HD
ATOM     79  O   UNL A   1      30.574  25.631  26.800  1.00  0.00    -0.272 OA
BRANCH  77  80
ATOM     80  C   UNL A   1      32.070  25.171  24.892  1.00  0.00     0.145 C 
ATOM     81  C   UNL A   1      30.921  24.202  24.448  1.00  0.00     0.044 C 
ATOM     82  C   UNL A   1      33.318  24.314  25.226  1.00  0.00    -0.010 A 
ATOM     83  C   UNL A   1      30.683  23.026  25.391  1.00  0.00     0.008 C 
ATOM     84  C   UNL A   1      33.200  22.997  25.721  1.00  0.00    -0.042 A 
ATOM     85  C   UNL A   1      34.619  24.828  25.074  1.00  0.00     0.007 A 
ATOM     86  C   UNL A   1      31.935  22.192  25.572  1.00  0.00     0.036 C 
ATOM     87  C   UNL A   1      34.333  22.330  26.223  1.00  0.00     0.004 A 
ATOM     88  C   UNL A   1      35.738  24.162  25.579  1.00  0.00     0.000 A 
ATOM     89  C   UNL A   1      35.589  22.928  26.192  1.00  0.00     0.000 A 
BRANCH  80  90
ATOM     90  N   UNL A   1      32.348  26.033  23.712  1.00  0.00    -0.338 N 
ATOM     91  C   UNL A   1      31.388  26.712  23.001  1.00  0.00     0.224 C 
ATOM     92  H   UNL A   1      33.284  26.124  23.420  1.00  0.00     0.164 HD
ATOM     93  O   UNL A   1      31.291  26.501  21.794  1.00  0.00    -0.275 OA
BRANCH  91  94
ATOM     94  C   UNL A   1      30.649  27.848  23.687  1.00  0.00     0.082 C 
ATOM     95  C   UNL A   1      29.132  27.617  23.852  1.00  0.00     0.035 C 
ATOM     96  C   UNL A   1      31.028  29.122  22.911  1.00  0.00     0.035 C 
ATOM     97  C   UNL A   1      28.243  28.214  22.752  1.00  0.00     0.120 C 
ATOM     98  C   UNL A   1      30.092  29.345  21.736  1.00  0.00     0.120 C 
ATOM     99  N   UNL A   1      28.776  29.493  22.312  1.00  0.00    -0.342 N 
ATOM    100  C   UNL A   1      28.223  30.669  22.823  1.00  0.00     0.225 C 
ATOM    101  O   UNL A   1      27.253  30.636  23.576  1.00  0.00    -0.275 OA
BRANCH 100 102
ATOM    102  C   UNL A   1      28.783  32.028  22.531  1.00  0.00     0.079 C 
ATOM    103  C   UNL A   1      28.252  33.370  22.944  1.00  0.00     0.014 C 
ATOM    104  C   UNL A   1      29.492  32.832  23.594  1.00  0.00     0.014 C 
ENDBRANCH 100 102
ENDBRANCH  91  94
ENDBRANCH  80  90
ENDBRANCH  77  80
ENDBRANCH  75  76
ENDBRANCH   1  75
TORSDOF 16
ENDMDL
MODEL 2
REMARK VINA RESULT:     -12.9      1.939      4.454
REMARK SMILES O=C(NCCCNC(=O)[C@]1(NC(=O)C2CCN(C(=O)C3CC3)CC2)CCCc2ccccc21)c1ccc(-c2c3nc(c(-c4c(F)cc(S(=O)(=O)[O-])cc4F)c4ccc([nH]4)c(-c4c(F)cc(S(=O)(=O)[O-])cc4F)c4nc(c(-c5c(F)cc(S(=O)(=O)[O-])cc5F)c5ccc2[nH]5)C=C4)C=C3)cc1
REMARK SMILES IDX 5 1 4 2 3 3 1 4 2 5 34 7 35 8 99 9 36 10 98 11 37 12 38 13
REMARK SMILES IDX 39 14 92 15 40 16 97 17 91 18 93 19 41 20 96 21 90 22 89 23
REMARK SMILES IDX 42 25 76 26 55 27 75 28 56 29 59 30 74 31 94 32 57 33 58 34
REMARK SMILES IDX 73 36 95 37 60 38 43 39 44 40 53 41 45 42 46 43 52 44 54 45
REMARK SMILES IDX 47 46 48 47 49 48 50 49 51 50 77 51 78 52 87 53 79 54 80 55
REMARK SMILES IDX 86 56 88 57 81 58 82 59 83 60 84 61 85 62 61 63 62 64 71 65
REMARK SMILES IDX 63 66 64 67 70 68 72 69 65 70 66 71 67 72 68 73 69 74 6 75
REMARK SMILES IDX 7 76 8 77 9 79 10 80 25 81 33 82 26 83 28 84 32 85 27 86
REMARK SMILES IDX 29 87 31 88 30 89 11 90 12 91 13 93 14 94 15 95 24 96 16 97
REMARK SMILES IDX 23 98 17 99 18 100 19 101 20 102 21 103 22 104
REMARK H PARENT 3 6 93 24 59 35 7 78 11 92
REMARK Flexibility Score: inf
ROOT
ATOM      1  C   UNL A   1      33.833  29.517  27.360  1.00  0.00     0.042 C 
ENDROOT
BRANCH   1   2
ATOM      2  C   UNL A   1      35.099  30.341  27.624  1.00  0.00     0.118 C 
BRANCH   2   3
ATOM      3  N   UNL A   1      35.191  30.737  29.023  1.00  0.00    -0.352 N 
ATOM      4  O   UNL A   1      35.895  30.603  31.147  1.00  0.00    -0.269 OA
ATOM      5  C   UNL A   1      36.176  30.489  29.955  1.00  0.00     0.251 C 
ATOM      6  H   UNL A   1      34.431  31.266  29.356  1.00  0.00     0.163 HD
BRANCH   5   7
ATOM      7  C   UNL A   1      37.564  30.107  29.573  1.00  0.00     0.039 A 
ATOM      8  C   UNL A   1      37.951  30.005  28.240  1.00  0.00     0.014 A 
ATOM      9  C   UNL A   1      38.544  29.986  30.571  1.00  0.00     0.014 A 
ATOM     10  C   UNL A   1      39.286  29.703  27.921  1.00  0.00     0.010 A 
ATOM     11  C   UNL A   1      39.888  29.716  30.242  1.00  0.00     0.010 A 
ATOM     12  C   UNL A   1      40.285  29.533  28.910  1.00  0.00    -0.014 A 
BRANCH  12  13
ATOM     13  C   UNL A   1      41.688  29.114  28.528  1.00  0.00     0.031 A 
ATOM     14  C   UNL A   1      42.876  30.071  28.572  1.00  0.00     0.074 A 
ATOM     15  C   UNL A   1      41.941  27.826  28.210  1.00  0.00     0.049 A 
ATOM     16  N   UNL A   1      44.148  29.825  28.336  1.00  0.00    -0.248 NA
ATOM     17  C   UNL A   1      42.620  31.468  28.956  1.00  0.00     0.031 C 
ATOM     18  C   UNL A   1      40.939  26.762  28.148  1.00  0.00     0.029 A 
ATOM     19  N   UNL A   1      43.119  27.184  27.896  1.00  0.00    -0.354 N 
ATOM     20  C   UNL A   1      44.833  31.020  28.552  1.00  0.00     0.074 A 
ATOM     21  C   UNL A   1      43.835  31.999  28.924  1.00  0.00     0.031 C 
ATOM     22  C   UNL A   1      41.546  25.598  27.878  1.00  0.00     0.029 A 
ATOM     23  C   UNL A   1      42.966  25.841  27.640  1.00  0.00     0.049 A 
ATOM     24  H   UNL A   1      43.990  27.644  27.859  1.00  0.00     0.167 HD
ATOM     25  C   UNL A   1      46.162  31.290  28.452  1.00  0.00     0.037 A 
ATOM     26  C   UNL A   1      43.837  24.902  27.216  1.00  0.00     0.037 A 
ATOM     27  C   UNL A   1      47.175  30.344  28.046  1.00  0.00     0.049 A 
ATOM     28  C   UNL A   1      45.272  25.260  26.961  1.00  0.00     0.074 A 
ATOM     29  C   UNL A   1      48.541  30.549  27.917  1.00  0.00     0.029 A 
ATOM     30  N   UNL A   1      46.941  29.029  27.673  1.00  0.00    -0.354 N 
ATOM     31  N   UNL A   1      45.885  26.399  27.165  1.00  0.00    -0.248 NA
ATOM     32  C   UNL A   1      46.129  24.206  26.401  1.00  0.00     0.031 C 
ATOM     33  C   UNL A   1      49.118  29.387  27.392  1.00  0.00     0.029 A 
ATOM     34  C   UNL A   1      48.126  28.430  27.265  1.00  0.00     0.049 A 
ATOM     35  H   UNL A   1      46.063  28.585  27.694  1.00  0.00     0.167 HD
ATOM     36  C   UNL A   1      47.206  26.193  26.779  1.00  0.00     0.074 A 
ATOM     37  C   UNL A   1      47.304  24.818  26.336  1.00  0.00     0.031 C 
ATOM     38  C   UNL A   1      48.241  27.070  26.801  1.00  0.00     0.037 A 
BRANCH  25  39
ATOM     39  C   UNL A   1      46.617  32.704  28.734  1.00  0.00     0.058 A 
ATOM     40  C   UNL A   1      47.038  33.115  30.009  1.00  0.00     0.135 A 
ATOM     41  C   UNL A   1      46.691  33.644  27.691  1.00  0.00     0.135 A 
ATOM     42  F   UNL A   1      46.986  32.265  31.045  1.00  0.00    -0.206 F 
ATOM     43  C   UNL A   1      47.484  34.415  30.245  1.00  0.00     0.059 A 
ATOM     44  C   UNL A   1      47.156  34.940  27.898  1.00  0.00     0.059 A 
ATOM     45  F   UNL A   1      46.314  33.303  26.448  1.00  0.00    -0.206 F 
ATOM     46  C   UNL A   1      47.533  35.323  29.184  1.00  0.00     0.060 A 
BRANCH  46  47
ATOM     47  S   UNL A   1      48.078  37.013  29.511  1.00  0.00     0.124 S 
ATOM     48  O   UNL A   1      49.127  36.792  30.502  1.00  0.00    -0.237 OA
ATOM     49  O   UNL A   1      48.531  37.457  28.197  1.00  0.00    -0.237 OA
ATOM     50  O   UNL A   1      46.874  37.670  30.011  1.00  0.00    -0.744 OA
ENDBRANCH  46  47
ENDBRANCH  25  39
BRANCH  26  51
ATOM     51  C   UNL A   1      43.339  23.525  26.952  1.00  0.00     0.058 A 
ATOM     52  C   UNL A   1      43.086  23.074  25.650  1.00  0.00     0.135 A 
ATOM     53  C   UNL A   1      43.161  22.613  28.008  1.00  0.00     0.135 A 
ATOM     54  F   UNL A   1      43.215  23.915  24.611  1.00  0.00    -0.206 F 
ATOM     55  C   UNL A   1      42.695  21.763  25.398  1.00  0.00     0.059 A 
ATOM     56  C   UNL A   1      42.806  21.290  27.779  1.00  0.00     0.059 A 
ATOM     57  F   UNL A   1      43.391  22.996  29.273  1.00  0.00    -0.206 F 
ATOM     58  C   UNL A   1      42.575  20.874  26.470  1.00  0.00     0.060 A 
BRANCH  58  59
ATOM     59  S   UNL A   1      42.178  19.146  26.126  1.00  0.00     0.124 S 
ATOM     60  O   UNL A   1      40.751  19.225  25.833  1.00  0.00    -0.237 OA
ATOM     61  O   UNL A   1      43.049  18.850  24.994  1.00  0.00    -0.237 OA
ATOM     62  O   UNL A   1      42.530  18.468  27.370  1.00  0.00    -0.744 OA
ENDBRANCH  58  59
ENDBRANCH  26  51
BRANCH  38  63
ATOM     63  C   UNL A   1      49.591  26.567  26.361  1.00  0.00     0.058 A 
ATOM     64  C   UNL A   1      50.073  26.771  25.058  1.00  0.00     0.135 A 
ATOM     65  C   UNL A   1      50.425  25.881  27.261  1.00  0.00     0.135 A 
ATOM     66  F   UNL A   1      49.318  27.414  24.151  1.00  0.00    -0.206 F 
ATOM     67  C   UNL A   1      51.314  26.287  24.654  1.00  0.00     0.059 A 
ATOM     68  C   UNL A   1      51.682  25.412  26.887  1.00  0.00     0.059 A 
ATOM     69  F   UNL A   1      50.023  25.663  28.523  1.00  0.00    -0.206 F 
ATOM     70  C   UNL A   1      52.111  25.606  25.575  1.00  0.00     0.060 A 
BRANCH  70  71
ATOM     71  S   UNL A   1      53.723  24.987  25.041  1.00  0.00     0.124 S 
ATOM     72  O   UNL A   1      53.487  23.548  25.002  1.00  0.00    -0.237 OA
ATOM     73  O   UNL A   1      53.892  25.636  23.744  1.00  0.00    -0.237 OA
ATOM     74  O   UNL A   1      54.629  25.447  26.089  1.00  0.00    -0.744 OA
ENDBRANCH  70  71
ENDBRANCH  38  63
ENDBRANCH  12  13
ENDBRANCH   5   7
ENDBRANCH   2   3
ENDBRANCH   1   2
BRANCH   1  75
ATOM     75  C   UNL A   1      33.990  28.236  26.535  1.00  0.00     0.117 C 
BRANCH  75  76
ATOM     76  N   UNL A   1      34.178  28.405  25.106  1.00  0.00    -0.354 N 
ATOM     77  C   UNL A   1      33.926  27.653  23.995  1.00  0.00     0.250 C 
ATOM     78  H   UNL A   1      34.587  29.273  24.884  1.00  0.00     0.163 HD
ATOM     79  O   UNL A   1      34.058  28.291  22.939  1.00  0.00    -0.272 OA
BRANCH  77  80
ATOM     80  C   UNL A   1      33.529  26.107  23.958  1.00  0.00     0.145 C 
ATOM     81  C   UNL A   1      33.699  25.577  22.493  1.00  0.00     0.044 C 
ATOM     82  C   UNL A   1      32.047  25.916  24.369  1.00  0.00    -0.010 A 
ATOM     83  C   UNL A   1      32.665  26.105  21.504  1.00  0.00     0.008 C 
ATOM     84  C   UNL A   1      31.004  25.960  23.418  1.00  0.00    -0.042 A 
ATOM     85  C   UNL A   1      31.681  25.716  25.713  1.00  0.00     0.007 A 
ATOM     86  C   UNL A   1      31.252  25.779  21.943  1.00  0.00     0.036 C 
ATOM     87  C   UNL A   1      29.664  26.008  23.846  1.00  0.00     0.004 A 
ATOM     88  C   UNL A   1      30.350  25.769  26.130  1.00  0.00     0.000 A 
ATOM     89  C   UNL A   1      29.341  25.956  25.198  1.00  0.00     0.000 A 
BRANCH  80  90
ATOM     90  N   UNL A   1      34.404  25.248  24.801  1.00  0.00    -0.338 N 
ATOM     91  C   UNL A   1      34.047  24.012  25.284  1.00  0.00     0.224 C 
ATOM     92  H   UNL A   1      35.299  25.589  25.028  1.00  0.00     0.164 HD
ATOM     93  O   UNL A   1      34.081  23.824  26.498  1.00  0.00    -0.275 OA
BRANCH  91  94
ATOM     94  C   UNL A   1      33.849  22.879  24.293  1.00  0.00     0.082 C 
ATOM     95  C   UNL A   1      32.389  22.399  24.152  1.00  0.00     0.035 C 
ATOM     96  C   UNL A   1      34.852  21.784  24.704  1.00  0.00     0.035 C 
ATOM     97  C   UNL A   1      31.995  21.197  25.021  1.00  0.00     0.120 C 
ATOM     98  C   UNL A   1      34.252  20.856  25.745  1.00  0.00     0.120 C 
ATOM     99  N   UNL A   1      33.101  20.257  25.112  1.00  0.00    -0.342 N 
ATOM    100  C   UNL A   1      33.103  19.132  24.283  1.00  0.00     0.225 C 
ATOM    101  O   UNL A   1      32.155  18.893  23.539  1.00  0.00    -0.275 OA
BRANCH 100 102
ATOM    102  C   UNL A   1      34.254  18.175  24.211  1.00  0.00     0.079 C 
ATOM    103  C   UNL A   1      34.373  16.804  24.810  1.00  0.00     0.014 C 
ATOM    104  C   UNL A   1      34.205  16.952  23.328  1.00  0.00     0.014 C 
ENDBRANCH 100 102
ENDBRANCH  91  94
ENDBRANCH  80  90
ENDBRANCH  77  80
ENDBRANCH  75  76
ENDBRANCH   1  75
TORSDOF 16
ENDMDL
MODEL 3
REMARK VINA RESULT:     -12.8      6.479     12.150
REMARK SMILES O=C(NCCCNC(=O)[C@]1(NC(=O)C2CCN(C(=O)C3CC3)CC2)CCCc2ccccc21)c1ccc(-c2c3nc(c(-c4c(F)cc(S(=O)(=O)[O-])cc4F)c4ccc([nH]4)c(-c4c(F)cc(S(=O)(=O)[O-])cc4F)c4nc(c(-c5c(F)cc(S(=O)(=O)[O-])cc5F)c5ccc2[nH]5)C=C4)C=C3)cc1
REMARK SMILES IDX 5 1 4 2 3 3 1 4 2 5 34 7 35 8 99 9 36 10 98 11 37 12 38 13
REMARK SMILES IDX 39 14 92 15 40 16 97 17 91 18 93 19 41 20 96 21 90 22 89 23
REMARK SMILES IDX 42 25 76 26 55 27 75 28 56 29 59 30 74 31 94 32 57 33 58 34
REMARK SMILES IDX 73 36 95 37 60 38 43 39 44 40 53 41 45 42 46 43 52 44 54 45
REMARK SMILES IDX 47 46 48 47 49 48 50 49 51 50 77 51 78 52 87 53 79 54 80 55
REMARK SMILES IDX 86 56 88 57 81 58 82 59 83 60 84 61 85 62 61 63 62 64 71 65
REMARK SMILES IDX 63 66 64 67 70 68 72 69 65 70 66 71 67 72 68 73 69 74 6 75
REMARK SMILES IDX 7 76 8 77 9 79 10 80 25 81 33 82 26 83 28 84 32 85 27 86
REMARK SMILES IDX 29 87 31 88 30 89 11 90 12 91 13 93 14 94 15 95 24 96 16 97
REMARK SMILES IDX 23 98 17 99 18 100 19 101 20 102 21 103 22 104
REMARK H PARENT 3 6 93 24 59 35 7 78 11 92
REMARK Flexibility Score: inf
ROOT
ATOM      1  C   UNL A   1      37.483  23.242  25.219  1.00  0.00     0.042 C 
ENDROOT
BRANCH   1   2
ATOM      2  C   UNL A   1      38.329  23.630  26.437  1.00  0.00     0.118 C 
BRANCH   2   3
ATOM      3  N   UNL A   1      39.752  23.504  26.156  1.00  0.00    -0.352 N 
ATOM      4  O   UNL A   1      41.849  24.231  25.841  1.00  0.00    -0.269 OA
ATOM      5  C   UNL A   1      40.799  24.344  26.471  1.00  0.00     0.251 C 
ATOM      6  H   UNL A   1      40.008  22.692  25.664  1.00  0.00     0.163 HD
BRANCH   5   7
ATOM      7  C   UNL A   1      40.711  25.365  27.552  1.00  0.00     0.039 A 
ATOM      8  C   UNL A   1      41.663  26.372  27.683  1.00  0.00     0.014 A 
ATOM      9  C   UNL A   1      39.572  25.404  28.371  1.00  0.00     0.014 A 
ATOM     10  C   UNL A   1      41.511  27.353  28.677  1.00  0.00     0.010 A 
ATOM     11  C   UNL A   1      39.410  26.411  29.345  1.00  0.00     0.010 A 
ATOM     12  C   UNL A   1      40.393  27.389  29.545  1.00  0.00    -0.014 A 
BRANCH  12  13
ATOM     13  C   UNL A   1      40.316  28.404  30.665  1.00  0.00     0.031 A 
ATOM     14  C   UNL A   1      41.260  28.385  31.864  1.00  0.00     0.074 A 
ATOM     15  C   UNL A   1      39.439  29.429  30.584  1.00  0.00     0.049 A 
ATOM     16  N   UNL A   1      41.350  29.237  32.863  1.00  0.00    -0.248 NA
ATOM     17  C   UNL A   1      42.247  27.296  31.944  1.00  0.00     0.031 C 
ATOM     18  C   UNL A   1      38.482  29.633  29.497  1.00  0.00     0.029 A 
ATOM     19  N   UNL A   1      39.220  30.502  31.419  1.00  0.00    -0.354 N 
ATOM     20  C   UNL A   1      42.396  28.796  33.673  1.00  0.00     0.074 A 
ATOM     21  C   UNL A   1      42.905  27.589  33.057  1.00  0.00     0.031 C 
ATOM     22  C   UNL A   1      37.824  30.783  29.697  1.00  0.00     0.029 A 
ATOM     23  C   UNL A   1      38.230  31.351  30.980  1.00  0.00     0.049 A 
ATOM     24  H   UNL A   1      39.724  30.649  32.252  1.00  0.00     0.167 HD
ATOM     25  C   UNL A   1      42.895  29.333  34.818  1.00  0.00     0.037 A 
ATOM     26  C   UNL A   1      37.662  32.438  31.543  1.00  0.00     0.037 A 
ATOM     27  C   UNL A   1      42.382  30.513  35.475  1.00  0.00     0.049 A 
ATOM     28  C   UNL A   1      38.124  32.923  32.886  1.00  0.00     0.074 A 
ATOM     29  C   UNL A   1      42.834  31.111  36.642  1.00  0.00     0.029 A 
ATOM     30  N   UNL A   1      41.293  31.258  35.051  1.00  0.00    -0.354 N 
ATOM     31  N   UNL A   1      39.107  32.480  33.628  1.00  0.00    -0.248 NA
ATOM     32  C   UNL A   1      37.384  34.048  33.476  1.00  0.00     0.031 C 
ATOM     33  C   UNL A   1      41.971  32.165  36.965  1.00  0.00     0.029 A 
ATOM     34  C   UNL A   1      41.027  32.274  35.960  1.00  0.00     0.049 A 
ATOM     35  H   UNL A   1      40.782  31.090  34.226  1.00  0.00     0.167 HD
ATOM     36  C   UNL A   1      39.119  33.285  34.763  1.00  0.00     0.074 A 
ATOM     37  C   UNL A   1      38.049  34.247  34.606  1.00  0.00     0.031 C 
ATOM     38  C   UNL A   1      39.953  33.229  35.832  1.00  0.00     0.037 A 
BRANCH  25  39
ATOM     39  C   UNL A   1      44.040  28.613  35.494  1.00  0.00     0.058 A 
ATOM     40  C   UNL A   1      43.831  27.597  36.440  1.00  0.00     0.135 A 
ATOM     41  C   UNL A   1      45.368  28.907  35.137  1.00  0.00     0.135 A 
ATOM     42  F   UNL A   1      42.587  27.275  36.824  1.00  0.00    -0.206 F 
ATOM     43  C   UNL A   1      44.898  26.922  37.032  1.00  0.00     0.059 A 
ATOM     44  C   UNL A   1      46.448  28.230  35.697  1.00  0.00     0.059 A 
ATOM     45  F   UNL A   1      45.627  29.861  34.229  1.00  0.00    -0.206 F 
ATOM     46  C   UNL A   1      46.204  27.251  36.658  1.00  0.00     0.060 A 
BRANCH  46  47
ATOM     47  S   UNL A   1      47.578  26.395  37.459  1.00  0.00     0.124 S 
ATOM     48  O   UNL A   1      47.314  25.009  37.083  1.00  0.00    -0.237 OA
ATOM     49  O   UNL A   1      48.741  27.011  36.831  1.00  0.00    -0.237 OA
ATOM     50  O   UNL A   1      47.395  26.703  38.874  1.00  0.00    -0.744 OA
ENDBRANCH  46  47
ENDBRANCH  25  39
BRANCH  26  51
ATOM     51  C   UNL A   1      36.537  33.110  30.837  1.00  0.00     0.058 A 
ATOM     52  C   UNL A   1      35.216  32.989  31.286  1.00  0.00     0.135 A 
ATOM     53  C   UNL A   1      36.781  33.937  29.727  1.00  0.00     0.135 A 
ATOM     54  F   UNL A   1      34.929  32.190  32.325  1.00  0.00    -0.206 F 
ATOM     55  C   UNL A   1      34.175  33.681  30.672  1.00  0.00     0.059 A 
ATOM     56  C   UNL A   1      35.765  34.664  29.121  1.00  0.00     0.059 A 
ATOM     57  F   UNL A   1      38.031  34.087  29.260  1.00  0.00    -0.206 F 
ATOM     58  C   UNL A   1      34.464  34.529  29.601  1.00  0.00     0.060 A 
BRANCH  58  59
ATOM     59  S   UNL A   1      33.128  35.509  28.883  1.00  0.00     0.124 S 
ATOM     60  O   UNL A   1      33.871  36.532  28.156  1.00  0.00    -0.237 OA
ATOM     61  O   UNL A   1      32.429  34.524  28.066  1.00  0.00    -0.237 OA
ATOM     62  O   UNL A   1      32.390  35.977  30.053  1.00  0.00    -0.744 OA
ENDBRANCH  58  59
ENDBRANCH  26  51
BRANCH  38  63
ATOM     63  C   UNL A   1      39.768  34.259  36.915  1.00  0.00     0.058 A 
ATOM     64  C   UNL A   1      39.066  33.977  38.099  1.00  0.00     0.135 A 
ATOM     65  C   UNL A   1      40.314  35.546  36.776  1.00  0.00     0.135 A 
ATOM     66  F   UNL A   1      38.516  32.766  38.286  1.00  0.00    -0.206 F 
ATOM     67  C   UNL A   1      38.884  34.940  39.087  1.00  0.00     0.059 A 
ATOM     68  C   UNL A   1      40.168  36.517  37.764  1.00  0.00     0.059 A 
ATOM     69  F   UNL A   1      41.002  35.873  35.671  1.00  0.00    -0.206 F 
ATOM     70  C   UNL A   1      39.437  36.209  38.910  1.00  0.00     0.060 A 
BRANCH  70  71
ATOM     71  S   UNL A   1      39.199  37.450  40.202  1.00  0.00     0.124 S 
ATOM     72  O   UNL A   1      40.557  37.952  40.382  1.00  0.00    -0.237 OA
ATOM     73  O   UNL A   1      38.260  38.376  39.577  1.00  0.00    -0.237 OA
ATOM     74  O   UNL A   1      38.661  36.679  41.319  1.00  0.00    -0.744 OA
ENDBRANCH  70  71
ENDBRANCH  38  63
ENDBRANCH  12  13
ENDBRANCH   5   7
ENDBRANCH   2   3
ENDBRANCH   1   2
BRANCH   1  75
ATOM     75  C   UNL A   1      36.039  23.752  25.176  1.00  0.00     0.117 C 
BRANCH  75  76
ATOM     76  N   UNL A   1      35.414  23.819  23.868  1.00  0.00    -0.354 N 
ATOM     77  C   UNL A   1      34.176  24.148  23.395  1.00  0.00     0.250 C 
ATOM     78  H   UNL A   1      36.034  23.564  23.145  1.00  0.00     0.163 HD
ATOM     79  O   UNL A   1      34.147  24.269  22.160  1.00  0.00    -0.272 OA
BRANCH  77  80
ATOM     80  C   UNL A   1      32.847  24.346  24.256  1.00  0.00     0.145 C 
ATOM     81  C   UNL A   1      31.605  24.146  23.321  1.00  0.00     0.044 C 
ATOM     82  C   UNL A   1      32.784  25.782  24.838  1.00  0.00    -0.010 A 
ATOM     83  C   UNL A   1      31.391  25.263  22.305  1.00  0.00     0.008 C 
ATOM     84  C   UNL A   1      32.193  26.845  24.122  1.00  0.00    -0.042 A 
ATOM     85  C   UNL A   1      33.340  26.086  26.095  1.00  0.00     0.007 A 
ATOM     86  C   UNL A   1      31.239  26.612  22.979  1.00  0.00     0.036 C 
ATOM     87  C   UNL A   1      32.349  28.169  24.572  1.00  0.00     0.004 A 
ATOM     88  C   UNL A   1      33.495  27.402  26.533  1.00  0.00     0.000 A 
ATOM     89  C   UNL A   1      33.035  28.449  25.749  1.00  0.00     0.000 A 
BRANCH  80  90
ATOM     90  N   UNL A   1      32.693  23.349  25.349  1.00  0.00    -0.338 N 
ATOM     91  C   UNL A   1      32.282  22.050  25.166  1.00  0.00     0.224 C 
ATOM     92  H   UNL A   1      32.899  23.638  26.267  1.00  0.00     0.164 HD
ATOM     93  O   UNL A   1      31.292  21.655  25.777  1.00  0.00    -0.275 OA
BRANCH  91  94
ATOM     94  C   UNL A   1      33.192  21.106  24.400  1.00  0.00     0.082 C 
ATOM     95  C   UNL A   1      32.651  20.672  23.021  1.00  0.00     0.035 C 
ATOM     96  C   UNL A   1      33.501  19.948  25.367  1.00  0.00     0.035 C 
ATOM     97  C   UNL A   1      31.885  19.342  22.994  1.00  0.00     0.120 C 
ATOM     98  C   UNL A   1      32.445  18.860  25.271  1.00  0.00     0.120 C 
ATOM     99  N   UNL A   1      32.496  18.389  23.907  1.00  0.00    -0.342 N 
ATOM    100  C   UNL A   1      33.367  17.424  23.396  1.00  0.00     0.225 C 
ATOM    101  O   UNL A   1      33.562  17.326  22.187  1.00  0.00    -0.275 OA
BRANCH 100 102
ATOM    102  C   UNL A   1      34.143  16.482  24.266  1.00  0.00     0.079 C 
ATOM    103  C   UNL A   1      34.206  16.428  25.765  1.00  0.00     0.014 C 
ATOM    104  C   UNL A   1      33.463  15.363  25.015  1.00  0.00     0.014 C 
ENDBRANCH 100 102
ENDBRANCH  91  94
ENDBRANCH  80  90
ENDBRANCH  77  80
ENDBRANCH  75  76
ENDBRANCH   1  75
TORSDOF 16
ENDMDL
