MODEL 1
REMARK VINA RESULT:     -11.0      0.000      0.000
REMARK SMILES CC(=O)OCc1ccc(C(=O)NCCCNC(=O)c2ccc(-c3c4nc(c(-c5c(F)cc(S(=O)(=O)[O-])cc5F)c5ccc([nH]5)c(-c5c(F)cc(S(=O)(=O)[O-])cc5F)c5nc(c(-c6c(F)cc(S(=O)(=O)[O-])cc6F)c6ccc3[nH]6)C=C5)C=C4)cc2)o1
REMARK SMILES IDX 14 1 13 2 12 3 10 4 11 5 9 7 6 8 7 9 85 10 8 11 5 12 4 13
REMARK SMILES IDX 2 14 1 15 3 16 15 17 16 18 17 19 18 21 19 22 20 23 84 24
REMARK SMILES IDX 21 25 83 26 22 27 23 28 24 29 77 30 25 31 82 32 76 33 78 34
REMARK SMILES IDX 26 35 81 36 75 37 74 38 27 40 61 41 40 42 60 43 41 44 44 45
REMARK SMILES IDX 59 46 79 47 42 48 43 49 58 51 80 52 45 53 28 54 29 55 38 56
REMARK SMILES IDX 30 57 31 58 37 59 39 60 32 61 33 62 34 63 35 64 36 65 62 66
REMARK SMILES IDX 63 67 72 68 64 69 65 70 71 71 73 72 66 73 67 74 68 75 69 76
REMARK SMILES IDX 70 77 46 78 47 79 56 80 48 81 49 82 55 83 57 84 50 85 51 86
REMARK SMILES IDX 52 87 53 88 54 89
REMARK H PARENT 12 6 16 20 78 39 44 50
REMARK Flexibility Score: inf
ROOT
ATOM      1  C   UNL A   1      35.010  33.105  28.030  1.00  0.00     0.042 C 
ENDROOT
BRANCH   1   2
ATOM      2  C   UNL A   1      35.099  34.563  28.472  1.00  0.00     0.118 C 
BRANCH   2   3
ATOM      3  N   UNL A   1      33.828  35.243  28.323  1.00  0.00    -0.349 N 
ATOM      4  C   UNL A   1      33.008  35.839  29.254  1.00  0.00     0.286 C 
ATOM      5  O   UNL A   1      32.032  36.441  28.796  1.00  0.00    -0.266 OA
ATOM      6  H   UNL A   1      33.495  35.287  27.398  1.00  0.00     0.163 HD
BRANCH   4   7
ATOM      7  C   UNL A   1      33.301  35.774  30.673  1.00  0.00     0.191 A 
ATOM      8  C   UNL A   1      33.819  34.650  32.515  1.00  0.00     0.142 A 
ATOM      9  C   UNL A   1      33.695  35.969  32.888  1.00  0.00     0.050 A 
ATOM     10  O   UNL A   1      33.587  34.529  31.179  1.00  0.00    -0.452 OA
ATOM     11  C   UNL A   1      33.393  36.691  31.706  1.00  0.00     0.057 A 
BRANCH   8  12
ATOM     12  C   UNL A   1      34.121  33.412  33.281  1.00  0.00     0.308 C 
BRANCH  12  13
ATOM     13  O   UNL A   1      34.999  33.722  34.371  1.00  0.00    -0.458 OA
BRANCH  13  14
ATOM     14  C   UNL A   1      36.321  33.777  34.055  1.00  0.00     0.303 C 
ATOM     15  C   UNL A   1      36.774  32.457  33.509  1.00  0.00     0.139 C 
ATOM     16  O   UNL A   1      37.032  34.769  34.114  1.00  0.00    -0.253 OA
ENDBRANCH  13  14
ENDBRANCH  12  13
ENDBRANCH   8  12
ENDBRANCH   4   7
ENDBRANCH   2   3
ENDBRANCH   1   2
BRANCH   1  17
ATOM     17  C   UNL A   1      36.190  32.259  28.507  1.00  0.00     0.118 C 
BRANCH  17  18
ATOM     18  N   UNL A   1      35.876  31.523  29.725  1.00  0.00    -0.352 N 
ATOM     19  C   UNL A   1      36.538  30.486  30.333  1.00  0.00     0.251 C 
ATOM     20  H   UNL A   1      35.057  31.817  30.186  1.00  0.00     0.163 HD
ATOM     21  O   UNL A   1      35.970  29.850  31.217  1.00  0.00    -0.269 OA
BRANCH  19  22
ATOM     22  C   UNL A   1      37.916  30.130  29.933  1.00  0.00     0.039 A 
ATOM     23  C   UNL A   1      38.908  30.062  30.915  1.00  0.00     0.014 A 
ATOM     24  C   UNL A   1      38.246  29.911  28.593  1.00  0.00     0.014 A 
ATOM     25  C   UNL A   1      40.215  29.719  30.560  1.00  0.00     0.010 A 
ATOM     26  C   UNL A   1      39.530  29.495  28.251  1.00  0.00     0.010 A 
ATOM     27  C   UNL A   1      40.530  29.399  29.230  1.00  0.00    -0.014 A 
BRANCH  27  28
ATOM     28  C   UNL A   1      41.897  28.966  28.842  1.00  0.00     0.031 A 
ATOM     29  C   UNL A   1      43.023  29.966  28.793  1.00  0.00     0.074 A 
ATOM     30  C   UNL A   1      42.110  27.686  28.475  1.00  0.00     0.049 A 
ATOM     31  N   UNL A   1      44.259  29.798  28.402  1.00  0.00    -0.248 NA
ATOM     32  C   UNL A   1      42.710  31.343  29.213  1.00  0.00     0.031 C 
ATOM     33  C   UNL A   1      41.089  26.637  28.441  1.00  0.00     0.029 A 
ATOM     34  N   UNL A   1      43.250  27.053  28.049  1.00  0.00    -0.354 N 
ATOM     35  C   UNL A   1      44.868  31.043  28.518  1.00  0.00     0.074 A 
ATOM     36  C   UNL A   1      43.850  31.969  28.962  1.00  0.00     0.031 C 
ATOM     37  C   UNL A   1      41.653  25.487  28.037  1.00  0.00     0.029 A 
ATOM     38  C   UNL A   1      43.062  25.725  27.742  1.00  0.00     0.049 A 
ATOM     39  H   UNL A   1      44.121  27.505  27.972  1.00  0.00     0.167 HD
ATOM     40  C   UNL A   1      46.162  31.377  28.297  1.00  0.00     0.037 A 
ATOM     41  C   UNL A   1      43.923  24.806  27.263  1.00  0.00     0.037 A 
ATOM     42  C   UNL A   1      47.174  30.442  27.876  1.00  0.00     0.049 A 
ATOM     43  C   UNL A   1      45.353  25.207  27.013  1.00  0.00     0.074 A 
ATOM     44  C   UNL A   1      48.523  30.670  27.673  1.00  0.00     0.029 A 
ATOM     45  N   UNL A   1      46.948  29.102  27.594  1.00  0.00    -0.354 N 
ATOM     46  N   UNL A   1      45.924  26.376  27.186  1.00  0.00    -0.248 NA
ATOM     47  C   UNL A   1      46.258  24.164  26.511  1.00  0.00     0.031 C 
ATOM     48  C   UNL A   1      49.104  29.480  27.221  1.00  0.00     0.029 A 
ATOM     49  C   UNL A   1      48.129  28.497  27.199  1.00  0.00     0.049 A 
ATOM     50  H   UNL A   1      46.077  28.650  27.665  1.00  0.00     0.167 HD
ATOM     51  C   UNL A   1      47.261  26.200  26.844  1.00  0.00     0.074 A 
ATOM     52  C   UNL A   1      47.416  24.810  26.469  1.00  0.00     0.031 C 
ATOM     53  C   UNL A   1      48.269  27.107  26.842  1.00  0.00     0.037 A 
BRANCH  40  54
ATOM     54  C   UNL A   1      46.565  32.811  28.514  1.00  0.00     0.058 A 
ATOM     55  C   UNL A   1      47.021  33.267  29.762  1.00  0.00     0.135 A 
ATOM     56  C   UNL A   1      46.551  33.727  27.450  1.00  0.00     0.135 A 
ATOM     57  F   UNL A   1      47.040  32.438  30.819  1.00  0.00    -0.206 F 
ATOM     58  C   UNL A   1      47.427  34.583  29.952  1.00  0.00     0.059 A 
ATOM     59  C   UNL A   1      46.982  35.042  27.610  1.00  0.00     0.059 A 
ATOM     60  F   UNL A   1      46.125  33.347  26.235  1.00  0.00    -0.206 F 
ATOM     61  C   UNL A   1      47.407  35.463  28.869  1.00  0.00     0.060 A 
BRANCH  61  62
ATOM     62  S   UNL A   1      47.961  37.162  29.130  1.00  0.00     0.124 S 
ATOM     63  O   UNL A   1      47.855  37.283  30.581  1.00  0.00    -0.237 OA
ATOM     64  O   UNL A   1      49.318  37.132  28.595  1.00  0.00    -0.237 OA
ATOM     65  O   UNL A   1      47.005  37.954  28.363  1.00  0.00    -0.744 OA
ENDBRANCH  61  62
ENDBRANCH  40  54
BRANCH  41  66
ATOM     66  C   UNL A   1      43.465  23.415  26.996  1.00  0.00     0.058 A 
ATOM     67  C   UNL A   1      43.231  22.517  28.048  1.00  0.00     0.135 A 
ATOM     68  C   UNL A   1      43.258  22.953  25.687  1.00  0.00     0.135 A 
ATOM     69  F   UNL A   1      43.418  22.909  29.318  1.00  0.00    -0.206 F 
ATOM     70  C   UNL A   1      42.838  21.203  27.813  1.00  0.00     0.059 A 
ATOM     71  C   UNL A   1      42.836  21.653  25.427  1.00  0.00     0.059 A 
ATOM     72  F   UNL A   1      43.448  23.778  24.645  1.00  0.00    -0.206 F 
ATOM     73  C   UNL A   1      42.643  20.781  26.498  1.00  0.00     0.060 A 
BRANCH  73  74
ATOM     74  S   UNL A   1      42.107  19.081  26.204  1.00  0.00     0.124 S 
ATOM     75  O   UNL A   1      40.705  19.274  25.853  1.00  0.00    -0.237 OA
ATOM     76  O   UNL A   1      42.988  18.667  25.117  1.00  0.00    -0.237 OA
ATOM     77  O   UNL A   1      42.353  18.425  27.484  1.00  0.00    -0.744 OA
ENDBRANCH  73  74
ENDBRANCH  41  66
BRANCH  53  78
ATOM     78  C   UNL A   1      49.641  26.618  26.467  1.00  0.00     0.058 A 
ATOM     79  C   UNL A   1      50.491  26.005  27.400  1.00  0.00     0.135 A 
ATOM     80  C   UNL A   1      50.090  26.716  25.139  1.00  0.00     0.135 A 
ATOM     81  F   UNL A   1      50.115  25.890  28.685  1.00  0.00    -0.206 F 
ATOM     82  C   UNL A   1      51.746  25.529  27.037  1.00  0.00     0.059 A 
ATOM     83  C   UNL A   1      51.329  26.220  24.747  1.00  0.00     0.059 A 
ATOM     84  F   UNL A   1      49.312  27.285  24.204  1.00  0.00    -0.206 F 
ATOM     85  C   UNL A   1      52.155  25.638  25.707  1.00  0.00     0.060 A 
BRANCH  85  86
ATOM     86  S   UNL A   1      53.772  24.986  25.242  1.00  0.00     0.124 S 
ATOM     87  O   UNL A   1      54.576  25.334  26.409  1.00  0.00    -0.237 OA
ATOM     88  O   UNL A   1      53.495  23.564  25.063  1.00  0.00    -0.237 OA
ATOM     89  O   UNL A   1      54.094  25.713  24.019  1.00  0.00    -0.744 OA
ENDBRANCH  85  86
ENDBRANCH  53  78
ENDBRANCH  27  28
ENDBRANCH  19  22
ENDBRANCH  17  18
ENDBRANCH   1  17
TORSDOF 16
ENDMDL
MODEL 2
REMARK VINA RESULT:     -11.0      6.007     14.342
REMARK SMILES CC(=O)OCc1ccc(C(=O)NCCCNC(=O)c2ccc(-c3c4nc(c(-c5c(F)cc(S(=O)(=O)[O-])cc5F)c5ccc([nH]5)c(-c5c(F)cc(S(=O)(=O)[O-])cc5F)c5nc(c(-c6c(F)cc(S(=O)(=O)[O-])cc6F)c6ccc3[nH]6)C=C5)C=C4)cc2)o1
REMARK SMILES IDX 14 1 13 2 12 3 10 4 11 5 9 7 6 8 7 9 85 10 8 11 5 12 4 13
REMARK SMILES IDX 2 14 1 15 3 16 15 17 16 18 17 19 18 21 19 22 20 23 84 24
REMARK SMILES IDX 21 25 83 26 22 27 23 28 24 29 77 30 25 31 82 32 76 33 78 34
REMARK SMILES IDX 26 35 81 36 75 37 74 38 27 40 61 41 40 42 60 43 41 44 44 45
REMARK SMILES IDX 59 46 79 47 42 48 43 49 58 51 80 52 45 53 28 54 29 55 38 56
REMARK SMILES IDX 30 57 31 58 37 59 39 60 32 61 33 62 34 63 35 64 36 65 62 66
REMARK SMILES IDX 63 67 72 68 64 69 65 70 71 71 73 72 66 73 67 74 68 75 69 76
REMARK SMILES IDX 70 77 46 78 47 79 56 80 48 81 49 82 55 83 57 84 50 85 51 86
REMARK SMILES IDX 52 87 53 88 54 89
REMARK H PARENT 12 6 16 20 78 39 44 50
REMARK Flexibility Score: inf
ROOT
ATOM      1  C   UNL A   1      40.690  21.600  27.027  1.00  0.00     0.042 C 
ENDROOT
BRANCH   1   2
ATOM      2  C   UNL A   1      41.895  20.745  27.405  1.00  0.00     0.118 C 
BRANCH   2   3
ATOM      3  N   UNL A   1      41.808  19.418  26.830  1.00  0.00    -0.349 N 
ATOM      4  C   UNL A   1      42.657  18.742  25.985  1.00  0.00     0.286 C 
ATOM      5  O   UNL A   1      42.359  17.566  25.758  1.00  0.00    -0.266 OA
ATOM      6  H   UNL A   1      41.003  18.913  27.090  1.00  0.00     0.163 HD
BRANCH   4   7
ATOM      7  C   UNL A   1      43.836  19.379  25.427  1.00  0.00     0.191 A 
ATOM      8  C   UNL A   1      44.871  21.109  24.501  1.00  0.00     0.142 A 
ATOM      9  C   UNL A   1      45.806  20.103  24.594  1.00  0.00     0.050 A 
ATOM     10  O   UNL A   1      43.683  20.678  25.007  1.00  0.00    -0.452 OA
ATOM     11  C   UNL A   1      45.151  19.008  25.212  1.00  0.00     0.057 A 
BRANCH   8  12
ATOM     12  C   UNL A   1      44.933  22.491  23.956  1.00  0.00     0.308 C 
BRANCH  12  13
ATOM     13  O   UNL A   1      44.513  23.425  24.959  1.00  0.00    -0.458 OA
BRANCH  13  14
ATOM     14  C   UNL A   1      45.385  24.438  25.212  1.00  0.00     0.303 C 
ATOM     15  C   UNL A   1      45.310  24.832  26.656  1.00  0.00     0.139 C 
ATOM     16  O   UNL A   1      46.184  24.911  24.418  1.00  0.00    -0.253 OA
ENDBRANCH  13  14
ENDBRANCH  12  13
ENDBRANCH   8  12
ENDBRANCH   4   7
ENDBRANCH   2   3
ENDBRANCH   1   2
BRANCH   1  17
ATOM     17  C   UNL A   1      40.881  23.083  27.347  1.00  0.00     0.118 C 
BRANCH  17  18
ATOM     18  N   UNL A   1      41.499  23.803  26.240  1.00  0.00    -0.352 N 
ATOM     19  C   UNL A   1      41.657  25.151  26.034  1.00  0.00     0.251 C 
ATOM     20  H   UNL A   1      41.863  23.231  25.527  1.00  0.00     0.163 HD
ATOM     21  O   UNL A   1      41.985  25.551  24.921  1.00  0.00    -0.269 OA
BRANCH  19  22
ATOM     22  C   UNL A   1      41.431  26.116  27.132  1.00  0.00     0.039 A 
ATOM     23  C   UNL A   1      40.384  25.886  28.029  1.00  0.00     0.014 A 
ATOM     24  C   UNL A   1      42.212  27.268  27.252  1.00  0.00     0.014 A 
ATOM     25  C   UNL A   1      40.160  26.781  29.078  1.00  0.00     0.010 A 
ATOM     26  C   UNL A   1      42.036  28.118  28.342  1.00  0.00     0.010 A 
ATOM     27  C   UNL A   1      41.005  27.886  29.263  1.00  0.00    -0.014 A 
BRANCH  27  28
ATOM     28  C   UNL A   1      40.824  28.812  30.412  1.00  0.00     0.031 A 
ATOM     29  C   UNL A   1      41.664  28.653  31.652  1.00  0.00     0.074 A 
ATOM     30  C   UNL A   1      39.862  29.755  30.360  1.00  0.00     0.049 A 
ATOM     31  N   UNL A   1      41.599  29.307  32.782  1.00  0.00    -0.248 NA
ATOM     32  C   UNL A   1      42.696  27.603  31.627  1.00  0.00     0.031 C 
ATOM     33  C   UNL A   1      38.956  29.977  29.230  1.00  0.00     0.029 A 
ATOM     34  N   UNL A   1      39.475  30.693  31.283  1.00  0.00    -0.354 N 
ATOM     35  C   UNL A   1      42.568  28.744  33.605  1.00  0.00     0.074 A 
ATOM     36  C   UNL A   1      43.170  27.658  32.864  1.00  0.00     0.031 C 
ATOM     37  C   UNL A   1      38.134  30.999  29.519  1.00  0.00     0.029 A 
ATOM     38  C   UNL A   1      38.422  31.476  30.867  1.00  0.00     0.049 A 
ATOM     39  H   UNL A   1      39.909  30.798  32.160  1.00  0.00     0.167 HD
ATOM     40  C   UNL A   1      42.937  29.115  34.855  1.00  0.00     0.037 A 
ATOM     41  C   UNL A   1      37.755  32.458  31.504  1.00  0.00     0.037 A 
ATOM     42  C   UNL A   1      42.346  30.212  35.576  1.00  0.00     0.049 A 
ATOM     43  C   UNL A   1      38.178  32.841  32.898  1.00  0.00     0.074 A 
ATOM     44  C   UNL A   1      42.684  30.699  36.827  1.00  0.00     0.029 A 
ATOM     45  N   UNL A   1      41.297  30.993  35.113  1.00  0.00    -0.354 N 
ATOM     46  N   UNL A   1      39.137  32.336  33.637  1.00  0.00    -0.248 NA
ATOM     47  C   UNL A   1      37.433  33.932  33.542  1.00  0.00     0.031 C 
ATOM     48  C   UNL A   1      41.806  31.742  37.141  1.00  0.00     0.029 A 
ATOM     49  C   UNL A   1      40.961  31.944  36.062  1.00  0.00     0.049 A 
ATOM     50  H   UNL A   1      40.857  30.886  34.239  1.00  0.00     0.167 HD
ATOM     51  C   UNL A   1      39.132  33.068  34.819  1.00  0.00     0.074 A 
ATOM     52  C   UNL A   1      38.084  34.060  34.691  1.00  0.00     0.031 C 
ATOM     53  C   UNL A   1      39.924  32.934  35.912  1.00  0.00     0.037 A 
BRANCH  40  54
ATOM     54  C   UNL A   1      44.038  28.335  35.522  1.00  0.00     0.058 A 
ATOM     55  C   UNL A   1      45.389  28.692  35.372  1.00  0.00     0.135 A 
ATOM     56  C   UNL A   1      43.740  27.255  36.368  1.00  0.00     0.135 A 
ATOM     57  F   UNL A   1      45.734  29.707  34.563  1.00  0.00    -0.206 F 
ATOM     58  C   UNL A   1      46.403  27.993  36.018  1.00  0.00     0.059 A 
ATOM     59  C   UNL A   1      44.736  26.559  37.048  1.00  0.00     0.059 A 
ATOM     60  F   UNL A   1      42.467  26.868  36.548  1.00  0.00    -0.206 F 
ATOM     61  C   UNL A   1      46.067  26.930  36.857  1.00  0.00     0.060 A 
BRANCH  61  62
ATOM     62  S   UNL A   1      47.395  26.050  37.706  1.00  0.00     0.124 S 
ATOM     63  O   UNL A   1      48.127  25.473  36.582  1.00  0.00    -0.237 OA
ATOM     64  O   UNL A   1      48.075  27.127  38.418  1.00  0.00    -0.237 OA
ATOM     65  O   UNL A   1      46.687  25.094  38.550  1.00  0.00    -0.744 OA
ENDBRANCH  61  62
ENDBRANCH  40  54
BRANCH  41  66
ATOM     66  C   UNL A   1      36.626  33.157  30.832  1.00  0.00     0.058 A 
ATOM     67  C   UNL A   1      36.859  34.107  29.827  1.00  0.00     0.135 A 
ATOM     68  C   UNL A   1      35.292  32.895  31.184  1.00  0.00     0.135 A 
ATOM     69  F   UNL A   1      38.116  34.397  29.457  1.00  0.00    -0.206 F 
ATOM     70  C   UNL A   1      35.816  34.795  29.215  1.00  0.00     0.059 A 
ATOM     71  C   UNL A   1      34.230  33.546  30.566  1.00  0.00     0.059 A 
ATOM     72  F   UNL A   1      35.013  31.979  32.125  1.00  0.00    -0.206 F 
ATOM     73  C   UNL A   1      34.504  34.507  29.593  1.00  0.00     0.060 A 
BRANCH  73  74
ATOM     74  S   UNL A   1      33.154  35.385  28.775  1.00  0.00     0.124 S 
ATOM     75  O   UNL A   1      33.882  36.379  27.994  1.00  0.00    -0.237 OA
ATOM     76  O   UNL A   1      32.512  34.319  28.014  1.00  0.00    -0.237 OA
ATOM     77  O   UNL A   1      32.370  35.909  29.889  1.00  0.00    -0.744 OA
ENDBRANCH  73  74
ENDBRANCH  41  66
BRANCH  53  78
ATOM     78  C   UNL A   1      39.721  33.909  37.040  1.00  0.00     0.058 A 
ATOM     79  C   UNL A   1      38.910  33.606  38.145  1.00  0.00     0.135 A 
ATOM     80  C   UNL A   1      40.391  35.143  37.039  1.00  0.00     0.135 A 
ATOM     81  F   UNL A   1      38.241  32.442  38.194  1.00  0.00    -0.206 F 
ATOM     82  C   UNL A   1      38.752  34.501  39.197  1.00  0.00     0.059 A 
ATOM     83  C   UNL A   1      40.272  36.041  38.094  1.00  0.00     0.059 A 
ATOM     84  F   UNL A   1      41.187  35.478  36.011  1.00  0.00    -0.206 F 
ATOM     85  C   UNL A   1      39.440  35.716  39.164  1.00  0.00     0.060 A 
BRANCH  85  86
ATOM     86  S   UNL A   1      39.254  36.854  40.552  1.00  0.00     0.124 S 
ATOM     87  O   UNL A   1      38.608  37.995  39.912  1.00  0.00    -0.237 OA
ATOM     88  O   UNL A   1      38.420  36.088  41.473  1.00  0.00    -0.237 OA
ATOM     89  O   UNL A   1      40.626  37.078  40.996  1.00  0.00    -0.744 OA
ENDBRANCH  85  86
ENDBRANCH  53  78
ENDBRANCH  27  28
ENDBRANCH  19  22
ENDBRANCH  17  18
ENDBRANCH   1  17
TORSDOF 16
ENDMDL
MODEL 3
REMARK VINA RESULT:     -10.7      3.562      5.026
REMARK SMILES CC(=O)OCc1ccc(C(=O)NCCCNC(=O)c2ccc(-c3c4nc(c(-c5c(F)cc(S(=O)(=O)[O-])cc5F)c5ccc([nH]5)c(-c5c(F)cc(S(=O)(=O)[O-])cc5F)c5nc(c(-c6c(F)cc(S(=O)(=O)[O-])cc6F)c6ccc3[nH]6)C=C5)C=C4)cc2)o1
REMARK SMILES IDX 14 1 13 2 12 3 10 4 11 5 9 7 6 8 7 9 85 10 8 11 5 12 4 13
REMARK SMILES IDX 2 14 1 15 3 16 15 17 16 18 17 19 18 21 19 22 20 23 84 24
REMARK SMILES IDX 21 25 83 26 22 27 23 28 24 29 77 30 25 31 82 32 76 33 78 34
REMARK SMILES IDX 26 35 81 36 75 37 74 38 27 40 61 41 40 42 60 43 41 44 44 45
REMARK SMILES IDX 59 46 79 47 42 48 43 49 58 51 80 52 45 53 28 54 29 55 38 56
REMARK SMILES IDX 30 57 31 58 37 59 39 60 32 61 33 62 34 63 35 64 36 65 62 66
REMARK SMILES IDX 63 67 72 68 64 69 65 70 71 71 73 72 66 73 67 74 68 75 69 76
REMARK SMILES IDX 70 77 46 78 47 79 56 80 48 81 49 82 55 83 57 84 50 85 51 86
REMARK SMILES IDX 52 87 53 88 54 89
REMARK H PARENT 12 6 16 20 78 39 44 50
REMARK Flexibility Score: inf
ROOT
ATOM      1  C   UNL A   1      33.841  28.975  27.234  1.00  0.00     0.042 C 
ENDROOT
BRANCH   1   2
ATOM      2  C   UNL A   1      33.809  27.919  26.133  1.00  0.00     0.118 C 
BRANCH   2   3
ATOM      3  N   UNL A   1      34.129  28.487  24.840  1.00  0.00    -0.349 N 
ATOM      4  C   UNL A   1      33.384  28.586  23.687  1.00  0.00     0.286 C 
ATOM      5  O   UNL A   1      33.901  29.234  22.772  1.00  0.00    -0.266 OA
ATOM      6  H   UNL A   1      35.034  28.871  24.775  1.00  0.00     0.163 HD
BRANCH   4   7
ATOM      7  C   UNL A   1      32.069  27.981  23.581  1.00  0.00     0.191 A 
ATOM      8  C   UNL A   1      29.884  28.102  23.217  1.00  0.00     0.142 A 
ATOM      9  C   UNL A   1      30.156  26.784  23.506  1.00  0.00     0.050 A 
ATOM     10  O   UNL A   1      31.036  28.826  23.256  1.00  0.00    -0.452 OA
ATOM     11  C   UNL A   1      31.557  26.702  23.710  1.00  0.00     0.057 A 
BRANCH   8  12
ATOM     12  C   UNL A   1      28.621  28.824  22.911  1.00  0.00     0.308 C 
BRANCH  12  13
ATOM     13  O   UNL A   1      28.772  29.564  21.692  1.00  0.00    -0.458 OA
BRANCH  13  14
ATOM     14  C   UNL A   1      28.073  30.730  21.630  1.00  0.00     0.303 C 
ATOM     15  C   UNL A   1      27.778  31.227  23.013  1.00  0.00     0.139 C 
ATOM     16  O   UNL A   1      27.795  31.346  20.612  1.00  0.00    -0.253 OA
ENDBRANCH  13  14
ENDBRANCH  12  13
ENDBRANCH   8  12
ENDBRANCH   4   7
ENDBRANCH   2   3
ENDBRANCH   1   2
BRANCH   1  17
ATOM     17  C   UNL A   1      35.258  29.327  27.687  1.00  0.00     0.118 C 
BRANCH  17  18
ATOM     18  N   UNL A   1      35.259  30.061  28.947  1.00  0.00    -0.352 N 
ATOM     19  C   UNL A   1      36.262  30.249  29.865  1.00  0.00     0.251 C 
ATOM     20  H   UNL A   1      34.404  30.492  29.176  1.00  0.00     0.163 HD
ATOM     21  O   UNL A   1      35.982  30.694  30.975  1.00  0.00    -0.269 OA
BRANCH  19  22
ATOM     22  C   UNL A   1      37.665  29.920  29.532  1.00  0.00     0.039 A 
ATOM     23  C   UNL A   1      38.516  29.482  30.551  1.00  0.00     0.014 A 
ATOM     24  C   UNL A   1      38.158  30.087  28.235  1.00  0.00     0.014 A 
ATOM     25  C   UNL A   1      39.843  29.158  30.256  1.00  0.00     0.010 A 
ATOM     26  C   UNL A   1      39.457  29.691  27.928  1.00  0.00     0.010 A 
ATOM     27  C   UNL A   1      40.315  29.228  28.936  1.00  0.00    -0.014 A 
BRANCH  27  28
ATOM     28  C   UNL A   1      41.702  28.823  28.590  1.00  0.00     0.031 A 
ATOM     29  C   UNL A   1      42.803  29.851  28.547  1.00  0.00     0.074 A 
ATOM     30  C   UNL A   1      41.957  27.542  28.254  1.00  0.00     0.049 A 
ATOM     31  N   UNL A   1      44.053  29.707  28.190  1.00  0.00    -0.248 NA
ATOM     32  C   UNL A   1      42.445  31.226  28.931  1.00  0.00     0.031 C 
ATOM     33  C   UNL A   1      40.964  26.465  28.217  1.00  0.00     0.029 A 
ATOM     34  N   UNL A   1      43.123  26.930  27.869  1.00  0.00    -0.354 N 
ATOM     35  C   UNL A   1      44.626  30.969  28.295  1.00  0.00     0.074 A 
ATOM     36  C   UNL A   1      43.575  31.877  28.695  1.00  0.00     0.031 C 
ATOM     37  C   UNL A   1      41.567  25.323  27.850  1.00  0.00     0.029 A 
ATOM     38  C   UNL A   1      42.976  25.591  27.584  1.00  0.00     0.049 A 
ATOM     39  H   UNL A   1      43.984  27.402  27.803  1.00  0.00     0.167 HD
ATOM     40  C   UNL A   1      45.917  31.332  28.098  1.00  0.00     0.037 A 
ATOM     41  C   UNL A   1      43.872  24.686  27.145  1.00  0.00     0.037 A 
ATOM     42  C   UNL A   1      46.962  30.415  27.720  1.00  0.00     0.049 A 
ATOM     43  C   UNL A   1      45.296  25.119  26.921  1.00  0.00     0.074 A 
ATOM     44  C   UNL A   1      48.310  30.674  27.545  1.00  0.00     0.029 A 
ATOM     45  N   UNL A   1      46.777  29.065  27.460  1.00  0.00    -0.354 N 
ATOM     46  N   UNL A   1      45.833  26.306  27.083  1.00  0.00    -0.248 NA
ATOM     47  C   UNL A   1      46.240  24.090  26.462  1.00  0.00     0.031 C 
ATOM     48  C   UNL A   1      48.931  29.492  27.131  1.00  0.00     0.029 A 
ATOM     49  C   UNL A   1      47.982  28.483  27.106  1.00  0.00     0.049 A 
ATOM     50  H   UNL A   1      45.916  28.591  27.519  1.00  0.00     0.167 HD
ATOM     51  C   UNL A   1      47.182  26.158  26.777  1.00  0.00     0.074 A 
ATOM     52  C   UNL A   1      47.381  24.765  26.434  1.00  0.00     0.031 C 
ATOM     53  C   UNL A   1      48.166  27.090  26.781  1.00  0.00     0.037 A 
BRANCH  40  54
ATOM     54  C   UNL A   1      46.278  32.780  28.295  1.00  0.00     0.058 A 
ATOM     55  C   UNL A   1      46.712  33.268  29.539  1.00  0.00     0.135 A 
ATOM     56  C   UNL A   1      46.246  33.679  27.217  1.00  0.00     0.135 A 
ATOM     57  F   UNL A   1      46.747  32.457  30.608  1.00  0.00    -0.206 F 
ATOM     58  C   UNL A   1      47.079  34.598  29.711  1.00  0.00     0.059 A 
ATOM     59  C   UNL A   1      46.638  35.008  27.359  1.00  0.00     0.059 A 
ATOM     60  F   UNL A   1      45.839  33.268  26.005  1.00  0.00    -0.206 F 
ATOM     61  C   UNL A   1      47.042  35.460  28.614  1.00  0.00     0.060 A 
BRANCH  61  62
ATOM     62  S   UNL A   1      47.546  37.178  28.853  1.00  0.00     0.124 S 
ATOM     63  O   UNL A   1      46.258  37.864  28.831  1.00  0.00    -0.237 OA
ATOM     64  O   UNL A   1      48.215  37.128  30.148  1.00  0.00    -0.237 OA
ATOM     65  O   UNL A   1      48.416  37.440  27.711  1.00  0.00    -0.744 OA
ENDBRANCH  61  62
ENDBRANCH  40  54
BRANCH  41  66
ATOM     66  C   UNL A   1      43.456  23.279  26.896  1.00  0.00     0.058 A 
ATOM     67  C   UNL A   1      43.152  22.416  27.959  1.00  0.00     0.135 A 
ATOM     68  C   UNL A   1      43.360  22.766  25.593  1.00  0.00     0.135 A 
ATOM     69  F   UNL A   1      43.232  22.857  29.224  1.00  0.00    -0.206 F 
ATOM     70  C   UNL A   1      42.797  21.088  27.744  1.00  0.00     0.059 A 
ATOM     71  C   UNL A   1      42.978  21.451  25.349  1.00  0.00     0.059 A 
ATOM     72  F   UNL A   1      43.619  23.555  24.538  1.00  0.00    -0.206 F 
ATOM     73  C   UNL A   1      42.713  20.614  26.434  1.00  0.00     0.060 A 
BRANCH  73  74
ATOM     74  S   UNL A   1      42.226  18.897  26.163  1.00  0.00     0.124 S 
ATOM     75  O   UNL A   1      40.815  19.043  25.822  1.00  0.00    -0.237 OA
ATOM     76  O   UNL A   1      43.110  18.496  25.073  1.00  0.00    -0.237 OA
ATOM     77  O   UNL A   1      42.502  18.263  27.448  1.00  0.00    -0.744 OA
ENDBRANCH  73  74
ENDBRANCH  41  66
BRANCH  53  78
ATOM     78  C   UNL A   1      49.560  26.629  26.448  1.00  0.00     0.058 A 
ATOM     79  C   UNL A   1      50.370  25.980  27.392  1.00  0.00     0.135 A 
ATOM     80  C   UNL A   1      50.069  26.794  25.150  1.00  0.00     0.135 A 
ATOM     81  F   UNL A   1      49.935  25.802  28.650  1.00  0.00    -0.206 F 
ATOM     82  C   UNL A   1      51.646  25.531  27.067  1.00  0.00     0.059 A 
ATOM     83  C   UNL A   1      51.329  26.326  24.794  1.00  0.00     0.059 A 
ATOM     84  F   UNL A   1      49.330  27.400  24.206  1.00  0.00    -0.206 F 
ATOM     85  C   UNL A   1      52.115  25.706  25.763  1.00  0.00     0.060 A 
BRANCH  85  86
ATOM     86  S   UNL A   1      53.759  25.088  25.345  1.00  0.00     0.124 S 
ATOM     87  O   UNL A   1      53.924  25.588  23.984  1.00  0.00    -0.237 OA
ATOM     88  O   UNL A   1      54.597  25.720  26.359  1.00  0.00    -0.237 OA
ATOM     89  O   UNL A   1      53.620  23.640  25.468  1.00  0.00    -0.744 OA
ENDBRANCH  85  86
ENDBRANCH  53  78
ENDBRANCH  27  28
ENDBRANCH  19  22
ENDBRANCH  17  18
ENDBRANCH   1  17
TORSDOF 16
ENDMDL
