MODEL 1
REMARK VINA RESULT:     -11.0      0.000      0.000
REMARK SMILES [NH2+]=C1S[C@@H](C(=O)Nc2ccc(C(=O)NCCCNC(=O)c3ccc(-c4c5nc(c(-c6c(F)cc(S(=O)(=O)[O-])cc6F)c6ccc([nH]6)c(-c6c(F)cc(S(=O)(=O)[O-])cc6F)c6nc(c(-c7c(F)cc(S(=O)(=O)[O-])cc7F)c7ccc4[nH]7)C=C6)C=C5)cc3)cc2)CC(=O)N1/N=C/c1ccc(Cl)cc1
REMARK SMILES IDX 15 1 14 2 12 3 13 4 11 6 8 7 9 8 88 9 10 10 87 11 7 12 5 13
REMARK SMILES IDX 6 14 4 16 1 17 2 18 3 21 92 22 90 23 89 24 91 25 93 26 94 27
REMARK SMILES IDX 95 28 96 29 101 30 97 31 100 32 98 33 99 34 16 35 17 36
REMARK SMILES IDX 18 37 19 38 20 40 21 41 22 42 86 43 23 44 85 45 24 46 25 47
REMARK SMILES IDX 26 48 79 49 27 50 84 51 78 52 80 53 28 54 83 55 77 56 76 57
REMARK SMILES IDX 29 59 63 60 42 61 62 62 43 63 46 64 61 65 81 66 44 67 45 68
REMARK SMILES IDX 60 70 82 71 47 72 30 73 31 74 40 75 32 76 33 77 39 78 41 79
REMARK SMILES IDX 34 80 35 81 36 82 37 83 38 84 64 85 65 86 74 87 66 88 67 89
REMARK SMILES IDX 73 90 75 91 68 92 69 93 70 94 71 95 72 96 48 97 49 98 58 99
REMARK SMILES IDX 50 100 51 101 57 102 59 103 52 104 53 105 54 106 55 107
REMARK SMILES IDX 56 108
REMARK H PARENT 14 5 7 15 1 19 1 20 18 39 80 58 46 69
REMARK Flexibility Score: inf
ROOT
ATOM      1  C   UNL A   1      33.878  34.773  29.039  1.00  0.00     0.118 C 
ENDROOT
BRANCH   1   2
ATOM      2  N   UNL A   1      33.160  34.581  30.297  1.00  0.00    -0.352 N 
ATOM      3  C   UNL A   1      33.640  34.474  31.577  1.00  0.00     0.251 C 
ATOM      4  O   UNL A   1      32.862  34.575  32.523  1.00  0.00    -0.269 OA
ATOM      5  H   UNL A   1      32.181  34.517  30.211  1.00  0.00     0.163 HD
BRANCH   3   6
ATOM      6  C   UNL A   1      35.087  34.339  31.839  1.00  0.00     0.039 A 
ATOM      7  C   UNL A   1      37.765  33.852  32.404  1.00  0.00     0.041 A 
ATOM      8  C   UNL A   1      37.166  33.222  31.314  1.00  0.00     0.027 A 
ATOM      9  C   UNL A   1      37.074  34.826  33.123  1.00  0.00     0.027 A 
ATOM     10  C   UNL A   1      35.815  33.440  31.052  1.00  0.00     0.016 A 
ATOM     11  C   UNL A   1      35.737  35.087  32.824  1.00  0.00     0.016 A 
BRANCH   7  12
ATOM     12  N   UNL A   1      39.099  33.574  32.678  1.00  0.00    -0.325 N 
ATOM     13  C   UNL A   1      39.655  32.663  33.522  1.00  0.00     0.238 C 
ATOM     14  O   UNL A   1      40.842  32.842  33.827  1.00  0.00    -0.273 OA
ATOM     15  H   UNL A   1      39.746  34.126  32.182  1.00  0.00     0.169 HD
BRANCH  13  16
ATOM     16  C   UNL A   1      38.965  31.351  33.929  1.00  0.00     0.160 C 
ATOM     17  N   UNL A   1      41.656  30.122  36.303  1.00  0.00    -0.279 N 
ATOM     18  C   UNL A   1      40.741  29.944  35.411  1.00  0.00     0.338 C 
ATOM     19  H   UNL A   1      41.529  30.795  37.011  1.00  0.00     0.302 HD
ATOM     20  H   UNL A   1      42.481  29.587  36.276  1.00  0.00     0.302 HD
ATOM     21  S   UNL A   1      39.328  30.920  35.637  1.00  0.00    -0.022 SA
ATOM     22  N   UNL A   1      40.790  29.030  34.357  1.00  0.00    -0.057 N 
ATOM     23  C   UNL A   1      39.918  29.014  33.255  1.00  0.00     0.337 C 
ATOM     24  C   UNL A   1      38.940  30.149  33.032  1.00  0.00     0.155 C 
ATOM     25  O   UNL A   1      39.878  28.091  32.429  1.00  0.00    -0.244 OA
BRANCH  22  26
ATOM     26  N   UNL A   1      41.726  27.971  34.299  1.00  0.00    -0.082 NA
ATOM     27  C   UNL A   1      41.693  26.952  35.088  1.00  0.00     0.167 C 
BRANCH  27  28
ATOM     28  C   UNL A   1      42.630  25.828  34.889  1.00  0.00    -0.003 A 
ATOM     29  C   UNL A   1      42.163  24.534  35.128  1.00  0.00     0.011 A 
ATOM     30  C   UNL A   1      43.956  26.047  34.515  1.00  0.00     0.011 A 
ATOM     31  C   UNL A   1      43.026  23.448  34.972  1.00  0.00     0.021 A 
ATOM     32  C   UNL A   1      44.814  24.956  34.340  1.00  0.00     0.021 A 
ATOM     33  C   UNL A   1      44.346  23.662  34.573  1.00  0.00     0.041 A 
ATOM     34  Cl  UNL A   1      45.408  22.321  34.385  1.00  0.00    -0.084 Cl
ENDBRANCH  27  28
ENDBRANCH  22  26
ENDBRANCH  13  16
ENDBRANCH   7  12
ENDBRANCH   3   6
ENDBRANCH   1   2
BRANCH   1  35
ATOM     35  C   UNL A   1      33.502  33.714  28.020  1.00  0.00     0.042 C 
BRANCH  35  36
ATOM     36  C   UNL A   1      34.491  32.557  28.005  1.00  0.00     0.118 C 
BRANCH  36  37
ATOM     37  N   UNL A   1      33.840  31.259  27.875  1.00  0.00    -0.352 N 
ATOM     38  C   UNL A   1      34.413  30.008  27.896  1.00  0.00     0.251 C 
ATOM     39  H   UNL A   1      32.863  31.282  27.756  1.00  0.00     0.163 HD
ATOM     40  O   UNL A   1      33.744  29.014  27.623  1.00  0.00    -0.269 OA
BRANCH  38  41
ATOM     41  C   UNL A   1      35.853  29.875  28.211  1.00  0.00     0.039 A 
ATOM     42  C   UNL A   1      36.236  29.498  29.499  1.00  0.00     0.014 A 
ATOM     43  C   UNL A   1      36.820  30.067  27.219  1.00  0.00     0.014 A 
ATOM     44  C   UNL A   1      37.581  29.233  29.771  1.00  0.00     0.010 A 
ATOM     45  C   UNL A   1      38.142  29.712  27.467  1.00  0.00     0.010 A 
ATOM     46  C   UNL A   1      38.540  29.292  28.745  1.00  0.00    -0.014 A 
BRANCH  46  47
ATOM     47  C   UNL A   1      39.962  28.929  28.988  1.00  0.00     0.031 A 
ATOM     48  C   UNL A   1      40.909  29.949  29.567  1.00  0.00     0.074 A 
ATOM     49  C   UNL A   1      40.416  27.708  28.640  1.00  0.00     0.049 A 
ATOM     50  N   UNL A   1      42.197  29.855  29.779  1.00  0.00    -0.248 NA
ATOM     51  C   UNL A   1      40.338  31.257  29.930  1.00  0.00     0.031 C 
ATOM     52  C   UNL A   1      39.613  26.645  28.030  1.00  0.00     0.029 A 
ATOM     53  N   UNL A   1      41.670  27.154  28.741  1.00  0.00    -0.354 N 
ATOM     54  C   UNL A   1      42.587  31.085  30.294  1.00  0.00     0.074 A 
ATOM     55  C   UNL A   1      41.415  31.933  30.296  1.00  0.00     0.031 C 
ATOM     56  C   UNL A   1      40.384  25.562  27.840  1.00  0.00     0.029 A 
ATOM     57  C   UNL A   1      41.745  25.863  28.273  1.00  0.00     0.049 A 
ATOM     58  H   UNL A   1      42.443  27.638  29.113  1.00  0.00     0.167 HD
ATOM     59  C   UNL A   1      43.801  31.467  30.757  1.00  0.00     0.037 A 
ATOM     60  C   UNL A   1      42.793  25.019  28.195  1.00  0.00     0.037 A 
ATOM     61  C   UNL A   1      44.962  30.616  30.772  1.00  0.00     0.049 A 
ATOM     62  C   UNL A   1      44.141  25.478  28.690  1.00  0.00     0.074 A 
ATOM     63  C   UNL A   1      46.232  30.899  31.243  1.00  0.00     0.029 A 
ATOM     64  N   UNL A   1      44.992  29.311  30.302  1.00  0.00    -0.354 N 
ATOM     65  N   UNL A   1      44.478  26.631  29.216  1.00  0.00    -0.248 NA
ATOM     66  C   UNL A   1      45.250  24.517  28.585  1.00  0.00     0.031 C 
ATOM     67  C   UNL A   1      47.040  29.780  31.024  1.00  0.00     0.029 A 
ATOM     68  C   UNL A   1      46.262  28.780  30.463  1.00  0.00     0.049 A 
ATOM     69  H   UNL A   1      44.226  28.832  29.912  1.00  0.00     0.167 HD
ATOM     70  C   UNL A   1      45.827  26.520  29.538  1.00  0.00     0.074 A 
ATOM     71  C   UNL A   1      46.240  25.186  29.159  1.00  0.00     0.031 C 
ATOM     72  C   UNL A   1      46.651  27.441  30.098  1.00  0.00     0.037 A 
BRANCH  59  73
ATOM     73  C   UNL A   1      43.930  32.862  31.308  1.00  0.00     0.058 A 
ATOM     74  C   UNL A   1      43.942  33.103  32.691  1.00  0.00     0.135 A 
ATOM     75  C   UNL A   1      44.083  33.964  30.451  1.00  0.00     0.135 A 
ATOM     76  F   UNL A   1      43.782  32.088  33.556  1.00  0.00    -0.206 F 
ATOM     77  C   UNL A   1      44.074  34.388  33.205  1.00  0.00     0.059 A 
ATOM     78  C   UNL A   1      44.247  35.255  30.944  1.00  0.00     0.059 A 
ATOM     79  F   UNL A   1      44.078  33.792  29.119  1.00  0.00    -0.206 F 
ATOM     80  C   UNL A   1      44.227  35.458  32.324  1.00  0.00     0.060 A 
BRANCH  80  81
ATOM     81  S   UNL A   1      44.414  37.116  33.011  1.00  0.00     0.124 S 
ATOM     82  O   UNL A   1      45.866  37.229  33.111  1.00  0.00    -0.237 OA
ATOM     83  O   UNL A   1      43.783  37.950  31.992  1.00  0.00    -0.237 OA
ATOM     84  O   UNL A   1      43.702  37.040  34.282  1.00  0.00    -0.744 OA
ENDBRANCH  80  81
ENDBRANCH  59  73
BRANCH  60  85
ATOM     85  C   UNL A   1      42.619  23.645  27.646  1.00  0.00     0.058 A 
ATOM     86  C   UNL A   1      42.372  22.556  28.495  1.00  0.00     0.135 A 
ATOM     87  C   UNL A   1      42.723  23.387  26.271  1.00  0.00     0.135 A 
ATOM     88  F   UNL A   1      42.269  22.748  29.820  1.00  0.00    -0.206 F 
ATOM     89  C   UNL A   1      42.269  21.257  28.008  1.00  0.00     0.059 A 
ATOM     90  C   UNL A   1      42.595  22.101  25.755  1.00  0.00     0.059 A 
ATOM     91  F   UNL A   1      42.941  24.396  25.412  1.00  0.00    -0.206 F 
ATOM     92  C   UNL A   1      42.386  21.040  26.635  1.00  0.00     0.060 A 
BRANCH  92  93
ATOM     93  S   UNL A   1      42.238  19.351  26.008  1.00  0.00     0.124 S 
ATOM     94  O   UNL A   1      42.695  18.574  27.154  1.00  0.00    -0.237 OA
ATOM     95  O   UNL A   1      40.814  19.261  25.700  1.00  0.00    -0.237 OA
ATOM     96  O   UNL A   1      43.124  19.347  24.848  1.00  0.00    -0.744 OA
ENDBRANCH  92  93
ENDBRANCH  60  85
BRANCH  72  97
ATOM     97  C   UNL A   1      48.067  27.022  30.386  1.00  0.00     0.058 A 
ATOM     98  C   UNL A   1      49.102  27.221  29.460  1.00  0.00     0.135 A 
ATOM     99  C   UNL A   1      48.399  26.458  31.629  1.00  0.00     0.135 A 
ATOM    100  F   UNL A   1      48.837  27.751  28.255  1.00  0.00    -0.206 F 
ATOM    101  C   UNL A   1      50.411  26.852  29.744  1.00  0.00     0.059 A 
ATOM    102  C   UNL A   1      49.707  26.109  31.947  1.00  0.00     0.059 A 
ATOM    103  F   UNL A   1      47.450  26.255  32.556  1.00  0.00    -0.206 F 
ATOM    104  C   UNL A   1      50.706  26.298  30.992  1.00  0.00     0.060 A 
BRANCH 104 105
ATOM    105  S   UNL A   1      52.416  25.855  31.361  1.00  0.00     0.124 S 
ATOM    106  O   UNL A   1      52.772  26.861  32.358  1.00  0.00    -0.237 OA
ATOM    107  O   UNL A   1      52.285  24.489  31.859  1.00  0.00    -0.237 OA
ATOM    108  O   UNL A   1      53.088  25.984  30.072  1.00  0.00    -0.744 OA
ENDBRANCH 104 105
ENDBRANCH  72  97
ENDBRANCH  46  47
ENDBRANCH  38  41
ENDBRANCH  36  37
ENDBRANCH  35  36
ENDBRANCH   1  35
TORSDOF 17
ENDMDL
MODEL 2
REMARK VINA RESULT:     -10.8      1.398      2.371
REMARK SMILES [NH2+]=C1S[C@@H](C(=O)Nc2ccc(C(=O)NCCCNC(=O)c3ccc(-c4c5nc(c(-c6c(F)cc(S(=O)(=O)[O-])cc6F)c6ccc([nH]6)c(-c6c(F)cc(S(=O)(=O)[O-])cc6F)c6nc(c(-c7c(F)cc(S(=O)(=O)[O-])cc7F)c7ccc4[nH]7)C=C6)C=C5)cc3)cc2)CC(=O)N1/N=C/c1ccc(Cl)cc1
REMARK SMILES IDX 15 1 14 2 12 3 13 4 11 6 8 7 9 8 88 9 10 10 87 11 7 12 5 13
REMARK SMILES IDX 6 14 4 16 1 17 2 18 3 21 92 22 90 23 89 24 91 25 93 26 94 27
REMARK SMILES IDX 95 28 96 29 101 30 97 31 100 32 98 33 99 34 16 35 17 36
REMARK SMILES IDX 18 37 19 38 20 40 21 41 22 42 86 43 23 44 85 45 24 46 25 47
REMARK SMILES IDX 26 48 79 49 27 50 84 51 78 52 80 53 28 54 83 55 77 56 76 57
REMARK SMILES IDX 29 59 63 60 42 61 62 62 43 63 46 64 61 65 81 66 44 67 45 68
REMARK SMILES IDX 60 70 82 71 47 72 30 73 31 74 40 75 32 76 33 77 39 78 41 79
REMARK SMILES IDX 34 80 35 81 36 82 37 83 38 84 64 85 65 86 74 87 66 88 67 89
REMARK SMILES IDX 73 90 75 91 68 92 69 93 70 94 71 95 72 96 48 97 49 98 58 99
REMARK SMILES IDX 50 100 51 101 57 102 59 103 52 104 53 105 54 106 55 107
REMARK SMILES IDX 56 108
REMARK H PARENT 14 5 7 15 1 19 1 20 18 39 80 58 46 69
REMARK Flexibility Score: inf
ROOT
ATOM      1  C   UNL A   1      35.586  33.764  32.027  1.00  0.00     0.118 C 
ENDROOT
BRANCH   1   2
ATOM      2  N   UNL A   1      36.624  34.386  31.210  1.00  0.00    -0.352 N 
ATOM      3  C   UNL A   1      37.987  34.240  31.255  1.00  0.00     0.251 C 
ATOM      4  O   UNL A   1      38.669  34.648  30.318  1.00  0.00    -0.269 OA
ATOM      5  H   UNL A   1      36.294  35.008  30.521  1.00  0.00     0.163 HD
BRANCH   3   6
ATOM      6  C   UNL A   1      38.638  33.512  32.364  1.00  0.00     0.039 A 
ATOM      7  C   UNL A   1      40.069  32.143  34.315  1.00  0.00     0.041 A 
ATOM      8  C   UNL A   1      40.368  33.479  34.053  1.00  0.00     0.027 A 
ATOM      9  C   UNL A   1      38.971  31.534  33.707  1.00  0.00     0.027 A 
ATOM     10  C   UNL A   1      39.673  34.155  33.051  1.00  0.00     0.016 A 
ATOM     11  C   UNL A   1      38.240  32.229  32.746  1.00  0.00     0.016 A 
BRANCH   7  12
ATOM     12  N   UNL A   1      40.814  31.474  35.278  1.00  0.00    -0.325 N 
ATOM     13  C   UNL A   1      41.337  30.218  35.275  1.00  0.00     0.238 C 
ATOM     14  O   UNL A   1      41.668  29.752  36.374  1.00  0.00    -0.273 OA
ATOM     15  H   UNL A   1      40.991  31.994  36.095  1.00  0.00     0.169 HD
BRANCH  13  16
ATOM     16  C   UNL A   1      41.721  29.461  33.993  1.00  0.00     0.160 C 
ATOM     17  N   UNL A   1      40.926  25.973  35.253  1.00  0.00    -0.279 N 
ATOM     18  C   UNL A   1      41.622  26.818  34.569  1.00  0.00     0.338 C 
ATOM     19  H   UNL A   1      39.947  26.066  35.300  1.00  0.00     0.302 HD
ATOM     20  H   UNL A   1      41.373  25.235  35.727  1.00  0.00     0.302 HD
ATOM     21  S   UNL A   1      40.680  28.016  33.747  1.00  0.00    -0.022 SA
ATOM     22  N   UNL A   1      43.010  26.805  34.419  1.00  0.00    -0.057 N 
ATOM     23  C   UNL A   1      43.779  27.856  33.892  1.00  0.00     0.337 C 
ATOM     24  C   UNL A   1      43.149  29.205  33.613  1.00  0.00     0.155 C 
ATOM     25  O   UNL A   1      44.982  27.749  33.611  1.00  0.00    -0.244 OA
BRANCH  22  26
ATOM     26  N   UNL A   1      43.810  25.689  34.755  1.00  0.00    -0.082 NA
ATOM     27  C   UNL A   1      43.904  24.634  34.019  1.00  0.00     0.167 C 
BRANCH  27  28
ATOM     28  C   UNL A   1      44.853  23.561  34.376  1.00  0.00    -0.003 A 
ATOM     29  C   UNL A   1      46.202  23.898  34.517  1.00  0.00     0.011 A 
ATOM     30  C   UNL A   1      44.431  22.240  34.527  1.00  0.00     0.011 A 
ATOM     31  C   UNL A   1      47.132  22.905  34.831  1.00  0.00     0.021 A 
ATOM     32  C   UNL A   1      45.362  21.251  34.861  1.00  0.00     0.021 A 
ATOM     33  C   UNL A   1      46.709  21.588  35.007  1.00  0.00     0.041 A 
ATOM     34  Cl  UNL A   1      47.859  20.367  35.392  1.00  0.00    -0.084 Cl
ENDBRANCH  27  28
ENDBRANCH  22  26
ENDBRANCH  13  16
ENDBRANCH   7  12
ENDBRANCH   3   6
ENDBRANCH   1   2
BRANCH   1  35
ATOM     35  C   UNL A   1      34.836  32.698  31.250  1.00  0.00     0.042 C 
BRANCH  35  36
ATOM     36  C   UNL A   1      35.137  32.758  29.759  1.00  0.00     0.118 C 
BRANCH  36  37
ATOM     37  N   UNL A   1      34.264  31.895  28.972  1.00  0.00    -0.352 N 
ATOM     38  C   UNL A   1      34.582  30.733  28.306  1.00  0.00     0.251 C 
ATOM     39  H   UNL A   1      33.325  32.182  28.909  1.00  0.00     0.163 HD
ATOM     40  O   UNL A   1      33.763  30.201  27.561  1.00  0.00    -0.269 OA
BRANCH  38  41
ATOM     41  C   UNL A   1      35.935  30.155  28.464  1.00  0.00     0.039 A 
ATOM     42  C   UNL A   1      36.830  30.214  27.393  1.00  0.00     0.014 A 
ATOM     43  C   UNL A   1      36.338  29.608  29.685  1.00  0.00     0.014 A 
ATOM     44  C   UNL A   1      38.153  29.800  27.575  1.00  0.00     0.010 A 
ATOM     45  C   UNL A   1      37.676  29.285  29.889  1.00  0.00     0.010 A 
ATOM     46  C   UNL A   1      38.599  29.375  28.837  1.00  0.00    -0.014 A 
BRANCH  46  47
ATOM     47  C   UNL A   1      40.022  29.013  29.077  1.00  0.00     0.031 A 
ATOM     48  C   UNL A   1      40.967  30.029  29.666  1.00  0.00     0.074 A 
ATOM     49  C   UNL A   1      40.479  27.796  28.717  1.00  0.00     0.049 A 
ATOM     50  N   UNL A   1      42.255  29.935  29.877  1.00  0.00    -0.248 NA
ATOM     51  C   UNL A   1      40.393  31.332  30.041  1.00  0.00     0.031 C 
ATOM     52  C   UNL A   1      39.678  26.737  28.097  1.00  0.00     0.029 A 
ATOM     53  N   UNL A   1      41.733  27.244  28.813  1.00  0.00    -0.354 N 
ATOM     54  C   UNL A   1      42.642  31.162  30.404  1.00  0.00     0.074 A 
ATOM     55  C   UNL A   1      41.469  32.007  30.413  1.00  0.00     0.031 C 
ATOM     56  C   UNL A   1      40.451  25.657  27.898  1.00  0.00     0.029 A 
ATOM     57  C   UNL A   1      41.811  25.956  28.333  1.00  0.00     0.049 A 
ATOM     58  H   UNL A   1      42.506  27.725  29.190  1.00  0.00     0.167 HD
ATOM     59  C   UNL A   1      43.856  31.542  30.870  1.00  0.00     0.037 A 
ATOM     60  C   UNL A   1      42.861  25.115  28.247  1.00  0.00     0.037 A 
ATOM     61  C   UNL A   1      45.019  30.692  30.877  1.00  0.00     0.049 A 
ATOM     62  C   UNL A   1      44.208  25.573  28.747  1.00  0.00     0.074 A 
ATOM     63  C   UNL A   1      46.288  30.973  31.351  1.00  0.00     0.029 A 
ATOM     64  N   UNL A   1      45.052  29.392  30.395  1.00  0.00    -0.354 N 
ATOM     65  N   UNL A   1      44.543  26.721  29.284  1.00  0.00    -0.248 NA
ATOM     66  C   UNL A   1      45.318  24.615  28.633  1.00  0.00     0.031 C 
ATOM     67  C   UNL A   1      47.099  29.858  31.122  1.00  0.00     0.029 A 
ATOM     68  C   UNL A   1      46.322  28.862  30.551  1.00  0.00     0.049 A 
ATOM     69  H   UNL A   1      44.286  28.915  30.000  1.00  0.00     0.167 HD
ATOM     70  C   UNL A   1      45.892  26.610  29.605  1.00  0.00     0.074 A 
ATOM     71  C   UNL A   1      46.308  25.280  29.213  1.00  0.00     0.031 C 
ATOM     72  C   UNL A   1      46.714  27.527  30.174  1.00  0.00     0.037 A 
BRANCH  59  73
ATOM     73  C   UNL A   1      43.983  32.931  31.434  1.00  0.00     0.058 A 
ATOM     74  C   UNL A   1      43.846  33.177  32.810  1.00  0.00     0.135 A 
ATOM     75  C   UNL A   1      44.282  34.022  30.601  1.00  0.00     0.135 A 
ATOM     76  F   UNL A   1      43.542  32.173  33.649  1.00  0.00    -0.206 F 
ATOM     77  C   UNL A   1      43.974  34.456  33.337  1.00  0.00     0.059 A 
ATOM     78  C   UNL A   1      44.444  35.307  31.112  1.00  0.00     0.059 A 
ATOM     79  F   UNL A   1      44.422  33.845  29.278  1.00  0.00    -0.206 F 
ATOM     80  C   UNL A   1      44.275  35.516  32.481  1.00  0.00     0.060 A 
BRANCH  80  81
ATOM     81  S   UNL A   1      44.454  37.167  33.187  1.00  0.00     0.124 S 
ATOM     82  O   UNL A   1      43.078  37.472  33.565  1.00  0.00    -0.237 OA
ATOM     83  O   UNL A   1      45.378  36.935  34.293  1.00  0.00    -0.237 OA
ATOM     84  O   UNL A   1      44.990  37.954  32.082  1.00  0.00    -0.744 OA
ENDBRANCH  80  81
ENDBRANCH  59  73
BRANCH  60  85
ATOM     85  C   UNL A   1      42.689  23.747  27.686  1.00  0.00     0.058 A 
ATOM     86  C   UNL A   1      42.455  22.647  28.526  1.00  0.00     0.135 A 
ATOM     87  C   UNL A   1      42.783  23.504  26.307  1.00  0.00     0.135 A 
ATOM     88  F   UNL A   1      42.363  22.825  29.853  1.00  0.00    -0.206 F 
ATOM     89  C   UNL A   1      42.355  21.354  28.026  1.00  0.00     0.059 A 
ATOM     90  C   UNL A   1      42.657  22.222  25.779  1.00  0.00     0.059 A 
ATOM     91  F   UNL A   1      42.988  24.522  25.457  1.00  0.00    -0.206 F 
ATOM     92  C   UNL A   1      42.462  21.151  26.649  1.00  0.00     0.060 A 
BRANCH  92  93
ATOM     93  S   UNL A   1      42.318  19.468  26.007  1.00  0.00     0.124 S 
ATOM     94  O   UNL A   1      43.198  19.523  24.846  1.00  0.00    -0.237 OA
ATOM     95  O   UNL A   1      42.791  18.668  27.132  1.00  0.00    -0.237 OA
ATOM     96  O   UNL A   1      40.893  19.344  25.713  1.00  0.00    -0.744 OA
ENDBRANCH  92  93
ENDBRANCH  60  85
BRANCH  72  97
ATOM     97  C   UNL A   1      48.130  27.108  30.458  1.00  0.00     0.058 A 
ATOM     98  C   UNL A   1      49.183  27.408  29.579  1.00  0.00     0.135 A 
ATOM     99  C   UNL A   1      48.445  26.440  31.653  1.00  0.00     0.135 A 
ATOM    100  F   UNL A   1      48.935  28.039  28.420  1.00  0.00    -0.206 F 
ATOM    101  C   UNL A   1      50.492  27.037  29.862  1.00  0.00     0.059 A 
ATOM    102  C   UNL A   1      49.752  26.086  31.971  1.00  0.00     0.059 A 
ATOM    103  F   UNL A   1      47.478  26.139  32.535  1.00  0.00    -0.206 F 
ATOM    104  C   UNL A   1      50.768  26.378  31.062  1.00  0.00     0.060 A 
BRANCH 104 105
ATOM    105  S   UNL A   1      52.478  25.933  31.432  1.00  0.00     0.124 S 
ATOM    106  O   UNL A   1      52.315  24.609  32.026  1.00  0.00    -0.237 OA
ATOM    107  O   UNL A   1      53.102  25.962  30.113  1.00  0.00    -0.237 OA
ATOM    108  O   UNL A   1      52.912  26.983  32.348  1.00  0.00    -0.744 OA
ENDBRANCH 104 105
ENDBRANCH  72  97
ENDBRANCH  46  47
ENDBRANCH  38  41
ENDBRANCH  36  37
ENDBRANCH  35  36
ENDBRANCH   1  35
TORSDOF 17
ENDMDL
MODEL 3
REMARK VINA RESULT:     -10.7      5.542     10.707
REMARK SMILES [NH2+]=C1S[C@@H](C(=O)Nc2ccc(C(=O)NCCCNC(=O)c3ccc(-c4c5nc(c(-c6c(F)cc(S(=O)(=O)[O-])cc6F)c6ccc([nH]6)c(-c6c(F)cc(S(=O)(=O)[O-])cc6F)c6nc(c(-c7c(F)cc(S(=O)(=O)[O-])cc7F)c7ccc4[nH]7)C=C6)C=C5)cc3)cc2)CC(=O)N1/N=C/c1ccc(Cl)cc1
REMARK SMILES IDX 15 1 14 2 12 3 13 4 11 6 8 7 9 8 88 9 10 10 87 11 7 12 5 13
REMARK SMILES IDX 6 14 4 16 1 17 2 18 3 21 92 22 90 23 89 24 91 25 93 26 94 27
REMARK SMILES IDX 95 28 96 29 101 30 97 31 100 32 98 33 99 34 16 35 17 36
REMARK SMILES IDX 18 37 19 38 20 40 21 41 22 42 86 43 23 44 85 45 24 46 25 47
REMARK SMILES IDX 26 48 79 49 27 50 84 51 78 52 80 53 28 54 83 55 77 56 76 57
REMARK SMILES IDX 29 59 63 60 42 61 62 62 43 63 46 64 61 65 81 66 44 67 45 68
REMARK SMILES IDX 60 70 82 71 47 72 30 73 31 74 40 75 32 76 33 77 39 78 41 79
REMARK SMILES IDX 34 80 35 81 36 82 37 83 38 84 64 85 65 86 74 87 66 88 67 89
REMARK SMILES IDX 73 90 75 91 68 92 69 93 70 94 71 95 72 96 48 97 49 98 58 99
REMARK SMILES IDX 50 100 51 101 57 102 59 103 52 104 53 105 54 106 55 107
REMARK SMILES IDX 56 108
REMARK H PARENT 14 5 7 15 1 19 1 20 18 39 80 58 46 69
REMARK Flexibility Score: inf
ROOT
ATOM      1  C   UNL A   1      36.746  21.965  25.492  1.00  0.00     0.118 C 
ENDROOT
BRANCH   1   2
ATOM      2  N   UNL A   1      35.772  21.464  26.459  1.00  0.00    -0.352 N 
ATOM      3  C   UNL A   1      34.574  21.999  26.860  1.00  0.00     0.251 C 
ATOM      4  O   UNL A   1      33.782  21.301  27.489  1.00  0.00    -0.269 OA
ATOM      5  H   UNL A   1      36.013  20.612  26.889  1.00  0.00     0.163 HD
BRANCH   3   6
ATOM      6  C   UNL A   1      34.182  23.368  26.466  1.00  0.00     0.039 A 
ATOM      7  C   UNL A   1      33.285  25.840  25.566  1.00  0.00     0.041 A 
ATOM      8  C   UNL A   1      32.437  25.036  26.325  1.00  0.00     0.027 A 
ATOM      9  C   UNL A   1      34.618  25.477  25.376  1.00  0.00     0.027 A 
ATOM     10  C   UNL A   1      32.876  23.782  26.748  1.00  0.00     0.016 A 
ATOM     11  C   UNL A   1      35.073  24.247  25.848  1.00  0.00     0.016 A 
BRANCH   7  12
ATOM     12  N   UNL A   1      32.805  27.061  25.109  1.00  0.00    -0.325 N 
ATOM     13  C   UNL A   1      32.703  27.552  23.844  1.00  0.00     0.238 C 
ATOM     14  O   UNL A   1      32.556  28.776  23.733  1.00  0.00    -0.273 OA
ATOM     15  H   UNL A   1      32.488  27.670  25.814  1.00  0.00     0.169 HD
BRANCH  13  16
ATOM     16  C   UNL A   1      32.554  26.663  22.598  1.00  0.00     0.160 C 
ATOM     17  N   UNL A   1      30.102  24.180  24.083  1.00  0.00    -0.279 N 
ATOM     18  C   UNL A   1      31.101  24.500  23.331  1.00  0.00     0.338 C 
ATOM     19  H   UNL A   1      29.326  24.782  24.153  1.00  0.00     0.302 HD
ATOM     20  H   UNL A   1      30.115  23.335  24.587  1.00  0.00     0.302 HD
ATOM     21  S   UNL A   1      30.893  25.987  22.467  1.00  0.00    -0.022 SA
ATOM     22  N   UNL A   1      32.259  23.745  23.142  1.00  0.00    -0.057 N 
ATOM     23  C   UNL A   1      33.438  24.206  22.532  1.00  0.00     0.337 C 
ATOM     24  C   UNL A   1      33.605  25.673  22.192  1.00  0.00     0.155 C 
ATOM     25  O   UNL A   1      34.383  23.465  22.224  1.00  0.00    -0.244 OA
BRANCH  22  26
ATOM     26  N   UNL A   1      32.363  22.386  23.520  1.00  0.00    -0.082 NA
ATOM     27  C   UNL A   1      32.057  21.406  22.740  1.00  0.00     0.167 C 
BRANCH  27  28
ATOM     28  C   UNL A   1      32.307  20.014  23.163  1.00  0.00    -0.003 A 
ATOM     29  C   UNL A   1      32.530  19.771  24.520  1.00  0.00     0.011 A 
ATOM     30  C   UNL A   1      32.363  18.973  22.236  1.00  0.00     0.011 A 
ATOM     31  C   UNL A   1      32.792  18.470  24.955  1.00  0.00     0.021 A 
ATOM     32  C   UNL A   1      32.607  17.668  22.677  1.00  0.00     0.021 A 
ATOM     33  C   UNL A   1      32.824  17.423  24.033  1.00  0.00     0.041 A 
ATOM     34  Cl  UNL A   1      33.150  15.823  24.573  1.00  0.00    -0.084 Cl
ENDBRANCH  27  28
ENDBRANCH  22  26
ENDBRANCH  13  16
ENDBRANCH   7  12
ENDBRANCH   3   6
ENDBRANCH   1   2
BRANCH   1  35
ATOM     35  C   UNL A   1      37.762  20.898  25.129  1.00  0.00     0.042 C 
BRANCH  35  36
ATOM     36  C   UNL A   1      39.104  21.131  25.809  1.00  0.00     0.118 C 
BRANCH  36  37
ATOM     37  N   UNL A   1      39.895  19.912  25.927  1.00  0.00    -0.352 N 
ATOM     38  C   UNL A   1      41.249  19.787  26.145  1.00  0.00     0.251 C 
ATOM     39  H   UNL A   1      39.396  19.068  25.840  1.00  0.00     0.163 HD
ATOM     40  O   UNL A   1      41.791  18.687  26.070  1.00  0.00    -0.269 OA
BRANCH  38  41
ATOM     41  C   UNL A   1      42.051  20.998  26.429  1.00  0.00     0.039 A 
ATOM     42  C   UNL A   1      42.526  21.765  25.362  1.00  0.00     0.014 A 
ATOM     43  C   UNL A   1      42.285  21.406  27.745  1.00  0.00     0.014 A 
ATOM     44  C   UNL A   1      43.163  22.983  25.617  1.00  0.00     0.010 A 
ATOM     45  C   UNL A   1      42.833  22.660  27.992  1.00  0.00     0.010 A 
ATOM     46  C   UNL A   1      43.280  23.464  26.932  1.00  0.00    -0.014 A 
BRANCH  46  47
ATOM     47  C   UNL A   1      43.874  24.797  27.223  1.00  0.00     0.031 A 
ATOM     48  C   UNL A   1      42.991  25.930  27.677  1.00  0.00     0.074 A 
ATOM     49  C   UNL A   1      45.192  25.006  27.026  1.00  0.00     0.049 A 
ATOM     50  N   UNL A   1      43.302  27.181  27.904  1.00  0.00    -0.248 NA
ATOM     51  C   UNL A   1      41.565  25.623  27.878  1.00  0.00     0.031 C 
ATOM     52  C   UNL A   1      46.149  24.005  26.546  1.00  0.00     0.029 A 
ATOM     53  N   UNL A   1      45.957  26.134  27.198  1.00  0.00    -0.354 N 
ATOM     54  C   UNL A   1      42.114  27.805  28.268  1.00  0.00     0.074 A 
ATOM     55  C   UNL A   1      41.066  26.815  28.163  1.00  0.00     0.031 C 
ATOM     56  C   UNL A   1      47.373  24.554  26.492  1.00  0.00     0.029 A 
ATOM     57  C   UNL A   1      47.287  25.955  26.889  1.00  0.00     0.049 A 
ATOM     58  H   UNL A   1      45.588  26.991  27.511  1.00  0.00     0.167 HD
ATOM     59  C   UNL A   1      41.917  29.079  28.686  1.00  0.00     0.037 A 
ATOM     60  C   UNL A   1      48.317  26.824  26.918  1.00  0.00     0.037 A 
ATOM     61  C   UNL A   1      42.965  30.059  28.808  1.00  0.00     0.049 A 
ATOM     62  C   UNL A   1      48.066  28.243  27.359  1.00  0.00     0.074 A 
ATOM     63  C   UNL A   1      42.874  31.368  29.246  1.00  0.00     0.029 A 
ATOM     64  N   UNL A   1      44.299  29.833  28.499  1.00  0.00    -0.354 N 
ATOM     65  N   UNL A   1      46.943  28.802  27.742  1.00  0.00    -0.248 NA
ATOM     66  C   UNL A   1      49.224  29.149  27.375  1.00  0.00     0.031 C 
ATOM     67  C   UNL A   1      44.144  31.947  29.166  1.00  0.00     0.029 A 
ATOM     68  C   UNL A   1      45.037  30.983  28.727  1.00  0.00     0.049 A 
ATOM     69  H   UNL A   1      44.667  28.983  28.166  1.00  0.00     0.167 HD
ATOM     70  C   UNL A   1      47.268  30.112  28.080  1.00  0.00     0.074 A 
ATOM     71  C   UNL A   1      48.692  30.258  27.867  1.00  0.00     0.031 C 
ATOM     72  C   UNL A   1      46.460  31.105  28.528  1.00  0.00     0.037 A 
BRANCH  59  73
ATOM     73  C   UNL A   1      40.517  29.480  29.064  1.00  0.00     0.058 A 
ATOM     74  C   UNL A   1      40.151  29.678  30.405  1.00  0.00     0.135 A 
ATOM     75  C   UNL A   1      39.542  29.706  28.079  1.00  0.00     0.135 A 
ATOM     76  F   UNL A   1      41.039  29.458  31.388  1.00  0.00    -0.206 F 
ATOM     77  C   UNL A   1      38.862  30.060  30.760  1.00  0.00     0.059 A 
ATOM     78  C   UNL A   1      38.253  30.119  28.410  1.00  0.00     0.059 A 
ATOM     79  F   UNL A   1      39.836  29.531  26.782  1.00  0.00    -0.206 F 
ATOM     80  C   UNL A   1      37.920  30.280  29.754  1.00  0.00     0.060 A 
BRANCH  80  81
ATOM     81  S   UNL A   1      36.257  30.792  30.234  1.00  0.00     0.124 S 
ATOM     82  O   UNL A   1      35.912  29.773  31.221  1.00  0.00    -0.237 OA
ATOM     83  O   UNL A   1      36.483  32.134  30.761  1.00  0.00    -0.237 OA
ATOM     84  O   UNL A   1      35.508  30.731  28.983  1.00  0.00    -0.744 OA
ENDBRANCH  80  81
ENDBRANCH  59  73
BRANCH  60  85
ATOM     85  C   UNL A   1      49.688  26.383  26.539  1.00  0.00     0.058 A 
ATOM     86  C   UNL A   1      50.116  26.426  25.203  1.00  0.00     0.135 A 
ATOM     87  C   UNL A   1      50.587  25.883  27.494  1.00  0.00     0.135 A 
ATOM     88  F   UNL A   1      49.292  26.889  24.250  1.00  0.00    -0.206 F 
ATOM     89  C   UNL A   1      51.369  25.960  24.821  1.00  0.00     0.059 A 
ATOM     90  C   UNL A   1      51.857  25.438  27.141  1.00  0.00     0.059 A 
ATOM     91  F   UNL A   1      50.235  25.837  28.789  1.00  0.00    -0.206 F 
ATOM     92  C   UNL A   1      52.232  25.463  25.799  1.00  0.00     0.060 A 
BRANCH  92  93
ATOM     93  S   UNL A   1      53.863  24.871  25.296  1.00  0.00     0.124 S 
ATOM     94  O   UNL A   1      53.602  23.455  25.067  1.00  0.00    -0.237 OA
ATOM     95  O   UNL A   1      54.129  25.674  24.106  1.00  0.00    -0.237 OA
ATOM     96  O   UNL A   1      54.701  25.180  26.451  1.00  0.00    -0.744 OA
ENDBRANCH  92  93
ENDBRANCH  60  85
BRANCH  72  97
ATOM     97  C   UNL A   1      47.103  32.422  28.869  1.00  0.00     0.058 A 
ATOM     98  C   UNL A   1      47.247  33.445  27.920  1.00  0.00     0.135 A 
ATOM     99  C   UNL A   1      47.535  32.680  30.181  1.00  0.00     0.135 A 
ATOM    100  F   UNL A   1      46.855  33.248  26.651  1.00  0.00    -0.206 F 
ATOM    101  C   UNL A   1      47.820  34.667  28.251  1.00  0.00     0.059 A 
ATOM    102  C   UNL A   1      48.084  33.905  30.543  1.00  0.00     0.059 A 
ATOM    103  F   UNL A   1      47.411  31.740  31.132  1.00  0.00    -0.206 F 
ATOM    104  C   UNL A   1      48.235  34.890  29.566  1.00  0.00     0.060 A 
BRANCH 104 105
ATOM    105  S   UNL A   1      48.946  36.493  29.991  1.00  0.00     0.124 S 
ATOM    106  O   UNL A   1      49.533  36.901  28.718  1.00  0.00    -0.237 OA
ATOM    107  O   UNL A   1      47.775  37.252  30.419  1.00  0.00    -0.237 OA
ATOM    108  O   UNL A   1      49.900  36.174  31.048  1.00  0.00    -0.744 OA
ENDBRANCH 104 105
ENDBRANCH  72  97
ENDBRANCH  46  47
ENDBRANCH  38  41
ENDBRANCH  36  37
ENDBRANCH  35  36
ENDBRANCH   1  35
TORSDOF 17
ENDMDL
