MODEL 1
REMARK VINA RESULT:     -13.7      0.000      0.000
REMARK SMILES CCN1C(=O)c2ccccc2[S@@](=O)c2ccc(C(=O)NCCCNC(=O)c3ccc(-c4c5nc(c(-c6c(F)cc(S(=O)(=O)[O-])cc6F)c6ccc([nH]6)c(-c6c(F)cc(S(=O)(=O)[O-])cc6F)c6nc(c(-c7c(F)cc(S(=O)(=O)[O-])cc7F)c7ccc4[nH]7)C=C6)C=C5)cc3)cc21
REMARK SMILES IDX 23 1 22 2 21 3 20 4 18 5 19 6 17 8 3 9 4 10 94 11 5 12 6 13
REMARK SMILES IDX 14 14 93 15 7 16 11 17 12 18 15 19 8 20 10 21 13 22 16 23
REMARK SMILES IDX 9 24 2 25 1 26 24 27 25 28 26 30 27 31 28 32 92 33 29 34
REMARK SMILES IDX 91 35 30 36 31 37 32 38 85 39 33 40 90 41 84 42 86 43 34 44
REMARK SMILES IDX 89 45 83 46 82 47 35 49 69 50 48 51 68 52 49 53 52 54 67 55
REMARK SMILES IDX 87 56 50 57 51 58 66 60 88 61 53 62 36 63 37 64 46 65 38 66
REMARK SMILES IDX 39 67 45 68 47 69 40 70 41 71 42 72 43 73 44 74 70 75 71 76
REMARK SMILES IDX 80 77 72 78 73 79 79 80 81 81 74 82 75 83 76 84 77 85 78 86
REMARK SMILES IDX 54 87 55 88 64 89 56 90 57 91 63 92 65 93 58 94 59 95 60 96
REMARK SMILES IDX 61 97 62 98
REMARK H PARENT 20 7 24 29 86 48 52 59
REMARK Flexibility Score: inf
ROOT
ATOM      1  C   UNL A   1      40.418  23.040  26.973  1.00  0.00     0.118 C 
ENDROOT
BRANCH   1   2
ATOM      2  C   UNL A   1      39.284  22.244  26.322  1.00  0.00     0.042 C 
BRANCH   2   3
ATOM      3  C   UNL A   1      38.057  23.096  25.999  1.00  0.00     0.118 C 
BRANCH   3   4
ATOM      4  N   UNL A   1      37.590  22.871  24.641  1.00  0.00    -0.352 N 
ATOM      5  C   UNL A   1      36.462  23.187  23.930  1.00  0.00     0.251 C 
ATOM      6  O   UNL A   1      36.454  22.816  22.752  1.00  0.00    -0.269 OA
ATOM      7  H   UNL A   1      38.244  22.372  24.100  1.00  0.00     0.163 HD
BRANCH   5   8
ATOM      8  C   UNL A   1      35.280  23.957  24.435  1.00  0.00     0.041 A 
ATOM      9  N   UNL A   1      32.773  26.589  23.379  1.00  0.00    -0.307 N 
ATOM     10  C   UNL A   1      31.634  27.345  23.691  1.00  0.00     0.259 C 
ATOM     11  C   UNL A   1      33.416  25.607  24.231  1.00  0.00     0.061 A 
ATOM     12  O   UNL A   1      30.805  27.713  22.858  1.00  0.00    -0.269 OA
ATOM     13  C   UNL A   1      31.623  28.038  24.987  1.00  0.00     0.056 A 
ATOM     14  C   UNL A   1      32.935  25.175  25.486  1.00  0.00     0.068 A 
ATOM     15  C   UNL A   1      34.598  24.969  23.751  1.00  0.00     0.041 A 
ATOM     16  C   UNL A   1      31.667  29.440  24.956  1.00  0.00     0.015 A 
ATOM     17  C   UNL A   1      31.579  27.358  26.193  1.00  0.00     0.057 A 
ATOM     18  S   UNL A   1      31.357  25.593  26.261  1.00  0.00     0.088 S 
ATOM     19  C   UNL A   1      33.668  24.220  26.222  1.00  0.00     0.021 A 
ATOM     20  C   UNL A   1      31.699  30.166  26.142  1.00  0.00     0.001 A 
ATOM     21  C   UNL A   1      31.615  28.095  27.387  1.00  0.00     0.019 A 
ATOM     22  O   UNL A   1      30.313  25.253  25.242  1.00  0.00    -0.249 OA
ATOM     23  C   UNL A   1      34.816  23.623  25.706  1.00  0.00     0.015 A 
ATOM     24  C   UNL A   1      31.683  29.492  27.360  1.00  0.00     0.001 A 
BRANCH   9  25
ATOM     25  C   UNL A   1      33.354  26.945  22.076  1.00  0.00     0.122 C 
ATOM     26  C   UNL A   1      34.068  28.298  22.137  1.00  0.00     0.028 C 
ENDBRANCH   9  25
ENDBRANCH   5   8
ENDBRANCH   3   4
ENDBRANCH   2   3
ENDBRANCH   1   2
BRANCH   1  27
ATOM     27  N   UNL A   1      41.109  23.898  26.015  1.00  0.00    -0.352 N 
ATOM     28  C   UNL A   1      41.370  25.247  26.038  1.00  0.00     0.251 C 
ATOM     29  H   UNL A   1      41.444  23.431  25.216  1.00  0.00     0.163 HD
ATOM     30  O   UNL A   1      41.765  25.792  25.007  1.00  0.00    -0.269 OA
BRANCH  28  31
ATOM     31  C   UNL A   1      41.178  26.052  27.266  1.00  0.00     0.039 A 
ATOM     32  C   UNL A   1      40.085  25.840  28.108  1.00  0.00     0.014 A 
ATOM     33  C   UNL A   1      42.150  26.997  27.620  1.00  0.00     0.014 A 
ATOM     34  C   UNL A   1      39.887  26.666  29.211  1.00  0.00     0.010 A 
ATOM     35  C   UNL A   1      41.987  27.776  28.771  1.00  0.00     0.010 A 
ATOM     36  C   UNL A   1      40.832  27.649  29.555  1.00  0.00    -0.014 A 
BRANCH  36  37
ATOM     37  C   UNL A   1      40.574  28.523  30.730  1.00  0.00     0.031 A 
ATOM     38  C   UNL A   1      41.503  28.510  31.915  1.00  0.00     0.074 A 
ATOM     39  C   UNL A   1      39.553  29.401  30.689  1.00  0.00     0.049 A 
ATOM     40  N   UNL A   1      41.488  29.269  32.982  1.00  0.00    -0.248 NA
ATOM     41  C   UNL A   1      42.589  27.518  31.904  1.00  0.00     0.031 C 
ATOM     42  C   UNL A   1      38.585  29.515  29.597  1.00  0.00     0.029 A 
ATOM     43  N   UNL A   1      39.188  30.396  31.561  1.00  0.00    -0.354 N 
ATOM     44  C   UNL A   1      42.548  28.840  33.771  1.00  0.00     0.074 A 
ATOM     45  C   UNL A   1      43.171  27.735  33.075  1.00  0.00     0.031 C 
ATOM     46  C   UNL A   1      37.794  30.577  29.819  1.00  0.00     0.029 A 
ATOM     47  C   UNL A   1      38.165  31.188  31.093  1.00  0.00     0.049 A 
ATOM     48  H   UNL A   1      39.616  30.531  32.438  1.00  0.00     0.167 HD
ATOM     49  C   UNL A   1      42.974  29.329  34.961  1.00  0.00     0.037 A 
ATOM     50  C   UNL A   1      37.598  32.290  31.619  1.00  0.00     0.037 A 
ATOM     51  C   UNL A   1      42.371  30.441  35.646  1.00  0.00     0.049 A 
ATOM     52  C   UNL A   1      38.077  32.805  32.944  1.00  0.00     0.074 A 
ATOM     53  C   UNL A   1      42.731  31.005  36.859  1.00  0.00     0.029 A 
ATOM     54  N   UNL A   1      41.288  31.166  35.175  1.00  0.00    -0.354 N 
ATOM     55  N   UNL A   1      39.064  32.367  33.687  1.00  0.00    -0.248 NA
ATOM     56  C   UNL A   1      37.349  33.947  33.515  1.00  0.00     0.031 C 
ATOM     57  C   UNL A   1      41.851  32.060  37.129  1.00  0.00     0.029 A 
ATOM     58  C   UNL A   1      40.959  32.166  36.074  1.00  0.00     0.049 A 
ATOM     59  H   UNL A   1      40.820  30.995  34.326  1.00  0.00     0.167 HD
ATOM     60  C   UNL A   1      39.072  33.173  34.818  1.00  0.00     0.074 A 
ATOM     61  C   UNL A   1      38.006  34.141  34.652  1.00  0.00     0.031 C 
ATOM     62  C   UNL A   1      39.884  33.109  35.901  1.00  0.00     0.037 A 
BRANCH  49  63
ATOM     63  C   UNL A   1      44.154  28.654  35.598  1.00  0.00     0.058 A 
ATOM     64  C   UNL A   1      43.988  27.578  36.485  1.00  0.00     0.135 A 
ATOM     65  C   UNL A   1      45.462  29.074  35.310  1.00  0.00     0.135 A 
ATOM     66  F   UNL A   1      42.758  27.151  36.806  1.00  0.00    -0.206 F 
ATOM     67  C   UNL A   1      45.079  26.959  37.086  1.00  0.00     0.059 A 
ATOM     68  C   UNL A   1      46.569  28.459  35.887  1.00  0.00     0.059 A 
ATOM     69  F   UNL A   1      45.672  30.100  34.470  1.00  0.00    -0.206 F 
ATOM     70  C   UNL A   1      46.365  27.411  36.787  1.00  0.00     0.060 A 
BRANCH  70  71
ATOM     71  S   UNL A   1      47.770  26.612  37.590  1.00  0.00     0.124 S 
ATOM     72  O   UNL A   1      48.889  27.170  36.835  1.00  0.00    -0.237 OA
ATOM     73  O   UNL A   1      47.648  27.069  38.969  1.00  0.00    -0.237 OA
ATOM     74  O   UNL A   1      47.517  25.189  37.378  1.00  0.00    -0.744 OA
ENDBRANCH  70  71
ENDBRANCH  49  63
BRANCH  50  75
ATOM     75  C   UNL A   1      36.529  32.992  30.864  1.00  0.00     0.058 A 
ATOM     76  C   UNL A   1      35.188  32.878  31.255  1.00  0.00     0.135 A 
ATOM     77  C   UNL A   1      36.831  33.834  29.784  1.00  0.00     0.135 A 
ATOM     78  F   UNL A   1      34.853  32.079  32.280  1.00  0.00    -0.206 F 
ATOM     79  C   UNL A   1      34.181  33.587  30.609  1.00  0.00     0.059 A 
ATOM     80  C   UNL A   1      35.845  34.565  29.132  1.00  0.00     0.059 A 
ATOM     81  F   UNL A   1      38.104  33.982  29.383  1.00  0.00    -0.206 F 
ATOM     82  C   UNL A   1      34.520  34.435  29.552  1.00  0.00     0.060 A 
BRANCH  82  83
ATOM     83  S   UNL A   1      33.223  35.429  28.782  1.00  0.00     0.124 S 
ATOM     84  O   UNL A   1      34.007  36.388  28.015  1.00  0.00    -0.237 OA
ATOM     85  O   UNL A   1      32.490  34.434  28.004  1.00  0.00    -0.237 OA
ATOM     86  O   UNL A   1      32.499  35.973  29.927  1.00  0.00    -0.744 OA
ENDBRANCH  82  83
ENDBRANCH  50  75
BRANCH  62  87
ATOM     87  C   UNL A   1      39.638  34.097  37.002  1.00  0.00     0.058 A 
ATOM     88  C   UNL A   1      38.878  33.746  38.128  1.00  0.00     0.135 A 
ATOM     89  C   UNL A   1      40.213  35.375  36.964  1.00  0.00     0.135 A 
ATOM     90  F   UNL A   1      38.303  32.536  38.206  1.00  0.00    -0.206 F 
ATOM     91  C   UNL A   1      38.691  34.636  39.180  1.00  0.00     0.059 A 
ATOM     92  C   UNL A   1      40.050  36.275  38.011  1.00  0.00     0.059 A 
ATOM     93  F   UNL A   1      40.952  35.752  35.908  1.00  0.00    -0.206 F 
ATOM     94  C   UNL A   1      39.282  35.899  39.114  1.00  0.00     0.060 A 
BRANCH  94  95
ATOM     95  S   UNL A   1      39.072  37.029  40.505  1.00  0.00     0.124 S 
ATOM     96  O   UNL A   1      40.449  37.435  40.765  1.00  0.00    -0.237 OA
ATOM     97  O   UNL A   1      38.202  38.060  39.945  1.00  0.00    -0.237 OA
ATOM     98  O   UNL A   1      38.458  36.191  41.532  1.00  0.00    -0.744 OA
ENDBRANCH  94  95
ENDBRANCH  62  87
ENDBRANCH  36  37
ENDBRANCH  28  31
ENDBRANCH   1  27
TORSDOF 14
ENDMDL
MODEL 2
REMARK VINA RESULT:     -13.6      6.329     11.953
REMARK SMILES CCN1C(=O)c2ccccc2[S@@](=O)c2ccc(C(=O)NCCCNC(=O)c3ccc(-c4c5nc(c(-c6c(F)cc(S(=O)(=O)[O-])cc6F)c6ccc([nH]6)c(-c6c(F)cc(S(=O)(=O)[O-])cc6F)c6nc(c(-c7c(F)cc(S(=O)(=O)[O-])cc7F)c7ccc4[nH]7)C=C6)C=C5)cc3)cc21
REMARK SMILES IDX 23 1 22 2 21 3 20 4 18 5 19 6 17 8 3 9 4 10 94 11 5 12 6 13
REMARK SMILES IDX 14 14 93 15 7 16 11 17 12 18 15 19 8 20 10 21 13 22 16 23
REMARK SMILES IDX 9 24 2 25 1 26 24 27 25 28 26 30 27 31 28 32 92 33 29 34
REMARK SMILES IDX 91 35 30 36 31 37 32 38 85 39 33 40 90 41 84 42 86 43 34 44
REMARK SMILES IDX 89 45 83 46 82 47 35 49 69 50 48 51 68 52 49 53 52 54 67 55
REMARK SMILES IDX 87 56 50 57 51 58 66 60 88 61 53 62 36 63 37 64 46 65 38 66
REMARK SMILES IDX 39 67 45 68 47 69 40 70 41 71 42 72 43 73 44 74 70 75 71 76
REMARK SMILES IDX 80 77 72 78 73 79 79 80 81 81 74 82 75 83 76 84 77 85 78 86
REMARK SMILES IDX 54 87 55 88 64 89 56 90 57 91 63 92 65 93 58 94 59 95 60 96
REMARK SMILES IDX 61 97 62 98
REMARK H PARENT 20 7 24 29 86 48 52 59
REMARK Flexibility Score: inf
ROOT
ATOM      1  C   UNL A   1      35.580  31.713  28.478  1.00  0.00     0.118 C 
ENDROOT
BRANCH   1   2
ATOM      2  C   UNL A   1      34.351  31.282  27.673  1.00  0.00     0.042 C 
BRANCH   2   3
ATOM      3  C   UNL A   1      34.302  29.777  27.407  1.00  0.00     0.118 C 
BRANCH   3   4
ATOM      4  N   UNL A   1      32.987  29.225  27.690  1.00  0.00    -0.352 N 
ATOM      5  C   UNL A   1      32.289  28.114  27.298  1.00  0.00     0.251 C 
ATOM      6  O   UNL A   1      31.163  27.990  27.791  1.00  0.00    -0.269 OA
ATOM      7  H   UNL A   1      32.474  29.787  28.316  1.00  0.00     0.163 HD
BRANCH   5   8
ATOM      8  C   UNL A   1      32.775  27.040  26.372  1.00  0.00     0.041 A 
ATOM      9  N   UNL A   1      32.718  23.287  25.881  1.00  0.00    -0.307 N 
ATOM     10  C   UNL A   1      33.059  22.183  25.087  1.00  0.00     0.259 C 
ATOM     11  C   UNL A   1      33.011  24.678  25.593  1.00  0.00     0.061 A 
ATOM     12  O   UNL A   1      32.382  21.157  25.012  1.00  0.00    -0.269 OA
ATOM     13  C   UNL A   1      34.450  22.094  24.622  1.00  0.00     0.056 A 
ATOM     14  C   UNL A   1      33.602  25.160  24.405  1.00  0.00     0.068 A 
ATOM     15  C   UNL A   1      32.618  25.661  26.550  1.00  0.00     0.041 A 
ATOM     16  C   UNL A   1      35.228  21.050  25.147  1.00  0.00     0.015 A 
ATOM     17  C   UNL A   1      34.990  22.992  23.715  1.00  0.00     0.057 A 
ATOM     18  S   UNL A   1      33.985  24.221  22.910  1.00  0.00     0.088 S 
ATOM     19  C   UNL A   1      33.845  26.542  24.259  1.00  0.00     0.021 A 
ATOM     20  C   UNL A   1      36.565  20.924  24.786  1.00  0.00     0.001 A 
ATOM     21  C   UNL A   1      36.340  22.861  23.356  1.00  0.00     0.019 A 
ATOM     22  O   UNL A   1      32.704  23.544  22.527  1.00  0.00    -0.249 OA
ATOM     23  C   UNL A   1      33.439  27.463  25.222  1.00  0.00     0.015 A 
ATOM     24  C   UNL A   1      37.125  21.836  23.897  1.00  0.00     0.001 A 
BRANCH   9  25
ATOM     25  C   UNL A   1      32.075  22.903  27.147  1.00  0.00     0.122 C 
ATOM     26  C   UNL A   1      33.086  22.292  28.120  1.00  0.00     0.028 C 
ENDBRANCH   9  25
ENDBRANCH   5   8
ENDBRANCH   3   4
ENDBRANCH   2   3
ENDBRANCH   1   2
BRANCH   1  27
ATOM     27  N   UNL A   1      35.519  31.257  29.863  1.00  0.00    -0.352 N 
ATOM     28  C   UNL A   1      36.333  30.401  30.566  1.00  0.00     0.251 C 
ATOM     29  H   UNL A   1      34.767  31.622  30.382  1.00  0.00     0.163 HD
ATOM     30  O   UNL A   1      35.951  29.982  31.658  1.00  0.00    -0.269 OA
BRANCH  28  31
ATOM     31  C   UNL A   1      37.646  29.969  30.034  1.00  0.00     0.039 A 
ATOM     32  C   UNL A   1      38.629  29.441  30.873  1.00  0.00     0.014 A 
ATOM     33  C   UNL A   1      37.876  30.032  28.654  1.00  0.00     0.014 A 
ATOM     34  C   UNL A   1      39.883  29.119  30.358  1.00  0.00     0.010 A 
ATOM     35  C   UNL A   1      39.112  29.638  28.127  1.00  0.00     0.010 A 
ATOM     36  C   UNL A   1      40.142  29.218  28.980  1.00  0.00    -0.014 A 
BRANCH  36  37
ATOM     37  C   UNL A   1      41.500  28.884  28.473  1.00  0.00     0.031 A 
ATOM     38  C   UNL A   1      42.625  29.880  28.577  1.00  0.00     0.074 A 
ATOM     39  C   UNL A   1      41.745  27.645  28.004  1.00  0.00     0.049 A 
ATOM     40  N   UNL A   1      43.890  29.728  28.275  1.00  0.00    -0.248 NA
ATOM     41  C   UNL A   1      42.289  31.219  29.084  1.00  0.00     0.031 C 
ATOM     42  C   UNL A   1      40.741  26.588  27.857  1.00  0.00     0.029 A 
ATOM     43  N   UNL A   1      42.916  27.046  27.614  1.00  0.00    -0.354 N 
ATOM     44  C   UNL A   1      44.496  30.950  28.543  1.00  0.00     0.074 A 
ATOM     45  C   UNL A   1      43.456  31.843  29.005  1.00  0.00     0.031 C 
ATOM     46  C   UNL A   1      41.352  25.450  27.494  1.00  0.00     0.029 A 
ATOM     47  C   UNL A   1      42.781  25.706  27.335  1.00  0.00     0.049 A 
ATOM     48  H   UNL A   1      43.771  27.529  27.539  1.00  0.00     0.167 HD
ATOM     49  C   UNL A   1      45.802  31.294  28.428  1.00  0.00     0.037 A 
ATOM     50  C   UNL A   1      43.703  24.782  27.004  1.00  0.00     0.037 A 
ATOM     51  C   UNL A   1      46.842  30.403  27.989  1.00  0.00     0.049 A 
ATOM     52  C   UNL A   1      45.140  25.190  26.868  1.00  0.00     0.074 A 
ATOM     53  C   UNL A   1      48.194  30.663  27.836  1.00  0.00     0.029 A 
ATOM     54  N   UNL A   1      46.651  29.074  27.642  1.00  0.00    -0.354 N 
ATOM     55  N   UNL A   1      45.687  26.358  27.099  1.00  0.00    -0.248 NA
ATOM     56  C   UNL A   1      46.081  24.161  26.403  1.00  0.00     0.031 C 
ATOM     57  C   UNL A   1      48.815  29.496  27.378  1.00  0.00     0.029 A 
ATOM     58  C   UNL A   1      47.855  28.503  27.267  1.00  0.00     0.049 A 
ATOM     59  H   UNL A   1      45.785  28.606  27.659  1.00  0.00     0.167 HD
ATOM     60  C   UNL A   1      47.035  26.209  26.800  1.00  0.00     0.074 A 
ATOM     61  C   UNL A   1      47.226  24.832  26.392  1.00  0.00     0.031 C 
ATOM     62  C   UNL A   1      48.023  27.136  26.847  1.00  0.00     0.037 A 
BRANCH  49  63
ATOM     63  C   UNL A   1      46.173  32.705  28.781  1.00  0.00     0.058 A 
ATOM     64  C   UNL A   1      46.161  33.726  27.818  1.00  0.00     0.135 A 
ATOM     65  C   UNL A   1      46.530  33.044  30.095  1.00  0.00     0.135 A 
ATOM     66  F   UNL A   1      45.845  33.449  26.543  1.00  0.00    -0.206 F 
ATOM     67  C   UNL A   1      46.517  35.031  28.140  1.00  0.00     0.059 A 
ATOM     68  C   UNL A   1      46.874  34.347  30.444  1.00  0.00     0.059 A 
ATOM     69  F   UNL A   1      46.559  32.102  31.052  1.00  0.00    -0.206 F 
ATOM     70  C   UNL A   1      46.880  35.330  29.455  1.00  0.00     0.060 A 
BRANCH  70  71
ATOM     71  S   UNL A   1      47.360  37.024  29.854  1.00  0.00     0.124 S 
ATOM     72  O   UNL A   1      46.740  37.764  28.758  1.00  0.00    -0.237 OA
ATOM     73  O   UNL A   1      46.761  37.221  31.168  1.00  0.00    -0.237 OA
ATOM     74  O   UNL A   1      48.820  36.976  29.833  1.00  0.00    -0.744 OA
ENDBRANCH  70  71
ENDBRANCH  49  63
BRANCH  50  75
ATOM     75  C   UNL A   1      43.284  23.371  26.808  1.00  0.00     0.058 A 
ATOM     76  C   UNL A   1      43.226  22.817  25.521  1.00  0.00     0.135 A 
ATOM     77  C   UNL A   1      42.996  22.537  27.898  1.00  0.00     0.135 A 
ATOM     78  F   UNL A   1      43.488  23.580  24.449  1.00  0.00    -0.206 F 
ATOM     79  C   UNL A   1      42.909  21.478  25.321  1.00  0.00     0.059 A 
ATOM     80  C   UNL A   1      42.693  21.191  27.725  1.00  0.00     0.059 A 
ATOM     81  F   UNL A   1      43.051  23.022  29.148  1.00  0.00    -0.206 F 
ATOM     82  C   UNL A   1      42.652  20.670  26.431  1.00  0.00     0.060 A 
BRANCH  82  83
ATOM     83  S   UNL A   1      42.341  18.909  26.173  1.00  0.00     0.124 S 
ATOM     84  O   UNL A   1      42.609  18.367  27.499  1.00  0.00    -0.237 OA
ATOM     85  O   UNL A   1      40.943  18.900  25.749  1.00  0.00    -0.237 OA
ATOM     86  O   UNL A   1      43.303  18.551  25.135  1.00  0.00    -0.744 OA
ENDBRANCH  82  83
ENDBRANCH  50  75
BRANCH  62  87
ATOM     87  C   UNL A   1      49.395  26.699  26.428  1.00  0.00     0.058 A 
ATOM     88  C   UNL A   1      50.256  26.062  27.334  1.00  0.00     0.135 A 
ATOM     89  C   UNL A   1      49.828  26.860  25.104  1.00  0.00     0.135 A 
ATOM     90  F   UNL A   1      49.887  25.891  28.613  1.00  0.00    -0.206 F 
ATOM     91  C   UNL A   1      51.508  25.603  26.940  1.00  0.00     0.059 A 
ATOM     92  C   UNL A   1      51.071  26.397  24.686  1.00  0.00     0.059 A 
ATOM     93  F   UNL A   1      49.036  27.461  24.202  1.00  0.00    -0.206 F 
ATOM     94  C   UNL A   1      51.907  25.774  25.613  1.00  0.00     0.060 A 
BRANCH  94  95
ATOM     95  S   UNL A   1      53.516  25.133  25.102  1.00  0.00     0.124 S 
ATOM     96  O   UNL A   1      53.329  23.697  25.277  1.00  0.00    -0.237 OA
ATOM     97  O   UNL A   1      53.614  25.596  23.720  1.00  0.00    -0.237 OA
ATOM     98  O   UNL A   1      54.444  25.766  26.035  1.00  0.00    -0.744 OA
ENDBRANCH  94  95
ENDBRANCH  62  87
ENDBRANCH  36  37
ENDBRANCH  28  31
ENDBRANCH   1  27
TORSDOF 14
ENDMDL
MODEL 3
REMARK VINA RESULT:     -13.4      1.253      2.408
REMARK SMILES CCN1C(=O)c2ccccc2[S@@](=O)c2ccc(C(=O)NCCCNC(=O)c3ccc(-c4c5nc(c(-c6c(F)cc(S(=O)(=O)[O-])cc6F)c6ccc([nH]6)c(-c6c(F)cc(S(=O)(=O)[O-])cc6F)c6nc(c(-c7c(F)cc(S(=O)(=O)[O-])cc7F)c7ccc4[nH]7)C=C6)C=C5)cc3)cc21
REMARK SMILES IDX 23 1 22 2 21 3 20 4 18 5 19 6 17 8 3 9 4 10 94 11 5 12 6 13
REMARK SMILES IDX 14 14 93 15 7 16 11 17 12 18 15 19 8 20 10 21 13 22 16 23
REMARK SMILES IDX 9 24 2 25 1 26 24 27 25 28 26 30 27 31 28 32 92 33 29 34
REMARK SMILES IDX 91 35 30 36 31 37 32 38 85 39 33 40 90 41 84 42 86 43 34 44
REMARK SMILES IDX 89 45 83 46 82 47 35 49 69 50 48 51 68 52 49 53 52 54 67 55
REMARK SMILES IDX 87 56 50 57 51 58 66 60 88 61 53 62 36 63 37 64 46 65 38 66
REMARK SMILES IDX 39 67 45 68 47 69 40 70 41 71 42 72 43 73 44 74 70 75 71 76
REMARK SMILES IDX 80 77 72 78 73 79 79 80 81 81 74 82 75 83 76 84 77 85 78 86
REMARK SMILES IDX 54 87 55 88 64 89 56 90 57 91 63 92 65 93 58 94 59 95 60 96
REMARK SMILES IDX 61 97 62 98
REMARK H PARENT 20 7 24 29 86 48 52 59
REMARK Flexibility Score: inf
ROOT
ATOM      1  C   UNL A   1      39.155  23.379  26.860  1.00  0.00     0.118 C 
ENDROOT
BRANCH   1   2
ATOM      2  C   UNL A   1      37.899  23.838  26.115  1.00  0.00     0.042 C 
BRANCH   2   3
ATOM      3  C   UNL A   1      37.055  22.678  25.584  1.00  0.00     0.118 C 
BRANCH   3   4
ATOM      4  N   UNL A   1      35.827  22.516  26.344  1.00  0.00    -0.352 N 
ATOM      5  C   UNL A   1      34.614  23.150  26.388  1.00  0.00     0.251 C 
ATOM      6  O   UNL A   1      33.798  22.685  27.190  1.00  0.00    -0.269 OA
ATOM      7  H   UNL A   1      35.880  21.769  26.983  1.00  0.00     0.163 HD
BRANCH   5   8
ATOM      8  C   UNL A   1      34.186  24.310  25.540  1.00  0.00     0.041 A 
ATOM      9  N   UNL A   1      33.201  27.958  25.769  1.00  0.00    -0.307 N 
ATOM     10  C   UNL A   1      32.840  29.140  25.106  1.00  0.00     0.259 C 
ATOM     11  C   UNL A   1      33.504  26.681  25.150  1.00  0.00     0.061 A 
ATOM     12  O   UNL A   1      33.125  30.267  25.511  1.00  0.00    -0.269 OA
ATOM     13  C   UNL A   1      31.773  29.046  24.100  1.00  0.00     0.056 A 
ATOM     14  C   UNL A   1      33.585  26.445  23.761  1.00  0.00     0.068 A 
ATOM     15  C   UNL A   1      33.809  25.576  26.000  1.00  0.00     0.041 A 
ATOM     16  C   UNL A   1      30.563  29.692  24.400  1.00  0.00     0.015 A 
ATOM     17  C   UNL A   1      31.930  28.354  22.911  1.00  0.00     0.057 A 
ATOM     18  S   UNL A   1      33.501  27.668  22.432  1.00  0.00     0.088 S 
ATOM     19  C   UNL A   1      33.876  25.148  23.290  1.00  0.00     0.021 A 
ATOM     20  C   UNL A   1      29.492  29.616  23.515  1.00  0.00     0.001 A 
ATOM     21  C   UNL A   1      30.845  28.278  22.023  1.00  0.00     0.019 A 
ATOM     22  O   UNL A   1      34.539  28.694  22.772  1.00  0.00    -0.249 OA
ATOM     23  C   UNL A   1      34.171  24.102  24.162  1.00  0.00     0.015 A 
ATOM     24  C   UNL A   1      29.630  28.900  22.330  1.00  0.00     0.001 A 
BRANCH   9  25
ATOM     25  C   UNL A   1      33.167  28.092  27.233  1.00  0.00     0.122 C 
ATOM     26  C   UNL A   1      31.728  28.172  27.750  1.00  0.00     0.028 C 
ENDBRANCH   9  25
ENDBRANCH   5   8
ENDBRANCH   3   4
ENDBRANCH   2   3
ENDBRANCH   1   2
BRANCH   1  27
ATOM     27  N   UNL A   1      40.379  23.813  26.196  1.00  0.00    -0.352 N 
ATOM     28  C   UNL A   1      41.112  24.969  26.322  1.00  0.00     0.251 C 
ATOM     29  H   UNL A   1      40.742  23.169  25.546  1.00  0.00     0.163 HD
ATOM     30  O   UNL A   1      41.983  25.214  25.487  1.00  0.00    -0.269 OA
BRANCH  28  31
ATOM     31  C   UNL A   1      40.870  25.922  27.429  1.00  0.00     0.039 A 
ATOM     32  C   UNL A   1      41.554  27.137  27.501  1.00  0.00     0.014 A 
ATOM     33  C   UNL A   1      39.887  25.625  28.382  1.00  0.00     0.014 A 
ATOM     34  C   UNL A   1      41.365  27.977  28.597  1.00  0.00     0.010 A 
ATOM     35  C   UNL A   1      39.645  26.506  29.443  1.00  0.00     0.010 A 
ATOM     36  C   UNL A   1      40.412  27.670  29.584  1.00  0.00    -0.014 A 
BRANCH  36  37
ATOM     37  C   UNL A   1      40.255  28.583  30.748  1.00  0.00     0.031 A 
ATOM     38  C   UNL A   1      41.252  28.567  31.876  1.00  0.00     0.074 A 
ATOM     39  C   UNL A   1      39.264  29.497  30.743  1.00  0.00     0.049 A 
ATOM     40  N   UNL A   1      41.327  29.353  32.921  1.00  0.00    -0.248 NA
ATOM     41  C   UNL A   1      42.301  27.537  31.829  1.00  0.00     0.031 C 
ATOM     42  C   UNL A   1      38.237  29.617  29.706  1.00  0.00     0.029 A 
ATOM     43  N   UNL A   1      38.986  30.526  31.606  1.00  0.00    -0.354 N 
ATOM     44  C   UNL A   1      42.417  28.906  33.658  1.00  0.00     0.074 A 
ATOM     45  C   UNL A   1      42.959  27.763  32.957  1.00  0.00     0.031 C 
ATOM     46  C   UNL A   1      37.498  30.712  29.945  1.00  0.00     0.029 A 
ATOM     47  C   UNL A   1      37.966  31.342  31.177  1.00  0.00     0.049 A 
ATOM     48  H   UNL A   1      39.471  30.668  32.452  1.00  0.00     0.167 HD
ATOM     49  C   UNL A   1      42.930  29.411  34.806  1.00  0.00     0.037 A 
ATOM     50  C   UNL A   1      37.469  32.477  31.705  1.00  0.00     0.037 A 
ATOM     51  C   UNL A   1      42.408  30.561  35.495  1.00  0.00     0.049 A 
ATOM     52  C   UNL A   1      38.044  33.008  32.985  1.00  0.00     0.074 A 
ATOM     53  C   UNL A   1      42.858  31.142  36.668  1.00  0.00     0.029 A 
ATOM     54  N   UNL A   1      41.323  31.312  35.068  1.00  0.00    -0.354 N 
ATOM     55  N   UNL A   1      39.057  32.554  33.680  1.00  0.00    -0.248 NA
ATOM     56  C   UNL A   1      37.391  34.190  33.565  1.00  0.00     0.031 C 
ATOM     57  C   UNL A   1      42.033  32.235  36.959  1.00  0.00     0.029 A 
ATOM     58  C   UNL A   1      41.083  32.346  35.957  1.00  0.00     0.049 A 
ATOM     59  H   UNL A   1      40.801  31.136  34.253  1.00  0.00     0.167 HD
ATOM     60  C   UNL A   1      39.161  33.388  34.786  1.00  0.00     0.074 A 
ATOM     61  C   UNL A   1      38.121  34.389  34.656  1.00  0.00     0.031 C 
ATOM     62  C   UNL A   1      40.033  33.322  35.821  1.00  0.00     0.037 A 
BRANCH  49  63
ATOM     63  C   UNL A   1      44.122  28.710  35.392  1.00  0.00     0.058 A 
ATOM     64  C   UNL A   1      45.430  29.070  35.031  1.00  0.00     0.135 A 
ATOM     65  C   UNL A   1      43.957  27.681  36.331  1.00  0.00     0.135 A 
ATOM     66  F   UNL A   1      45.639  30.035  34.123  1.00  0.00    -0.206 F 
ATOM     67  C   UNL A   1      46.535  28.414  35.562  1.00  0.00     0.059 A 
ATOM     68  C   UNL A   1      45.049  27.021  36.889  1.00  0.00     0.059 A 
ATOM     69  F   UNL A   1      42.726  27.299  36.707  1.00  0.00    -0.206 F 
ATOM     70  C   UNL A   1      46.334  27.385  36.485  1.00  0.00     0.060 A 
BRANCH  70  71
ATOM     71  S   UNL A   1      47.777  26.528  37.151  1.00  0.00     0.124 S 
ATOM     72  O   UNL A   1      47.732  26.936  38.552  1.00  0.00    -0.237 OA
ATOM     73  O   UNL A   1      47.463  25.129  36.888  1.00  0.00    -0.237 OA
ATOM     74  O   UNL A   1      48.885  27.077  36.373  1.00  0.00    -0.744 OA
ENDBRANCH  70  71
ENDBRANCH  49  63
BRANCH  50  75
ATOM     75  C   UNL A   1      36.382  33.197  30.995  1.00  0.00     0.058 A 
ATOM     76  C   UNL A   1      35.075  33.192  31.501  1.00  0.00     0.135 A 
ATOM     77  C   UNL A   1      36.639  33.951  29.840  1.00  0.00     0.135 A 
ATOM     78  F   UNL A   1      34.783  32.480  32.600  1.00  0.00    -0.206 F 
ATOM     79  C   UNL A   1      34.059  33.922  30.893  1.00  0.00     0.059 A 
ATOM     80  C   UNL A   1      35.644  34.701  29.224  1.00  0.00     0.059 A 
ATOM     81  F   UNL A   1      37.879  33.993  29.328  1.00  0.00    -0.206 F 
ATOM     82  C   UNL A   1      34.355  34.681  29.759  1.00  0.00     0.060 A 
BRANCH  82  83
ATOM     83  S   UNL A   1      33.056  35.705  29.033  1.00  0.00     0.124 S 
ATOM     84  O   UNL A   1      32.380  34.749  28.165  1.00  0.00    -0.237 OA
ATOM     85  O   UNL A   1      32.310  36.140  30.210  1.00  0.00    -0.237 OA
ATOM     86  O   UNL A   1      33.806  36.758  28.353  1.00  0.00    -0.744 OA
ENDBRANCH  82  83
ENDBRANCH  50  75
BRANCH  62  87
ATOM     87  C   UNL A   1      39.888  34.346  36.907  1.00  0.00     0.058 A 
ATOM     88  C   UNL A   1      40.498  35.605  36.797  1.00  0.00     0.135 A 
ATOM     89  C   UNL A   1      39.089  34.094  38.031  1.00  0.00     0.135 A 
ATOM     90  F   UNL A   1      41.278  35.889  35.741  1.00  0.00    -0.206 F 
ATOM     91  C   UNL A   1      40.324  36.581  37.772  1.00  0.00     0.059 A 
ATOM     92  C   UNL A   1      38.890  35.061  39.011  1.00  0.00     0.059 A 
ATOM     93  F   UNL A   1      38.482  32.906  38.177  1.00  0.00    -0.206 F 
ATOM     94  C   UNL A   1      39.517  36.300  38.876  1.00  0.00     0.060 A 
BRANCH  94  95
ATOM     95  S   UNL A   1      39.260  37.590  40.113  1.00  0.00     0.124 S 
ATOM     96  O   UNL A   1      38.894  36.804  41.286  1.00  0.00    -0.237 OA
ATOM     97  O   UNL A   1      40.567  38.240  40.167  1.00  0.00    -0.237 OA
ATOM     98  O   UNL A   1      38.189  38.400  39.538  1.00  0.00    -0.744 OA
ENDBRANCH  94  95
ENDBRANCH  62  87
ENDBRANCH  36  37
ENDBRANCH  28  31
ENDBRANCH   1  27
TORSDOF 14
ENDMDL
