MODEL 1
REMARK VINA RESULT:     -10.8      0.000      0.000
REMARK SMILES O=C(NCCCNC(=O)[C@H]1CC[C@@H]([NH+]2CCCC2)CC1)c1ccc(-c2c3nc(c(-c4c(F)cc(S(=O)(=O)[O-])cc4F)c4ccc([nH]4)c(-c4c(F)cc(S(=O)(=O)[O-])cc4F)c4nc(c(-c5c(F)cc(S(=O)(=O)[O-])cc5F)c5ccc2[nH]5)C=C4)C=C3)cc1
REMARK SMILES IDX 4 1 3 2 1 3 2 4 21 6 22 7 86 8 23 9 85 10 24 11 25 12 26 13
REMARK SMILES IDX 79 14 27 15 84 16 78 17 80 18 28 19 83 20 77 21 76 22 29 24
REMARK SMILES IDX 63 25 42 26 62 27 43 28 46 29 61 30 81 31 44 32 45 33 60 35
REMARK SMILES IDX 82 36 47 37 30 38 31 39 40 40 32 41 33 42 39 43 41 44 34 45
REMARK SMILES IDX 35 46 36 47 37 48 38 49 64 50 65 51 74 52 66 53 67 54 73 55
REMARK SMILES IDX 75 56 68 57 69 58 70 59 71 60 72 61 48 62 49 63 58 64 50 65
REMARK SMILES IDX 51 66 57 67 59 68 52 69 53 70 54 71 55 72 56 73 5 74 6 75
REMARK SMILES IDX 7 76 8 77 9 79 10 80 11 81 20 82 12 83 19 84 13 85 14 86
REMARK SMILES IDX 15 87 18 88 16 90 17 91
REMARK H PARENT 3 5 80 23 46 34 7 78 14 89
REMARK Flexibility Score: inf
ROOT
ATOM      1  C   UNL A   1      34.072  28.553  26.345  1.00  0.00     0.118 C 
ENDROOT
BRANCH   1   2
ATOM      2  N   UNL A   1      33.842  29.847  26.979  1.00  0.00    -0.352 N 
ATOM      3  O   UNL A   1      34.058  31.435  28.551  1.00  0.00    -0.269 OA
ATOM      4  C   UNL A   1      34.572  30.504  27.938  1.00  0.00     0.251 C 
ATOM      5  H   UNL A   1      33.038  30.322  26.670  1.00  0.00     0.163 HD
BRANCH   4   6
ATOM      6  C   UNL A   1      35.963  30.096  28.229  1.00  0.00     0.039 A 
ATOM      7  C   UNL A   1      36.957  30.216  27.255  1.00  0.00     0.014 A 
ATOM      8  C   UNL A   1      36.290  29.645  29.510  1.00  0.00     0.014 A 
ATOM      9  C   UNL A   1      38.240  29.751  27.509  1.00  0.00     0.010 A 
ATOM     10  C   UNL A   1      37.606  29.274  29.796  1.00  0.00     0.010 A 
ATOM     11  C   UNL A   1      38.585  29.304  28.791  1.00  0.00    -0.014 A 
BRANCH  11  12
ATOM     12  C   UNL A   1      39.991  28.943  29.091  1.00  0.00     0.031 A 
ATOM     13  C   UNL A   1      40.933  29.952  29.675  1.00  0.00     0.074 A 
ATOM     14  C   UNL A   1      40.413  27.696  28.804  1.00  0.00     0.049 A 
ATOM     15  N   UNL A   1      42.214  29.843  29.912  1.00  0.00    -0.248 NA
ATOM     16  C   UNL A   1      40.365  31.262  30.030  1.00  0.00     0.031 C 
ATOM     17  C   UNL A   1      39.577  26.635  28.234  1.00  0.00     0.029 A 
ATOM     18  N   UNL A   1      41.645  27.110  28.939  1.00  0.00    -0.354 N 
ATOM     19  C   UNL A   1      42.615  31.076  30.413  1.00  0.00     0.074 A 
ATOM     20  C   UNL A   1      41.442  31.924  30.429  1.00  0.00     0.031 C 
ATOM     21  C   UNL A   1      40.316  25.528  28.079  1.00  0.00     0.029 A 
ATOM     22  C   UNL A   1      41.690  25.820  28.468  1.00  0.00     0.049 A 
ATOM     23  H   UNL A   1      42.421  27.570  29.334  1.00  0.00     0.167 HD
ATOM     24  C   UNL A   1      43.850  31.458  30.818  1.00  0.00     0.037 A 
ATOM     25  C   UNL A   1      42.728  24.975  28.324  1.00  0.00     0.037 A 
ATOM     26  C   UNL A   1      45.002  30.594  30.795  1.00  0.00     0.049 A 
ATOM     27  C   UNL A   1      44.092  25.427  28.751  1.00  0.00     0.074 A 
ATOM     28  C   UNL A   1      46.293  30.868  31.212  1.00  0.00     0.029 A 
ATOM     29  N   UNL A   1      45.006  29.290  30.319  1.00  0.00    -0.354 N 
ATOM     30  N   UNL A   1      44.452  26.586  29.247  1.00  0.00    -0.248 NA
ATOM     31  C   UNL A   1      45.190  24.463  28.605  1.00  0.00     0.031 C 
ATOM     32  C   UNL A   1      47.086  29.748  30.942  1.00  0.00     0.029 A 
ATOM     33  C   UNL A   1      46.279  28.753  30.410  1.00  0.00     0.049 A 
ATOM     34  H   UNL A   1      44.218  28.815  29.968  1.00  0.00     0.167 HD
ATOM     35  C   UNL A   1      45.816  26.487  29.495  1.00  0.00     0.074 A 
ATOM     36  C   UNL A   1      46.215  25.152  29.093  1.00  0.00     0.031 C 
ATOM     37  C   UNL A   1      46.654  27.416  30.015  1.00  0.00     0.037 A 
BRANCH  24  38
ATOM     38  C   UNL A   1      44.020  32.882  31.273  1.00  0.00     0.058 A 
ATOM     39  C   UNL A   1      44.347  33.917  30.381  1.00  0.00     0.135 A 
ATOM     40  C   UNL A   1      43.860  33.218  32.629  1.00  0.00     0.135 A 
ATOM     41  F   UNL A   1      44.522  33.654  29.076  1.00  0.00    -0.206 F 
ATOM     42  C   UNL A   1      44.561  35.219  30.823  1.00  0.00     0.059 A 
ATOM     43  C   UNL A   1      44.040  34.520  33.087  1.00  0.00     0.059 A 
ATOM     44  F   UNL A   1      43.541  32.272  33.526  1.00  0.00    -0.206 F 
ATOM     45  C   UNL A   1      44.416  35.509  32.181  1.00  0.00     0.060 A 
BRANCH  45  46
ATOM     46  S   UNL A   1      44.747  37.191  32.747  1.00  0.00     0.124 S 
ATOM     47  O   UNL A   1      43.394  37.718  32.890  1.00  0.00    -0.237 OA
ATOM     48  O   UNL A   1      45.473  36.967  33.993  1.00  0.00    -0.237 OA
ATOM     49  O   UNL A   1      45.533  37.766  31.661  1.00  0.00    -0.744 OA
ENDBRANCH  45  46
ENDBRANCH  24  38
BRANCH  25  50
ATOM     50  C   UNL A   1      42.487  23.635  27.733  1.00  0.00     0.058 A 
ATOM     51  C   UNL A   1      42.506  23.441  26.346  1.00  0.00     0.135 A 
ATOM     52  C   UNL A   1      42.336  22.503  28.552  1.00  0.00     0.135 A 
ATOM     53  F   UNL A   1      42.645  24.491  25.523  1.00  0.00    -0.206 F 
ATOM     54  C   UNL A   1      42.398  22.170  25.789  1.00  0.00     0.059 A 
ATOM     55  C   UNL A   1      42.251  21.221  28.020  1.00  0.00     0.059 A 
ATOM     56  F   UNL A   1      42.333  22.636  29.888  1.00  0.00    -0.206 F 
ATOM     57  C   UNL A   1      42.285  21.064  26.636  1.00  0.00     0.060 A 
BRANCH  57  58
ATOM     58  S   UNL A   1      42.252  19.414  25.904  1.00  0.00     0.124 S 
ATOM     59  O   UNL A   1      42.745  18.594  27.006  1.00  0.00    -0.237 OA
ATOM     60  O   UNL A   1      40.840  19.255  25.570  1.00  0.00    -0.237 OA
ATOM     61  O   UNL A   1      43.148  19.536  24.758  1.00  0.00    -0.744 OA
ENDBRANCH  57  58
ENDBRANCH  25  50
BRANCH  37  62
ATOM     62  C   UNL A   1      48.087  27.016  30.229  1.00  0.00     0.058 A 
ATOM     63  C   UNL A   1      49.087  27.319  29.292  1.00  0.00     0.135 A 
ATOM     64  C   UNL A   1      48.474  26.411  31.436  1.00  0.00     0.135 A 
ATOM     65  F   UNL A   1      48.765  27.886  28.119  1.00  0.00    -0.206 F 
ATOM     66  C   UNL A   1      50.425  27.039  29.548  1.00  0.00     0.059 A 
ATOM     67  C   UNL A   1      49.808  26.145  31.721  1.00  0.00     0.059 A 
ATOM     68  F   UNL A   1      47.554  26.106  32.364  1.00  0.00    -0.206 F 
ATOM     69  C   UNL A   1      50.777  26.462  30.770  1.00  0.00     0.060 A 
BRANCH  69  70
ATOM     70  S   UNL A   1      52.525  26.184  31.125  1.00  0.00     0.124 S 
ATOM     71  O   UNL A   1      52.481  24.919  31.852  1.00  0.00    -0.237 OA
ATOM     72  O   UNL A   1      53.110  26.126  29.789  1.00  0.00    -0.237 OA
ATOM     73  O   UNL A   1      52.901  27.350  31.919  1.00  0.00    -0.744 OA
ENDBRANCH  69  70
ENDBRANCH  37  62
ENDBRANCH  11  12
ENDBRANCH   4   6
ENDBRANCH   1   2
BRANCH   1  74
ATOM     74  C   UNL A   1      33.878  28.625  24.838  1.00  0.00     0.042 C 
BRANCH  74  75
ATOM     75  C   UNL A   1      32.754  27.718  24.358  1.00  0.00     0.117 C 
BRANCH  75  76
ATOM     76  N   UNL A   1      33.104  27.015  23.134  1.00  0.00    -0.356 N 
ATOM     77  C   UNL A   1      33.508  25.757  22.835  1.00  0.00     0.223 C 
ATOM     78  H   UNL A   1      33.030  27.588  22.337  1.00  0.00     0.163 HD
ATOM     79  O   UNL A   1      33.805  25.568  21.647  1.00  0.00    -0.275 OA
BRANCH  77  80
ATOM     80  C   UNL A   1      33.487  24.554  23.788  1.00  0.00     0.079 C 
ATOM     81  C   UNL A   1      33.807  23.171  23.207  1.00  0.00     0.019 C 
ATOM     82  C   UNL A   1      34.193  24.967  25.093  1.00  0.00     0.019 C 
ATOM     83  C   UNL A   1      34.490  22.156  24.124  1.00  0.00     0.066 C 
ATOM     84  C   UNL A   1      34.614  23.810  25.985  1.00  0.00     0.066 C 
ATOM     85  C   UNL A   1      35.377  22.693  25.264  1.00  0.00     0.184 C 
BRANCH  85  86
ATOM     86  N   UNL A   1      36.785  22.921  24.888  1.00  0.00    -0.333 N 
ATOM     87  C   UNL A   1      37.554  21.698  24.636  1.00  0.00     0.262 C 
ATOM     88  C   UNL A   1      37.620  23.758  25.737  1.00  0.00     0.262 C 
ATOM     89  H   UNL A   1      36.600  23.450  24.036  1.00  0.00     0.348 HD
ATOM     90  C   UNL A   1      38.428  21.502  25.861  1.00  0.00     0.067 C 
ATOM     91  C   UNL A   1      38.760  22.913  26.285  1.00  0.00     0.067 C 
ENDBRANCH  85  86
ENDBRANCH  77  80
ENDBRANCH  75  76
ENDBRANCH  74  75
ENDBRANCH   1  74
TORSDOF 14
ENDMDL
MODEL 2
REMARK VINA RESULT:     -10.7      2.696      5.722
REMARK SMILES O=C(NCCCNC(=O)[C@H]1CC[C@@H]([NH+]2CCCC2)CC1)c1ccc(-c2c3nc(c(-c4c(F)cc(S(=O)(=O)[O-])cc4F)c4ccc([nH]4)c(-c4c(F)cc(S(=O)(=O)[O-])cc4F)c4nc(c(-c5c(F)cc(S(=O)(=O)[O-])cc5F)c5ccc2[nH]5)C=C4)C=C3)cc1
REMARK SMILES IDX 4 1 3 2 1 3 2 4 21 6 22 7 86 8 23 9 85 10 24 11 25 12 26 13
REMARK SMILES IDX 79 14 27 15 84 16 78 17 80 18 28 19 83 20 77 21 76 22 29 24
REMARK SMILES IDX 63 25 42 26 62 27 43 28 46 29 61 30 81 31 44 32 45 33 60 35
REMARK SMILES IDX 82 36 47 37 30 38 31 39 40 40 32 41 33 42 39 43 41 44 34 45
REMARK SMILES IDX 35 46 36 47 37 48 38 49 64 50 65 51 74 52 66 53 67 54 73 55
REMARK SMILES IDX 75 56 68 57 69 58 70 59 71 60 72 61 48 62 49 63 58 64 50 65
REMARK SMILES IDX 51 66 57 67 59 68 52 69 53 70 54 71 55 72 56 73 5 74 6 75
REMARK SMILES IDX 7 76 8 77 9 79 10 80 11 81 20 82 12 83 19 84 13 85 14 86
REMARK SMILES IDX 15 87 18 88 16 90 17 91
REMARK H PARENT 3 5 80 23 46 34 7 78 14 89
REMARK Flexibility Score: inf
ROOT
ATOM      1  C   UNL A   1      34.716  32.630  28.246  1.00  0.00     0.118 C 
ENDROOT
BRANCH   1   2
ATOM      2  N   UNL A   1      34.014  31.355  28.140  1.00  0.00    -0.352 N 
ATOM      3  O   UNL A   1      33.759  29.183  27.629  1.00  0.00    -0.269 OA
ATOM      4  C   UNL A   1      34.509  30.082  27.996  1.00  0.00     0.251 C 
ATOM      5  H   UNL A   1      33.033  31.417  28.177  1.00  0.00     0.163 HD
BRANCH   4   6
ATOM      6  C   UNL A   1      35.931  29.797  28.284  1.00  0.00     0.039 A 
ATOM      7  C   UNL A   1      36.325  29.349  29.546  1.00  0.00     0.014 A 
ATOM      8  C   UNL A   1      36.874  29.920  27.260  1.00  0.00     0.014 A 
ATOM      9  C   UNL A   1      37.671  29.165  29.831  1.00  0.00     0.010 A 
ATOM     10  C   UNL A   1      38.216  29.636  27.519  1.00  0.00     0.010 A 
ATOM     11  C   UNL A   1      38.628  29.278  28.813  1.00  0.00    -0.014 A 
BRANCH  11  12
ATOM     12  C   UNL A   1      40.044  28.944  29.093  1.00  0.00     0.031 A 
ATOM     13  C   UNL A   1      40.971  29.967  29.678  1.00  0.00     0.074 A 
ATOM     14  C   UNL A   1      40.489  27.709  28.788  1.00  0.00     0.049 A 
ATOM     15  N   UNL A   1      42.257  29.882  29.899  1.00  0.00    -0.248 NA
ATOM     16  C   UNL A   1      40.380  31.260  30.053  1.00  0.00     0.031 C 
ATOM     17  C   UNL A   1      39.669  26.637  28.217  1.00  0.00     0.029 A 
ATOM     18  N   UNL A   1      41.734  27.148  28.904  1.00  0.00    -0.354 N 
ATOM     19  C   UNL A   1      42.638  31.118  30.409  1.00  0.00     0.074 A 
ATOM     20  C   UNL A   1      41.448  31.940  30.448  1.00  0.00     0.031 C 
ATOM     21  C   UNL A   1      40.429  25.547  28.042  1.00  0.00     0.029 A 
ATOM     22  C   UNL A   1      41.801  25.864  28.419  1.00  0.00     0.049 A 
ATOM     23  H   UNL A   1      42.505  27.620  29.295  1.00  0.00     0.167 HD
ATOM     24  C   UNL A   1      43.869  31.522  30.805  1.00  0.00     0.037 A 
ATOM     25  C   UNL A   1      42.854  25.043  28.254  1.00  0.00     0.037 A 
ATOM     26  C   UNL A   1      45.039  30.682  30.760  1.00  0.00     0.049 A 
ATOM     27  C   UNL A   1      44.214  25.518  28.672  1.00  0.00     0.074 A 
ATOM     28  C   UNL A   1      46.328  30.979  31.166  1.00  0.00     0.029 A 
ATOM     29  N   UNL A   1      45.064  29.383  30.270  1.00  0.00    -0.354 N 
ATOM     30  N   UNL A   1      44.555  26.680  29.176  1.00  0.00    -0.248 NA
ATOM     31  C   UNL A   1      45.330  24.580  28.503  1.00  0.00     0.031 C 
ATOM     32  C   UNL A   1      47.141  29.878  30.875  1.00  0.00     0.029 A 
ATOM     33  C   UNL A   1      46.349  28.873  30.342  1.00  0.00     0.049 A 
ATOM     34  H   UNL A   1      44.282  28.896  29.922  1.00  0.00     0.167 HD
ATOM     35  C   UNL A   1      45.923  26.607  29.408  1.00  0.00     0.074 A 
ATOM     36  C   UNL A   1      46.345  25.285  28.987  1.00  0.00     0.031 C 
ATOM     37  C   UNL A   1      46.748  27.548  29.928  1.00  0.00     0.037 A 
BRANCH  24  38
ATOM     38  C   UNL A   1      44.014  32.944  31.273  1.00  0.00     0.058 A 
ATOM     39  C   UNL A   1      43.927  33.295  32.631  1.00  0.00     0.135 A 
ATOM     40  C   UNL A   1      44.238  33.977  30.347  1.00  0.00     0.135 A 
ATOM     41  F   UNL A   1      43.704  32.352  33.560  1.00  0.00    -0.206 F 
ATOM     42  C   UNL A   1      44.002  34.622  33.046  1.00  0.00     0.059 A 
ATOM     43  C   UNL A   1      44.346  35.307  30.744  1.00  0.00     0.059 A 
ATOM     44  F   UNL A   1      44.336  33.701  29.037  1.00  0.00    -0.206 F 
ATOM     45  C   UNL A   1      44.201  35.622  32.093  1.00  0.00     0.060 A 
BRANCH  45  46
ATOM     46  S   UNL A   1      44.245  37.342  32.640  1.00  0.00     0.124 S 
ATOM     47  O   UNL A   1      43.088  37.391  33.529  1.00  0.00    -0.237 OA
ATOM     48  O   UNL A   1      45.547  37.433  33.291  1.00  0.00    -0.237 OA
ATOM     49  O   UNL A   1      44.113  38.097  31.399  1.00  0.00    -0.744 OA
ENDBRANCH  45  46
ENDBRANCH  24  38
BRANCH  25  50
ATOM     50  C   UNL A   1      42.635  23.704  27.652  1.00  0.00     0.058 A 
ATOM     51  C   UNL A   1      42.719  23.511  26.267  1.00  0.00     0.135 A 
ATOM     52  C   UNL A   1      42.440  22.573  28.462  1.00  0.00     0.135 A 
ATOM     53  F   UNL A   1      42.901  24.560  25.452  1.00  0.00    -0.206 F 
ATOM     54  C   UNL A   1      42.630  22.240  25.705  1.00  0.00     0.059 A 
ATOM     55  C   UNL A   1      42.374  21.291  27.926  1.00  0.00     0.059 A 
ATOM     56  F   UNL A   1      42.375  22.705  29.797  1.00  0.00    -0.206 F 
ATOM     57  C   UNL A   1      42.472  21.135  26.545  1.00  0.00     0.060 A 
BRANCH  57  58
ATOM     58  S   UNL A   1      42.466  19.485  25.812  1.00  0.00     0.124 S 
ATOM     59  O   UNL A   1      43.418  19.645  24.718  1.00  0.00    -0.237 OA
ATOM     60  O   UNL A   1      42.907  18.652  26.927  1.00  0.00    -0.237 OA
ATOM     61  O   UNL A   1      41.073  19.298  25.415  1.00  0.00    -0.744 OA
ENDBRANCH  57  58
ENDBRANCH  25  50
BRANCH  37  62
ATOM     62  C   UNL A   1      48.190  27.176  30.122  1.00  0.00     0.058 A 
ATOM     63  C   UNL A   1      49.161  27.446  29.146  1.00  0.00     0.135 A 
ATOM     64  C   UNL A   1      48.618  26.634  31.345  1.00  0.00     0.135 A 
ATOM     65  F   UNL A   1      48.802  27.953  27.956  1.00  0.00    -0.206 F 
ATOM     66  C   UNL A   1      50.510  27.195  29.379  1.00  0.00     0.059 A 
ATOM     67  C   UNL A   1      49.962  26.397  31.607  1.00  0.00     0.059 A 
ATOM     68  F   UNL A   1      47.726  26.361  32.311  1.00  0.00    -0.206 F 
ATOM     69  C   UNL A   1      50.901  26.681  30.616  1.00  0.00     0.060 A 
BRANCH  69  70
ATOM     70  S   UNL A   1      52.661  26.441  30.937  1.00  0.00     0.124 S 
ATOM     71  O   UNL A   1      52.997  27.659  31.667  1.00  0.00    -0.237 OA
ATOM     72  O   UNL A   1      52.671  25.209  31.720  1.00  0.00    -0.237 OA
ATOM     73  O   UNL A   1      53.239  26.331  29.600  1.00  0.00    -0.744 OA
ENDBRANCH  69  70
ENDBRANCH  37  62
ENDBRANCH  11  12
ENDBRANCH   4   6
ENDBRANCH   1   2
BRANCH   1  74
ATOM     74  C   UNL A   1      33.758  33.806  28.136  1.00  0.00     0.042 C 
BRANCH  74  75
ATOM     75  C   UNL A   1      34.070  34.899  29.148  1.00  0.00     0.117 C 
BRANCH  75  76
ATOM     76  N   UNL A   1      33.706  34.511  30.502  1.00  0.00    -0.356 N 
ATOM     77  C   UNL A   1      34.366  33.969  31.553  1.00  0.00     0.223 C 
ATOM     78  H   UNL A   1      32.756  34.681  30.700  1.00  0.00     0.163 HD
ATOM     79  O   UNL A   1      33.662  33.693  32.534  1.00  0.00    -0.275 OA
BRANCH  77  80
ATOM     80  C   UNL A   1      35.889  33.812  31.675  1.00  0.00     0.079 C 
ATOM     81  C   UNL A   1      36.642  34.790  32.586  1.00  0.00     0.019 C 
ATOM     82  C   UNL A   1      36.204  32.311  31.816  1.00  0.00     0.019 C 
ATOM     83  C   UNL A   1      37.900  34.280  33.290  1.00  0.00     0.066 C 
ATOM     84  C   UNL A   1      37.596  31.996  32.338  1.00  0.00     0.066 C 
ATOM     85  C   UNL A   1      37.997  32.773  33.596  1.00  0.00     0.184 C 
BRANCH  85  86
ATOM     86  N   UNL A   1      37.416  32.374  34.893  1.00  0.00    -0.333 N 
ATOM     87  C   UNL A   1      37.125  33.490  35.799  1.00  0.00     0.262 C 
ATOM     88  C   UNL A   1      38.094  31.367  35.695  1.00  0.00     0.262 C 
ATOM     89  H   UNL A   1      36.571  31.942  34.521  1.00  0.00     0.348 HD
ATOM     90  C   UNL A   1      38.225  33.470  36.844  1.00  0.00     0.067 C 
ATOM     91  C   UNL A   1      38.522  31.998  37.011  1.00  0.00     0.067 C 
ENDBRANCH  85  86
ENDBRANCH  77  80
ENDBRANCH  75  76
ENDBRANCH  74  75
ENDBRANCH   1  74
TORSDOF 14
ENDMDL
MODEL 3
REMARK VINA RESULT:     -10.7      1.530      2.187
REMARK SMILES O=C(NCCCNC(=O)[C@H]1CC[C@@H]([NH+]2CCCC2)CC1)c1ccc(-c2c3nc(c(-c4c(F)cc(S(=O)(=O)[O-])cc4F)c4ccc([nH]4)c(-c4c(F)cc(S(=O)(=O)[O-])cc4F)c4nc(c(-c5c(F)cc(S(=O)(=O)[O-])cc5F)c5ccc2[nH]5)C=C4)C=C3)cc1
REMARK SMILES IDX 4 1 3 2 1 3 2 4 21 6 22 7 86 8 23 9 85 10 24 11 25 12 26 13
REMARK SMILES IDX 79 14 27 15 84 16 78 17 80 18 28 19 83 20 77 21 76 22 29 24
REMARK SMILES IDX 63 25 42 26 62 27 43 28 46 29 61 30 81 31 44 32 45 33 60 35
REMARK SMILES IDX 82 36 47 37 30 38 31 39 40 40 32 41 33 42 39 43 41 44 34 45
REMARK SMILES IDX 35 46 36 47 37 48 38 49 64 50 65 51 74 52 66 53 67 54 73 55
REMARK SMILES IDX 75 56 68 57 69 58 70 59 71 60 72 61 48 62 49 63 58 64 50 65
REMARK SMILES IDX 51 66 57 67 59 68 52 69 53 70 54 71 55 72 56 73 5 74 6 75
REMARK SMILES IDX 7 76 8 77 9 79 10 80 11 81 20 82 12 83 19 84 13 85 14 86
REMARK SMILES IDX 15 87 18 88 16 90 17 91
REMARK H PARENT 3 5 80 23 46 34 7 78 14 89
REMARK Flexibility Score: inf
ROOT
ATOM      1  C   UNL A   1      33.720  28.230  26.983  1.00  0.00     0.118 C 
ENDROOT
BRANCH   1   2
ATOM      2  N   UNL A   1      33.592  29.653  27.279  1.00  0.00    -0.352 N 
ATOM      3  O   UNL A   1      34.005  31.574  28.365  1.00  0.00    -0.269 OA
ATOM      4  C   UNL A   1      34.429  30.491  27.973  1.00  0.00     0.251 C 
ATOM      5  H   UNL A   1      32.778  30.078  26.924  1.00  0.00     0.163 HD
BRANCH   4   6
ATOM      6  C   UNL A   1      35.827  30.094  28.245  1.00  0.00     0.039 A 
ATOM      7  C   UNL A   1      36.797  30.179  27.244  1.00  0.00     0.014 A 
ATOM      8  C   UNL A   1      36.185  29.689  29.533  1.00  0.00     0.014 A 
ATOM      9  C   UNL A   1      38.086  29.725  27.484  1.00  0.00     0.010 A 
ATOM     10  C   UNL A   1      37.507  29.329  29.801  1.00  0.00     0.010 A 
ATOM     11  C   UNL A   1      38.463  29.323  28.772  1.00  0.00    -0.014 A 
BRANCH  11  12
ATOM     12  C   UNL A   1      39.875  28.973  29.051  1.00  0.00     0.031 A 
ATOM     13  C   UNL A   1      40.822  29.995  29.608  1.00  0.00     0.074 A 
ATOM     14  C   UNL A   1      40.300  27.727  28.769  1.00  0.00     0.049 A 
ATOM     15  N   UNL A   1      42.108  29.896  29.823  1.00  0.00    -0.248 NA
ATOM     16  C   UNL A   1      40.252  31.305  29.959  1.00  0.00     0.031 C 
ATOM     17  C   UNL A   1      39.461  26.655  28.225  1.00  0.00     0.029 A 
ATOM     18  N   UNL A   1      41.537  27.150  28.888  1.00  0.00    -0.354 N 
ATOM     19  C   UNL A   1      42.510  31.136  30.304  1.00  0.00     0.074 A 
ATOM     20  C   UNL A   1      41.332  31.977  30.333  1.00  0.00     0.031 C 
ATOM     21  C   UNL A   1      40.203  25.551  28.068  1.00  0.00     0.029 A 
ATOM     22  C   UNL A   1      41.582  25.854  28.431  1.00  0.00     0.049 A 
ATOM     23  H   UNL A   1      42.318  27.618  29.265  1.00  0.00     0.167 HD
ATOM     24  C   UNL A   1      43.749  31.530  30.684  1.00  0.00     0.037 A 
ATOM     25  C   UNL A   1      42.623  25.015  28.276  1.00  0.00     0.037 A 
ATOM     26  C   UNL A   1      44.906  30.672  30.650  1.00  0.00     0.049 A 
ATOM     27  C   UNL A   1      43.991  25.478  28.675  1.00  0.00     0.074 A 
ATOM     28  C   UNL A   1      46.202  30.958  31.041  1.00  0.00     0.029 A 
ATOM     29  N   UNL A   1      44.909  29.363  30.187  1.00  0.00    -0.354 N 
ATOM     30  N   UNL A   1      44.353  26.645  29.153  1.00  0.00    -0.248 NA
ATOM     31  C   UNL A   1      45.092  24.520  28.519  1.00  0.00     0.031 C 
ATOM     32  C   UNL A   1      46.997  29.840  30.769  1.00  0.00     0.029 A 
ATOM     33  C   UNL A   1      46.187  28.835  30.261  1.00  0.00     0.049 A 
ATOM     34  H   UNL A   1      44.118  28.880  29.854  1.00  0.00     0.167 HD
ATOM     35  C   UNL A   1      45.722  26.557  29.378  1.00  0.00     0.074 A 
ATOM     36  C   UNL A   1      46.121  25.220  28.982  1.00  0.00     0.031 C 
ATOM     37  C   UNL A   1      46.563  27.496  29.873  1.00  0.00     0.037 A 
BRANCH  24  38
ATOM     38  C   UNL A   1      43.918  32.959  31.121  1.00  0.00     0.058 A 
ATOM     39  C   UNL A   1      44.141  33.999  30.203  1.00  0.00     0.135 A 
ATOM     40  C   UNL A   1      43.863  33.296  32.485  1.00  0.00     0.135 A 
ATOM     41  F   UNL A   1      44.214  33.736  28.889  1.00  0.00    -0.206 F 
ATOM     42  C   UNL A   1      44.356  35.309  30.624  1.00  0.00     0.059 A 
ATOM     43  C   UNL A   1      44.047  34.603  32.925  1.00  0.00     0.059 A 
ATOM     44  F   UNL A   1      43.647  32.345  33.407  1.00  0.00    -0.206 F 
ATOM     45  C   UNL A   1      44.318  35.598  31.989  1.00  0.00     0.060 A 
BRANCH  45  46
ATOM     46  S   UNL A   1      44.651  37.291  32.523  1.00  0.00     0.124 S 
ATOM     47  O   UNL A   1      43.344  37.693  33.036  1.00  0.00    -0.237 OA
ATOM     48  O   UNL A   1      45.693  37.106  33.527  1.00  0.00    -0.237 OA
ATOM     49  O   UNL A   1      45.075  37.958  31.297  1.00  0.00    -0.744 OA
ENDBRANCH  45  46
ENDBRANCH  24  38
BRANCH  25  50
ATOM     50  C   UNL A   1      42.379  23.667  27.704  1.00  0.00     0.058 A 
ATOM     51  C   UNL A   1      42.386  23.457  26.319  1.00  0.00     0.135 A 
ATOM     52  C   UNL A   1      42.240  22.544  28.538  1.00  0.00     0.135 A 
ATOM     53  F   UNL A   1      42.514  24.497  25.482  1.00  0.00    -0.206 F 
ATOM     54  C   UNL A   1      42.276  22.179  25.778  1.00  0.00     0.059 A 
ATOM     55  C   UNL A   1      42.153  21.256  28.022  1.00  0.00     0.059 A 
ATOM     56  F   UNL A   1      42.249  22.693  29.872  1.00  0.00    -0.206 F 
ATOM     57  C   UNL A   1      42.174  21.083  26.639  1.00  0.00     0.060 A 
BRANCH  57  58
ATOM     58  S   UNL A   1      42.139  19.424  25.927  1.00  0.00     0.124 S 
ATOM     59  O   UNL A   1      40.719  19.260  25.634  1.00  0.00    -0.237 OA
ATOM     60  O   UNL A   1      43.018  19.568  24.771  1.00  0.00    -0.237 OA
ATOM     61  O   UNL A   1      42.663  18.586  27.001  1.00  0.00    -0.744 OA
ENDBRANCH  57  58
ENDBRANCH  25  50
BRANCH  37  62
ATOM     62  C   UNL A   1      48.002  27.107  30.066  1.00  0.00     0.058 A 
ATOM     63  C   UNL A   1      49.000  27.495  29.160  1.00  0.00     0.135 A 
ATOM     64  C   UNL A   1      48.394  26.422  31.228  1.00  0.00     0.135 A 
ATOM     65  F   UNL A   1      48.675  28.141  28.029  1.00  0.00    -0.206 F 
ATOM     66  C   UNL A   1      50.342  27.221  29.403  1.00  0.00     0.059 A 
ATOM     67  C   UNL A   1      49.731  26.159  31.501  1.00  0.00     0.059 A 
ATOM     68  F   UNL A   1      47.475  26.033  32.125  1.00  0.00    -0.206 F 
ATOM     69  C   UNL A   1      50.699  26.562  30.582  1.00  0.00     0.060 A 
BRANCH  69  70
ATOM     70  S   UNL A   1      52.450  26.289  30.926  1.00  0.00     0.124 S 
ATOM     71  O   UNL A   1      52.831  27.556  31.542  1.00  0.00    -0.237 OA
ATOM     72  O   UNL A   1      52.416  25.135  31.819  1.00  0.00    -0.237 OA
ATOM     73  O   UNL A   1      53.021  26.036  29.606  1.00  0.00    -0.744 OA
ENDBRANCH  69  70
ENDBRANCH  37  62
ENDBRANCH  11  12
ENDBRANCH   4   6
ENDBRANCH   1   2
BRANCH   1  74
ATOM     74  C   UNL A   1      32.443  27.472  27.313  1.00  0.00     0.042 C 
BRANCH  74  75
ATOM     75  C   UNL A   1      32.069  26.474  26.227  1.00  0.00     0.117 C 
BRANCH  75  76
ATOM     76  N   UNL A   1      31.416  25.294  26.771  1.00  0.00    -0.356 N 
ATOM     77  C   UNL A   1      31.674  23.964  26.754  1.00  0.00     0.223 C 
ATOM     78  H   UNL A   1      30.594  25.513  27.267  1.00  0.00     0.163 HD
ATOM     79  O   UNL A   1      30.801  23.251  27.269  1.00  0.00    -0.275 OA
BRANCH  77  80
ATOM     80  C   UNL A   1      32.983  23.306  26.293  1.00  0.00     0.079 C 
ATOM     81  C   UNL A   1      33.552  22.165  27.146  1.00  0.00     0.019 C 
ATOM     82  C   UNL A   1      32.900  23.094  24.770  1.00  0.00     0.019 C 
ATOM     83  C   UNL A   1      34.338  21.067  26.429  1.00  0.00     0.066 C 
ATOM     84  C   UNL A   1      33.915  22.114  24.205  1.00  0.00     0.066 C 
ATOM     85  C   UNL A   1      33.997  20.779  24.954  1.00  0.00     0.184 C 
BRANCH  85  86
ATOM     86  N   UNL A   1      32.923  19.786  24.758  1.00  0.00    -0.333 N 
ATOM     87  C   UNL A   1      33.311  18.402  25.049  1.00  0.00     0.262 C 
ATOM     88  C   UNL A   1      32.213  19.750  23.488  1.00  0.00     0.262 C 
ATOM     89  H   UNL A   1      32.278  20.165  25.451  1.00  0.00     0.348 HD
ATOM     90  C   UNL A   1      33.500  17.735  23.699  1.00  0.00     0.067 C 
ATOM     91  C   UNL A   1      32.457  18.400  22.831  1.00  0.00     0.067 C 
ENDBRANCH  85  86
ENDBRANCH  77  80
ENDBRANCH  75  76
ENDBRANCH  74  75
ENDBRANCH   1  74
TORSDOF 14
ENDMDL
