MODEL 1
REMARK VINA RESULT:     -10.4      0.000      0.000
REMARK SMILES O=C(C[C@H](C(=O)OC[C@@H]1CCCO1)[NH+]1CCOCC1)NCCCNC(=O)c1ccc(-c2c3nc(c(-c4c(F)cc(S(=O)(=O)[O-])cc4F)c4ccc([nH]4)c(-c4c(F)cc(S(=O)(=O)[O-])cc4F)c4nc(c(-c5c(F)cc(S(=O)(=O)[O-])cc5F)c5ccc2[nH]5)C=C4)C=C3)cc1
REMARK SMILES IDX 21 1 20 2 1 3 2 4 3 6 4 7 14 8 15 9 19 10 16 12 18 13 17 14
REMARK SMILES IDX 5 15 6 16 7 17 8 18 9 19 10 20 13 21 11 22 12 23 22 24 23 25
REMARK SMILES IDX 24 26 25 27 26 29 27 30 28 31 92 32 29 33 91 34 30 35 31 36
REMARK SMILES IDX 32 37 85 38 33 39 90 40 84 41 86 42 34 43 89 44 83 45 82 46
REMARK SMILES IDX 35 48 69 49 48 50 68 51 49 52 52 53 67 54 87 55 50 56 51 57
REMARK SMILES IDX 66 59 88 60 53 61 36 62 37 63 46 64 38 65 39 66 45 67 47 68
REMARK SMILES IDX 40 69 41 70 42 71 43 72 44 73 70 74 71 75 80 76 72 77 73 78
REMARK SMILES IDX 79 79 81 80 74 81 75 82 76 83 77 84 78 85 54 86 55 87 64 88
REMARK SMILES IDX 56 89 57 90 63 91 65 92 58 93 59 94 60 95 61 96 62 97
REMARK H PARENT 20 5 14 11 24 28 86 47 52 58
REMARK Flexibility Score: inf
ROOT
ATOM      1  C   UNL A   1      31.877  26.766  26.883  1.00  0.00     0.117 C 
ENDROOT
BRANCH   1   2
ATOM      2  N   UNL A   1      32.407  25.720  26.031  1.00  0.00    -0.356 N 
ATOM      3  O   UNL A   1      30.947  24.111  26.764  1.00  0.00    -0.275 OA
ATOM      4  C   UNL A   1      31.807  24.480  25.967  1.00  0.00     0.226 C 
ATOM      5  H   UNL A   1      33.209  25.898  25.487  1.00  0.00     0.163 HD
BRANCH   4   6
ATOM      6  C   UNL A   1      32.299  23.582  24.849  1.00  0.00     0.177 C 
BRANCH   6   7
ATOM      7  C   UNL A   1      33.628  23.936  24.149  1.00  0.00     0.304 C 
BRANCH   7   8
ATOM      8  N   UNL A   1      34.620  22.846  23.941  1.00  0.00    -0.319 N 
ATOM      9  C   UNL A   1      34.506  21.735  24.915  1.00  0.00     0.291 C 
ATOM     10  C   UNL A   1      36.034  23.224  23.780  1.00  0.00     0.291 C 
ATOM     11  H   UNL A   1      34.328  22.524  23.017  1.00  0.00     0.348 HD
ATOM     12  C   UNL A   1      35.377  21.862  26.179  1.00  0.00     0.221 C 
ATOM     13  C   UNL A   1      36.871  23.291  25.068  1.00  0.00     0.221 C 
ATOM     14  O   UNL A   1      36.748  22.093  25.842  1.00  0.00    -0.370 OA
ENDBRANCH   7   8
BRANCH   7  15
ATOM     15  C   UNL A   1      33.504  24.877  22.953  1.00  0.00     0.365 C 
ATOM     16  O   UNL A   1      33.486  24.473  21.794  1.00  0.00    -0.245 OA
BRANCH  15  17
ATOM     17  O   UNL A   1      33.295  26.159  23.328  1.00  0.00    -0.459 OA
BRANCH  17  18
ATOM     18  C   UNL A   1      32.744  27.069  22.361  1.00  0.00     0.265 C 
BRANCH  18  19
ATOM     19  C   UNL A   1      31.214  27.093  22.299  1.00  0.00     0.156 C 
ATOM     20  C   UNL A   1      30.621  28.475  22.523  1.00  0.00     0.038 C 
ATOM     21  O   UNL A   1      30.609  26.187  23.245  1.00  0.00    -0.375 OA
ATOM     22  C   UNL A   1      29.283  28.157  23.133  1.00  0.00     0.031 C 
ATOM     23  C   UNL A   1      29.565  26.902  23.929  1.00  0.00     0.161 C 
ENDBRANCH  18  19
ENDBRANCH  17  18
ENDBRANCH  15  17
ENDBRANCH   7  15
ENDBRANCH   6   7
ENDBRANCH   4   6
ENDBRANCH   1   2
BRANCH   1  24
ATOM     24  C   UNL A   1      32.262  28.177  26.454  1.00  0.00     0.042 C 
BRANCH  24  25
ATOM     25  C   UNL A   1      33.618  28.674  26.942  1.00  0.00     0.118 C 
BRANCH  25  26
ATOM     26  N   UNL A   1      33.577  29.965  27.610  1.00  0.00    -0.352 N 
ATOM     27  C   UNL A   1      34.589  30.661  28.230  1.00  0.00     0.251 C 
ATOM     28  H   UNL A   1      32.696  30.404  27.621  1.00  0.00     0.163 HD
ATOM     29  O   UNL A   1      34.355  31.782  28.675  1.00  0.00    -0.269 OA
BRANCH  27  30
ATOM     30  C   UNL A   1      35.925  30.048  28.425  1.00  0.00     0.039 A 
ATOM     31  C   UNL A   1      36.812  30.070  27.345  1.00  0.00     0.014 A 
ATOM     32  C   UNL A   1      36.336  29.504  29.645  1.00  0.00     0.014 A 
ATOM     33  C   UNL A   1      38.131  29.646  27.516  1.00  0.00     0.010 A 
ATOM     34  C   UNL A   1      37.676  29.153  29.836  1.00  0.00     0.010 A 
ATOM     35  C   UNL A   1      38.593  29.240  28.779  1.00  0.00    -0.014 A 
BRANCH  35  36
ATOM     36  C   UNL A   1      40.042  28.978  28.993  1.00  0.00     0.031 A 
ATOM     37  C   UNL A   1      40.655  27.649  28.645  1.00  0.00     0.074 A 
ATOM     38  C   UNL A   1      40.811  29.952  29.525  1.00  0.00     0.049 A 
ATOM     39  N   UNL A   1      41.910  27.280  28.705  1.00  0.00    -0.248 NA
ATOM     40  C   UNL A   1      39.741  26.591  28.191  1.00  0.00     0.031 C 
ATOM     41  C   UNL A   1      40.323  31.261  29.973  1.00  0.00     0.029 A 
ATOM     42  N   UNL A   1      42.161  30.004  29.771  1.00  0.00    -0.354 N 
ATOM     43  C   UNL A   1      41.938  25.953  28.293  1.00  0.00     0.074 A 
ATOM     44  C   UNL A   1      40.566  25.563  28.045  1.00  0.00     0.031 C 
ATOM     45  C   UNL A   1      41.363  31.999  30.393  1.00  0.00     0.029 A 
ATOM     46  C   UNL A   1      42.585  31.210  30.279  1.00  0.00     0.049 A 
ATOM     47  H   UNL A   1      42.768  29.248  29.601  1.00  0.00     0.167 HD
ATOM     48  C   UNL A   1      43.009  25.143  28.113  1.00  0.00     0.037 A 
ATOM     49  C   UNL A   1      43.819  31.641  30.605  1.00  0.00     0.037 A 
ATOM     50  C   UNL A   1      44.375  25.540  28.358  1.00  0.00     0.049 A 
ATOM     51  C   UNL A   1      44.993  30.727  30.385  1.00  0.00     0.074 A 
ATOM     52  C   UNL A   1      45.533  24.808  28.160  1.00  0.00     0.029 A 
ATOM     53  N   UNL A   1      44.765  26.772  28.865  1.00  0.00    -0.354 N 
ATOM     54  N   UNL A   1      45.008  29.501  29.915  1.00  0.00    -0.248 NA
ATOM     55  C   UNL A   1      46.320  31.257  30.725  1.00  0.00     0.031 C 
ATOM     56  C   UNL A   1      46.618  25.578  28.593  1.00  0.00     0.029 A 
ATOM     57  C   UNL A   1      46.143  26.812  29.006  1.00  0.00     0.049 A 
ATOM     58  H   UNL A   1      44.153  27.509  29.091  1.00  0.00     0.167 HD
ATOM     59  C   UNL A   1      46.347  29.125  29.877  1.00  0.00     0.074 A 
ATOM     60  C   UNL A   1      47.111  30.261  30.352  1.00  0.00     0.031 C 
ATOM     61  C   UNL A   1      46.894  27.947  29.485  1.00  0.00     0.037 A 
BRANCH  48  62
ATOM     62  C   UNL A   1      42.751  23.743  27.620  1.00  0.00     0.058 A 
ATOM     63  C   UNL A   1      42.593  22.667  28.509  1.00  0.00     0.135 A 
ATOM     64  C   UNL A   1      42.621  23.478  26.247  1.00  0.00     0.135 A 
ATOM     65  F   UNL A   1      42.720  22.857  29.832  1.00  0.00    -0.206 F 
ATOM     66  C   UNL A   1      42.347  21.375  28.054  1.00  0.00     0.059 A 
ATOM     67  C   UNL A   1      42.346  22.199  25.770  1.00  0.00     0.059 A 
ATOM     68  F   UNL A   1      42.761  24.469  25.351  1.00  0.00    -0.206 F 
ATOM     69  C   UNL A   1      42.226  21.152  26.682  1.00  0.00     0.060 A 
BRANCH  69  70
ATOM     70  S   UNL A   1      41.905  19.469  26.109  1.00  0.00     0.124 S 
ATOM     71  O   UNL A   1      42.760  19.398  24.926  1.00  0.00    -0.237 OA
ATOM     72  O   UNL A   1      42.333  18.665  27.248  1.00  0.00    -0.237 OA
ATOM     73  O   UNL A   1      40.470  19.466  25.845  1.00  0.00    -0.744 OA
ENDBRANCH  69  70
ENDBRANCH  48  62
BRANCH  49  74
ATOM     74  C   UNL A   1      44.012  33.016  31.144  1.00  0.00     0.058 A 
ATOM     75  C   UNL A   1      43.935  33.272  32.522  1.00  0.00     0.135 A 
ATOM     76  C   UNL A   1      44.281  34.100  30.294  1.00  0.00     0.135 A 
ATOM     77  F   UNL A   1      43.674  32.272  33.377  1.00  0.00    -0.206 F 
ATOM     78  C   UNL A   1      44.096  34.555  33.036  1.00  0.00     0.059 A 
ATOM     79  C   UNL A   1      44.476  35.386  30.786  1.00  0.00     0.059 A 
ATOM     80  F   UNL A   1      44.382  33.906  28.969  1.00  0.00    -0.206 F 
ATOM     81  C   UNL A   1      44.370  35.607  32.158  1.00  0.00     0.060 A 
BRANCH  81  82
ATOM     82  S   UNL A   1      44.622  37.260  32.839  1.00  0.00     0.124 S 
ATOM     83  O   UNL A   1      44.100  37.105  34.191  1.00  0.00    -0.237 OA
ATOM     84  O   UNL A   1      46.068  37.421  32.725  1.00  0.00    -0.237 OA
ATOM     85  O   UNL A   1      43.833  38.111  31.952  1.00  0.00    -0.744 OA
ENDBRANCH  81  82
ENDBRANCH  49  74
BRANCH  61  86
ATOM     86  C   UNL A   1      48.397  27.842  29.523  1.00  0.00     0.058 A 
ATOM     87  C   UNL A   1      49.079  27.360  30.651  1.00  0.00     0.135 A 
ATOM     88  C   UNL A   1      49.162  28.223  28.409  1.00  0.00     0.135 A 
ATOM     89  F   UNL A   1      48.396  26.983  31.744  1.00  0.00    -0.206 F 
ATOM     90  C   UNL A   1      50.468  27.304  30.693  1.00  0.00     0.059 A 
ATOM     91  C   UNL A   1      50.552  28.144  28.415  1.00  0.00     0.059 A 
ATOM     92  F   UNL A   1      48.562  28.677  27.298  1.00  0.00    -0.206 F 
ATOM     93  C   UNL A   1      51.197  27.704  29.571  1.00  0.00     0.060 A 
BRANCH  93  94
ATOM     94  S   UNL A   1      53.000  27.637  29.639  1.00  0.00     0.124 S 
ATOM     95  O   UNL A   1      53.337  27.400  28.239  1.00  0.00    -0.237 OA
ATOM     96  O   UNL A   1      53.342  28.956  30.160  1.00  0.00    -0.237 OA
ATOM     97  O   UNL A   1      53.264  26.523  30.545  1.00  0.00    -0.744 OA
ENDBRANCH  93  94
ENDBRANCH  61  86
ENDBRANCH  35  36
ENDBRANCH  27  30
ENDBRANCH  25  26
ENDBRANCH  24  25
ENDBRANCH   1  24
TORSDOF 19
ENDMDL
MODEL 2
REMARK VINA RESULT:     -10.3      2.695      9.025
REMARK SMILES O=C(C[C@H](C(=O)OC[C@@H]1CCCO1)[NH+]1CCOCC1)NCCCNC(=O)c1ccc(-c2c3nc(c(-c4c(F)cc(S(=O)(=O)[O-])cc4F)c4ccc([nH]4)c(-c4c(F)cc(S(=O)(=O)[O-])cc4F)c4nc(c(-c5c(F)cc(S(=O)(=O)[O-])cc5F)c5ccc2[nH]5)C=C4)C=C3)cc1
REMARK SMILES IDX 21 1 20 2 1 3 2 4 3 6 4 7 14 8 15 9 19 10 16 12 18 13 17 14
REMARK SMILES IDX 5 15 6 16 7 17 8 18 9 19 10 20 13 21 11 22 12 23 22 24 23 25
REMARK SMILES IDX 24 26 25 27 26 29 27 30 28 31 92 32 29 33 91 34 30 35 31 36
REMARK SMILES IDX 32 37 85 38 33 39 90 40 84 41 86 42 34 43 89 44 83 45 82 46
REMARK SMILES IDX 35 48 69 49 48 50 68 51 49 52 52 53 67 54 87 55 50 56 51 57
REMARK SMILES IDX 66 59 88 60 53 61 36 62 37 63 46 64 38 65 39 66 45 67 47 68
REMARK SMILES IDX 40 69 41 70 42 71 43 72 44 73 70 74 71 75 80 76 72 77 73 78
REMARK SMILES IDX 79 79 81 80 74 81 75 82 76 83 77 84 78 85 54 86 55 87 64 88
REMARK SMILES IDX 56 89 57 90 63 91 65 92 58 93 59 94 60 95 61 96 62 97
REMARK H PARENT 20 5 14 11 24 28 86 47 52 58
REMARK Flexibility Score: inf
ROOT
ATOM      1  C   UNL A   1      34.395  31.679  27.681  1.00  0.00     0.117 C 
ENDROOT
BRANCH   1   2
ATOM      2  N   UNL A   1      33.764  30.387  27.499  1.00  0.00    -0.356 N 
ATOM      3  O   UNL A   1      31.791  31.241  26.702  1.00  0.00    -0.275 OA
ATOM      4  C   UNL A   1      32.523  30.276  26.908  1.00  0.00     0.226 C 
ATOM      5  H   UNL A   1      34.229  29.574  27.804  1.00  0.00     0.163 HD
BRANCH   4   6
ATOM      6  C   UNL A   1      32.106  28.864  26.544  1.00  0.00     0.177 C 
BRANCH   6   7
ATOM      7  C   UNL A   1      32.087  28.462  25.054  1.00  0.00     0.304 C 
BRANCH   7   8
ATOM      8  N   UNL A   1      33.205  27.624  24.542  1.00  0.00    -0.319 N 
ATOM      9  C   UNL A   1      34.191  28.370  23.725  1.00  0.00     0.291 C 
ATOM     10  C   UNL A   1      32.865  26.355  23.876  1.00  0.00     0.291 C 
ATOM     11  H   UNL A   1      33.631  27.349  25.428  1.00  0.00     0.348 HD
ATOM     12  C   UNL A   1      33.923  28.389  22.208  1.00  0.00     0.221 C 
ATOM     13  C   UNL A   1      32.654  26.421  22.354  1.00  0.00     0.221 C 
ATOM     14  O   UNL A   1      33.750  27.065  21.696  1.00  0.00    -0.370 OA
ENDBRANCH   7   8
BRANCH   7  15
ATOM     15  C   UNL A   1      30.722  28.048  24.508  1.00  0.00     0.365 C 
ATOM     16  O   UNL A   1      30.137  27.039  24.891  1.00  0.00    -0.245 OA
BRANCH  15  17
ATOM     17  O   UNL A   1      30.202  28.973  23.671  1.00  0.00    -0.459 OA
BRANCH  17  18
ATOM     18  C   UNL A   1      29.127  28.576  22.802  1.00  0.00     0.265 C 
BRANCH  18  19
ATOM     19  C   UNL A   1      28.157  29.700  22.425  1.00  0.00     0.156 C 
ATOM     20  C   UNL A   1      28.675  30.599  21.314  1.00  0.00     0.038 C 
ATOM     21  O   UNL A   1      27.812  30.532  23.551  1.00  0.00    -0.375 OA
ATOM     22  C   UNL A   1      28.011  31.913  21.625  1.00  0.00     0.031 C 
ATOM     23  C   UNL A   1      27.940  31.904  23.137  1.00  0.00     0.161 C 
ENDBRANCH  18  19
ENDBRANCH  17  18
ENDBRANCH  15  17
ENDBRANCH   7  15
ENDBRANCH   6   7
ENDBRANCH   4   6
ENDBRANCH   1   2
BRANCH   1  24
ATOM     24  C   UNL A   1      34.412  32.171  29.123  1.00  0.00     0.042 C 
BRANCH  24  25
ATOM     25  C   UNL A   1      35.732  32.007  29.866  1.00  0.00     0.118 C 
BRANCH  25  26
ATOM     26  N   UNL A   1      35.705  31.006  30.920  1.00  0.00    -0.352 N 
ATOM     27  C   UNL A   1      36.718  30.200  31.386  1.00  0.00     0.251 C 
ATOM     28  H   UNL A   1      34.835  30.887  31.364  1.00  0.00     0.163 HD
ATOM     29  O   UNL A   1      36.500  29.464  32.346  1.00  0.00    -0.269 OA
BRANCH  27  30
ATOM     30  C   UNL A   1      38.035  30.162  30.706  1.00  0.00     0.039 A 
ATOM     31  C   UNL A   1      39.179  30.135  31.509  1.00  0.00     0.014 A 
ATOM     32  C   UNL A   1      38.165  30.105  29.315  1.00  0.00     0.014 A 
ATOM     33  C   UNL A   1      40.435  29.947  30.928  1.00  0.00     0.010 A 
ATOM     34  C   UNL A   1      39.413  29.839  28.742  1.00  0.00     0.010 A 
ATOM     35  C   UNL A   1      40.558  29.736  29.545  1.00  0.00    -0.014 A 
BRANCH  35  36
ATOM     36  C   UNL A   1      41.872  29.344  28.966  1.00  0.00     0.031 A 
ATOM     37  C   UNL A   1      42.995  30.335  28.837  1.00  0.00     0.074 A 
ATOM     38  C   UNL A   1      42.043  28.076  28.535  1.00  0.00     0.049 A 
ATOM     39  N   UNL A   1      44.221  30.141  28.419  1.00  0.00    -0.248 NA
ATOM     40  C   UNL A   1      42.702  31.729  29.206  1.00  0.00     0.031 C 
ATOM     41  C   UNL A   1      41.008  27.038  28.536  1.00  0.00     0.029 A 
ATOM     42  N   UNL A   1      43.147  27.438  28.023  1.00  0.00    -0.354 N 
ATOM     43  C   UNL A   1      44.847  31.381  28.479  1.00  0.00     0.074 A 
ATOM     44  C   UNL A   1      43.847  32.333  28.914  1.00  0.00     0.031 C 
ATOM     45  C   UNL A   1      41.538  25.886  28.095  1.00  0.00     0.029 A 
ATOM     46  C   UNL A   1      42.938  26.107  27.746  1.00  0.00     0.049 A 
ATOM     47  H   UNL A   1      44.007  27.891  27.868  1.00  0.00     0.167 HD
ATOM     48  C   UNL A   1      46.140  31.693  28.220  1.00  0.00     0.037 A 
ATOM     49  C   UNL A   1      43.778  25.164  27.276  1.00  0.00     0.037 A 
ATOM     50  C   UNL A   1      47.132  30.738  27.790  1.00  0.00     0.049 A 
ATOM     51  C   UNL A   1      45.211  25.533  27.007  1.00  0.00     0.074 A 
ATOM     52  C   UNL A   1      48.479  30.946  27.549  1.00  0.00     0.029 A 
ATOM     53  N   UNL A   1      46.884  29.398  27.527  1.00  0.00    -0.354 N 
ATOM     54  N   UNL A   1      45.805  26.695  27.149  1.00  0.00    -0.248 NA
ATOM     55  C   UNL A   1      46.093  24.461  26.529  1.00  0.00     0.031 C 
ATOM     56  C   UNL A   1      49.034  29.745  27.093  1.00  0.00     0.029 A 
ATOM     57  C   UNL A   1      48.047  28.773  27.106  1.00  0.00     0.049 A 
ATOM     58  H   UNL A   1      46.009  28.956  27.626  1.00  0.00     0.167 HD
ATOM     59  C   UNL A   1      47.136  26.486  26.804  1.00  0.00     0.074 A 
ATOM     60  C   UNL A   1      47.262  25.083  26.467  1.00  0.00     0.031 C 
ATOM     61  C   UNL A   1      48.160  27.375  26.769  1.00  0.00     0.037 A 
BRANCH  48  62
ATOM     62  C   UNL A   1      46.561  33.128  28.400  1.00  0.00     0.058 A 
ATOM     63  C   UNL A   1      46.491  34.054  27.345  1.00  0.00     0.135 A 
ATOM     64  C   UNL A   1      47.003  33.595  29.648  1.00  0.00     0.135 A 
ATOM     65  F   UNL A   1      46.088  33.662  26.126  1.00  0.00    -0.206 F 
ATOM     66  C   UNL A   1      46.874  35.381  27.514  1.00  0.00     0.059 A 
ATOM     67  C   UNL A   1      47.364  34.925  29.847  1.00  0.00     0.059 A 
ATOM     68  F   UNL A   1      47.090  32.755  30.692  1.00  0.00    -0.206 F 
ATOM     69  C   UNL A   1      47.309  35.807  28.769  1.00  0.00     0.060 A 
BRANCH  69  70
ATOM     70  S   UNL A   1      47.801  37.533  28.970  1.00  0.00     0.124 S 
ATOM     71  O   UNL A   1      47.290  37.826  30.307  1.00  0.00    -0.237 OA
ATOM     72  O   UNL A   1      49.253  37.459  28.849  1.00  0.00    -0.237 OA
ATOM     73  O   UNL A   1      47.116  38.212  27.875  1.00  0.00    -0.744 OA
ENDBRANCH  69  70
ENDBRANCH  48  62
BRANCH  49  74
ATOM     74  C   UNL A   1      43.293  23.773  27.061  1.00  0.00     0.058 A 
ATOM     75  C   UNL A   1      42.989  23.301  25.774  1.00  0.00     0.135 A 
ATOM     76  C   UNL A   1      43.129  22.885  28.136  1.00  0.00     0.135 A 
ATOM     77  F   UNL A   1      43.124  24.112  24.713  1.00  0.00    -0.206 F 
ATOM     78  C   UNL A   1      42.520  22.008  25.562  1.00  0.00     0.059 A 
ATOM     79  C   UNL A   1      42.690  21.579  27.946  1.00  0.00     0.059 A 
ATOM     80  F   UNL A   1      43.423  23.280  29.384  1.00  0.00    -0.206 F 
ATOM     81  C   UNL A   1      42.377  21.153  26.657  1.00  0.00     0.060 A 
BRANCH  81  82
ATOM     82  S   UNL A   1      41.809  19.463  26.367  1.00  0.00     0.124 S 
ATOM     83  O   UNL A   1      42.283  18.783  27.565  1.00  0.00    -0.237 OA
ATOM     84  O   UNL A   1      40.364  19.640  26.259  1.00  0.00    -0.237 OA
ATOM     85  O   UNL A   1      42.481  19.094  25.123  1.00  0.00    -0.744 OA
ENDBRANCH  81  82
ENDBRANCH  49  74
BRANCH  61  86
ATOM     86  C   UNL A   1      49.517  26.844  26.382  1.00  0.00     0.058 A 
ATOM     87  C   UNL A   1      50.004  26.937  25.069  1.00  0.00     0.135 A 
ATOM     88  C   UNL A   1      50.342  26.240  27.345  1.00  0.00     0.135 A 
ATOM     89  F   UNL A   1      49.256  27.502  24.109  1.00  0.00    -0.206 F 
ATOM     90  C   UNL A   1      51.240  26.407  24.713  1.00  0.00     0.059 A 
ATOM     91  C   UNL A   1      51.597  25.735  27.019  1.00  0.00     0.059 A 
ATOM     92  F   UNL A   1      49.934  26.138  28.620  1.00  0.00    -0.206 F 
ATOM     93  C   UNL A   1      52.027  25.803  25.694  1.00  0.00     0.060 A 
BRANCH  93  94
ATOM     94  S   UNL A   1      53.626  25.111  25.219  1.00  0.00     0.124 S 
ATOM     95  O   UNL A   1      53.818  25.698  23.897  1.00  0.00    -0.237 OA
ATOM     96  O   UNL A   1      54.507  25.610  26.269  1.00  0.00    -0.237 OA
ATOM     97  O   UNL A   1      53.392  23.670  25.237  1.00  0.00    -0.744 OA
ENDBRANCH  93  94
ENDBRANCH  61  86
ENDBRANCH  35  36
ENDBRANCH  27  30
ENDBRANCH  25  26
ENDBRANCH  24  25
ENDBRANCH   1  24
TORSDOF 19
ENDMDL
MODEL 3
REMARK VINA RESULT:     -10.2      4.971      9.876
REMARK SMILES O=C(C[C@H](C(=O)OC[C@@H]1CCCO1)[NH+]1CCOCC1)NCCCNC(=O)c1ccc(-c2c3nc(c(-c4c(F)cc(S(=O)(=O)[O-])cc4F)c4ccc([nH]4)c(-c4c(F)cc(S(=O)(=O)[O-])cc4F)c4nc(c(-c5c(F)cc(S(=O)(=O)[O-])cc5F)c5ccc2[nH]5)C=C4)C=C3)cc1
REMARK SMILES IDX 21 1 20 2 1 3 2 4 3 6 4 7 14 8 15 9 19 10 16 12 18 13 17 14
REMARK SMILES IDX 5 15 6 16 7 17 8 18 9 19 10 20 13 21 11 22 12 23 22 24 23 25
REMARK SMILES IDX 24 26 25 27 26 29 27 30 28 31 92 32 29 33 91 34 30 35 31 36
REMARK SMILES IDX 32 37 85 38 33 39 90 40 84 41 86 42 34 43 89 44 83 45 82 46
REMARK SMILES IDX 35 48 69 49 48 50 68 51 49 52 52 53 67 54 87 55 50 56 51 57
REMARK SMILES IDX 66 59 88 60 53 61 36 62 37 63 46 64 38 65 39 66 45 67 47 68
REMARK SMILES IDX 40 69 41 70 42 71 43 72 44 73 70 74 71 75 80 76 72 77 73 78
REMARK SMILES IDX 79 79 81 80 74 81 75 82 76 83 77 84 78 85 54 86 55 87 64 88
REMARK SMILES IDX 56 89 57 90 63 91 65 92 58 93 59 94 60 95 61 96 62 97
REMARK H PARENT 20 5 14 11 24 28 86 47 52 58
REMARK Flexibility Score: inf
ROOT
ATOM      1  C   UNL A   1      31.839  30.378  26.382  1.00  0.00     0.117 C 
ENDROOT
BRANCH   1   2
ATOM      2  N   UNL A   1      32.000  29.022  25.897  1.00  0.00    -0.356 N 
ATOM      3  O   UNL A   1      31.028  28.041  27.726  1.00  0.00    -0.275 OA
ATOM      4  C   UNL A   1      31.468  27.951  26.582  1.00  0.00     0.226 C 
ATOM      5  H   UNL A   1      32.499  28.862  25.062  1.00  0.00     0.163 HD
BRANCH   4   6
ATOM      6  C   UNL A   1      31.481  26.633  25.832  1.00  0.00     0.177 C 
BRANCH   6   7
ATOM      7  C   UNL A   1      31.091  26.631  24.339  1.00  0.00     0.304 C 
BRANCH   7   8
ATOM      8  N   UNL A   1      31.439  25.433  23.528  1.00  0.00    -0.319 N 
ATOM      9  C   UNL A   1      32.535  24.617  24.100  1.00  0.00     0.291 C 
ATOM     10  C   UNL A   1      31.658  25.619  22.084  1.00  0.00     0.291 C 
ATOM     11  H   UNL A   1      30.558  24.920  23.595  1.00  0.00     0.348 HD
ATOM     12  C   UNL A   1      33.955  24.971  23.616  1.00  0.00     0.221 C 
ATOM     13  C   UNL A   1      33.102  25.924  21.648  1.00  0.00     0.221 C 
ATOM     14  O   UNL A   1      34.028  24.975  22.187  1.00  0.00    -0.370 OA
ENDBRANCH   7   8
BRANCH   7  15
ATOM     15  C   UNL A   1      29.706  27.192  24.025  1.00  0.00     0.365 C 
ATOM     16  O   UNL A   1      28.683  26.521  24.128  1.00  0.00    -0.245 OA
BRANCH  15  17
ATOM     17  O   UNL A   1      29.738  28.515  23.751  1.00  0.00    -0.459 OA
BRANCH  17  18
ATOM     18  C   UNL A   1      29.309  28.950  22.449  1.00  0.00     0.265 C 
BRANCH  18  19
ATOM     19  C   UNL A   1      28.368  30.159  22.453  1.00  0.00     0.156 C 
ATOM     20  C   UNL A   1      28.385  30.943  21.151  1.00  0.00     0.038 C 
ATOM     21  O   UNL A   1      28.650  31.074  23.531  1.00  0.00    -0.375 OA
ATOM     22  C   UNL A   1      28.047  32.336  21.608  1.00  0.00     0.031 C 
ATOM     23  C   UNL A   1      28.681  32.403  22.980  1.00  0.00     0.161 C 
ENDBRANCH  18  19
ENDBRANCH  17  18
ENDBRANCH  15  17
ENDBRANCH   7  15
ENDBRANCH   6   7
ENDBRANCH   4   6
ENDBRANCH   1   2
BRANCH   1  24
ATOM     24  C   UNL A   1      32.829  30.775  27.470  1.00  0.00     0.042 C 
BRANCH  24  25
ATOM     25  C   UNL A   1      33.622  32.051  27.215  1.00  0.00     0.118 C 
BRANCH  25  26
ATOM     26  N   UNL A   1      32.960  33.265  27.665  1.00  0.00    -0.352 N 
ATOM     27  C   UNL A   1      33.360  34.178  28.614  1.00  0.00     0.251 C 
ATOM     28  H   UNL A   1      32.100  33.463  27.228  1.00  0.00     0.163 HD
ATOM     29  O   UNL A   1      32.681  35.186  28.794  1.00  0.00    -0.269 OA
BRANCH  27  30
ATOM     30  C   UNL A   1      34.553  33.925  29.458  1.00  0.00     0.039 A 
ATOM     31  C   UNL A   1      34.366  33.218  30.649  1.00  0.00     0.014 A 
ATOM     32  C   UNL A   1      35.840  34.321  29.084  1.00  0.00     0.014 A 
ATOM     33  C   UNL A   1      35.470  32.821  31.406  1.00  0.00     0.010 A 
ATOM     34  C   UNL A   1      36.948  33.857  29.800  1.00  0.00     0.010 A 
ATOM     35  C   UNL A   1      36.775  33.083  30.957  1.00  0.00    -0.014 A 
BRANCH  35  36
ATOM     36  C   UNL A   1      37.940  32.488  31.667  1.00  0.00     0.031 A 
ATOM     37  C   UNL A   1      38.383  33.003  33.009  1.00  0.00     0.074 A 
ATOM     38  C   UNL A   1      38.616  31.477  31.080  1.00  0.00     0.049 A 
ATOM     39  N   UNL A   1      39.332  32.554  33.790  1.00  0.00    -0.248 NA
ATOM     40  C   UNL A   1      37.685  34.187  33.533  1.00  0.00     0.031 C 
ATOM     41  C   UNL A   1      38.332  30.935  29.748  1.00  0.00     0.029 A 
ATOM     42  N   UNL A   1      39.670  30.718  31.525  1.00  0.00    -0.354 N 
ATOM     43  C   UNL A   1      39.344  33.393  34.899  1.00  0.00     0.074 A 
ATOM     44  C   UNL A   1      38.348  34.415  34.659  1.00  0.00     0.031 C 
ATOM     45  C   UNL A   1      39.157  29.904  29.505  1.00  0.00     0.029 A 
ATOM     46  C   UNL A   1      40.051  29.731  30.646  1.00  0.00     0.049 A 
ATOM     47  H   UNL A   1      40.112  30.866  32.392  1.00  0.00     0.167 HD
ATOM     48  C   UNL A   1      40.096  33.304  36.022  1.00  0.00     0.037 A 
ATOM     49  C   UNL A   1      41.004  28.784  30.747  1.00  0.00     0.037 A 
ATOM     50  C   UNL A   1      41.084  32.279  36.256  1.00  0.00     0.049 A 
ATOM     51  C   UNL A   1      41.818  28.699  32.009  1.00  0.00     0.074 A 
ATOM     52  C   UNL A   1      41.863  32.075  37.382  1.00  0.00     0.029 A 
ATOM     53  N   UNL A   1      41.437  31.293  35.346  1.00  0.00    -0.354 N 
ATOM     54  N   UNL A   1      41.756  29.452  33.083  1.00  0.00    -0.248 NA
ATOM     55  C   UNL A   1      42.819  27.628  32.082  1.00  0.00     0.031 C 
ATOM     56  C   UNL A   1      42.721  30.998  37.133  1.00  0.00     0.029 A 
ATOM     57  C   UNL A   1      42.436  30.492  35.876  1.00  0.00     0.049 A 
ATOM     58  H   UNL A   1      41.036  31.179  34.454  1.00  0.00     0.167 HD
ATOM     59  C   UNL A   1      42.692  28.928  33.968  1.00  0.00     0.074 A 
ATOM     60  C   UNL A   1      43.288  27.782  33.312  1.00  0.00     0.031 C 
ATOM     61  C   UNL A   1      43.027  29.356  35.211  1.00  0.00     0.037 A 
BRANCH  48  62
ATOM     62  C   UNL A   1      39.877  34.341  37.093  1.00  0.00     0.058 A 
ATOM     63  C   UNL A   1      39.098  34.073  38.231  1.00  0.00     0.135 A 
ATOM     64  C   UNL A   1      40.483  35.604  37.002  1.00  0.00     0.135 A 
ATOM     65  F   UNL A   1      38.483  32.887  38.365  1.00  0.00    -0.206 F 
ATOM     66  C   UNL A   1      38.901  35.029  39.222  1.00  0.00     0.059 A 
ATOM     67  C   UNL A   1      40.325  36.567  37.996  1.00  0.00     0.059 A 
ATOM     68  F   UNL A   1      41.240  35.916  35.938  1.00  0.00    -0.206 F 
ATOM     69  C   UNL A   1      39.520  36.273  39.096  1.00  0.00     0.060 A 
BRANCH  69  70
ATOM     70  S   UNL A   1      39.255  37.502  40.393  1.00  0.00     0.124 S 
ATOM     71  O   UNL A   1      38.898  36.654  41.527  1.00  0.00    -0.237 OA
ATOM     72  O   UNL A   1      40.559  38.153  40.475  1.00  0.00    -0.237 OA
ATOM     73  O   UNL A   1      38.175  38.328  39.865  1.00  0.00    -0.744 OA
ENDBRANCH  69  70
ENDBRANCH  48  62
BRANCH  49  74
ATOM     74  C   UNL A   1      41.218  27.818  29.633  1.00  0.00     0.058 A 
ATOM     75  C   UNL A   1      42.350  27.903  28.808  1.00  0.00     0.135 A 
ATOM     76  C   UNL A   1      40.299  26.790  29.375  1.00  0.00     0.135 A 
ATOM     77  F   UNL A   1      43.257  28.872  29.009  1.00  0.00    -0.206 F 
ATOM     78  C   UNL A   1      42.553  27.017  27.754  1.00  0.00     0.059 A 
ATOM     79  C   UNL A   1      40.495  25.874  28.347  1.00  0.00     0.059 A 
ATOM     80  F   UNL A   1      39.209  26.653  30.146  1.00  0.00    -0.206 F 
ATOM     81  C   UNL A   1      41.619  26.002  27.533  1.00  0.00     0.060 A 
BRANCH  81  82
ATOM     82  S   UNL A   1      41.913  24.831  26.191  1.00  0.00     0.124 S 
ATOM     83  O   UNL A   1      40.958  23.776  26.506  1.00  0.00    -0.237 OA
ATOM     84  O   UNL A   1      41.613  25.636  25.011  1.00  0.00    -0.237 OA
ATOM     85  O   UNL A   1      43.321  24.479  26.357  1.00  0.00    -0.744 OA
ENDBRANCH  81  82
ENDBRANCH  49  74
BRANCH  61  86
ATOM     86  C   UNL A   1      44.066  28.558  35.955  1.00  0.00     0.058 A 
ATOM     87  C   UNL A   1      43.720  27.486  36.793  1.00  0.00     0.135 A 
ATOM     88  C   UNL A   1      45.429  28.868  35.820  1.00  0.00     0.135 A 
ATOM     89  F   UNL A   1      42.431  27.147  36.960  1.00  0.00    -0.206 F 
ATOM     90  C   UNL A   1      44.682  26.780  37.508  1.00  0.00     0.059 A 
ATOM     91  C   UNL A   1      46.412  28.154  36.499  1.00  0.00     0.059 A 
ATOM     92  F   UNL A   1      45.819  29.874  35.021  1.00  0.00    -0.206 F 
ATOM     93  C   UNL A   1      46.027  27.126  37.358  1.00  0.00     0.060 A 
BRANCH  93  94
ATOM     94  S   UNL A   1      47.267  26.210  38.298  1.00  0.00     0.124 S 
ATOM     95  O   UNL A   1      46.442  25.543  39.299  1.00  0.00    -0.237 OA
ATOM     96  O   UNL A   1      47.854  25.345  37.280  1.00  0.00    -0.237 OA
ATOM     97  O   UNL A   1      48.149  27.257  38.807  1.00  0.00    -0.744 OA
ENDBRANCH  93  94
ENDBRANCH  61  86
ENDBRANCH  35  36
ENDBRANCH  27  30
ENDBRANCH  25  26
ENDBRANCH  24  25
ENDBRANCH   1  24
TORSDOF 19
ENDMDL
