MODEL 1
REMARK VINA RESULT:     -11.3      0.000      0.000
REMARK SMILES CC[NH2+][C@]1(C(=O)NCCCNC(=O)c2ccc(-c3c4nc(c(-c5c(F)cc(S(=O)(=O)[O-])cc5F)c5ccc([nH]5)c(-c5c(F)cc(S(=O)(=O)[O-])cc5F)c5nc(c(-c6c(F)cc(S(=O)(=O)[O-])cc6F)c6ccc3[nH]6)C=C5)C=C4)cc2)CC[C@@H]([N@@H+](C)CC(C)(C)C)C1
REMARK SMILES IDX 9 1 8 2 7 3 5 4 6 5 4 7 80 8 90 9 81 10 82 11 3 12 2 15 1 16
REMARK SMILES IDX 83 17 84 18 85 20 86 21 87 22 88 23 89 24 10 25 11 26 12 27
REMARK SMILES IDX 13 29 14 30 15 31 79 32 16 33 78 34 17 35 18 36 19 37 72 38
REMARK SMILES IDX 20 39 77 40 71 41 73 42 21 43 76 44 70 45 69 46 22 48 56 49
REMARK SMILES IDX 35 50 55 51 36 52 39 53 54 54 74 55 37 56 38 57 53 59 75 60
REMARK SMILES IDX 40 61 23 62 24 63 33 64 25 65 26 66 32 67 34 68 27 69 28 70
REMARK SMILES IDX 29 71 30 72 31 73 57 74 58 75 67 76 59 77 60 78 66 79 68 80
REMARK SMILES IDX 61 81 62 82 63 83 64 84 65 85 41 86 42 87 51 88 43 89 44 90
REMARK SMILES IDX 50 91 52 92 45 93 46 94 47 95 48 96 49 97
REMARK H PARENT 7 6 3 13 3 14 83 19 11 28 73 47 39 58
REMARK Flexibility Score: inf
ROOT
ATOM      1  C   UNL A   1      34.337  31.064  27.464  1.00  0.00     0.042 C 
ENDROOT
BRANCH   1   2
ATOM      2  C   UNL A   1      34.218  29.551  27.257  1.00  0.00     0.118 C 
BRANCH   2   3
ATOM      3  N   UNL A   1      32.966  29.016  27.761  1.00  0.00    -0.351 N 
ATOM      4  C   UNL A   1      32.071  28.124  27.244  1.00  0.00     0.281 C 
ATOM      5  O   UNL A   1      31.108  27.859  27.976  1.00  0.00    -0.268 OA
ATOM      6  H   UNL A   1      32.714  29.364  28.647  1.00  0.00     0.163 HD
BRANCH   4   7
ATOM      7  C   UNL A   1      32.246  27.431  25.849  1.00  0.00     0.181 C 
ATOM      8  C   UNL A   1      33.671  26.815  25.824  1.00  0.00     0.085 C 
ATOM      9  C   UNL A   1      31.384  26.178  25.634  1.00  0.00     0.144 C 
ATOM     10  C   UNL A   1      33.627  25.683  24.803  1.00  0.00     0.072 C 
ATOM     11  C   UNL A   1      32.198  25.150  24.843  1.00  0.00     0.190 C 
BRANCH   7  12
ATOM     12  N   UNL A   1      32.235  28.435  24.762  1.00  0.00    -0.334 N 
ATOM     13  H   UNL A   1      33.094  28.978  24.839  1.00  0.00     0.347 HD
ATOM     14  H   UNL A   1      32.139  27.891  23.905  1.00  0.00     0.347 HD
BRANCH  12  15
ATOM     15  C   UNL A   1      31.128  29.373  24.734  1.00  0.00     0.257 C 
ATOM     16  C   UNL A   1      30.340  29.135  23.451  1.00  0.00     0.071 C 
ENDBRANCH  12  15
ENDBRANCH   7  12
BRANCH  11  17
ATOM     17  N   UNL A   1      32.015  23.768  25.261  1.00  0.00    -0.334 N 
ATOM     18  C   UNL A   1      32.008  23.526  26.690  1.00  0.00     0.332 C 
ATOM     19  H   UNL A   1      32.763  23.684  24.574  1.00  0.00     0.348 HD
BRANCH  17  20
ATOM     20  C   UNL A   1      31.668  22.645  24.397  1.00  0.00     0.268 C 
BRANCH  20  21
ATOM     21  C   UNL A   1      32.714  21.986  23.440  1.00  0.00     0.011 C 
ATOM     22  C   UNL A   1      33.225  22.953  22.365  1.00  0.00     0.017 C 
ATOM     23  C   UNL A   1      33.942  21.588  24.291  1.00  0.00     0.017 C 
ATOM     24  C   UNL A   1      32.166  20.726  22.758  1.00  0.00     0.017 C 
ENDBRANCH  20  21
ENDBRANCH  17  20
ENDBRANCH  11  17
ENDBRANCH   4   7
ENDBRANCH   2   3
ENDBRANCH   1   2
BRANCH   1  25
ATOM     25  C   UNL A   1      35.597  31.492  28.212  1.00  0.00     0.118 C 
BRANCH  25  26
ATOM     26  N   UNL A   1      35.477  31.277  29.648  1.00  0.00    -0.352 N 
ATOM     27  C   UNL A   1      36.286  30.604  30.527  1.00  0.00     0.251 C 
ATOM     28  H   UNL A   1      34.679  31.683  30.056  1.00  0.00     0.163 HD
ATOM     29  O   UNL A   1      35.856  30.361  31.653  1.00  0.00    -0.269 OA
BRANCH  27  30
ATOM     30  C   UNL A   1      37.651  30.168  30.150  1.00  0.00     0.039 A 
ATOM     31  C   UNL A   1      37.967  30.071  28.790  1.00  0.00     0.014 A 
ATOM     32  C   UNL A   1      38.593  29.783  31.108  1.00  0.00     0.014 A 
ATOM     33  C   UNL A   1      39.232  29.633  28.395  1.00  0.00     0.010 A 
ATOM     34  C   UNL A   1      39.879  29.412  30.715  1.00  0.00     0.010 A 
ATOM     35  C   UNL A   1      40.210  29.325  29.355  1.00  0.00    -0.014 A 
BRANCH  35  36
ATOM     36  C   UNL A   1      41.582  28.928  28.946  1.00  0.00     0.031 A 
ATOM     37  C   UNL A   1      42.692  29.943  28.891  1.00  0.00     0.074 A 
ATOM     38  C   UNL A   1      41.811  27.659  28.558  1.00  0.00     0.049 A 
ATOM     39  N   UNL A   1      43.938  29.784  28.525  1.00  0.00    -0.248 NA
ATOM     40  C   UNL A   1      42.347  31.321  29.269  1.00  0.00     0.031 C 
ATOM     41  C   UNL A   1      40.799  26.601  28.501  1.00  0.00     0.029 A 
ATOM     42  N   UNL A   1      42.958  27.045  28.123  1.00  0.00    -0.354 N 
ATOM     43  C   UNL A   1      44.522  31.043  28.607  1.00  0.00     0.074 A 
ATOM     44  C   UNL A   1      43.479  31.962  29.014  1.00  0.00     0.031 C 
ATOM     45  C   UNL A   1      41.373  25.468  28.069  1.00  0.00     0.029 A 
ATOM     46  C   UNL A   1      42.783  25.725  27.789  1.00  0.00     0.049 A 
ATOM     47  H   UNL A   1      43.825  27.508  28.056  1.00  0.00     0.167 HD
ATOM     48  C   UNL A   1      45.811  31.397  28.383  1.00  0.00     0.037 A 
ATOM     49  C   UNL A   1      43.655  24.819  27.304  1.00  0.00     0.037 A 
ATOM     50  C   UNL A   1      46.844  30.471  27.996  1.00  0.00     0.049 A 
ATOM     51  C   UNL A   1      45.086  25.220  27.096  1.00  0.00     0.074 A 
ATOM     52  C   UNL A   1      48.198  30.709  27.830  1.00  0.00     0.029 A 
ATOM     53  N   UNL A   1      46.638  29.130  27.703  1.00  0.00    -0.354 N 
ATOM     54  N   UNL A   1      45.645  26.395  27.270  1.00  0.00    -0.248 NA
ATOM     55  C   UNL A   1      46.010  24.174  26.640  1.00  0.00     0.031 C 
ATOM     56  C   UNL A   1      48.801  29.524  27.390  1.00  0.00     0.029 A 
ATOM     57  C   UNL A   1      47.833  28.533  27.329  1.00  0.00     0.049 A 
ATOM     58  H   UNL A   1      45.770  28.669  27.755  1.00  0.00     0.167 HD
ATOM     59  C   UNL A   1      46.988  26.229  26.953  1.00  0.00     0.074 A 
ATOM     60  C   UNL A   1      47.161  24.833  26.597  1.00  0.00     0.031 C 
ATOM     61  C   UNL A   1      47.985  27.148  26.957  1.00  0.00     0.037 A 
BRANCH  48  62
ATOM     62  C   UNL A   1      46.164  32.854  28.535  1.00  0.00     0.058 A 
ATOM     63  C   UNL A   1      46.106  33.748  27.453  1.00  0.00     0.135 A 
ATOM     64  C   UNL A   1      46.576  33.362  29.778  1.00  0.00     0.135 A 
ATOM     65  F   UNL A   1      45.728  33.316  26.238  1.00  0.00    -0.206 F 
ATOM     66  C   UNL A   1      46.496  35.077  27.583  1.00  0.00     0.059 A 
ATOM     67  C   UNL A   1      46.942  34.696  29.939  1.00  0.00     0.059 A 
ATOM     68  F   UNL A   1      46.643  32.556  30.849  1.00  0.00    -0.206 F 
ATOM     69  C   UNL A   1      46.924  35.539  28.828  1.00  0.00     0.060 A 
BRANCH  69  70
ATOM     70  S   UNL A   1      47.470  37.253  28.973  1.00  0.00     0.124 S 
ATOM     71  O   UNL A   1      47.526  37.418  30.422  1.00  0.00    -0.237 OA
ATOM     72  O   UNL A   1      48.758  37.233  28.289  1.00  0.00    -0.237 OA
ATOM     73  O   UNL A   1      46.417  38.004  28.296  1.00  0.00    -0.744 OA
ENDBRANCH  69  70
ENDBRANCH  48  62
BRANCH  49  74
ATOM     74  C   UNL A   1      43.179  23.441  27.016  1.00  0.00     0.058 A 
ATOM     75  C   UNL A   1      43.028  22.991  25.697  1.00  0.00     0.135 A 
ATOM     76  C   UNL A   1      42.951  22.523  28.053  1.00  0.00     0.135 A 
ATOM     77  F   UNL A   1      43.229  23.834  24.673  1.00  0.00    -0.206 F 
ATOM     78  C   UNL A   1      42.680  21.675  25.414  1.00  0.00     0.059 A 
ATOM     79  C   UNL A   1      42.624  21.197  27.795  1.00  0.00     0.059 A 
ATOM     80  F   UNL A   1      43.101  22.903  29.333  1.00  0.00    -0.206 F 
ATOM     81  C   UNL A   1      42.492  20.781  26.471  1.00  0.00     0.060 A 
BRANCH  81  82
ATOM     82  S   UNL A   1      42.153  19.048  26.090  1.00  0.00     0.124 S 
ATOM     83  O   UNL A   1      42.537  18.392  27.336  1.00  0.00    -0.237 OA
ATOM     84  O   UNL A   1      40.723  19.073  25.798  1.00  0.00    -0.237 OA
ATOM     85  O   UNL A   1      43.014  18.781  24.943  1.00  0.00    -0.744 OA
ENDBRANCH  81  82
ENDBRANCH  49  74
BRANCH  61  86
ATOM     86  C   UNL A   1      49.357  26.672  26.562  1.00  0.00     0.058 A 
ATOM     87  C   UNL A   1      50.242  26.120  27.501  1.00  0.00     0.135 A 
ATOM     88  C   UNL A   1      49.777  26.734  25.223  1.00  0.00     0.135 A 
ATOM     89  F   UNL A   1      49.893  26.044  28.796  1.00  0.00    -0.206 F 
ATOM     90  C   UNL A   1      51.507  25.674  27.133  1.00  0.00     0.059 A 
ATOM     91  C   UNL A   1      51.027  26.270  24.828  1.00  0.00     0.059 A 
ATOM     92  F   UNL A   1      48.965  27.243  24.283  1.00  0.00    -0.206 F 
ATOM     93  C   UNL A   1      51.891  25.753  25.793  1.00  0.00     0.060 A 
BRANCH  93  94
ATOM     94  S   UNL A   1      53.528  25.152  25.323  1.00  0.00     0.124 S 
ATOM     95  O   UNL A   1      54.336  25.584  26.459  1.00  0.00    -0.237 OA
ATOM     96  O   UNL A   1      53.312  23.713  25.208  1.00  0.00    -0.237 OA
ATOM     97  O   UNL A   1      53.794  25.842  24.064  1.00  0.00    -0.744 OA
ENDBRANCH  93  94
ENDBRANCH  61  86
ENDBRANCH  35  36
ENDBRANCH  27  30
ENDBRANCH  25  26
ENDBRANCH   1  25
TORSDOF 18
ENDMDL
MODEL 2
REMARK VINA RESULT:     -11.1      6.485     12.074
REMARK SMILES CC[NH2+][C@]1(C(=O)NCCCNC(=O)c2ccc(-c3c4nc(c(-c5c(F)cc(S(=O)(=O)[O-])cc5F)c5ccc([nH]5)c(-c5c(F)cc(S(=O)(=O)[O-])cc5F)c5nc(c(-c6c(F)cc(S(=O)(=O)[O-])cc6F)c6ccc3[nH]6)C=C5)C=C4)cc2)CC[C@@H]([N@@H+](C)CC(C)(C)C)C1
REMARK SMILES IDX 9 1 8 2 7 3 5 4 6 5 4 7 80 8 90 9 81 10 82 11 3 12 2 15 1 16
REMARK SMILES IDX 83 17 84 18 85 20 86 21 87 22 88 23 89 24 10 25 11 26 12 27
REMARK SMILES IDX 13 29 14 30 15 31 79 32 16 33 78 34 17 35 18 36 19 37 72 38
REMARK SMILES IDX 20 39 77 40 71 41 73 42 21 43 76 44 70 45 69 46 22 48 56 49
REMARK SMILES IDX 35 50 55 51 36 52 39 53 54 54 74 55 37 56 38 57 53 59 75 60
REMARK SMILES IDX 40 61 23 62 24 63 33 64 25 65 26 66 32 67 34 68 27 69 28 70
REMARK SMILES IDX 29 71 30 72 31 73 57 74 58 75 67 76 59 77 60 78 66 79 68 80
REMARK SMILES IDX 61 81 62 82 63 83 64 84 65 85 41 86 42 87 51 88 43 89 44 90
REMARK SMILES IDX 50 91 52 92 45 93 46 94 47 95 48 96 49 97
REMARK H PARENT 7 6 3 13 3 14 83 19 11 28 73 47 39 58
REMARK Flexibility Score: inf
ROOT
ATOM      1  C   UNL A   1      37.940  22.764  26.068  1.00  0.00     0.042 C 
ENDROOT
BRANCH   1   2
ATOM      2  C   UNL A   1      36.502  23.040  25.622  1.00  0.00     0.118 C 
BRANCH   2   3
ATOM      3  N   UNL A   1      35.561  23.016  26.726  1.00  0.00    -0.351 N 
ATOM      4  C   UNL A   1      34.226  23.290  26.805  1.00  0.00     0.281 C 
ATOM      5  O   UNL A   1      33.719  23.127  27.923  1.00  0.00    -0.268 OA
ATOM      6  H   UNL A   1      35.963  22.752  27.585  1.00  0.00     0.163 HD
BRANCH   4   7
ATOM      7  C   UNL A   1      33.358  23.733  25.577  1.00  0.00     0.181 C 
ATOM      8  C   UNL A   1      32.005  24.246  26.140  1.00  0.00     0.085 C 
ATOM      9  C   UNL A   1      33.861  24.984  24.843  1.00  0.00     0.144 C 
ATOM     10  C   UNL A   1      31.440  25.195  25.089  1.00  0.00     0.072 C 
ATOM     11  C   UNL A   1      32.653  25.816  24.402  1.00  0.00     0.190 C 
BRANCH   7  12
ATOM     12  N   UNL A   1      33.013  22.566  24.734  1.00  0.00    -0.334 N 
ATOM     13  H   UNL A   1      33.332  21.730  25.224  1.00  0.00     0.347 HD
ATOM     14  H   UNL A   1      32.004  22.632  24.597  1.00  0.00     0.347 HD
BRANCH  12  15
ATOM     15  C   UNL A   1      33.569  22.525  23.394  1.00  0.00     0.257 C 
ATOM     16  C   UNL A   1      32.411  22.502  22.403  1.00  0.00     0.071 C 
ENDBRANCH  12  15
ENDBRANCH   7  12
BRANCH  11  17
ATOM     17  N   UNL A   1      32.821  27.256  24.523  1.00  0.00    -0.334 N 
ATOM     18  C   UNL A   1      33.853  27.852  23.697  1.00  0.00     0.332 C 
ATOM     19  H   UNL A   1      32.836  26.959  25.498  1.00  0.00     0.348 HD
BRANCH  17  20
ATOM     20  C   UNL A   1      31.948  28.168  25.254  1.00  0.00     0.268 C 
BRANCH  20  21
ATOM     21  C   UNL A   1      32.324  28.714  26.670  1.00  0.00     0.011 C 
ATOM     22  C   UNL A   1      31.991  30.200  26.840  1.00  0.00     0.017 C 
ATOM     23  C   UNL A   1      31.467  27.951  27.707  1.00  0.00     0.017 C 
ATOM     24  C   UNL A   1      33.805  28.491  27.005  1.00  0.00     0.017 C 
ENDBRANCH  20  21
ENDBRANCH  17  20
ENDBRANCH  11  17
ENDBRANCH   4   7
ENDBRANCH   2   3
ENDBRANCH   1   2
BRANCH   1  25
ATOM     25  C   UNL A   1      38.695  24.006  26.539  1.00  0.00     0.118 C 
BRANCH  25  26
ATOM     26  N   UNL A   1      40.093  23.980  26.133  1.00  0.00    -0.352 N 
ATOM     27  C   UNL A   1      41.128  24.832  26.418  1.00  0.00     0.251 C 
ATOM     28  H   UNL A   1      40.336  23.222  25.554  1.00  0.00     0.163 HD
ATOM     29  O   UNL A   1      42.168  24.732  25.771  1.00  0.00    -0.269 OA
BRANCH  27  30
ATOM     30  C   UNL A   1      41.018  25.861  27.479  1.00  0.00     0.039 A 
ATOM     31  C   UNL A   1      40.012  25.720  28.442  1.00  0.00     0.014 A 
ATOM     32  C   UNL A   1      41.836  26.994  27.494  1.00  0.00     0.014 A 
ATOM     33  C   UNL A   1      39.856  26.685  29.438  1.00  0.00     0.010 A 
ATOM     34  C   UNL A   1      41.724  27.923  28.530  1.00  0.00     0.010 A 
ATOM     35  C   UNL A   1      40.728  27.783  29.507  1.00  0.00    -0.014 A 
BRANCH  35  36
ATOM     36  C   UNL A   1      40.618  28.778  30.605  1.00  0.00     0.031 A 
ATOM     37  C   UNL A   1      41.490  28.675  31.827  1.00  0.00     0.074 A 
ATOM     38  C   UNL A   1      39.678  29.740  30.528  1.00  0.00     0.049 A 
ATOM     39  N   UNL A   1      41.506  29.430  32.895  1.00  0.00    -0.248 NA
ATOM     40  C   UNL A   1      42.447  27.560  31.865  1.00  0.00     0.031 C 
ATOM     41  C   UNL A   1      38.727  29.901  29.426  1.00  0.00     0.029 A 
ATOM     42  N   UNL A   1      39.356  30.752  31.396  1.00  0.00    -0.354 N 
ATOM     43  C   UNL A   1      42.457  28.872  33.742  1.00  0.00     0.074 A 
ATOM     44  C   UNL A   1      42.962  27.687  33.080  1.00  0.00     0.031 C 
ATOM     45  C   UNL A   1      37.937  30.955  29.678  1.00  0.00     0.029 A 
ATOM     46  C   UNL A   1      38.304  31.526  30.971  1.00  0.00     0.049 A 
ATOM     47  H   UNL A   1      39.834  30.909  32.242  1.00  0.00     0.167 HD
ATOM     48  C   UNL A   1      42.884  29.315  34.950  1.00  0.00     0.037 A 
ATOM     49  C   UNL A   1      37.694  32.575  31.556  1.00  0.00     0.037 A 
ATOM     50  C   UNL A   1      42.388  30.506  35.591  1.00  0.00     0.049 A 
ATOM     51  C   UNL A   1      38.204  33.075  32.877  1.00  0.00     0.074 A 
ATOM     52  C   UNL A   1      42.814  31.091  36.771  1.00  0.00     0.029 A 
ATOM     53  N   UNL A   1      41.346  31.288  35.112  1.00  0.00    -0.354 N 
ATOM     54  N   UNL A   1      39.170  32.591  33.622  1.00  0.00    -0.248 NA
ATOM     55  C   UNL A   1      37.552  34.268  33.433  1.00  0.00     0.031 C 
ATOM     56  C   UNL A   1      41.998  32.199  37.030  1.00  0.00     0.029 A 
ATOM     57  C   UNL A   1      41.094  32.335  35.987  1.00  0.00     0.049 A 
ATOM     58  H   UNL A   1      40.857  31.124  34.274  1.00  0.00     0.167 HD
ATOM     59  C   UNL A   1      39.250  33.424  34.732  1.00  0.00     0.074 A 
ATOM     60  C   UNL A   1      38.247  34.456  34.548  1.00  0.00     0.031 C 
ATOM     61  C   UNL A   1      40.078  33.342  35.802  1.00  0.00     0.037 A 
BRANCH  48  62
ATOM     62  C   UNL A   1      43.929  28.492  35.658  1.00  0.00     0.058 A 
ATOM     63  C   UNL A   1      43.582  27.491  36.582  1.00  0.00     0.135 A 
ATOM     64  C   UNL A   1      45.294  28.713  35.419  1.00  0.00     0.135 A 
ATOM     65  F   UNL A   1      42.292  27.241  36.858  1.00  0.00    -0.206 F 
ATOM     66  C   UNL A   1      44.551  26.780  37.283  1.00  0.00     0.059 A 
ATOM     67  C   UNL A   1      46.281  27.992  36.086  1.00  0.00     0.059 A 
ATOM     68  F   UNL A   1      45.684  29.651  34.541  1.00  0.00    -0.206 F 
ATOM     69  C   UNL A   1      45.898  27.046  37.037  1.00  0.00     0.060 A 
BRANCH  69  70
ATOM     70  S   UNL A   1      47.144  26.148  37.985  1.00  0.00     0.124 S 
ATOM     71  O   UNL A   1      47.978  27.240  38.476  1.00  0.00    -0.237 OA
ATOM     72  O   UNL A   1      46.341  25.463  38.992  1.00  0.00    -0.237 OA
ATOM     73  O   UNL A   1      47.769  25.280  36.990  1.00  0.00    -0.744 OA
ENDBRANCH  69  70
ENDBRANCH  48  62
BRANCH  49  74
ATOM     74  C   UNL A   1      36.552  33.225  30.864  1.00  0.00     0.058 A 
ATOM     75  C   UNL A   1      35.245  33.100  31.353  1.00  0.00     0.135 A 
ATOM     76  C   UNL A   1      36.759  34.054  29.750  1.00  0.00     0.135 A 
ATOM     77  F   UNL A   1      34.997  32.314  32.412  1.00  0.00    -0.206 F 
ATOM     78  C   UNL A   1      34.182  33.784  30.772  1.00  0.00     0.059 A 
ATOM     79  C   UNL A   1      35.716  34.765  29.165  1.00  0.00     0.059 A 
ATOM     80  F   UNL A   1      37.996  34.220  29.255  1.00  0.00    -0.206 F 
ATOM     81  C   UNL A   1      34.430  34.625  29.685  1.00  0.00     0.060 A 
BRANCH  81  82
ATOM     82  S   UNL A   1      33.064  35.596  29.010  1.00  0.00     0.124 S 
ATOM     83  O   UNL A   1      33.775  36.681  28.344  1.00  0.00    -0.237 OA
ATOM     84  O   UNL A   1      32.407  34.631  28.133  1.00  0.00    -0.237 OA
ATOM     85  O   UNL A   1      32.302  35.972  30.196  1.00  0.00    -0.744 OA
ENDBRANCH  81  82
ENDBRANCH  49  74
BRANCH  61  86
ATOM     86  C   UNL A   1      39.934  34.400  36.863  1.00  0.00     0.058 A 
ATOM     87  C   UNL A   1      39.103  34.213  37.979  1.00  0.00     0.135 A 
ATOM     88  C   UNL A   1      40.663  35.598  36.781  1.00  0.00     0.135 A 
ATOM     89  F   UNL A   1      38.380  33.088  38.102  1.00  0.00    -0.206 F 
ATOM     90  C   UNL A   1      38.977  35.188  38.962  1.00  0.00     0.059 A 
ATOM     91  C   UNL A   1      40.572  36.576  37.766  1.00  0.00     0.059 A 
ATOM     92  F   UNL A   1      41.479  35.822  35.739  1.00  0.00    -0.206 F 
ATOM     93  C   UNL A   1      39.715  36.367  38.847  1.00  0.00     0.060 A 
BRANCH  93  94
ATOM     94  S   UNL A   1      39.559  37.618  40.140  1.00  0.00     0.124 S 
ATOM     95  O   UNL A   1      38.194  38.088  39.929  1.00  0.00    -0.237 OA
ATOM     96  O   UNL A   1      39.782  36.842  41.356  1.00  0.00    -0.237 OA
ATOM     97  O   UNL A   1      40.612  38.576  39.814  1.00  0.00    -0.744 OA
ENDBRANCH  93  94
ENDBRANCH  61  86
ENDBRANCH  35  36
ENDBRANCH  27  30
ENDBRANCH  25  26
ENDBRANCH   1  25
TORSDOF 18
ENDMDL
MODEL 3
REMARK VINA RESULT:     -11.1      6.497     12.027
REMARK SMILES CC[NH2+][C@]1(C(=O)NCCCNC(=O)c2ccc(-c3c4nc(c(-c5c(F)cc(S(=O)(=O)[O-])cc5F)c5ccc([nH]5)c(-c5c(F)cc(S(=O)(=O)[O-])cc5F)c5nc(c(-c6c(F)cc(S(=O)(=O)[O-])cc6F)c6ccc3[nH]6)C=C5)C=C4)cc2)CC[C@@H]([N@@H+](C)CC(C)(C)C)C1
REMARK SMILES IDX 9 1 8 2 7 3 5 4 6 5 4 7 80 8 90 9 81 10 82 11 3 12 2 15 1 16
REMARK SMILES IDX 83 17 84 18 85 20 86 21 87 22 88 23 89 24 10 25 11 26 12 27
REMARK SMILES IDX 13 29 14 30 15 31 79 32 16 33 78 34 17 35 18 36 19 37 72 38
REMARK SMILES IDX 20 39 77 40 71 41 73 42 21 43 76 44 70 45 69 46 22 48 56 49
REMARK SMILES IDX 35 50 55 51 36 52 39 53 54 54 74 55 37 56 38 57 53 59 75 60
REMARK SMILES IDX 40 61 23 62 24 63 33 64 25 65 26 66 32 67 34 68 27 69 28 70
REMARK SMILES IDX 29 71 30 72 31 73 57 74 58 75 67 76 59 77 60 78 66 79 68 80
REMARK SMILES IDX 61 81 62 82 63 83 64 84 65 85 41 86 42 87 51 88 43 89 44 90
REMARK SMILES IDX 50 91 52 92 45 93 46 94 47 95 48 96 49 97
REMARK H PARENT 7 6 3 13 3 14 83 19 11 28 73 47 39 58
REMARK Flexibility Score: inf
ROOT
ATOM      1  C   UNL A   1      38.593  23.959  26.220  1.00  0.00     0.042 C 
ENDROOT
BRANCH   1   2
ATOM      2  C   UNL A   1      37.543  22.919  25.818  1.00  0.00     0.118 C 
BRANCH   2   3
ATOM      3  N   UNL A   1      37.323  22.873  24.384  1.00  0.00    -0.351 N 
ATOM      4  C   UNL A   1      36.205  23.033  23.618  1.00  0.00     0.281 C 
ATOM      5  O   UNL A   1      36.389  22.966  22.395  1.00  0.00    -0.268 OA
ATOM      6  H   UNL A   1      38.139  22.693  23.863  1.00  0.00     0.163 HD
BRANCH   4   7
ATOM      7  C   UNL A   1      34.783  23.329  24.209  1.00  0.00     0.181 C 
ATOM      8  C   UNL A   1      34.923  24.578  25.121  1.00  0.00     0.085 C 
ATOM      9  C   UNL A   1      33.747  23.826  23.191  1.00  0.00     0.144 C 
ATOM     10  C   UNL A   1      33.536  25.206  25.196  1.00  0.00     0.072 C 
ATOM     11  C   UNL A   1      32.868  24.887  23.861  1.00  0.00     0.190 C 
BRANCH   7  12
ATOM     12  N   UNL A   1      34.354  22.234  25.108  1.00  0.00    -0.334 N 
ATOM     13  H   UNL A   1      34.796  22.391  26.014  1.00  0.00     0.347 HD
ATOM     14  H   UNL A   1      33.336  22.279  25.108  1.00  0.00     0.347 HD
BRANCH  12  15
ATOM     15  C   UNL A   1      34.667  20.877  24.701  1.00  0.00     0.257 C 
ATOM     16  C   UNL A   1      33.416  20.027  24.889  1.00  0.00     0.071 C 
ENDBRANCH  12  15
ENDBRANCH   7  12
BRANCH  11  17
ATOM     17  N   UNL A   1      32.507  26.012  23.011  1.00  0.00    -0.334 N 
ATOM     18  C   UNL A   1      33.580  26.596  22.232  1.00  0.00     0.332 C 
ATOM     19  H   UNL A   1      32.108  26.286  23.909  1.00  0.00     0.348 HD
BRANCH  17  20
ATOM     20  C   UNL A   1      31.155  26.489  22.742  1.00  0.00     0.268 C 
BRANCH  20  21
ATOM     21  C   UNL A   1      30.261  27.113  23.862  1.00  0.00     0.011 C 
ATOM     22  C   UNL A   1      29.781  26.076  24.883  1.00  0.00     0.017 C 
ATOM     23  C   UNL A   1      31.129  28.127  24.642  1.00  0.00     0.017 C 
ATOM     24  C   UNL A   1      29.044  27.853  23.290  1.00  0.00     0.017 C 
ENDBRANCH  20  21
ENDBRANCH  17  20
ENDBRANCH  11  17
ENDBRANCH   4   7
ENDBRANCH   2   3
ENDBRANCH   1   2
BRANCH   1  25
ATOM     25  C   UNL A   1      39.899  23.357  26.733  1.00  0.00     0.118 C 
BRANCH  25  26
ATOM     26  N   UNL A   1      41.054  23.856  25.999  1.00  0.00    -0.352 N 
ATOM     27  C   UNL A   1      41.749  25.033  26.109  1.00  0.00     0.251 C 
ATOM     28  H   UNL A   1      41.392  23.246  25.305  1.00  0.00     0.163 HD
ATOM     29  O   UNL A   1      42.546  25.330  25.222  1.00  0.00    -0.269 OA
BRANCH  27  30
ATOM     30  C   UNL A   1      41.559  25.943  27.263  1.00  0.00     0.039 A 
ATOM     31  C   UNL A   1      42.104  27.231  27.191  1.00  0.00     0.014 A 
ATOM     32  C   UNL A   1      40.924  25.525  28.435  1.00  0.00     0.014 A 
ATOM     33  C   UNL A   1      41.974  28.106  28.271  1.00  0.00     0.010 A 
ATOM     34  C   UNL A   1      40.734  26.423  29.486  1.00  0.00     0.010 A 
ATOM     35  C   UNL A   1      41.264  27.720  29.419  1.00  0.00    -0.014 A 
BRANCH  35  36
ATOM     36  C   UNL A   1      41.057  28.667  30.543  1.00  0.00     0.031 A 
ATOM     37  C   UNL A   1      41.885  28.570  31.796  1.00  0.00     0.074 A 
ATOM     38  C   UNL A   1      40.068  29.579  30.461  1.00  0.00     0.049 A 
ATOM     39  N   UNL A   1      41.818  29.287  32.888  1.00  0.00    -0.248 NA
ATOM     40  C   UNL A   1      42.901  27.508  31.835  1.00  0.00     0.031 C 
ATOM     41  C   UNL A   1      39.152  29.726  29.327  1.00  0.00     0.029 A 
ATOM     42  N   UNL A   1      39.656  30.541  31.347  1.00  0.00    -0.354 N 
ATOM     43  C   UNL A   1      42.766  28.752  33.753  1.00  0.00     0.074 A 
ATOM     44  C   UNL A   1      43.361  27.620  33.073  1.00  0.00     0.031 C 
ATOM     45  C   UNL A   1      38.295  30.726  29.582  1.00  0.00     0.029 A 
ATOM     46  C   UNL A   1      38.580  31.271  30.906  1.00  0.00     0.049 A 
ATOM     47  H   UNL A   1      40.091  30.694  32.217  1.00  0.00     0.167 HD
ATOM     48  C   UNL A   1      43.120  29.175  34.991  1.00  0.00     0.037 A 
ATOM     49  C   UNL A   1      37.890  32.264  31.501  1.00  0.00     0.037 A 
ATOM     50  C   UNL A   1      42.534  30.314  35.651  1.00  0.00     0.049 A 
ATOM     51  C   UNL A   1      38.319  32.743  32.857  1.00  0.00     0.074 A 
ATOM     52  C   UNL A   1      42.881  30.880  36.865  1.00  0.00     0.029 A 
ATOM     53  N   UNL A   1      41.469  31.054  35.156  1.00  0.00    -0.354 N 
ATOM     54  N   UNL A   1      39.282  32.287  33.624  1.00  0.00    -0.248 NA
ATOM     55  C   UNL A   1      37.581  33.879  33.425  1.00  0.00     0.031 C 
ATOM     56  C   UNL A   1      41.995  31.932  37.128  1.00  0.00     0.029 A 
ATOM     57  C   UNL A   1      41.126  32.054  36.055  1.00  0.00     0.049 A 
ATOM     58  H   UNL A   1      41.023  30.894  34.294  1.00  0.00     0.167 HD
ATOM     59  C   UNL A   1      39.273  33.084  34.763  1.00  0.00     0.074 A 
ATOM     60  C   UNL A   1      38.221  34.065  34.573  1.00  0.00     0.031 C 
ATOM     61  C   UNL A   1      40.063  33.010  35.862  1.00  0.00     0.037 A 
BRANCH  48  62
ATOM     62  C   UNL A   1      44.182  28.386  35.714  1.00  0.00     0.058 A 
ATOM     63  C   UNL A   1      45.550  28.656  35.543  1.00  0.00     0.135 A 
ATOM     64  C   UNL A   1      43.828  27.341  36.581  1.00  0.00     0.135 A 
ATOM     65  F   UNL A   1      45.949  29.639  34.718  1.00  0.00    -0.206 F 
ATOM     66  C   UNL A   1      46.528  27.883  36.160  1.00  0.00     0.059 A 
ATOM     67  C   UNL A   1      44.789  26.574  37.234  1.00  0.00     0.059 A 
ATOM     68  F   UNL A   1      42.536  27.043  36.789  1.00  0.00    -0.206 F 
ATOM     69  C   UNL A   1      46.137  26.836  36.995  1.00  0.00     0.060 A 
BRANCH  69  70
ATOM     70  S   UNL A   1      47.416  25.812  37.755  1.00  0.00     0.124 S 
ATOM     71  O   UNL A   1      47.455  26.355  39.109  1.00  0.00    -0.237 OA
ATOM     72  O   UNL A   1      46.862  24.469  37.628  1.00  0.00    -0.237 OA
ATOM     73  O   UNL A   1      48.596  26.080  36.937  1.00  0.00    -0.744 OA
ENDBRANCH  69  70
ENDBRANCH  48  62
BRANCH  49  74
ATOM     74  C   UNL A   1      36.740  32.874  30.785  1.00  0.00     0.058 A 
ATOM     75  C   UNL A   1      35.420  32.566  31.143  1.00  0.00     0.135 A 
ATOM     76  C   UNL A   1      36.941  33.841  29.787  1.00  0.00     0.135 A 
ATOM     77  F   UNL A   1      35.179  31.643  32.086  1.00  0.00    -0.206 F 
ATOM     78  C   UNL A   1      34.338  33.205  30.548  1.00  0.00     0.059 A 
ATOM     79  C   UNL A   1      35.875  34.510  29.193  1.00  0.00     0.059 A 
ATOM     80  F   UNL A   1      38.187  34.183  29.423  1.00  0.00    -0.206 F 
ATOM     81  C   UNL A   1      34.576  34.186  29.582  1.00  0.00     0.060 A 
BRANCH  81  82
ATOM     82  S   UNL A   1      33.169  35.089  28.898  1.00  0.00     0.124 S 
ATOM     83  O   UNL A   1      32.379  35.354  30.095  1.00  0.00    -0.237 OA
ATOM     84  O   UNL A   1      33.816  36.248  28.291  1.00  0.00    -0.237 OA
ATOM     85  O   UNL A   1      32.589  34.141  27.953  1.00  0.00    -0.744 OA
ENDBRANCH  81  82
ENDBRANCH  49  74
BRANCH  61  86
ATOM     86  C   UNL A   1      39.818  34.020  36.950  1.00  0.00     0.058 A 
ATOM     87  C   UNL A   1      39.110  33.688  38.115  1.00  0.00     0.135 A 
ATOM     88  C   UNL A   1      40.331  35.324  36.843  1.00  0.00     0.135 A 
ATOM     89  F   UNL A   1      38.593  32.458  38.265  1.00  0.00    -0.206 F 
ATOM     90  C   UNL A   1      38.892  34.621  39.124  1.00  0.00     0.059 A 
ATOM     91  C   UNL A   1      40.148  36.265  37.851  1.00  0.00     0.059 A 
ATOM     92  F   UNL A   1      41.025  35.690  35.754  1.00  0.00    -0.206 F 
ATOM     93  C   UNL A   1      39.415  35.908  38.983  1.00  0.00     0.060 A 
BRANCH  93  94
ATOM     94  S   UNL A   1      39.143  37.105  40.307  1.00  0.00     0.124 S 
ATOM     95  O   UNL A   1      40.461  37.154  40.932  1.00  0.00    -0.237 OA
ATOM     96  O   UNL A   1      38.744  38.301  39.573  1.00  0.00    -0.237 OA
ATOM     97  O   UNL A   1      38.090  36.489  41.110  1.00  0.00    -0.744 OA
ENDBRANCH  93  94
ENDBRANCH  61  86
ENDBRANCH  35  36
ENDBRANCH  27  30
ENDBRANCH  25  26
ENDBRANCH   1  25
TORSDOF 18
ENDMDL
